data_PCOD8132931
_publ_section_title
;
Structure prediction by ZEFSAII (Michael W. Deem and Ramdas Pophale) SiO2 
 PCOD8132931
Probable space group: C 2/C
;
_chemical_formula_sum "Si O2"
_cell_formula_units_Z 48
_cell_length_a 5.181799
_cell_length_b 14.579809
_cell_length_c 27.009779
_cell_angle_alpha 90.000000
_cell_angle_beta 84.495461
_cell_angle_gamma 90.000000
_cell_volume 2031.169150
_symmetry_space_group_name_H-M "C 2/C"
_symmetry_group_IT_number 15
_symmetry_cell_setting 'monoclinic'
loop_
_space_group_symop_operation_xyz
x,y,z
-x,y,1/2-z
-x,-y,-z
x,-y,1/2+z
1/2+x,1/2+y,z
1/2-x,1/2+y,1/2-z
1/2-x,1/2-y,-z
1/2+x,1/2-y,1/2+z
loop_
_atom_site_type_symbol
_atom_site_label
_atom_site_fract_x
_atom_site_fract_y
_atom_site_fract_z
Si Si1 0.179548 0.268192 0.944711
Si Si2 0.302790 0.734586 0.108911
Si Si3 0.661701 0.515414 0.391089
Si Si4 0.260876 0.734323 0.221539
Si Si5 0.767586 0.015677 0.221539
Si Si6 0.125741 0.481808 0.944711
O O1 0.419140 0.224083 0.910835
O O2 0.157408 0.375000 0.935183
O O3 0.913046 0.226617 0.926444
O O4 0.250000 0.250000 0.000000
O O5 0.321900 0.625000 0.106201
O O6 0.255416 0.769821 0.165289
O O7 0.670705 0.480179 0.334711
O O8 0.410510 0.476617 0.426444
O O9 0.920025 0.474083 0.410835
O O10 0.500000 0.772362 0.250000
O O11 0.263952 0.625000 0.222096
O O12 0.000000 0.773693 0.250000
O O13 0.500000 0.977638 0.250000
O O14 0.000000 0.976307 0.250000
O O15 0.000000 0.500000 0.000000
#
# Coordination Sequence:
#
# PCOD8132931 Si02
#       6
#     8   8   8   8   8   8
#     4  10  19  31  46  64  89 120 152 187 225 267
#     4   9  17  28  42  62  89 119 148 181 224 269
#     4   9  17  28  42  62  89 119 148 181 224 269
#     4   9  15  23  37  58  85 115 143 172 213 268
#     4   9  15  23  37  58  85 115 143 172 213 268
#     4  10  19  31  46  64  89 120 152 187 225 267
#
# _framework density 23.631708
#
# number of rings (size 3 to 8) (size 9 to 14) (size 15 to 20)
#    0.000    2.667    0.000    3.000    0.000    8.000 
#    0.000    0.000    0.000    0.000    0.000    0.000 
#    0.000   20.000    0.000    0.000    0.000    0.000 
#
# Total GULP energy -297364.828487 kJ/mol
# GULP energy per Si atom -12390.201187 kJ/mol
# Density = 2.357792 g / cm^3
# Si number density = 23.631708 Si / 1000 Ang^3
#
#
#
# Elastic Constant Matrix: (Units=GPa)
#
#
# Indices 1 2 3 4 5 6 
#
# 1 249.6021 2.2598 115.5907 0.0000 -0.1786 0.0000
# 2 2.2598 9.0746 1.2749 0.0000 -0.0210 0.0000
# 3 115.5907 1.2749 220.9123 0.0000 -0.4333 0.0000
# 4 0.0000 0.0000 0.0000 15.3978 0.0000 0.4663
# 5 -0.1786 -0.0210 -0.4333 0.0000 62.8146 0.0000
# 6 0.0000 0.0000 0.0000 0.4663 0.0000 -6.4620
#
#
#
# Elastic Compliance Matrix: (Units=1/GPa)
#
#
# Indices 1 2 3 4 5 6 
#
# 1 0.005295 -0.000930 -0.002765 0.000000 -0.000004 0.000000
# 2 -0.000930 0.110450 -0.000151 0.000000 0.000033 0.000000
# 3 -0.002765 -0.000151 0.005975 0.000000 0.000033 0.000000
# 4 0.000000 0.000000 0.000000 0.064803 0.000000 0.004676
# 5 -0.000004 0.000033 0.000033 0.000000 0.015920 0.000000
# 6 0.000000 0.000000 0.000000 0.004676 0.000000 -0.154413
#
#
# Mechanical properties :
#
#
# Convention : Reuss Voigt Hill
#
# Bulk Modulus (GPa) = 8.76978 79.75999 44.26488
# Shear Modulus (GPa) = 53.34340 38.38097 45.86219
#
# Velocity S-wave (km/s) = 4.75624 4.03442 4.41012
# Velocity P-wave (km/s) = 5.82078 7.45162 6.68611
#
# Compressibility (1/GPa) = 0.11402797
#
# Stress axis : x y z
#
# Youngs Moduli (GPa) = 188.84031 9.05383 167.37457
#
# Poissons Ratio (x) = 0.00842 0.46287
# Poissons Ratio (y) = 0.17565 0.02522
# Poissons Ratio (z) = 0.52223 0.00136
#
# Static dielectric constant tensor:
#      x y z
#    x 5.436320 0.000000 -0.024620 
#    y 0.000000 3.541780 0.000000 
#    z -0.024620 0.000000 4.281770 
# 
# 
# High freq. dielectric constant tensor:
#      x y z
#    x 1.956560 0.000000 -0.000280 
#    y 0.000000 1.885930 0.000000 
#    z -0.000280 0.000000 1.943490 
# 
# From -- ./inp_files/227710.got.cif
#   From: 2010.06.25/outbox.cif.g09.slc.cpg/sg15_114_cif.got.tgz:227710.got - 2010.06.28 07:06:18.
