data_PCOD8132478
_publ_section_title
;
Structure prediction by ZEFSAII (Michael W. Deem and Ramdas Pophale) SiO2 
 PCOD8132478
Probable space group: C 2/C
;
_chemical_formula_sum "Si O2"
_cell_formula_units_Z 64
_cell_length_a 11.768051
_cell_length_b 14.052543
_cell_length_c 18.150516
_cell_angle_alpha 90.000000
_cell_angle_beta 100.324110
_cell_angle_gamma 90.000000
_cell_volume 2952.973475
_symmetry_space_group_name_H-M "C 2/C"
_symmetry_group_IT_number 15
_symmetry_cell_setting 'monoclinic'
loop_
_space_group_symop_operation_xyz
x,y,z
-x,y,1/2-z
-x,-y,-z
x,-y,1/2+z
1/2+x,1/2+y,z
1/2-x,1/2+y,1/2-z
1/2-x,1/2-y,-z
1/2+x,1/2-y,1/2+z
loop_
_atom_site_type_symbol
_atom_site_label
_atom_site_fract_x
_atom_site_fract_y
_atom_site_fract_z
Si Si1 0.076433 0.618266 0.877054
Si Si2 0.840756 0.535055 0.875633
Si Si3 0.726192 0.360823 0.492621
Si Si4 0.355001 0.841123 0.951383
Si Si5 0.210315 0.002829 0.120079
Si Si6 0.099860 0.827503 0.883017
Si Si7 0.031547 0.856197 0.031378
Si Si8 0.123907 0.989967 0.767500
O O1 0.175904 0.559063 0.847560
O O2 0.069196 0.725316 0.845509
O O3 0.951225 0.574454 0.845717
O O4 0.100351 0.616535 0.967033
O O5 0.817986 0.590104 0.949154
O O6 0.866299 0.423335 0.891273
O O7 0.726605 0.553018 0.812837
O O8 0.750000 0.250000 0.500000
O O9 0.746430 0.407785 0.574643
O O10 0.594735 0.377600 0.449515
O O11 0.220225 0.815216 0.941453
O O12 0.426627 0.747700 0.935959
O O13 0.117356 0.938167 0.066969
O O14 0.158413 0.043257 0.189798
O O15 0.101332 0.898339 0.815459
O O16 0.014992 0.859286 0.939906
O O17 0.000000 0.045814 0.750000
#
# Coordination Sequence:
#
# PCOD8132478 Si02
#       8
#     8   8   8   8   8   8   8   8
#     4  11  20  38  70  99 129 161 221 267 320 390
#     4  11  24  42  66  94 135 170 209 270 336 381
#     4  12  25  40  62 100 133 170 215 274 327 383
#     4  10  18  37  67 101 124 163 208 271 330 378
#     4  12  23  41  66  95 127 174 216 268 321 386
#     4  10  19  40  65  99 123 171 218 269 319 383
#     4  11  20  38  70  97 124 165 223 265 321 390
#     4  11  25  45  64  87 131 173 215 265 322 385
#
# _framework density 21.673069999999999
#
# number of rings (size 3 to 8) (size 9 to 14) (size 15 to 20)
#    0.000    1.000    3.750    5.250    1.750    0.500 
#    4.500    0.000    0.000    0.000    0.000    0.000 
#    0.000    0.000    0.000    0.000    0.000    0.000 
#
# Total GULP energy -396846.757290 kJ/mol
# GULP energy per Si atom -12401.461165 kJ/mol
# Density = 2.162374 g / cm^3
# Si number density = 21.673070 Si / 1000 Ang^3
#
#
#
# Elastic Constant Matrix: (Units=GPa)
#
#
# Indices 1 2 3 4 5 6 
#
# 1 116.6624 22.0583 22.6544 0.0000 -3.8189 0.0000
# 2 22.0583 110.0554 32.3663 0.0000 -8.0472 0.0000
# 3 22.6544 32.3663 82.1709 0.0000 -3.0051 0.0000
# 4 0.0000 0.0000 0.0000 16.8107 0.0000 0.6378
# 5 -3.8189 -8.0472 -3.0051 0.0000 29.9199 0.0000
# 6 0.0000 0.0000 0.0000 0.6378 0.0000 31.9269
#
#
#
# Elastic Compliance Matrix: (Units=1/GPa)
#
#
# Indices 1 2 3 4 5 6 
#
# 1 0.009217 -0.001198 -0.002045 0.000000 0.000649 0.000000
# 2 -0.001198 0.010602 -0.003761 0.000000 0.002321 0.000000
# 3 -0.002045 -0.003761 0.014221 0.000000 0.000156 0.000000
# 4 0.000000 0.000000 0.000000 0.059531 0.000000 -0.001189
# 5 0.000649 0.002321 0.000156 0.000000 0.034145 0.000000
# 6 0.000000 0.000000 0.000000 -0.001189 0.000000 0.031345
#
#
# Mechanical properties :
#
#
# Convention : Reuss Voigt Hill
#
# Bulk Modulus (GPa) = 49.92347 51.44963 50.68655
# Shear Modulus (GPa) = 27.81683 31.18547 29.50115
#
# Velocity S-wave (km/s) = 3.58645 3.79740 3.69343
# Velocity P-wave (km/s) = 6.34310 6.55878 6.45184
#
# Compressibility (1/GPa) = 0.02003066
#
# Stress axis : x y z
#
# Youngs Moduli (GPa) = 108.49835 94.31962 70.32003
#
# Poissons Ratio (x) = 0.11303 0.14382
# Poissons Ratio (y) = 0.13002 0.26446
# Poissons Ratio (z) = 0.22191 0.35472
#
# Static dielectric constant tensor:
#      x y z
#    x 4.276140 0.000000 0.062610 
#    y 0.000000 3.914110 0.000000 
#    z 0.062610 0.000000 3.618510 
# 
# 
# High freq. dielectric constant tensor:
#      x y z
#    x 1.868880 0.000000 0.003280 
#    y 0.000000 1.848150 0.000000 
#    z 0.003280 0.000000 1.824750 
# 
# From -- ./inp_files/198327.got.cif
#   From: 2010.06.25/outbox.cif.g09.slc.cpg/sg15_100_cif.got.tgz:198327.got - 2010.06.28 07:06:18.
