data_PCOD8132482
_publ_section_title
;
Structure prediction by ZEFSAII (Michael W. Deem and Ramdas Pophale) SiO2 
 PCOD8132482
Probable space group: C 2/C
;
_chemical_formula_sum "Si O2"
_cell_formula_units_Z 56
_cell_length_a 12.112050
_cell_length_b 7.562948
_cell_length_c 27.489864
_cell_angle_alpha 90.000000
_cell_angle_beta 82.778888
_cell_angle_gamma 90.000000
_cell_volume 2498.175816
_symmetry_space_group_name_H-M "C 2/C"
_symmetry_group_IT_number 15
_symmetry_cell_setting 'monoclinic'
loop_
_space_group_symop_operation_xyz
x,y,z
-x,y,1/2-z
-x,-y,-z
x,-y,1/2+z
1/2+x,1/2+y,z
1/2-x,1/2+y,1/2-z
1/2-x,1/2-y,-z
1/2+x,1/2-y,1/2+z
loop_
_atom_site_type_symbol
_atom_site_label
_atom_site_fract_x
_atom_site_fract_y
_atom_site_fract_z
Si Si1 0.423267 0.442048 0.110857
Si Si2 0.262823 0.027545 0.306586
Si Si3 0.388945 0.226977 0.734076
Si Si4 0.956685 0.654803 0.624511
Si Si5 0.703526 0.438610 0.968137
Si Si6 0.385186 0.155398 0.384693
Si Si7 0.614984 0.922633 0.473407
O O1 0.327030 0.417933 0.156509
O O2 0.477752 0.637466 0.112361
O O3 0.365650 0.419327 0.060344
O O4 0.516780 0.295866 0.113557
O O5 0.201587 0.119945 0.264935
O O6 0.324132 0.177033 0.335999
O O7 0.355818 0.907321 0.277889
O O8 0.500000 0.314488 0.750000
O O9 0.401114 0.133459 0.680555
O O10 0.880055 0.568924 0.585798
O O11 0.071644 0.547797 0.616675
O O12 0.791968 0.327890 0.930586
O O13 0.619882 0.283768 0.990779
O O14 0.776456 0.522987 0.008586
O O15 0.500000 0.000000 0.500000
#
# Coordination Sequence:
#
# PCOD8132482 Si02
#       7
#     8   8   8   8   8   8   8
#     4   9  22  41  63  96 128 166 211 258 311 377
#     4  10  24  40  63  94 122 166 210 254 325 373
#     4  11  23  41  61  90 126 158 209 263 306 381
#     4  10  21  39  64  89 127 166 203 262 314 361
#     4   9  20  38  63  94 128 167 211 259 313 377
#     4  11  20  42  68  90 128 165 210 265 311 377
#     4  10  18  37  67  88 130 171 202 267 319 360
#
# _framework density 22.416357000000001
#
# number of rings (size 3 to 8) (size 9 to 14) (size 15 to 20)
#    0.000    2.000    2.857    0.857    2.000    2.286 
#    0.000   14.286    0.000    0.000    0.000    0.000 
#    0.000    0.000    0.000    0.000    0.000    0.000 
#
# Total GULP energy -346896.156172 kJ/mol
# GULP energy per Si atom -12389.148435 kJ/mol
# Density = 2.236534 g / cm^3
# Si number density = 22.416357 Si / 1000 Ang^3
#
#
#
# Elastic Constant Matrix: (Units=GPa)
#
#
# Indices 1 2 3 4 5 6 
#
# 1 145.3425 39.7459 33.0016 0.0000 25.1885 0.0000
# 2 39.7459 47.8634 11.2539 0.0000 -0.7406 0.0000
# 3 33.0016 11.2539 76.0973 0.0000 25.2532 0.0000
# 4 0.0000 0.0000 0.0000 16.5762 0.0000 2.4729
# 5 25.1885 -0.7406 25.2532 0.0000 37.8421 0.0000
# 6 0.0000 0.0000 0.0000 2.4729 0.0000 48.2830
#
#
#
# Elastic Compliance Matrix: (Units=1/GPa)
#
#
# Indices 1 2 3 4 5 6 
#
# 1 0.010635 -0.008651 -0.001191 0.000000 -0.006453 0.000000
# 2 -0.008651 0.029006 -0.003387 0.000000 0.008586 0.000000
# 3 -0.001191 -0.003387 0.017876 0.000000 -0.011203 0.000000
# 4 0.000000 0.000000 0.000000 0.060792 0.000000 -0.003114
# 5 -0.006453 0.008586 -0.011203 0.000000 0.038365 0.000000
# 6 0.000000 0.000000 0.000000 -0.003114 0.000000 0.020871
#
#
# Mechanical properties :
#
#
# Convention : Reuss Voigt Hill
#
# Bulk Modulus (GPa) = 32.19782 48.58956 40.39369
# Shear Modulus (GPa) = 23.32560 32.89370 28.10965
#
# Velocity S-wave (km/s) = 3.22927 3.83482 3.54500
# Velocity P-wave (km/s) = 5.31968 6.42890 5.90041
#
# Compressibility (1/GPa) = 0.03105800
#
# Stress axis : x y z
#
# Youngs Moduli (GPa) = 94.03022 34.47568 55.93993
#
# Poissons Ratio (x) = 0.29825 0.06663
# Poissons Ratio (y) = 0.81346 0.18949
# Poissons Ratio (z) = 0.11201 0.11678
#
# Static dielectric constant tensor:
#      x y z
#    x 4.377560 0.000000 0.400390 
#    y 0.000000 3.654630 0.000000 
#    z 0.400390 0.000000 4.230350 
# 
# 
# High freq. dielectric constant tensor:
#      x y z
#    x 1.901700 0.000000 0.024150 
#    y 0.000000 1.839130 0.000000 
#    z 0.024150 0.000000 1.891270 
# 
# From -- ./inp_files/309932.got.cif
#   From: 2010.06.25/outbox.cif.g09.slc.cpg/sg15_155_cif.got.tgz:309932.got - 2010.06.28 07:06:18.
