data_PCOD8132046
_publ_section_title
;
Structure prediction by ZEFSAII (Michael W. Deem and Ramdas Pophale) SiO2 
 PCOD8132046
Probable space group: C 2/C
;
_chemical_formula_sum "Si O2"
_cell_formula_units_Z 52
_cell_length_a 15.834032
_cell_length_b 11.044591
_cell_length_c 23.067342
_cell_angle_alpha 90.000000
_cell_angle_beta 137.399993
_cell_angle_gamma 90.000000
_cell_volume 2730.535735
_symmetry_space_group_name_H-M "C 2/C"
_symmetry_group_IT_number 15
_symmetry_cell_setting 'monoclinic'
loop_
_space_group_symop_operation_xyz
x,y,z
-x,y,1/2-z
-x,-y,-z
x,-y,1/2+z
1/2+x,1/2+y,z
1/2-x,1/2+y,1/2-z
1/2-x,1/2-y,-z
1/2+x,1/2-y,1/2+z
loop_
_atom_site_type_symbol
_atom_site_label
_atom_site_fract_x
_atom_site_fract_y
_atom_site_fract_z
Si Si1 0.208052 0.811670 0.420364
Si Si2 0.883593 0.541640 0.726501
Si Si3 0.185199 0.814061 0.057315
Si Si4 0.519128 0.980706 0.103070
Si Si5 0.244162 0.080823 0.468640
Si Si6 0.041556 0.686343 0.507375
Si Si7 0.500000 0.811379 0.750000
O O1 0.250000 0.750000 0.500000
O O2 0.316996 0.769177 0.431282
O O3 0.069831 0.769547 0.332834
O O4 0.192698 0.956980 0.415894
O O5 0.758489 0.602049 0.639525
O O6 0.886194 0.553547 0.797562
O O7 0.000000 0.602060 0.750000
O O8 0.890494 0.396148 0.721089
O O9 0.256204 0.686033 0.080946
O O10 0.165029 0.880614 0.985284
O O11 0.050595 0.793460 0.019244
O O12 0.559210 0.908620 0.067325
O O13 0.385434 0.940757 0.061165
O O14 0.511607 0.121275 0.078272
#
# Coordination Sequence:
#
# PCOD8132046 Si02
#       7
#     8   8   8   8   8   8   4
#     4  11  21  41  62  82 119 164 203 245 297 367
#     4  10  19  35  59  85 114 155 198 243 291 367
#     4  10  18  35  61  93 116 148 198 249 306 354
#     4   9  16  36  57  83 117 158 191 230 305 371
#     4   9  18  34  62  88 115 154 196 237 299 370
#     4   9  20  34  61  84 114 154 197 245 300 355
#     4  10  22  38  60  80 110 162 208 228 294 374
#
# _framework density 19.043883000000001
#
# number of rings (size 3 to 8) (size 9 to 14) (size 15 to 20)
#    0.462    1.846    1.538    3.692    0.000    0.000 
#    6.923    3.077    0.000    0.000    0.000    0.000 
#    0.000    0.000    0.000    0.000    0.000    0.000 
#
# Total GULP energy -322110.528774 kJ/mol
# GULP energy per Si atom -12388.866491 kJ/mol
# Density = 1.900054 g / cm^3
# Si number density = 19.043883 Si / 1000 Ang^3
#
#
#
# Elastic Constant Matrix: (Units=GPa)
#
#
# Indices 1 2 3 4 5 6 
#
# 1 96.8997 37.8475 28.0645 0.0000 -3.2061 0.0000
# 2 37.8475 106.8075 54.4493 0.0000 8.5720 0.0000
# 3 28.0645 54.4493 115.5856 0.0000 -8.3840 0.0000
# 4 0.0000 0.0000 0.0000 30.8676 0.0000 7.0065
# 5 -3.2061 8.5720 -8.3840 0.0000 24.8164 0.0000
# 6 0.0000 0.0000 0.0000 7.0065 0.0000 26.9968
#
#
#
# Elastic Compliance Matrix: (Units=1/GPa)
#
#
# Indices 1 2 3 4 5 6 
#
# 1 0.012269 -0.004145 -0.000828 0.000000 0.002737 0.000000
# 2 -0.004145 0.014791 -0.006531 0.000000 -0.007851 0.000000
# 3 -0.000828 -0.006531 0.012388 0.000000 0.006334 0.000000
# 4 0.000000 0.000000 0.000000 0.034424 0.000000 -0.008934
# 5 0.002737 -0.007851 0.006334 0.000000 0.045501 0.000000
# 6 0.000000 0.000000 0.000000 -0.008934 0.000000 0.039360
#
#
# Mechanical properties :
#
#
# Convention : Reuss Voigt Hill
#
# Bulk Modulus (GPa) = 60.82233 62.22393 61.52313
# Shear Modulus (GPa) = 26.70627 29.79827 28.25227
#
# Velocity S-wave (km/s) = 3.74886 3.95994 3.85585
# Velocity P-wave (km/s) = 7.12362 7.32483 7.22492
#
# Compressibility (1/GPa) = 0.01644133
#
# Stress axis : x y z
#
# Youngs Moduli (GPa) = 81.50370 67.60941 80.72096
#
# Poissons Ratio (x) = 0.28027 0.06681
# Poissons Ratio (y) = 0.33787 0.52715
# Poissons Ratio (z) = 0.06746 0.44152
#
# Static dielectric constant tensor:
#      x y z
#    x 2.981840 0.000000 -0.635680 
#    y 0.000000 3.581770 0.000000 
#    z -0.635680 0.000000 2.612980 
# 
# 
# High freq. dielectric constant tensor:
#      x y z
#    x 1.733090 0.000000 -0.019170 
#    y 0.000000 1.734150 0.000000 
#    z -0.019170 0.000000 1.716110 
# 
# From -- ./inp_files/243823.got.cif
#   From: 2010.06.25/outbox.cif.g09.slc.cpg/sg15_122_cif.got.tgz:243823.got - 2010.06.28 07:06:18.
