data_PCOD8132898
_publ_section_title
;
Structure prediction by ZEFSAII (Michael W. Deem and Ramdas Pophale) SiO2 
 PCOD8132898
Probable space group: C 2/C
;
_chemical_formula_sum "Si O2"
_cell_formula_units_Z 48
_cell_length_a 4.969476
_cell_length_b 23.399074
_cell_length_c 23.973028
_cell_angle_alpha 90.000000
_cell_angle_beta 115.413116
_cell_angle_gamma 90.000000
_cell_volume 2517.873566
_symmetry_space_group_name_H-M "C 2/C"
_symmetry_group_IT_number 15
_symmetry_cell_setting 'monoclinic'
loop_
_space_group_symop_operation_xyz
x,y,z
-x,y,1/2-z
-x,-y,-z
x,-y,1/2+z
1/2+x,1/2+y,z
1/2-x,1/2+y,1/2-z
1/2-x,1/2-y,-z
1/2+x,1/2-y,1/2+z
loop_
_atom_site_type_symbol
_atom_site_label
_atom_site_fract_x
_atom_site_fract_y
_atom_site_fract_z
Si Si1 0.159578 0.955511 0.207281
Si Si2 0.663780 0.413327 0.707631
Si Si3 0.024424 0.858039 0.919083
Si Si4 0.744445 0.548544 0.512427
Si Si5 0.863258 0.313334 0.517270
Si Si6 0.376929 0.588533 0.574459
O O1 0.500000 0.940659 0.250000
O O2 0.000000 0.942299 0.250000
O O3 0.010003 0.914008 0.148246
O O4 0.112621 0.021149 0.183415
O O5 0.500000 0.399019 0.750000
O O6 0.577468 0.367421 0.653087
O O7 0.000000 0.402020 0.750000
O O8 0.755859 0.841622 0.936196
O O9 0.279607 0.809760 0.945102
O O10 0.167493 0.918485 0.949243
O O11 0.500000 0.500000 0.500000
O O12 0.667210 0.585526 0.560676
O O13 0.109730 0.538617 0.544065
O O14 0.750000 0.250000 0.500000
O O15 0.780340 0.351142 0.454982
#
# Coordination Sequence:
#
# PCOD8132898 Si02
#       6
#     8   8   8   8   8   8
#     4  10  20  33  51  75 107 145 176 205 249 314
#     4  10  20  33  51  76 108 143 172 202 248 314
#     4  10  20  34  54  78 104 136 174 216 267 321
#     4  10  19  30  49  77 107 133 164 213 266 318
#     4  10  21  37  57  79 101 134 177 229 280 313
#     4  10  20  33  51  75 103 137 175 215 262 314
#
# _framework density 19.063707000000001
#
# number of rings (size 3 to 8) (size 9 to 14) (size 15 to 20)
#    0.000    2.000    0.000    4.000    0.000    5.333 
#    0.000    0.000    0.000    6.000    0.000    0.000 
#    0.000    0.000    0.000    0.000    0.000    0.000 
#
# Total GULP energy -297375.648875 kJ/mol
# GULP energy per Si atom -12390.652036 kJ/mol
# Density = 1.902032 g / cm^3
# Si number density = 19.063707 Si / 1000 Ang^3
#
#
#
# Elastic Constant Matrix: (Units=GPa)
#
#
# Indices 1 2 3 4 5 6 
#
# 1 121.1145 5.5172 41.3717 0.0000 15.5027 0.0000
# 2 5.5172 64.1734 45.5801 0.0000 10.0402 0.0000
# 3 41.3717 45.5801 137.6387 0.0000 10.6387 0.0000
# 4 0.0000 0.0000 0.0000 18.9005 0.0000 3.1938
# 5 15.5027 10.0402 10.6387 0.0000 63.3910 0.0000
# 6 0.0000 0.0000 0.0000 3.1938 0.0000 25.5422
#
#
#
# Elastic Compliance Matrix: (Units=1/GPa)
#
#
# Indices 1 2 3 4 5 6 
#
# 1 0.009578 0.001873 -0.003339 0.000000 -0.002079 0.000000
# 2 0.001873 0.021027 -0.007329 0.000000 -0.002559 0.000000
# 3 -0.003339 -0.007329 0.010682 0.000000 0.000185 0.000000
# 4 0.000000 0.000000 0.000000 0.054051 0.000000 -0.006759
# 5 -0.002079 -0.002559 0.000185 0.000000 0.016658 0.000000
# 6 0.000000 0.000000 0.000000 -0.006759 0.000000 0.039996
#
#
# Mechanical properties :
#
#
# Convention : Reuss Voigt Hill
#
# Bulk Modulus (GPa) = 42.19677 56.42939 49.31308
# Shear Modulus (GPa) = 28.17237 36.93057 32.55147
#
# Velocity S-wave (km/s) = 3.84839 4.40616 4.13669
# Velocity P-wave (km/s) = 6.47530 7.45321 6.98140
#
# Compressibility (1/GPa) = 0.02369850
#
# Stress axis : x y z
#
# Youngs Moduli (GPa) = 104.40802 47.55726 93.61945
#
# Poissons Ratio (x) = -0.08908 0.31255
# Poissons Ratio (y) = -0.19556 0.68610
# Poissons Ratio (z) = 0.34857 0.34853
#
# Static dielectric constant tensor:
#      x y z
#    x 6.306560 0.000000 0.034730 
#    y 0.000000 3.189050 0.000000 
#    z 0.034730 0.000000 3.363980 
# 
# 
# High freq. dielectric constant tensor:
#      x y z
#    x 1.773330 0.000000 0.000410 
#    y 0.000000 1.694890 0.000000 
#    z 0.000410 0.000000 1.735550 
# 
# From -- ./inp_files/185292.got.cif
#   From: 2010.06.25/outbox.cif.g09.slc.cpg/sg15_93_cif.got.tgz:185292.got - 2010.06.28 07:06:18.
