data_PCOD8132186
_publ_section_title
;
Structure prediction by ZEFSAII (Michael W. Deem and Ramdas Pophale) SiO2 
 PCOD8132186
Probable space group: C 2/C
;
_chemical_formula_sum "Si O2"
_cell_formula_units_Z 56
_cell_length_a 13.683289
_cell_length_b 8.325024
_cell_length_c 26.450094
_cell_angle_alpha 90.000000
_cell_angle_beta 58.304422
_cell_angle_gamma 90.000000
_cell_volume 2563.640153
_symmetry_space_group_name_H-M "C 2/C"
_symmetry_group_IT_number 15
_symmetry_cell_setting 'monoclinic'
loop_
_space_group_symop_operation_xyz
x,y,z
-x,y,1/2-z
-x,-y,-z
x,-y,1/2+z
1/2+x,1/2+y,z
1/2-x,1/2+y,1/2-z
1/2-x,1/2-y,-z
1/2+x,1/2-y,1/2+z
loop_
_atom_site_type_symbol
_atom_site_label
_atom_site_fract_x
_atom_site_fract_y
_atom_site_fract_z
Si Si1 0.432641 0.792821 0.953983
Si Si2 0.334531 0.691238 0.433354
Si Si3 0.743564 0.364497 0.077851
Si Si4 0.046722 0.020398 0.884203
Si Si5 0.995308 0.452372 0.363663
Si Si6 0.445588 0.742395 0.712461
Si Si7 0.285352 0.743726 0.174177
O O1 0.346737 0.721091 0.934511
O O2 0.537488 0.663308 0.928845
O O3 0.481763 0.963332 0.922243
O O4 0.371199 0.814862 0.024375
O O5 0.250000 0.750000 0.500000
O O6 0.267377 0.558018 0.419026
O O7 0.449208 0.609533 0.424984
O O8 0.381932 0.840151 0.386419
O O9 0.725561 0.310678 0.139978
O O10 0.170025 0.935412 0.851346
O O11 0.026248 0.101218 0.834677
O O12 0.000201 0.586819 0.318911
O O13 0.111912 0.351267 0.332193
O O14 0.500000 0.686983 0.750000
O O15 0.308606 0.764504 0.756022
#
# Coordination Sequence:
#
# PCOD8132186 Si02
#       7
#     8   8   8   8   8   8   8
#     4   9  18  37  57  86 118 162 197 250 282 365
#     4  10  18  36  58  87 118 160 192 248 294 354
#     4  10  20  35  62  85 121 162 205 232 305 356
#     4   9  21  37  58  88 120 152 197 242 307 354
#     4  10  21  37  59  88 122 150 203 251 304 354
#     4  11  22  43  65  82 114 160 206 249 297 364
#     4  11  22  38  59  89 120 160 192 252 309 359
#
# _framework density 21.843938999999999
#
# number of rings (size 3 to 8) (size 9 to 14) (size 15 to 20)
#    0.000    2.000    1.429    3.429    0.000    1.143 
#    0.000   12.857    0.000    0.000    0.000    0.000 
#    0.000    0.000    0.000    0.000    0.000    0.000 
#
# Total GULP energy -347045.731962 kJ/mol
# GULP energy per Si atom -12394.490427 kJ/mol
# Density = 2.179422 g / cm^3
# Si number density = 21.843939 Si / 1000 Ang^3
#
#
#
# Elastic Constant Matrix: (Units=GPa)
#
#
# Indices 1 2 3 4 5 6 
#
# 1 37.0814 25.6083 23.6741 0.0000 -11.0014 0.0000
# 2 25.6083 134.6419 48.5995 0.0000 -17.1823 0.0000
# 3 23.6741 48.5995 123.4472 0.0000 -32.1381 0.0000
# 4 0.0000 0.0000 0.0000 40.2871 0.0000 -12.8550
# 5 -11.0014 -17.1823 -32.1381 0.0000 39.2745 0.0000
# 6 0.0000 0.0000 0.0000 -12.8550 0.0000 36.3623
#
#
#
# Elastic Compliance Matrix: (Units=1/GPa)
#
#
# Indices 1 2 3 4 5 6 
#
# 1 0.033703 -0.004572 -0.003465 0.000000 0.004606 0.000000
# 2 -0.004572 0.009328 -0.002626 0.000000 0.000651 0.000000
# 3 -0.003465 -0.002626 0.011750 0.000000 0.007496 0.000000
# 4 0.000000 0.000000 0.000000 0.027978 0.000000 0.009891
# 5 0.004606 0.000651 0.007496 0.000000 0.033171 0.000000
# 6 0.000000 0.000000 0.000000 0.009891 0.000000 0.030998
#
#
# Mechanical properties :
#
#
# Convention : Reuss Voigt Hill
#
# Bulk Modulus (GPa) = 29.88935 54.54826 42.21880
# Shear Modulus (GPa) = 27.87000 36.33734 32.10367
#
# Velocity S-wave (km/s) = 3.57581 4.08302 3.83780
# Velocity P-wave (km/s) = 5.54629 6.87416 6.24562
#
# Compressibility (1/GPa) = 0.03345673
#
# Stress axis : x y z
#
# Youngs Moduli (GPa) = 29.67065 107.20883 85.10450
#
# Poissons Ratio (x) = 0.49015 0.29485
# Poissons Ratio (y) = 0.13565 0.22347
# Poissons Ratio (z) = 0.10279 0.28151
#
# Static dielectric constant tensor:
#      x y z
#    x 3.542530 0.000000 -0.582850 
#    y 0.000000 4.338350 0.000000 
#    z -0.582850 0.000000 4.174910 
# 
# 
# High freq. dielectric constant tensor:
#      x y z
#    x 1.820880 0.000000 -0.041870 
#    y 0.000000 1.873170 0.000000 
#    z -0.041870 0.000000 1.867540 
# 
# From -- ./inp_files/295059.got.cif
#   From: 2010.06.25/outbox.cif.g09.slc.cpg/sg15_148_cif.got.tgz:295059.got - 2010.06.28 07:06:18.
