data_PCOD8132553
_publ_section_title
;
Structure prediction by ZEFSAII (Michael W. Deem and Ramdas Pophale) SiO2 
 PCOD8132553
Probable space group: C 2/C
;
_chemical_formula_sum "Si O2"
_cell_formula_units_Z 52
_cell_length_a 27.990230
_cell_length_b 8.395435
_cell_length_c 15.715488
_cell_angle_alpha 90.000000
_cell_angle_beta 134.431943
_cell_angle_gamma 90.000000
_cell_volume 2637.095947
_symmetry_space_group_name_H-M "C 2/C"
_symmetry_group_IT_number 15
_symmetry_cell_setting 'monoclinic'
loop_
_space_group_symop_operation_xyz
x,y,z
-x,y,1/2-z
-x,-y,-z
x,-y,1/2+z
1/2+x,1/2+y,z
1/2-x,1/2+y,1/2-z
1/2-x,1/2-y,-z
1/2+x,1/2-y,1/2+z
loop_
_atom_site_type_symbol
_atom_site_label
_atom_site_fract_x
_atom_site_fract_y
_atom_site_fract_z
Si Si1 0.000000 0.222246 0.250000
Si Si2 0.788718 0.615939 0.099913
Si Si3 0.266135 0.341116 0.358792
Si Si4 0.862336 0.814617 0.766764
Si Si5 0.642841 0.848743 0.409618
Si Si6 0.643344 0.335585 0.183432
Si Si7 0.504561 0.649086 0.443790
O O1 0.064230 0.338701 0.333088
O O2 0.001836 0.112011 0.337840
O O3 0.738347 0.492760 0.083668
O O4 0.838082 0.527179 0.095572
O O5 0.833588 0.692738 0.228949
O O6 0.750000 0.750000 0.000000
O O7 0.192907 0.269308 0.242261
O O8 0.311020 0.199996 0.453972
O O9 0.301140 0.390417 0.315257
O O10 0.838686 0.774214 0.642259
O O11 0.937545 0.745263 0.879894
O O12 0.867888 0.004999 0.776423
O O13 0.575399 0.269463 0.053855
O O14 0.500000 0.500000 0.500000
#
# Coordination Sequence:
#
# PCOD8132553 Si02
#       7
#     4   8   8   8   8   8   8
#     4  10  18  38  62  88 120 168 202 240 306 370
#     4  11  23  37  59  87 121 155 194 253 301 354
#     4  11  20  36  60  88 113 157 196 241 299 360
#     4   9  19  35  57  84 116 152 193 239 296 354
#     4  10  20  37  62  82 117 160 200 237 301 363
#     4  11  20  36  59  87 119 149 203 247 294 352
#     4   9  19  35  61  89 119 159 200 247 293 359
#
# _framework density 19.718658999999999
#
# number of rings (size 3 to 8) (size 9 to 14) (size 15 to 20)
#    0.000    1.846    1.538    4.615    0.000    0.000 
#    0.000    6.923   10.154    0.000    0.000    0.000 
#    0.000    0.000    0.000    0.000    0.000    0.000 
#
# Total GULP energy -322149.149061 kJ/mol
# GULP energy per Si atom -12390.351887 kJ/mol
# Density = 1.967378 g / cm^3
# Si number density = 19.718659 Si / 1000 Ang^3
#
#
#
# Elastic Constant Matrix: (Units=GPa)
#
#
# Indices 1 2 3 4 5 6 
#
# 1 116.3908 41.7653 57.7254 0.0000 17.8776 0.0000
# 2 41.7653 88.1102 44.8728 0.0000 1.0583 0.0000
# 3 57.7254 44.8728 129.9435 0.0000 11.1033 0.0000
# 4 0.0000 0.0000 0.0000 30.8160 0.0000 -0.8169
# 5 17.8776 1.0583 11.1033 0.0000 36.2804 0.0000
# 6 0.0000 0.0000 0.0000 -0.8169 0.0000 22.8137
#
#
#
# Elastic Compliance Matrix: (Units=1/GPa)
#
#
# Indices 1 2 3 4 5 6 
#
# 1 0.012691 -0.004005 -0.003831 0.000000 -0.004965 0.000000
# 2 -0.004005 0.015077 -0.003654 0.000000 0.002652 0.000000
# 3 -0.003831 -0.003654 0.010770 0.000000 -0.001302 0.000000
# 4 0.000000 0.000000 0.000000 0.032481 0.000000 0.001163
# 5 -0.004965 0.002652 -0.001302 0.000000 0.030331 0.000000
# 6 0.000000 0.000000 0.000000 0.001163 0.000000 0.043875
#
#
# Mechanical properties :
#
#
# Convention : Reuss Voigt Hill
#
# Bulk Modulus (GPa) = 64.27051 69.24129 66.75590
# Shear Modulus (GPa) = 28.83647 30.65410 29.74528
#
# Velocity S-wave (km/s) = 3.82828 3.94708 3.88813
# Velocity P-wave (km/s) = 7.22533 7.48087 7.35421
#
# Compressibility (1/GPa) = 0.01555924
#
# Stress axis : x y z
#
# Youngs Moduli (GPa) = 78.79331 66.32639 92.84782
#
# Poissons Ratio (x) = 0.26567 0.35566
# Poissons Ratio (y) = 0.31560 0.33924
# Poissons Ratio (z) = 0.30182 0.24234
#
# Static dielectric constant tensor:
#      x y z
#    x 4.035430 0.000000 0.331730 
#    y 0.000000 3.267500 0.000000 
#    z 0.331730 0.000000 3.958190 
# 
# 
# High freq. dielectric constant tensor:
#      x y z
#    x 1.782340 0.000000 0.013060 
#    y 0.000000 1.730830 0.000000 
#    z 0.013060 0.000000 1.780110 
# 
# From -- ./inp_files/181213.got.cif
#   From: 2010.06.25/outbox.cif.g09.slc.cpg/sg15_91_cif.got.tgz:181213.got - 2010.06.28 07:06:18.
