data_PCOD8132608
_publ_section_title
;
Structure prediction by ZEFSAII (Michael W. Deem and Ramdas Pophale) SiO2 
 PCOD8132608
Probable space group: C 2/C
;
_chemical_formula_sum "Si O2"
_cell_formula_units_Z 52
_cell_length_a 17.254756
_cell_length_b 10.832588
_cell_length_c 15.114715
_cell_angle_alpha 90.000000
_cell_angle_beta 61.223550
_cell_angle_gamma 90.000000
_cell_volume 2476.254169
_symmetry_space_group_name_H-M "C 2/C"
_symmetry_group_IT_number 15
_symmetry_cell_setting 'monoclinic'
loop_
_space_group_symop_operation_xyz
x,y,z
-x,y,1/2-z
-x,-y,-z
x,-y,1/2+z
1/2+x,1/2+y,z
1/2-x,1/2+y,1/2-z
1/2-x,1/2-y,-z
1/2+x,1/2-y,1/2+z
loop_
_atom_site_type_symbol
_atom_site_label
_atom_site_fract_x
_atom_site_fract_y
_atom_site_fract_z
Si Si1 0.687723 0.998735 0.862936
Si Si2 0.000000 0.239273 0.750000
Si Si3 0.894275 0.750500 0.047716
Si Si4 0.877519 0.932957 0.202997
Si Si5 0.052875 0.623292 0.050582
Si Si6 0.550553 0.928271 0.312029
Si Si7 0.989361 0.842344 0.656967
O O1 0.791548 0.017052 0.800267
O O2 0.643941 0.005077 0.787006
O O3 0.672006 0.865163 0.916755
O O4 0.646697 0.107093 0.948971
O O5 0.072180 0.155662 0.757445
O O6 0.055070 0.323913 0.649774
O O7 0.849624 0.856251 0.131891
O O8 0.992038 0.717681 0.029750
O O9 0.915034 0.809893 0.939615
O O10 0.936405 0.048934 0.136606
O O11 0.013238 0.482255 0.075306
O O12 0.500000 0.966240 0.250000
O O13 0.567782 0.783170 0.307876
O O14 0.000000 0.893542 0.750000
#
# Coordination Sequence:
#
# PCOD8132608 Si02
#       7
#     8   4   8   8   8   8   8
#     4  11  22  39  64 100 122 158 214 278 297 374
#     4  10  22  42  64  90 122 184 198 262 310 390
#     4  10  21  40  66  89 122 175 208 251 320 381
#     4  11  25  40  62  91 136 161 213 255 325 365
#     4  10  18  38  66  89 123 155 226 245 317 371
#     4  10  19  36  64  93 117 162 205 253 314 373
#     4  11  21  40  65  86 127 171 208 247 317 393
#
# _framework density 20.999459999999999
#
# number of rings (size 3 to 8) (size 9 to 14) (size 15 to 20)
#    0.000    1.538    4.615    1.385    2.154    0.615 
#    0.000    2.308    0.000    0.000    0.000    0.000 
#    0.000    0.000    0.000    0.000    0.000    0.000 
#
# Total GULP energy -322106.356596 kJ/mol
# GULP energy per Si atom -12388.706023 kJ/mol
# Density = 2.095166 g / cm^3
# Si number density = 20.999460 Si / 1000 Ang^3
#
#
#
# Elastic Constant Matrix: (Units=GPa)
#
#
# Indices 1 2 3 4 5 6 
#
# 1 54.5125 22.6292 37.0143 0.0000 3.4072 0.0000
# 2 22.6292 110.6170 49.8792 0.0000 -9.5409 0.0000
# 3 37.0143 49.8792 130.1968 0.0000 -3.4933 0.0000
# 4 0.0000 0.0000 0.0000 31.4076 0.0000 -2.2839
# 5 3.4072 -9.5409 -3.4933 0.0000 34.6294 0.0000
# 6 0.0000 0.0000 0.0000 -2.2839 0.0000 16.9380
#
#
#
# Elastic Compliance Matrix: (Units=1/GPa)
#
#
# Indices 1 2 3 4 5 6 
#
# 1 0.023572 -0.002499 -0.005841 0.000000 -0.003597 0.000000
# 2 -0.002499 0.011431 -0.003587 0.000000 0.003033 0.000000
# 3 -0.005841 -0.003587 0.010733 0.000000 0.000669 0.000000
# 4 0.000000 0.000000 0.000000 0.032155 0.000000 0.004336
# 5 -0.003597 0.003033 0.000669 0.000000 0.030134 0.000000
# 6 0.000000 0.000000 0.000000 0.004336 0.000000 0.059624
#
#
# Mechanical properties :
#
#
# Convention : Reuss Voigt Hill
#
# Bulk Modulus (GPa) = 45.69818 57.15241 51.42530
# Shear Modulus (GPa) = 25.15126 28.98190 27.06658
#
# Velocity S-wave (km/s) = 3.46455 3.71903 3.59405
# Velocity P-wave (km/s) = 6.14923 6.76142 6.46258
#
# Compressibility (1/GPa) = 0.02188271
#
# Stress axis : x y z
#
# Youngs Moduli (GPa) = 42.42247 87.48433 93.16666
#
# Poissons Ratio (x) = 0.21861 0.54416
# Poissons Ratio (y) = 0.10601 0.33422
# Poissons Ratio (z) = 0.24778 0.31384
#
# Static dielectric constant tensor:
#      x y z
#    x 3.496810 0.000000 0.366980 
#    y 0.000000 3.947070 0.000000 
#    z 0.366980 0.000000 3.891360 
# 
# 
# High freq. dielectric constant tensor:
#      x y z
#    x 1.779440 0.000000 0.024640 
#    y 0.000000 1.840660 0.000000 
#    z 0.024640 0.000000 1.819160 
# 
# From -- ./inp_files/215009.got.cif
#   From: 2010.06.25/outbox.cif.g09.slc.cpg/sg15_108_cif.got.tgz:215009.got - 2010.06.28 07:06:18.
