data_PCOD8132769
_publ_section_title
;
Structure prediction by ZEFSAII (Michael W. Deem and Ramdas Pophale) SiO2 
 PCOD8132769
Probable space group: C 2/C
;
_chemical_formula_sum "Si O2"
_cell_formula_units_Z 56
_cell_length_a 8.655345
_cell_length_b 14.578268
_cell_length_c 22.316477
_cell_angle_alpha 90.000000
_cell_angle_beta 69.021831
_cell_angle_gamma 90.000000
_cell_volume 2629.245690
_symmetry_space_group_name_H-M "C 2/C"
_symmetry_group_IT_number 15
_symmetry_cell_setting 'monoclinic'
loop_
_space_group_symop_operation_xyz
x,y,z
-x,y,1/2-z
-x,-y,-z
x,-y,1/2+z
1/2+x,1/2+y,z
1/2-x,1/2+y,1/2-z
1/2-x,1/2-y,-z
1/2+x,1/2-y,1/2+z
loop_
_atom_site_type_symbol
_atom_site_label
_atom_site_fract_x
_atom_site_fract_y
_atom_site_fract_z
Si Si1 0.623837 0.125523 0.910508
Si Si2 0.299318 0.561833 0.356945
Si Si3 0.359531 0.192874 0.028988
Si Si4 0.579323 0.563880 0.800443
Si Si5 0.054364 0.216269 0.600273
Si Si6 0.643772 0.172796 0.774618
Si Si7 0.884584 0.337437 0.714384
O O1 0.750219 0.196405 0.924946
O O2 0.574495 0.161866 0.851284
O O3 0.701198 0.025539 0.894740
O O4 0.462510 0.119768 0.974953
O O5 0.266471 0.644515 0.407116
O O6 0.496974 0.536696 0.324812
O O7 0.238424 0.587474 0.298150
O O8 0.487562 0.262279 0.043219
O O9 0.250000 0.250000 0.000000
O O10 0.500000 0.604047 0.750000
O O11 0.539137 0.626712 0.862683
O O12 0.776268 0.575500 0.760539
O O13 0.011999 0.305286 0.645552
O O14 0.500000 0.203802 0.750000
O O15 0.782642 0.251748 0.754900
O O16 0.000000 0.382047 0.750000
#
# Coordination Sequence:
#
# PCOD8132769 Si02
#       7
#     8   8   8   8   8   8   8
#     4  11  21  42  64  89 128 174 212 259 331 386
#     4  10  23  40  66  91 130 172 207 268 325 377
#     4  11  25  41  63  93 127 166 227 269 308 384
#     4  10  18  41  64  90 128 164 203 264 331 381
#     4   9  18  38  66  87 119 171 209 253 320 381
#     4  11  22  36  68 100 129 169 211 267 333 391
#     4  10  19  39  64  98 131 160 212 264 326 402
#
# _framework density 21.298884999999999
#
# number of rings (size 3 to 8) (size 9 to 14) (size 15 to 20)
#    0.000    1.714    4.286    1.714    6.000    1.143 
#    0.000    2.857    6.286    0.000    0.000    0.000 
#    0.000    0.000    0.000    0.000    0.000    0.000 
#
# Total GULP energy -346968.538191 kJ/mol
# GULP energy per Si atom -12391.733507 kJ/mol
# Density = 2.125041 g / cm^3
# Si number density = 21.298885 Si / 1000 Ang^3
#
#
#
# Elastic Constant Matrix: (Units=GPa)
#
#
# Indices 1 2 3 4 5 6 
#
# 1 86.0139 23.9245 39.8469 0.0000 19.8112 0.0000
# 2 23.9245 67.6526 24.2756 0.0000 9.0316 0.0000
# 3 39.8469 24.2756 105.3033 0.0000 11.4982 0.0000
# 4 0.0000 0.0000 0.0000 27.6660 0.0000 2.3033
# 5 19.8112 9.0316 11.4982 0.0000 39.0336 0.0000
# 6 0.0000 0.0000 0.0000 2.3033 0.0000 29.0189
#
#
#
# Elastic Compliance Matrix: (Units=1/GPa)
#
#
# Indices 1 2 3 4 5 6 
#
# 1 0.016078 -0.003198 -0.004687 0.000000 -0.006040 0.000000
# 2 -0.003198 0.017035 -0.002546 0.000000 -0.001569 0.000000
# 3 -0.004687 -0.002546 0.011916 0.000000 -0.000542 0.000000
# 4 0.000000 0.000000 0.000000 0.036386 0.000000 -0.002888
# 5 -0.006040 -0.001569 -0.000542 0.000000 0.029207 0.000000
# 6 0.000000 0.000000 0.000000 -0.002888 0.000000 0.034689
#
#
# Mechanical properties :
#
#
# Convention : Reuss Voigt Hill
#
# Bulk Modulus (GPa) = 41.37741 48.34046 44.85893
# Shear Modulus (GPa) = 28.69785 30.53854 29.61820
#
# Velocity S-wave (km/s) = 3.67466 3.79068 3.73312
# Velocity P-wave (km/s) = 6.12155 6.47337 6.29991
#
# Compressibility (1/GPa) = 0.02416778
#
# Stress axis : x y z
#
# Youngs Moduli (GPa) = 62.19697 58.70224 83.91968
#
# Poissons Ratio (x) = 0.18770 0.39336
# Poissons Ratio (y) = 0.19888 0.21365
# Poissons Ratio (z) = 0.29154 0.14945
#
# Static dielectric constant tensor:
#      x y z
#    x 3.914940 0.000000 -0.154510 
#    y 0.000000 3.674710 0.000000 
#    z -0.154510 0.000000 4.058020 
# 
# 
# High freq. dielectric constant tensor:
#      x y z
#    x 1.824690 0.000000 -0.002660 
#    y 0.000000 1.817340 0.000000 
#    z -0.002660 0.000000 1.842020 
# 
# From -- ./inp_files/264199.got.cif
#   From: 2010.06.25/outbox.cif.g09.slc.cpg/sg15_133_cif.got.tgz:264199.got - 2010.06.28 07:06:18.
