data_PCOD8132663
_publ_section_title
;
Structure prediction by ZEFSAII (Michael W. Deem and Ramdas Pophale) SiO2 
 PCOD8132663
Probable space group: C 2/C
;
_chemical_formula_sum "Si O2"
_cell_formula_units_Z 52
_cell_length_a 14.707164
_cell_length_b 10.408621
_cell_length_c 23.821290
_cell_angle_alpha 90.000000
_cell_angle_beta 43.604349
_cell_angle_gamma 90.000000
_cell_volume 2514.962892
_symmetry_space_group_name_H-M "C 2/C"
_symmetry_group_IT_number 15
_symmetry_cell_setting 'monoclinic'
loop_
_space_group_symop_operation_xyz
x,y,z
-x,y,1/2-z
-x,-y,-z
x,-y,1/2+z
1/2+x,1/2+y,z
1/2-x,1/2+y,1/2-z
1/2-x,1/2-y,-z
1/2+x,1/2-y,1/2+z
loop_
_atom_site_type_symbol
_atom_site_label
_atom_site_fract_x
_atom_site_fract_y
_atom_site_fract_z
Si Si1 0.248530 0.519094 0.910011
Si Si2 0.859697 0.764166 0.501020
Si Si3 0.787054 0.495695 0.945244
Si Si4 0.641562 0.871930 0.189035
Si Si5 0.000000 0.146029 0.750000
Si Si6 0.432557 0.884438 0.708599
Si Si7 0.345180 0.182307 0.137670
O O1 0.171199 0.654540 0.939225
O O2 0.395765 0.546700 0.823219
O O3 0.173026 0.413751 0.906313
O O4 0.247883 0.468201 0.974839
O O5 0.750000 0.750000 0.500000
O O6 0.827968 0.909940 0.533746
O O7 0.013890 0.752994 0.419552
O O8 0.798429 0.621943 0.901019
O O9 0.926759 0.421236 0.881609
O O10 0.500000 0.800507 0.250000
O O11 0.736543 0.793133 0.186195
O O12 0.617647 0.017433 0.221642
O O13 0.937247 0.240068 0.731237
O O14 0.327286 0.891727 0.704661
#
# Coordination Sequence:
#
# PCOD8132663 Si02
#       7
#     8   8   8   8   4   8   8
#     4  11  23  37  67  97 127 164 222 269 321 375
#     4  10  18  39  64  91 122 163 219 263 306 378
#     4  10  19  44  68  86 124 175 216 257 315 392
#     4  10  24  44  63  91 136 177 207 259 335 383
#     4  12  22  42  70  92 122 180 222 260 320 392
#     4  11  20  43  66  90 125 174 219 258 315 384
#     4  12  25  37  64 101 132 162 214 280 322 375
#
# _framework density 20.676248000000001
#
# number of rings (size 3 to 8) (size 9 to 14) (size 15 to 20)
#    0.000    1.231    6.923    1.385    3.231    1.231 
#    0.000    0.000    0.000    0.000    0.000    0.000 
#    0.000    0.000    0.000    0.000    0.000    0.000 
#
# Total GULP energy -322101.239102 kJ/mol
# GULP energy per Si atom -12388.509196 kJ/mol
# Density = 2.062919 g / cm^3
# Si number density = 20.676248 Si / 1000 Ang^3
#
#
#
# Elastic Constant Matrix: (Units=GPa)
#
#
# Indices 1 2 3 4 5 6 
#
# 1 124.9032 52.3387 55.5488 0.0000 -0.8758 0.0000
# 2 52.3387 57.0847 25.6177 0.0000 -2.3971 0.0000
# 3 55.5488 25.6177 114.8474 0.0000 4.8483 0.0000
# 4 0.0000 0.0000 0.0000 17.1407 0.0000 -4.3472
# 5 -0.8758 -2.3971 4.8483 0.0000 38.5192 0.0000
# 6 0.0000 0.0000 0.0000 -4.3472 0.0000 29.6661
#
#
#
# Elastic Compliance Matrix: (Units=1/GPa)
#
#
# Indices 1 2 3 4 5 6 
#
# 1 0.014934 -0.011599 -0.004644 0.000000 0.000202 0.000000
# 2 -0.011599 0.028596 -0.000837 0.000000 0.001621 0.000000
# 3 -0.004644 -0.000837 0.011206 0.000000 -0.001568 0.000000
# 4 0.000000 0.000000 0.000000 0.060593 0.000000 0.008879
# 5 0.000202 0.001621 -0.001568 0.000000 0.026264 0.000000
# 6 0.000000 0.000000 0.000000 0.008879 0.000000 0.035010
#
#
# Mechanical properties :
#
#
# Convention : Reuss Voigt Hill
#
# Bulk Modulus (GPa) = 48.60116 62.64953 55.62534
# Shear Modulus (GPa) = 22.97564 27.95388 25.46476
#
# Velocity S-wave (km/s) = 3.33710 3.68092 3.51322
# Velocity P-wave (km/s) = 6.19719 6.95928 6.58926
#
# Compressibility (1/GPa) = 0.02057564
#
# Stress axis : x y z
#
# Youngs Moduli (GPa) = 66.96320 34.96943 89.23512
#
# Poissons Ratio (x) = 0.40562 0.41443
# Poissons Ratio (y) = 0.77673 0.07467
# Poissons Ratio (z) = 0.31099 0.02926
#
# Static dielectric constant tensor:
#      x y z
#    x 3.814040 0.000000 0.004120 
#    y 0.000000 3.782710 0.000000 
#    z 0.004120 0.000000 3.950810 
# 
# 
# High freq. dielectric constant tensor:
#      x y z
#    x 1.798220 0.000000 0.004520 
#    y 0.000000 1.790800 0.000000 
#    z 0.004520 0.000000 1.815140 
# 
# From -- ./inp_files/273799.got.cif
#   From: 2010.06.25/outbox.cif.g09.slc.cpg/sg15_137_cif.got.tgz:273799.got - 2010.06.28 07:06:18.
