data_PCOD8132755
_publ_section_title
;
Structure prediction by ZEFSAII (Michael W. Deem and Ramdas Pophale) SiO2 
 PCOD8132755
Probable space group: C 2/C
;
_chemical_formula_sum "Si O2"
_cell_formula_units_Z 36
_cell_length_a 22.516731
_cell_length_b 14.642643
_cell_length_c 13.386673
_cell_angle_alpha 90.000000
_cell_angle_beta 158.343338
_cell_angle_gamma 90.000000
_cell_volume 1628.828867
_symmetry_space_group_name_H-M "C 2/C"
_symmetry_group_IT_number 15
_symmetry_cell_setting 'monoclinic'
loop_
_space_group_symop_operation_xyz
x,y,z
-x,y,1/2-z
-x,-y,-z
x,-y,1/2+z
1/2+x,1/2+y,z
1/2-x,1/2+y,1/2-z
1/2-x,1/2-y,-z
1/2+x,1/2-y,1/2+z
loop_
_atom_site_type_symbol
_atom_site_label
_atom_site_fract_x
_atom_site_fract_y
_atom_site_fract_z
Si Si1 0.524740 0.109556 0.006061
Si Si2 0.369880 0.069504 0.961611
Si Si3 0.000000 0.658575 0.750000
Si Si4 0.833138 0.752103 0.813410
Si Si5 0.355701 0.573711 0.458850
O O1 0.718232 0.112666 0.319577
O O2 0.445432 0.042678 0.968317
O O3 0.492054 0.091547 0.835339
O O4 0.447871 0.210323 0.906285
O O5 0.315789 0.175271 0.873746
O O6 0.213774 0.003900 0.725552
O O7 0.500000 0.054057 0.250000
O O8 0.843711 0.723066 0.503290
O O9 0.919934 0.841992 0.992807
O O10 0.500000 0.532092 0.750000
#
# Coordination Sequence:
#
# PCOD8132755 Si02
#       5
#     8   8   4   8   8
#     4   9  22  41  69  90 136 174 211 269 335 385
#     4  10  23  43  66  97 132 177 210 267 339 386
#     4  10  18  40  70 102 122 172 228 262 320 392
#     4   9  22  39  68  93 133 173 212 270 326 383
#     4  11  23  42  66  97 131 172 227 267 313 397
#
# _framework density 22.101769999999998
#
# number of rings (size 3 to 8) (size 9 to 14) (size 15 to 20)
#    1.333    0.889    0.000    2.000    7.778    0.889 
#    4.000    1.111    0.000    0.000    0.000    0.000 
#    0.000    0.000    0.000    0.000    0.000    0.000 
#
# Total GULP energy -222987.851246 kJ/mol
# GULP energy per Si atom -12388.213958 kJ/mol
# Density = 2.205147 g / cm^3
# Si number density = 22.101770 Si / 1000 Ang^3
#
#
#
# Elastic Constant Matrix: (Units=GPa)
#
#
# Indices 1 2 3 4 5 6 
#
# 1 92.7887 38.3843 35.0541 0.0000 -18.0443 0.0000
# 2 38.3843 113.5359 56.1585 0.0000 -30.5336 0.0000
# 3 35.0541 56.1585 193.6456 0.0000 -25.7397 0.0000
# 4 0.0000 0.0000 0.0000 31.7098 0.0000 -14.1803
# 5 -18.0443 -30.5336 -25.7397 0.0000 32.2823 0.0000
# 6 0.0000 0.0000 0.0000 -14.1803 0.0000 38.5361
#
#
#
# Elastic Compliance Matrix: (Units=1/GPa)
#
#
# Indices 1 2 3 4 5 6 
#
# 1 0.013099 -0.002912 -0.001029 0.000000 0.003747 0.000000
# 2 -0.002912 0.013336 -0.002103 0.000000 0.009309 0.000000
# 3 -0.001029 -0.002103 0.006286 0.000000 0.002448 0.000000
# 4 0.000000 0.000000 0.000000 0.037748 0.000000 0.013890
# 5 0.003747 0.009309 0.002448 0.000000 0.043828 0.000000
# 6 0.000000 0.000000 0.000000 0.013890 0.000000 0.031061
#
#
# Mechanical properties :
#
#
# Convention : Reuss Voigt Hill
#
# Bulk Modulus (GPa) = 48.46503 73.24046 60.85274
# Shear Modulus (GPa) = 30.42808 38.53051 34.47930
#
# Velocity S-wave (km/s) = 3.71445 4.17984 3.95400
# Velocity P-wave (km/s) = 6.35389 7.51695 6.95976
#
# Compressibility (1/GPa) = 0.02063343
#
# Stress axis : x y z
#
# Youngs Moduli (GPa) = 76.34091 74.98486 159.09621
#
# Poissons Ratio (x) = 0.21835 0.16365
# Poissons Ratio (y) = 0.22230 0.33458
# Poissons Ratio (z) = 0.07853 0.15769
#
# Static dielectric constant tensor:
#      x y z
#    x 3.779720 0.000000 -0.058640 
#    y 0.000000 4.185070 0.000000 
#    z -0.058640 0.000000 3.793320 
# 
# 
# High freq. dielectric constant tensor:
#      x y z
#    x 1.847960 0.000000 -0.009880 
#    y 0.000000 1.902270 0.000000 
#    z -0.009880 0.000000 1.860840 
# 
# From -- ./inp_files/178262.got.cif
#   From: 2010.06.25/outbox.cif.g09.slc.cpg/sg15_90_cif.got.tgz:178262.got - 2010.06.28 07:06:18.
