data_PCOD8132306
_publ_section_title
;
Structure prediction by ZEFSAII (Michael W. Deem and Ramdas Pophale) SiO2 
 PCOD8132306
Probable space group: C 2/C
;
_chemical_formula_sum "Si O2"
_cell_formula_units_Z 48
_cell_length_a 9.004907
_cell_length_b 25.936960
_cell_length_c 10.433028
_cell_angle_alpha 90.000000
_cell_angle_beta 68.201214
_cell_angle_gamma 90.000000
_cell_volume 2262.495042
_symmetry_space_group_name_H-M "C 2/C"
_symmetry_group_IT_number 15
_symmetry_cell_setting 'monoclinic'
loop_
_space_group_symop_operation_xyz
x,y,z
-x,y,1/2-z
-x,-y,-z
x,-y,1/2+z
1/2+x,1/2+y,z
1/2-x,1/2+y,1/2-z
1/2-x,1/2-y,-z
1/2+x,1/2-y,1/2+z
loop_
_atom_site_type_symbol
_atom_site_label
_atom_site_fract_x
_atom_site_fract_y
_atom_site_fract_z
Si Si1 0.809552 0.540361 0.824482
Si Si2 0.141514 0.363935 0.607354
Si Si3 0.577129 0.799063 0.400444
Si Si4 0.665524 0.970112 0.463331
Si Si5 0.948061 0.181039 0.124779
Si Si6 0.762280 0.656239 0.882465
O O1 0.739444 0.528657 0.703765
O O2 0.759138 0.594932 0.899089
O O3 0.000000 0.538765 0.750000
O O4 0.742654 0.498246 0.948026
O O5 0.108419 0.311408 0.539101
O O6 0.142718 0.410624 0.506542
O O7 0.307090 0.357766 0.630062
O O8 0.000000 0.375244 0.750000
O O9 0.610257 0.739746 0.358719
O O10 0.706083 0.830622 0.275698
O O11 0.397156 0.816393 0.425322
O O12 0.500000 0.000000 0.500000
O O13 0.000000 0.164307 0.250000
O O14 0.091849 0.177587 0.978524
#
# Coordination Sequence:
#
# PCOD8132306 Si02
#       6
#     8   8   8   8   8   8
#     4  10  18  36  63  98 123 170 218 271 329 402
#     4  12  25  42  64 100 134 171 228 287 335 404
#     4  11  22  43  67  93 127 184 230 270 335 407
#     4  10  20  37  66  99 129 170 226 272 337 404
#     4  12  27  41  64  99 135 180 225 283 344 399
#     4  11  21  41  71  91 133 175 227 272 337 406
#
# _framework density 21.215516000000001
#
# number of rings (size 3 to 8) (size 9 to 14) (size 15 to 20)
#    0.000    1.000    5.000    4.500    2.333    2.000 
#    0.000    0.833    0.000    2.000    0.000    0.000 
#    0.000    0.000    0.000    0.000    0.000    0.000 
#
# Total GULP energy -297615.221854 kJ/mol
# GULP energy per Si atom -12400.634244 kJ/mol
# Density = 2.116723 g / cm^3
# Si number density = 21.215516 Si / 1000 Ang^3
#
#
#
# Elastic Constant Matrix: (Units=GPa)
#
#
# Indices 1 2 3 4 5 6 
#
# 1 83.7454 30.7941 48.3396 0.0000 4.6080 0.0000
# 2 30.7941 86.3757 28.0458 0.0000 8.4043 0.0000
# 3 48.3396 28.0458 105.4823 0.0000 20.7017 0.0000
# 4 0.0000 0.0000 0.0000 34.0985 0.0000 14.7437
# 5 4.6080 8.4043 20.7017 0.0000 39.3602 0.0000
# 6 0.0000 0.0000 0.0000 14.7437 0.0000 14.6706
#
#
#
# Elastic Compliance Matrix: (Units=1/GPa)
#
#
# Indices 1 2 3 4 5 6 
#
# 1 0.017655 -0.004116 -0.007542 0.000000 0.002779 0.000000
# 2 -0.004116 0.013669 -0.001416 0.000000 -0.001692 0.000000
# 3 -0.007542 -0.001416 0.014586 0.000000 -0.006486 0.000000
# 4 0.000000 0.000000 0.000000 0.051864 0.000000 -0.052122
# 5 0.002779 -0.001692 -0.006486 0.000000 0.028854 0.000000
# 6 0.000000 0.000000 0.000000 -0.052122 0.000000 0.120546
#
#
# Mechanical properties :
#
#
# Convention : Reuss Voigt Hill
#
# Bulk Modulus (GPa) = 50.60077 54.44029 52.52053
# Shear Modulus (GPa) = 17.86302 28.85410 23.35856
#
# Velocity S-wave (km/s) = 2.90484 3.69188 3.32175
# Velocity P-wave (km/s) = 5.92903 6.62493 6.28661
#
# Compressibility (1/GPa) = 0.01976255
#
# Stress axis : x y z
#
# Youngs Moduli (GPa) = 56.64223 73.15771 68.55936
#
# Poissons Ratio (x) = 0.30110 0.51705
# Poissons Ratio (y) = 0.23312 0.09709
# Poissons Ratio (z) = 0.42718 0.10360
#
# Static dielectric constant tensor:
#      x y z
#    x 3.668710 0.000000 0.506030 
#    y 0.000000 3.939380 0.000000 
#    z 0.506030 0.000000 4.553000 
# 
# 
# High freq. dielectric constant tensor:
#      x y z
#    x 1.795250 0.000000 0.021930 
#    y 0.000000 1.840480 0.000000 
#    z 0.021930 0.000000 1.845260 
# 
# From -- ./inp_files/79775.got.cif
#   From: 2010.06.25/outbox.cif.g09.slc.cpg/sg15_40_cif.got.tgz:79775.got - 2010.06.28 07:06:18.
