data_PCOD8132824
_publ_section_title
;
Structure prediction by ZEFSAII (Michael W. Deem and Ramdas Pophale) SiO2 
 PCOD8132824
Probable space group: C 2/C
;
_chemical_formula_sum "Si O2"
_cell_formula_units_Z 56
_cell_length_a 30.628236
_cell_length_b 15.516884
_cell_length_c 8.487901
_cell_angle_alpha 90.000000
_cell_angle_beta 119.771759
_cell_angle_gamma 90.000000
_cell_volume 3501.480283
_symmetry_space_group_name_H-M "C 2/C"
_symmetry_group_IT_number 15
_symmetry_cell_setting 'monoclinic'
loop_
_space_group_symop_operation_xyz
x,y,z
-x,y,1/2-z
-x,-y,-z
x,-y,1/2+z
1/2+x,1/2+y,z
1/2-x,1/2+y,1/2-z
1/2-x,1/2-y,-z
1/2+x,1/2-y,1/2+z
loop_
_atom_site_type_symbol
_atom_site_label
_atom_site_fract_x
_atom_site_fract_y
_atom_site_fract_z
Si Si1 0.667538 0.906530 0.670951
Si Si2 0.934583 0.536970 0.378399
Si Si3 0.570134 0.162090 0.638461
Si Si4 0.173915 0.724771 0.910193
Si Si5 0.500000 0.125563 0.250000
Si Si6 0.500000 0.885274 0.250000
Si Si7 0.761548 0.119800 0.925232
Si Si8 0.773954 0.468881 0.435758
O O1 0.611007 0.907300 0.633984
O O2 0.674447 0.819649 0.583058
O O3 0.679736 0.988165 0.578978
O O4 0.704634 0.907615 0.887969
O O5 0.915195 0.439230 0.336163
O O6 0.953897 0.570389 0.243584
O O7 0.982436 0.549780 0.579682
O O8 0.620088 0.219547 0.725299
O O9 0.530090 0.185543 0.429023
O O10 0.542854 0.177400 0.757850
O O11 0.213084 0.680164 0.862697
O O12 0.187790 0.824970 0.958370
O O13 0.760529 0.086197 0.743851
O O14 0.761264 0.042210 0.050323
#
# Coordination Sequence:
#
# PCOD8132824 Si02
#       8
#     8   8   8   8   4   4   8   8
#     4  10  19  28  47  66  92 129 158 193 228 272
#     4  11  18  28  39  62  88 131 174 186 212 261
#     4  11  18  30  41  61  93 129 159 200 222 264
#     4  10  20  32  47  70  99 124 155 197 244 270
#     4  10  23  26  42  62  92 133 172 193 216 260
#     4  10  19  28  40  60  92 129 168 195 208 262
#     4   9  19  34  51  71  92 122 157 198 237 285
#     4   9  18  33  50  68  89 124 161 194 229 284
#
# _framework density 15.993236
#
# number of rings (size 3 to 8) (size 9 to 14) (size 15 to 20)
#    0.000    2.000    1.429    6.000    4.000    0.571 
#    0.000    0.000    0.000    0.000    0.000    0.000 
#    0.000    3.429    0.000    0.000    0.000    0.000 
#
# Total GULP energy -347087.570276 kJ/mol
# GULP energy per Si atom -12395.984653 kJ/mol
# Density = 1.595683 g / cm^3
# Si number density = 15.993236 Si / 1000 Ang^3
#
#
#
# Elastic Constant Matrix: (Units=GPa)
#
#
# Indices 1 2 3 4 5 6 
#
# 1 76.9772 30.1830 36.3830 0.0000 3.1534 0.0000
# 2 30.1830 54.0659 39.8032 0.0000 7.0888 0.0000
# 3 36.3830 39.8032 102.3088 0.0000 -0.5122 0.0000
# 4 0.0000 0.0000 0.0000 22.0044 0.0000 7.0597
# 5 3.1534 7.0888 -0.5122 0.0000 28.1739 0.0000
# 6 0.0000 0.0000 0.0000 7.0597 0.0000 17.6944
#
#
#
# Elastic Compliance Matrix: (Units=1/GPa)
#
#
# Indices 1 2 3 4 5 6 
#
# 1 0.017429 -0.007203 -0.003397 0.000000 -0.000200 0.000000
# 2 -0.007203 0.030228 -0.009234 0.000000 -0.006967 0.000000
# 3 -0.003397 -0.009234 0.014590 0.000000 0.002969 0.000000
# 4 0.000000 0.000000 0.000000 0.052117 0.000000 -0.020794
# 5 -0.000200 -0.006967 0.002969 0.000000 0.037323 0.000000
# 6 0.000000 0.000000 0.000000 -0.020794 0.000000 0.064811
#
#
# Mechanical properties :
#
#
# Convention : Reuss Voigt Hill
#
# Bulk Modulus (GPa) = 44.28704 49.56559 46.92632
# Shear Modulus (GPa) = 18.96156 22.04007 20.50082
#
# Velocity S-wave (km/s) = 3.44699 3.71629 3.58417
# Velocity P-wave (km/s) = 6.60254 7.03372 6.82154
#
# Compressibility (1/GPa) = 0.02257997
#
# Stress axis : x y z
#
# Youngs Moduli (GPa) = 57.37630 33.08140 68.54241
#
# Poissons Ratio (x) = 0.23828 0.23282
# Poissons Ratio (y) = 0.41328 0.63290
# Poissons Ratio (z) = 0.19489 0.30546
#
# Static dielectric constant tensor:
#      x y z
#    x 3.162110 0.000000 -0.203760 
#    y 0.000000 2.630540 0.000000 
#    z -0.203760 0.000000 3.180400 
# 
# 
# High freq. dielectric constant tensor:
#      x y z
#    x 1.618810 0.000000 -0.018180 
#    y 0.000000 1.545410 0.000000 
#    z -0.018180 0.000000 1.625280 
# 
# From -- ./inp_files/62218.got.cif
#   From: 2010.06.25/outbox.cif.g09.slc.cpg/sg15_32_cif.got.tgz:62218.got - 2010.06.28 07:06:18.
