data_PCOD8132743
_publ_section_title
;
Structure prediction by ZEFSAII (Michael W. Deem and Ramdas Pophale) SiO2 
 PCOD8132743
Probable space group: C 2/C
;
_chemical_formula_sum "Si O2"
_cell_formula_units_Z 44
_cell_length_a 8.376457
_cell_length_b 17.060120
_cell_length_c 15.624371
_cell_angle_alpha 90.000000
_cell_angle_beta 77.650507
_cell_angle_gamma 90.000000
_cell_volume 2181.111381
_symmetry_space_group_name_H-M "C 2/C"
_symmetry_group_IT_number 15
_symmetry_cell_setting 'monoclinic'
loop_
_space_group_symop_operation_xyz
x,y,z
-x,y,1/2-z
-x,-y,-z
x,-y,1/2+z
1/2+x,1/2+y,z
1/2-x,1/2+y,1/2-z
1/2-x,1/2-y,-z
1/2+x,1/2-y,1/2+z
loop_
_atom_site_type_symbol
_atom_site_label
_atom_site_fract_x
_atom_site_fract_y
_atom_site_fract_z
Si Si1 0.500000 0.541119 0.750000
Si Si2 0.965450 0.296271 0.654082
Si Si3 0.097655 0.565285 0.041336
Si Si4 0.175783 0.307246 0.224185
Si Si5 0.679771 0.981048 0.194501
Si Si6 0.325800 0.653439 0.884361
O O1 0.668855 0.495038 0.757187
O O2 0.470409 0.595122 0.837147
O O3 0.788841 0.256791 0.666343
O O4 0.000000 0.313115 0.750000
O O5 0.966825 0.375517 0.599077
O O6 0.096397 0.236334 0.596993
O O7 0.207939 0.526475 0.102598
O O8 0.222567 0.614395 0.970477
O O9 0.000000 0.500000 0.000000
O O10 0.176186 0.388789 0.171802
O O11 0.213851 0.331691 0.316099
O O12 0.000000 0.266837 0.250000
O O13 0.500000 0.006175 0.250000
#
# Coordination Sequence:
#
# PCOD8132743 Si02
#       6
#     4   8   8   8   8   8
#     4  10  18  40  68  88 116 168 222 256 300 372
#     4  10  20  40  66  85 117 165 213 250 301 375
#     4  12  24  36  60  96 133 162 196 260 327 374
#     4   9  17  37  67  87 114 167 217 253 302 370
#     4  10  20  38  64  92 124 170 208 256 319 371
#     4  10  19  38  62  86 118 163 210 253 310 365
#
# _framework density 20.173200000000001
#
# number of rings (size 3 to 8) (size 9 to 14) (size 15 to 20)
#    0.000    1.818    4.545    4.364    0.000    0.727 
#    0.000    3.636   36.000    0.000    0.000    0.000 
#    0.000    0.000    0.000    0.000    0.000    0.000 
#
# Total GULP energy -272615.096437 kJ/mol
# GULP energy per Si atom -12391.595293 kJ/mol
# Density = 2.012729 g / cm^3
# Si number density = 20.173200 Si / 1000 Ang^3
#
#
#
# Elastic Constant Matrix: (Units=GPa)
#
#
# Indices 1 2 3 4 5 6 
#
# 1 130.6031 53.8490 45.6725 0.0000 -8.8950 0.0000
# 2 53.8490 118.4936 71.4418 0.0000 -8.4690 0.0000
# 3 45.6725 71.4418 100.3068 0.0000 -15.3622 0.0000
# 4 0.0000 0.0000 0.0000 7.1054 0.0000 0.4638
# 5 -8.8950 -8.4690 -15.3622 0.0000 28.1225 0.0000
# 6 0.0000 0.0000 0.0000 0.4638 0.0000 13.3971
#
#
#
# Elastic Compliance Matrix: (Units=1/GPa)
#
#
# Indices 1 2 3 4 5 6 
#
# 1 0.009727 -0.003104 -0.002063 0.000000 0.001015 0.000000
# 2 -0.003104 0.015833 -0.010131 0.000000 -0.001748 0.000000
# 3 -0.002063 -0.010131 0.019160 0.000000 0.006763 0.000000
# 4 0.000000 0.000000 0.000000 0.141056 0.000000 -0.004883
# 5 0.001015 -0.001748 0.006763 0.000000 0.039048 0.000000
# 6 0.000000 0.000000 0.000000 -0.004883 0.000000 0.074812
#
#
# Mechanical properties :
#
#
# Convention : Reuss Voigt Hill
#
# Bulk Modulus (GPa) = 70.79985 76.81447 73.80716
# Shear Modulus (GPa) = 14.92799 21.62102 18.27451
#
# Velocity S-wave (km/s) = 2.72323 3.27734 3.01305
# Velocity P-wave (km/s) = 6.71269 7.24441 6.98361
#
# Compressibility (1/GPa) = 0.01412432
#
# Stress axis : x y z
#
# Youngs Moduli (GPa) = 102.80480 63.15738 52.19153
#
# Poissons Ratio (x) = 0.19606 0.10765
# Poissons Ratio (y) = 0.31915 0.52877
# Poissons Ratio (z) = 0.21204 0.63987
#
# Static dielectric constant tensor:
#      x y z
#    x 5.069390 0.000000 -0.160230 
#    y 0.000000 3.724390 0.000000 
#    z -0.160230 0.000000 3.521570 
# 
# 
# High freq. dielectric constant tensor:
#      x y z
#    x 1.789890 0.000000 -0.011880 
#    y 0.000000 1.781100 0.000000 
#    z -0.011880 0.000000 1.770110 
# 
# From -- ./inp_files/134356.got.cif
#   From: 2010.06.25/outbox.cif.g09.slc.cpg/sg15_68_cif.got.tgz:134356.got - 2010.06.28 07:06:18.
