data_PCOD8132260
_publ_section_title
;
Structure prediction by ZEFSAII (Michael W. Deem and Ramdas Pophale) SiO2 
 PCOD8132260
Probable space group: C 2/C
;
_chemical_formula_sum "Si O2"
_cell_formula_units_Z 56
_cell_length_a 19.162966
_cell_length_b 13.005787
_cell_length_c 11.172158
_cell_angle_alpha 90.000000
_cell_angle_beta 90.946485
_cell_angle_gamma 90.000000
_cell_volume 2784.050931
_symmetry_space_group_name_H-M "C 2/C"
_symmetry_group_IT_number 15
_symmetry_cell_setting 'monoclinic'
loop_
_space_group_symop_operation_xyz
x,y,z
-x,y,1/2-z
-x,-y,-z
x,-y,1/2+z
1/2+x,1/2+y,z
1/2-x,1/2+y,1/2-z
1/2-x,1/2-y,-z
1/2+x,1/2-y,1/2+z
loop_
_atom_site_type_symbol
_atom_site_label
_atom_site_fract_x
_atom_site_fract_y
_atom_site_fract_z
Si Si1 0.780888 0.389689 0.504108
Si Si2 0.389540 0.276915 0.018544
Si Si3 0.168945 0.886580 0.693471
Si Si4 0.676632 0.602401 0.791876
Si Si5 0.107583 0.553265 0.953750
Si Si6 0.492302 0.883318 0.616811
Si Si7 0.218259 0.715084 0.873403
O O1 0.812619 0.274688 0.498483
O O2 0.742331 0.405304 0.628772
O O3 0.732596 0.422319 0.394544
O O4 0.844451 0.466341 0.490307
O O5 0.387148 0.337923 0.144805
O O6 0.452069 0.196505 0.028772
O O7 0.392770 0.347865 0.899163
O O8 0.183024 0.809620 0.803157
O O9 0.144123 0.996829 0.741445
O O10 0.714435 0.669056 0.691365
O O11 0.047904 0.493643 0.874421
O O12 0.154851 0.633258 0.881402
O O13 0.069208 0.608495 0.063259
O O14 0.500000 0.838326 0.750000
O O15 0.250000 0.750000 0.000000
#
# Coordination Sequence:
#
# PCOD8132260 Si02
#       7
#     8   8   8   8   8   8   8
#     4  10  18  36  61  88 124 161 190 243 317 374
#     4  10  21  39  60  83 121 172 204 237 306 375
#     4  11  21  36  57  89 127 162 197 248 307 369
#     4  11  21  35  59  90 127 159 196 247 309 373
#     4  10  23  38  60  96 124 153 203 254 313 362
#     4  10  24  41  65  88 120 167 209 257 305 365
#     4  12  24  34  58  96 130 158 191 259 312 362
#
# _framework density 20.114574999999999
#
# number of rings (size 3 to 8) (size 9 to 14) (size 15 to 20)
#    0.000    1.429    4.286    1.714    6.000    1.143 
#    0.000    0.000    0.000    3.429    0.000    0.000 
#    0.000    0.000    0.000    0.000    0.000    0.000 
#
# Total GULP energy -347102.700659 kJ/mol
# GULP energy per Si atom -12396.525024 kJ/mol
# Density = 2.006879 g / cm^3
# Si number density = 20.114575 Si / 1000 Ang^3
#
#
#
# Elastic Constant Matrix: (Units=GPa)
#
#
# Indices 1 2 3 4 5 6 
#
# 1 44.1917 11.9542 22.9078 0.0000 2.9733 0.0000
# 2 11.9542 99.3610 39.8973 0.0000 0.6025 0.0000
# 3 22.9078 39.8973 109.9153 0.0000 5.9014 0.0000
# 4 0.0000 0.0000 0.0000 37.0941 0.0000 -0.1806
# 5 2.9733 0.6025 5.9014 0.0000 15.9115 0.0000
# 6 0.0000 0.0000 0.0000 -0.1806 0.0000 24.6106
#
#
#
# Elastic Compliance Matrix: (Units=1/GPa)
#
#
# Indices 1 2 3 4 5 6 
#
# 1 0.025608 -0.001152 -0.004759 0.000000 -0.002977 0.000000
# 2 -0.001152 0.011854 -0.004133 0.000000 0.001299 0.000000
# 3 -0.004759 -0.004133 0.011768 0.000000 -0.003319 0.000000
# 4 0.000000 0.000000 0.000000 0.026959 0.000000 0.000198
# 5 -0.002977 0.001299 -0.003319 0.000000 0.064586 0.000000
# 6 0.000000 0.000000 0.000000 0.000198 0.000000 0.040634
#
#
# Mechanical properties :
#
#
# Convention : Reuss Voigt Hill
#
# Bulk Modulus (GPa) = 34.31368 44.77627 39.54497
# Shear Modulus (GPa) = 23.67303 27.43714 25.55509
#
# Velocity S-wave (km/s) = 3.43433 3.69730 3.56824
# Velocity P-wave (km/s) = 5.72908 6.36676 6.05632
#
# Compressibility (1/GPa) = 0.02914290
#
# Stress axis : x y z
#
# Youngs Moduli (GPa) = 39.05105 84.35666 84.97610
#
# Poissons Ratio (x) = 0.09717 0.40440
# Poissons Ratio (y) = 0.04498 0.35117
# Poissons Ratio (z) = 0.18584 0.34861
#
# Static dielectric constant tensor:
#      x y z
#    x 3.430930 0.000000 -0.099630 
#    y 0.000000 3.883750 0.000000 
#    z -0.099630 0.000000 3.751160 
# 
# 
# High freq. dielectric constant tensor:
#      x y z
#    x 1.757820 0.000000 0.003930 
#    y 0.000000 1.793220 0.000000 
#    z 0.003930 0.000000 1.787020 
# 
# From -- ./inp_files/111581.got.cif
#   From: 2010.06.25/outbox.cif.g09.slc.cpg/sg15_56_cif.got.tgz:111581.got - 2010.06.28 07:06:18.
