data_PCOD8132653
_publ_section_title
;
Structure prediction by ZEFSAII (Michael W. Deem and Ramdas Pophale) SiO2 
 PCOD8132653
Probable space group: C 2/C
;
_chemical_formula_sum "Si O2"
_cell_formula_units_Z 40
_cell_length_a 15.237067
_cell_length_b 10.326646
_cell_length_c 14.262192
_cell_angle_alpha 90.000000
_cell_angle_beta 120.370372
_cell_angle_gamma 90.000000
_cell_volume 1936.175018
_symmetry_space_group_name_H-M "C 2/C"
_symmetry_group_IT_number 15
_symmetry_cell_setting 'monoclinic'
loop_
_space_group_symop_operation_xyz
x,y,z
-x,y,1/2-z
-x,-y,-z
x,-y,1/2+z
1/2+x,1/2+y,z
1/2-x,1/2+y,1/2-z
1/2-x,1/2-y,-z
1/2+x,1/2-y,1/2+z
loop_
_atom_site_type_symbol
_atom_site_label
_atom_site_fract_x
_atom_site_fract_y
_atom_site_fract_z
Si Si1 0.058221 0.774680 0.188468
Si Si2 0.787483 0.807900 0.819338
Si Si3 0.604055 0.541677 0.277107
Si Si4 0.740249 0.594865 0.005768
Si Si5 0.076144 0.390371 0.006191
O O1 0.169408 0.716298 0.242832
O O2 0.065997 0.929120 0.186984
O O3 0.000000 0.726582 0.250000
O O4 0.991831 0.728900 0.065081
O O5 0.848329 0.673831 0.875102
O O6 0.824244 0.860219 0.739082
O O7 0.794043 0.920126 0.904160
O O8 0.500000 0.616662 0.250000
O O9 0.657825 0.474220 0.395443
O O10 0.852634 0.543786 0.036393
O O11 0.750000 0.750000 0.000000
O O12 0.000000 0.500000 0.000000
#
# Coordination Sequence:
#
# PCOD8132653 Si02
#       5
#     8   8   8   8   8
#     4  11  20  37  65  89 116 166 215 255 310 366
#     4  11  22  40  63  96 129 159 216 271 303 376
#     4  11  22  37  63  94 127 164 208 262 321 366
#     4  10  18  39  63  89 121 163 217 254 295 386
#     4  11  22  38  62  90 124 168 211 257 316 378
#
# _framework density 20.659289999999999
#
# number of rings (size 3 to 8) (size 9 to 14) (size 15 to 20)
#    0.000    1.200    6.000    4.800    0.000    3.200 
#    0.000    3.000    0.000    4.800    0.000    0.000 
#    0.000    0.000    0.000    0.000    0.000    0.000 
#
# Total GULP energy -247763.310563 kJ/mol
# GULP energy per Si atom -12388.165528 kJ/mol
# Density = 2.061227 g / cm^3
# Si number density = 20.659290 Si / 1000 Ang^3
#
#
#
# Elastic Constant Matrix: (Units=GPa)
#
#
# Indices 1 2 3 4 5 6 
#
# 1 180.9938 32.4159 27.7733 0.0000 2.2507 0.0000
# 2 32.4159 28.0943 2.4552 0.0000 -4.5138 0.0000
# 3 27.7733 2.4552 44.2333 0.0000 6.3744 0.0000
# 4 0.0000 0.0000 0.0000 16.2667 0.0000 -0.7585
# 5 2.2507 -4.5138 6.3744 0.0000 39.7350 0.0000
# 6 0.0000 0.0000 0.0000 -0.7585 0.0000 39.5500
#
#
#
# Elastic Compliance Matrix: (Units=1/GPa)
#
#
# Indices 1 2 3 4 5 6 
#
# 1 0.007745 -0.008682 -0.004275 0.000000 -0.000739 0.000000
# 2 -0.008682 0.046298 0.002101 0.000000 0.005414 0.000000
# 3 -0.004275 0.002101 0.025700 0.000000 -0.003642 0.000000
# 4 0.000000 0.000000 0.000000 0.061530 0.000000 0.001180
# 5 -0.000739 0.005414 -0.003642 0.000000 0.026408 0.000000
# 6 0.000000 0.000000 0.000000 0.001180 0.000000 0.025307
#
#
# Mechanical properties :
#
#
# Convention : Reuss Voigt Hill
#
# Bulk Modulus (GPa) = 17.23184 42.06778 29.64981
# Shear Modulus (GPa) = 21.36368 31.82213 26.59290
#
# Velocity S-wave (km/s) = 3.21922 3.92896 3.59167
# Velocity P-wave (km/s) = 4.70924 6.40228 5.61988
#
# Compressibility (1/GPa) = 0.05803210
#
# Stress axis : x y z
#
# Youngs Moduli (GPa) = 129.11470 21.59933 38.91117
#
# Poissons Ratio (x) = 0.18752 0.16633
# Poissons Ratio (y) = 1.12093 -0.08176
# Poissons Ratio (z) = 0.55191 -0.04538
#
# Static dielectric constant tensor:
#      x y z
#    x 4.475610 0.000000 -0.198260 
#    y 0.000000 3.313840 0.000000 
#    z -0.198260 0.000000 4.070350 
# 
# 
# High freq. dielectric constant tensor:
#      x y z
#    x 1.844580 0.000000 0.016400 
#    y 0.000000 1.758430 0.000000 
#    z 0.016400 0.000000 1.792210 
# 
# From -- ./inp_files/95150.got.cif
#   From: 2010.06.25/outbox.cif.g09.slc.cpg/sg15_48_cif.got.tgz:95150.got - 2010.06.28 07:06:18.
