data_PCOD8132396
_publ_section_title
;
Structure prediction by ZEFSAII (Michael W. Deem and Ramdas Pophale) SiO2 
 PCOD8132396
Probable space group: C 2/C
;
_chemical_formula_sum "Si O2"
_cell_formula_units_Z 40
_cell_length_a 14.686426
_cell_length_b 9.503757
_cell_length_c 29.191748
_cell_angle_alpha 90.000000
_cell_angle_beta 152.057063
_cell_angle_gamma 90.000000
_cell_volume 1909.265776
_symmetry_space_group_name_H-M "C 2/C"
_symmetry_group_IT_number 15
_symmetry_cell_setting 'monoclinic'
loop_
_space_group_symop_operation_xyz
x,y,z
-x,y,1/2-z
-x,-y,-z
x,-y,1/2+z
1/2+x,1/2+y,z
1/2-x,1/2+y,1/2-z
1/2-x,1/2-y,-z
1/2+x,1/2-y,1/2+z
loop_
_atom_site_type_symbol
_atom_site_label
_atom_site_fract_x
_atom_site_fract_y
_atom_site_fract_z
Si Si1 0.327347 0.083386 0.825146
Si Si2 0.716837 0.043953 0.104822
Si Si3 0.407679 0.653306 0.625146
Si Si4 0.647565 0.731186 0.503598
Si Si5 0.312325 0.044192 0.059968
O O1 0.428197 0.210349 0.899527
O O2 0.137120 0.145228 0.715367
O O3 0.261051 0.954627 0.829964
O O4 0.474491 0.023365 0.852734
O O5 0.866035 0.924871 0.154017
O O6 0.754104 0.189658 0.093735
O O7 0.500000 0.000000 0.000000
O O8 0.336359 0.813675 0.599367
O O9 0.281025 0.574562 0.530773
O O10 0.750000 0.750000 0.500000
O O11 0.670119 0.563960 0.524177
#
# Coordination Sequence:
#
# PCOD8132396 Si02
#       5
#     8   8   8   8   8
#     4  10  21  35  62  82 116 159 198 231 299 356
#     4  10  18  37  59  81 115 157 191 233 295 349
#     4  11  21  35  60  86 119 152 198 239 291 353
#     4   9  17  36  58  81 114 151 191 240 289 340
#     4  10  22  37  58  88 119 148 198 253 286 339
#
# _framework density 20.950462000000002
#
# number of rings (size 3 to 8) (size 9 to 14) (size 15 to 20)
#    0.000    2.000    6.000    0.600    2.800    0.000 
#    0.000    4.000    0.000    2.400    0.000    0.000 
#    0.000    0.000    0.000    0.000    0.000    0.000 
#
# Total GULP energy -247762.996573 kJ/mol
# GULP energy per Si atom -12388.149829 kJ/mol
# Density = 2.090278 g / cm^3
# Si number density = 20.950462 Si / 1000 Ang^3
#
#
#
# Elastic Constant Matrix: (Units=GPa)
#
#
# Indices 1 2 3 4 5 6 
#
# 1 40.0590 19.5981 -0.7633 0.0001 8.1169 0.0000
# 2 19.5981 134.7420 14.5323 0.0002 10.0272 0.0000
# 3 -0.7633 14.5323 75.6389 0.0019 25.8349 -0.0006
# 4 0.0001 0.0002 0.0019 22.3045 -0.0001 6.3690
# 5 8.1169 10.0272 25.8349 -0.0001 24.6275 -0.0001
# 6 0.0000 0.0000 -0.0006 6.3690 -0.0001 29.6347
#
#
#
# Elastic Compliance Matrix: (Units=1/GPa)
#
#
# Indices 1 2 3 4 5 6 
#
# 1 0.029961 -0.003922 0.006051 -0.000001 -0.014626 0.000000
# 2 -0.003922 0.008186 -0.001427 0.000000 -0.000544 0.000000
# 3 0.006051 -0.001427 0.021877 -0.000002 -0.024364 0.000001
# 4 -0.000001 0.000000 -0.000002 0.047765 0.000003 -0.010266
# 5 -0.014626 -0.000544 -0.024364 0.000003 0.071205 -0.000001
# 6 0.000000 0.000000 0.000001 -0.010266 -0.000001 0.035950
#
#
# Mechanical properties :
#
#
# Convention : Reuss Voigt Hill
#
# Bulk Modulus (GPa) = 16.27861 35.24154 25.76007
# Shear Modulus (GPa) = 21.36600 29.78486 25.57543
#
# Velocity S-wave (km/s) = 3.19695 3.77461 3.49772
# Velocity P-wave (km/s) = 4.62755 5.98789 5.35112
#
# Compressibility (1/GPa) = 0.06143032
#
# Stress axis : x y z
#
# Youngs Moduli (GPa) = 33.37689 122.15403 45.70928
#
# Poissons Ratio (x) = 0.47909 -0.27661
# Poissons Ratio (y) = 0.13090 0.06521
# Poissons Ratio (z) = -0.20198 0.17427
#
# Static dielectric constant tensor:
#      x y z
#    x 4.160360 0.000000 0.045160 
#    y 0.000000 4.426930 0.000000 
#    z 0.045160 0.000000 3.844280 
# 
# 
# High freq. dielectric constant tensor:
#      x y z
#    x 1.796590 0.000000 0.015770 
#    y 0.000000 1.811530 0.000000 
#    z 0.015770 0.000000 1.813240 
# 
# From -- ./inp_files/272944.got.cif
#   From: 2010.06.25/outbox.cif.g09.slc.cpg/sg15_137_cif.got.tgz:272944.got - 2010.06.28 07:06:18.
