data_PCOD8132840
_publ_section_title
;
Structure prediction by ZEFSAII (Michael W. Deem and Ramdas Pophale) SiO2 
 PCOD8132840
Probable space group: C 2/C
;
_chemical_formula_sum "Si O2"
_cell_formula_units_Z 48
_cell_length_a 11.715885
_cell_length_b 22.112620
_cell_length_c 8.989253
_cell_angle_alpha 90.000000
_cell_angle_beta 88.449757
_cell_angle_gamma 90.000000
_cell_volume 2327.983616
_symmetry_space_group_name_H-M "C 2/C"
_symmetry_group_IT_number 15
_symmetry_cell_setting 'monoclinic'
loop_
_space_group_symop_operation_xyz
x,y,z
-x,y,1/2-z
-x,-y,-z
x,-y,1/2+z
1/2+x,1/2+y,z
1/2-x,1/2+y,1/2-z
1/2-x,1/2-y,-z
1/2+x,1/2-y,1/2+z
loop_
_atom_site_type_symbol
_atom_site_label
_atom_site_fract_x
_atom_site_fract_y
_atom_site_fract_z
Si Si1 0.199595 0.101133 0.450189
Si Si2 0.000000 0.012963 0.750000
Si Si3 0.701852 0.337886 0.539369
Si Si4 0.870979 0.683799 0.272363
Si Si5 0.844221 0.967345 0.005068
Si Si6 0.500000 0.638916 0.250000
Si Si7 0.628536 0.682061 0.719705
O O1 0.305569 0.132703 0.367046
O O2 0.226396 0.029899 0.477346
O O3 0.185471 0.134400 0.607410
O O4 0.084261 0.101381 0.356649
O O5 0.910023 0.052031 0.656448
O O6 0.064787 0.969994 0.631488
O O7 0.810949 0.307861 0.613620
O O8 0.732103 0.409964 0.533733
O O9 0.584610 0.323006 0.637626
O O10 0.695428 0.313658 0.372936
O O11 0.868863 0.749994 0.351008
O O12 0.000000 0.661029 0.250000
O O13 0.500000 0.660374 0.750000
#
# Coordination Sequence:
#
# PCOD8132840 Si02
#       7
#     8   4   8   8   8   4   8
#     4  11  21  36  59  88 120 150 189 235 290 351
#     4  10  19  28  48  84 136 148 162 212 291 368
#     4  11  21  36  59  88 120 150 189 235 290 351
#     4  10  24  44  58  73 112 161 206 242 279 317
#     4  11  20  30  53  88 120 152 175 225 292 354
#     4  10  19  32  54  92 124 154 172 218 297 360
#     4  11  22  36  61  89 116 147 196 236 293 342
#
# _framework density 20.618701000000001
#
# number of rings (size 3 to 8) (size 9 to 14) (size 15 to 20)
#    0.000    1.333    1.667    7.000    2.333    0.000 
#    0.000    1.667    0.000    0.000    0.000    0.000 
#    0.000    0.000    0.000    0.000    0.000    0.000 
#
# Total GULP energy -297431.501691 kJ/mol
# GULP energy per Si atom -12392.979237 kJ/mol
# Density = 2.057177 g / cm^3
# Si number density = 20.618701 Si / 1000 Ang^3
#
#
#
# Elastic Constant Matrix: (Units=GPa)
#
#
# Indices 1 2 3 4 5 6 
#
# 1 102.2711 31.2072 36.3732 0.0000 0.3323 0.0000
# 2 31.2072 98.0463 23.2774 0.0000 -11.7966 0.0000
# 3 36.3732 23.2774 121.7838 0.0000 -1.2322 0.0000
# 4 0.0000 0.0000 0.0000 23.2843 0.0000 -0.9606
# 5 0.3323 -11.7966 -1.2322 0.0000 22.1103 0.0000
# 6 0.0000 0.0000 0.0000 -0.9606 0.0000 14.1203
#
#
#
# Elastic Compliance Matrix: (Units=1/GPa)
#
#
# Indices 1 2 3 4 5 6 
#
# 1 0.011840 -0.003330 -0.002921 0.000000 -0.002117 0.000000
# 2 -0.003330 0.012359 -0.001301 0.000000 0.006571 0.000000
# 3 -0.002921 -0.001301 0.009331 0.000000 -0.000130 0.000000
# 4 0.000000 0.000000 0.000000 0.043068 0.000000 0.002930
# 5 -0.002117 0.006571 -0.000130 0.000000 0.048758 0.000000
# 6 0.000000 0.000000 0.000000 0.002930 0.000000 0.071020
#
#
# Mechanical properties :
#
#
# Convention : Reuss Voigt Hill
#
# Bulk Modulus (GPa) = 54.27310 55.97966 55.12638
# Shear Modulus (GPa) = 22.97564 27.31919 25.14742
#
# Velocity S-wave (km/s) = 3.34175 3.64396 3.49612
# Velocity P-wave (km/s) = 6.42411 6.70176 6.56440
#
# Compressibility (1/GPa) = 0.01842534
#
# Stress axis : x y z
#
# Youngs Moduli (GPa) = 84.46102 80.91501 107.16811
#
# Poissons Ratio (x) = 0.26942 0.31306
# Poissons Ratio (y) = 0.28123 0.13945
# Poissons Ratio (z) = 0.24673 0.10529
#
# Static dielectric constant tensor:
#      x y z
#    x 3.367550 0.000000 0.090600 
#    y 0.000000 3.714540 0.000000 
#    z 0.090600 0.000000 4.153140 
# 
# 
# High freq. dielectric constant tensor:
#      x y z
#    x 1.752680 0.000000 0.005670 
#    y 0.000000 1.817760 0.000000 
#    z 0.005670 0.000000 1.827230 
# 
# From -- ./inp_files/32088.got.cif
#   From: 2010.06.25/outbox.cif.g09.slc.cpg/sg15_17_cif.got.tgz:32088.got - 2010.06.28 07:06:18.
