data_PCOD8132030
_publ_section_title
;
Structure prediction by ZEFSAII (Michael W. Deem and Ramdas Pophale) SiO2 
 PCOD8132030
Probable space group: C 2/C
;
_chemical_formula_sum "Si O2"
_cell_formula_units_Z 48
_cell_length_a 9.927019
_cell_length_b 18.758672
_cell_length_c 19.213308
_cell_angle_alpha 90.000000
_cell_angle_beta 43.881892
_cell_angle_gamma 90.000000
_cell_volume 2480.078312
_symmetry_space_group_name_H-M "C 2/C"
_symmetry_group_IT_number 15
_symmetry_cell_setting 'monoclinic'
loop_
_space_group_symop_operation_xyz
x,y,z
-x,y,1/2-z
-x,-y,-z
x,-y,1/2+z
1/2+x,1/2+y,z
1/2-x,1/2+y,1/2-z
1/2-x,1/2-y,-z
1/2+x,1/2-y,1/2+z
loop_
_atom_site_type_symbol
_atom_site_label
_atom_site_fract_x
_atom_site_fract_y
_atom_site_fract_z
Si Si1 0.098728 0.445217 0.376041
Si Si2 0.742413 0.032754 0.972356
Si Si3 0.354875 0.677392 0.739822
Si Si4 0.652114 0.322707 0.010835
Si Si5 0.094997 0.052457 0.286386
Si Si6 0.278738 0.831104 0.814425
O O1 0.136431 0.438318 0.443494
O O2 0.162684 0.371917 0.314917
O O3 0.210114 0.511881 0.303371
O O4 0.872219 0.465934 0.449544
O O5 0.731873 0.102857 0.024278
O O6 0.957615 0.004502 0.876430
O O7 0.500000 0.656456 0.750000
O O8 0.453167 0.666209 0.627749
O O9 0.293490 0.758763 0.765637
O O10 0.640678 0.315065 0.932139
O O11 0.750000 0.250000 0.000000
O O12 0.154157 0.116010 0.314309
O O13 0.000000 0.081707 0.250000
O O14 0.500000 0.856933 0.750000
#
# Coordination Sequence:
#
# PCOD8132030 Si02
#       6
#     8   8   8   8   8   8
#     4  10  18  35  60  85 117 163 208 242 298 369
#     4  10  20  33  60  89 117 162 204 246 306 363
#     4  11  19  37  59  87 122 156 208 259 296 354
#     4  12  20  35  60  90 120 152 204 263 305 345
#     4  10  21  41  60  86 124 161 199 250 306 370
#     4  11  23  37  63  94 120 157 207 260 303 352
#
# _framework density 19.354227999999999
#
# number of rings (size 3 to 8) (size 9 to 14) (size 15 to 20)
#    0.000    1.333    6.667    1.500    0.000    0.667 
#    3.000    0.833    0.000    0.000    0.000    0.000 
#    0.000    0.000    0.000    0.000    0.000    0.000 
#
# Total GULP energy -297395.020452 kJ/mol
# GULP energy per Si atom -12391.459185 kJ/mol
# Density = 1.931018 g / cm^3
# Si number density = 19.354228 Si / 1000 Ang^3
#
#
#
# Elastic Constant Matrix: (Units=GPa)
#
#
# Indices 1 2 3 4 5 6 
#
# 1 43.7571 35.1290 18.3269 -0.0061 10.3338 0.0050
# 2 35.1290 93.8318 7.8280 -0.0064 5.6407 0.0055
# 3 18.3269 7.8280 92.4732 -0.0114 6.3351 0.0086
# 4 -0.0061 -0.0064 -0.0114 34.9214 0.0068 -0.2451
# 5 10.3338 5.6407 6.3351 0.0068 18.7408 -0.0056
# 6 0.0050 0.0055 0.0086 -0.2451 -0.0056 28.5135
#
#
#
# Elastic Compliance Matrix: (Units=1/GPa)
#
#
# Indices 1 2 3 4 5 6 
#
# 1 0.039813 -0.013473 -0.005655 0.000006 -0.015987 -0.000006
# 2 -0.013473 0.015459 0.001199 0.000000 0.002371 -0.000001
# 3 -0.005655 0.001199 0.011920 0.000003 -0.001272 -0.000003
# 4 0.000006 0.000000 0.000003 0.028637 -0.000015 0.000246
# 5 -0.015987 0.002371 -0.001272 -0.000015 0.061891 0.000015
# 6 -0.000006 -0.000001 -0.000003 0.000246 0.000015 0.035073
#
#
# Mechanical properties :
#
#
# Convention : Reuss Voigt Hill
#
# Bulk Modulus (GPa) = 31.91239 39.18109 35.54674
# Shear Modulus (GPa) = 20.91206 27.68704 24.29955
#
# Velocity S-wave (km/s) = 3.29065 3.78635 3.54717
# Velocity P-wave (km/s) = 5.56437 6.27722 5.93151
#
# Compressibility (1/GPa) = 0.03133580
#
# Stress axis : x y z
#
# Youngs Moduli (GPa) = 25.11712 64.68833 83.89047
#
# Poissons Ratio (x) = 0.87152 0.47438
# Poissons Ratio (y) = 0.33839 -0.10059
# Poissons Ratio (z) = 0.14203 -0.07757
#
# Static dielectric constant tensor:
#      x y z
#    x 3.152740 0.000000 0.074640 
#    y 0.000000 3.623800 0.000000 
#    z 0.074640 0.000000 4.040990 
# 
# 
# High freq. dielectric constant tensor:
#      x y z
#    x 1.692500 0.000000 0.004430 
#    y 0.000000 1.763730 0.000000 
#    z 0.004430 0.000000 1.778310 
# 
# From -- ./inp_files/144992.got.cif
#   From: 2010.06.25/outbox.cif.g09.slc.cpg/sg15_73_cif.got.tgz:144992.got - 2010.06.28 07:06:18.
