data_PCOD8132149
_publ_section_title
;
Structure prediction by ZEFSAII (Michael W. Deem and Ramdas Pophale) SiO2 
 PCOD8132149
Probable space group: C 2/C
;
_chemical_formula_sum "Si O2"
_cell_formula_units_Z 48
_cell_length_a 25.074191
_cell_length_b 14.094546
_cell_length_c 14.292966
_cell_angle_alpha 90.000000
_cell_angle_beta 150.263364
_cell_angle_gamma 90.000000
_cell_volume 2505.499408
_symmetry_space_group_name_H-M "C 2/C"
_symmetry_group_IT_number 15
_symmetry_cell_setting 'monoclinic'
loop_
_space_group_symop_operation_xyz
x,y,z
-x,y,1/2-z
-x,-y,-z
x,-y,1/2+z
1/2+x,1/2+y,z
1/2-x,1/2+y,1/2-z
1/2-x,1/2-y,-z
1/2+x,1/2-y,1/2+z
loop_
_atom_site_type_symbol
_atom_site_label
_atom_site_fract_x
_atom_site_fract_y
_atom_site_fract_z
Si Si1 0.240219 0.850852 0.306315
Si Si2 0.165295 0.434938 0.872789
Si Si3 0.487913 0.939257 0.074868
Si Si4 0.412192 0.310058 0.035684
Si Si5 0.950248 0.731475 0.411452
Si Si6 0.247145 0.522835 0.300441
O O1 0.255105 0.914602 0.421344
O O2 0.343441 0.783916 0.451339
O O3 0.133035 0.791414 0.155225
O O4 0.222584 0.918273 0.189826
O O5 0.111942 0.336785 0.756350
O O6 0.233947 0.480561 0.892658
O O7 0.076327 0.511665 0.776971
O O8 0.514855 0.830587 0.087636
O O9 0.364514 0.946585 0.921296
O O10 0.500000 0.000000 0.000000
O O11 0.500000 0.324860 0.250000
O O12 0.469770 0.298862 0.023270
O O13 0.338844 0.402444 0.914001
#
# Coordination Sequence:
#
# PCOD8132149 Si02
#       6
#     8   8   8   8   8   8
#     4  12  21  36  62  89 116 152 195 242 294 335
#     4  10  18  36  57  88 113 145 199 249 279 330
#     4   8  16  33  51  78 117 142 181 242 283 321
#     4  12  21  34  59  87 114 150 194 236 297 342
#     4  10  19  33  55  84 117 149 187 240 287 346
#     4  10  22  34  52  88 121 148 185 245 290 345
#
# _framework density 19.157858000000001
#
# number of rings (size 3 to 8) (size 9 to 14) (size 15 to 20)
#    0.000    2.000    5.000    4.500    0.000    0.667 
#    0.000    0.000    0.000    6.000    4.333    0.000 
#    0.000    0.000    0.000    0.000    0.000    0.000 
#
# Total GULP energy -297451.290777 kJ/mol
# GULP energy per Si atom -12393.803782 kJ/mol
# Density = 1.911425 g / cm^3
# Si number density = 19.157858 Si / 1000 Ang^3
#
#
#
# Elastic Constant Matrix: (Units=GPa)
#
#
# Indices 1 2 3 4 5 6 
#
# 1 62.8903 30.8249 29.9958 0.0000 24.6239 0.0000
# 2 30.8249 101.3885 58.6189 0.0000 13.5671 0.0000
# 3 29.9958 58.6189 52.2761 0.0000 15.9889 0.0000
# 4 0.0000 0.0000 0.0000 40.4782 0.0000 12.8283
# 5 24.6239 13.5671 15.9889 0.0000 29.1013 0.0000
# 6 0.0000 0.0000 0.0000 12.8283 0.0000 33.8688
#
#
#
# Elastic Compliance Matrix: (Units=1/GPa)
#
#
# Indices 1 2 3 4 5 6 
#
# 1 0.027917 0.000022 -0.010595 0.000000 -0.017811 0.000000
# 2 0.000022 0.028677 -0.033745 0.000000 0.005153 0.000000
# 3 -0.010595 -0.033745 0.066703 0.000000 -0.011951 0.000000
# 4 0.000000 0.000000 0.000000 0.028075 0.000000 -0.010634
# 5 -0.017811 0.005153 -0.011951 0.000000 0.053597 0.000000
# 6 0.000000 0.000000 0.000000 -0.010634 0.000000 0.033553
#
#
# Mechanical properties :
#
#
# Convention : Reuss Voigt Hill
#
# Bulk Modulus (GPa) = 28.85163 50.60378 39.72771
# Shear Modulus (GPa) = 14.76178 27.16399 20.96289
#
# Velocity S-wave (km/s) = 2.77886 3.76959 3.31149
# Velocity P-wave (km/s) = 5.03872 6.73928 5.95007
#
# Compressibility (1/GPa) = 0.03466009
#
# Stress axis : x y z
#
# Youngs Moduli (GPa) = 35.82015 34.87139 14.99185
#
# Poissons Ratio (x) = -0.00075 0.15885
# Poissons Ratio (y) = -0.00077 0.50589
# Poissons Ratio (z) = 0.37953 1.17672
#
# Static dielectric constant tensor:
#      x y z
#    x 3.496210 0.000000 0.241980 
#    y 0.000000 3.776370 0.000000 
#    z 0.241980 0.000000 3.755210 
# 
# 
# High freq. dielectric constant tensor:
#      x y z
#    x 1.743360 0.000000 0.023490 
#    y 0.000000 1.739070 0.000000 
#    z 0.023490 0.000000 1.715190 
# 
# From -- ./inp_files/152207.got.cif
#   From: 2010.06.25/outbox.cif.g09.slc.cpg/sg15_77_cif.got.tgz:152207.got - 2010.06.28 07:06:18.
