data_PCOD8132231
_publ_section_title
;
Structure prediction by ZEFSAII (Michael W. Deem and Ramdas Pophale) SiO2 
 PCOD8132231
Probable space group: C 2/C
;
_chemical_formula_sum "Si O2"
_cell_formula_units_Z 48
_cell_length_a 11.815666
_cell_length_b 15.675126
_cell_length_c 14.227551
_cell_angle_alpha 90.000000
_cell_angle_beta 62.975786
_cell_angle_gamma 90.000000
_cell_volume 2347.397918
_symmetry_space_group_name_H-M "C 2/C"
_symmetry_group_IT_number 15
_symmetry_cell_setting 'monoclinic'
loop_
_space_group_symop_operation_xyz
x,y,z
-x,y,1/2-z
-x,-y,-z
x,-y,1/2+z
1/2+x,1/2+y,z
1/2-x,1/2+y,1/2-z
1/2-x,1/2-y,-z
1/2+x,1/2-y,1/2+z
loop_
_atom_site_type_symbol
_atom_site_label
_atom_site_fract_x
_atom_site_fract_y
_atom_site_fract_z
Si Si1 0.936041 0.867705 0.053619
Si Si2 0.866154 0.454556 0.561118
Si Si3 0.328735 0.534208 0.999574
Si Si4 0.863242 0.539495 0.276899
Si Si5 0.045469 0.705857 0.581065
Si Si6 0.328655 0.844445 0.284939
O O1 0.824338 0.839224 0.168287
O O2 0.890911 0.945683 0.006873
O O3 0.967963 0.792373 0.970434
O O4 0.060487 0.896895 0.065680
O O5 0.758421 0.515421 0.557645
O O6 0.826390 0.441307 0.683910
O O7 0.876973 0.362802 0.509055
O O8 0.000000 0.500000 0.500000
O O9 0.244970 0.577606 0.114410
O O10 0.870225 0.439347 0.298916
O O11 0.000000 0.580548 0.250000
O O12 0.125188 0.717589 0.647670
O O13 0.900090 0.678482 0.660955
#
# Coordination Sequence:
#
# PCOD8132231 Si02
#       6
#     8   8   8   8   8   8
#     4  10  22  39  59  88 130 160 195 269 327 362
#     4  12  20  35  68  89 115 168 216 245 304 378
#     4  10  22  41  58  91 132 161 198 266 319 375
#     4  11  18  36  63  89 117 160 217 254 296 372
#     4  11  20  36  64  93 116 166 218 256 299 382
#     4  10  18  36  60  85 127 159 205 265 308 359
#
# _framework density 20.448173000000001
#
# number of rings (size 3 to 8) (size 9 to 14) (size 15 to 20)
#    0.000    1.333    8.333    0.500    0.000    1.333 
#    3.000    7.500    0.000    0.000    0.000    0.000 
#    0.000    0.000    0.000    0.000    0.000    0.000 
#
# Total GULP energy -297515.418212 kJ/mol
# GULP energy per Si atom -12396.475759 kJ/mol
# Density = 2.040163 g / cm^3
# Si number density = 20.448173 Si / 1000 Ang^3
#
#
#
# Elastic Constant Matrix: (Units=GPa)
#
#
# Indices 1 2 3 4 5 6 
#
# 1 150.8887 34.9720 69.6373 0.0000 -19.3531 0.0000
# 2 34.9720 57.2314 22.8783 0.0000 -11.2762 0.0000
# 3 69.6373 22.8783 126.6243 0.0000 -12.6712 0.0000
# 4 0.0000 0.0000 0.0000 23.6310 0.0000 2.1167
# 5 -19.3531 -11.2762 -12.6712 0.0000 45.0739 0.0000
# 6 0.0000 0.0000 0.0000 2.1167 0.0000 21.3854
#
#
#
# Elastic Compliance Matrix: (Units=1/GPa)
#
#
# Indices 1 2 3 4 5 6 
#
# 1 0.009862 -0.003819 -0.004533 0.000000 0.002005 0.000000
# 2 -0.003819 0.020990 -0.001369 0.000000 0.003226 0.000000
# 3 -0.004533 -0.001369 0.010710 0.000000 0.000722 0.000000
# 4 0.000000 0.000000 0.000000 0.042696 0.000000 -0.004226
# 5 0.002005 0.003226 0.000722 0.000000 0.024057 0.000000
# 6 0.000000 0.000000 0.000000 -0.004226 0.000000 0.047179
#
#
# Mechanical properties :
#
#
# Convention : Reuss Voigt Hill
#
# Bulk Modulus (GPa) = 45.21019 65.52441 55.36730
# Shear Modulus (GPa) = 27.42611 31.83517 29.63064
#
# Velocity S-wave (km/s) = 3.66628 3.95000 3.81078
# Velocity P-wave (km/s) = 6.33086 7.27441 6.81898
#
# Compressibility (1/GPa) = 0.02211891
#
# Stress axis : x y z
#
# Youngs Moduli (GPa) = 101.40301 47.64244 93.37216
#
# Poissons Ratio (x) = 0.18195 0.42324
# Poissons Ratio (y) = 0.38727 0.12784
# Poissons Ratio (z) = 0.45964 0.06523
#
# Static dielectric constant tensor:
#      x y z
#    x 3.880770 0.000000 -0.410620 
#    y 0.000000 3.432030 0.000000 
#    z -0.410620 0.000000 4.016220 
# 
# 
# High freq. dielectric constant tensor:
#      x y z
#    x 1.792830 0.000000 -0.024560 
#    y 0.000000 1.765640 0.000000 
#    z -0.024560 0.000000 1.800880 
# 
# From -- ./inp_files/143431.got.cif
#   From: 2010.06.25/outbox.cif.g09.slc.cpg/sg15_72_cif.got.tgz:143431.got - 2010.06.28 07:06:18.
