data_PCOD8132512
_publ_section_title
;
Structure prediction by ZEFSAII (Michael W. Deem and Ramdas Pophale) SiO2 
 PCOD8132512
Probable space group: C 2/C
;
_chemical_formula_sum "Si O2"
_cell_formula_units_Z 36
_cell_length_a 7.598114
_cell_length_b 17.249186
_cell_length_c 14.008121
_cell_angle_alpha 90.000000
_cell_angle_beta 128.903942
_cell_angle_gamma 90.000000
_cell_volume 1428.714621
_symmetry_space_group_name_H-M "C 2/C"
_symmetry_group_IT_number 15
_symmetry_cell_setting 'monoclinic'
loop_
_space_group_symop_operation_xyz
x,y,z
-x,y,1/2-z
-x,-y,-z
x,-y,1/2+z
1/2+x,1/2+y,z
1/2-x,1/2+y,1/2-z
1/2-x,1/2-y,-z
1/2+x,1/2-y,1/2+z
loop_
_atom_site_type_symbol
_atom_site_label
_atom_site_fract_x
_atom_site_fract_y
_atom_site_fract_z
Si Si1 0.229680 0.372120 0.156639
Si Si2 0.500000 0.632180 0.250000
Si Si3 0.322124 0.415105 0.383296
Si Si4 0.728557 0.487650 0.947530
Si Si5 0.997249 0.218356 0.064997
O O1 0.500000 0.377597 0.250000
O O2 0.156871 0.382448 0.243279
O O3 0.128146 0.441864 0.053427
O O4 0.151764 0.290717 0.086008
O O5 0.297411 0.580174 0.139034
O O6 0.600916 0.684063 0.198425
O O7 0.171338 0.450260 0.420009
O O8 0.478180 0.481943 0.390676
O O9 0.487029 0.346481 0.478862
O O10 0.750000 0.250000 0.000000
#
# Coordination Sequence:
#
# PCOD8132512 Si02
#       5
#     8   4   8   8   8
#     4  10  20  38  63  89 125 164 213 258 304 371
#     4  10  18  38  60  84 120 170 200 254 310 368
#     4   9  18  34  60  87 121 163 202 253 316 356
#     4   9  17  34  62  89 114 163 208 255 304 364
#     4  11  23  36  59  90 129 166 205 254 321 371
#
# _framework density 25.197474
#
# number of rings (size 3 to 8) (size 9 to 14) (size 15 to 20)
#    0.000    2.222    3.333    1.333    0.000    3.556 
#    0.000    4.444    4.889    5.333    0.000    0.000 
#    0.000    0.000    0.000    0.000    0.000    0.000 
#
# Total GULP energy -223129.694091 kJ/mol
# GULP energy per Si atom -12396.094116 kJ/mol
# Density = 2.514012 g / cm^3
# Si number density = 25.197474 Si / 1000 Ang^3
#
#
#
# Elastic Constant Matrix: (Units=GPa)
#
#
# Indices 1 2 3 4 5 6 
#
# 1 54.8265 34.5073 43.2048 0.0000 -29.6424 0.0000
# 2 34.5073 190.4804 74.6037 0.0000 -23.1855 0.0000
# 3 43.2048 74.6037 118.6616 0.0000 -26.3304 0.0000
# 4 0.0000 0.0000 0.0000 42.7820 0.0000 -9.4324
# 5 -29.6424 -23.1855 -26.3304 0.0000 32.8710 0.0000
# 6 0.0000 0.0000 0.0000 -9.4324 0.0000 46.3509
#
#
#
# Elastic Compliance Matrix: (Units=1/GPa)
#
#
# Indices 1 2 3 4 5 6 
#
# 1 0.041369 -0.000706 -0.007845 0.000000 0.030523 0.000000
# 2 -0.000706 0.007057 -0.003912 0.000000 0.001207 0.000000
# 3 -0.007845 -0.003912 0.014060 0.000000 0.001429 0.000000
# 4 0.000000 0.000000 0.000000 0.024472 0.000000 0.004980
# 5 0.030523 0.001207 0.001429 0.000000 0.059943 0.000000
# 6 0.000000 0.000000 0.000000 0.004980 0.000000 0.022588
#
#
# Mechanical properties :
#
#
# Convention : Reuss Voigt Hill
#
# Bulk Modulus (GPa) = 26.62480 74.28890 50.45685
# Shear Modulus (GPa) = 24.16214 38.51096 31.33655
#
# Velocity S-wave (km/s) = 3.09999 3.91367 3.53035
# Velocity P-wave (km/s) = 4.83763 7.06888 6.05689
#
# Compressibility (1/GPa) = 0.03755897
#
# Stress axis : x y z
#
# Youngs Moduli (GPa) = 24.17281 141.70678 71.12306
#
# Poissons Ratio (x) = 0.10009 0.55799
# Poissons Ratio (y) = 0.01707 0.27821
# Poissons Ratio (z) = 0.18965 0.55431
#
# Static dielectric constant tensor:
#      x y z
#    x 4.467990 0.000000 -0.682870 
#    y 0.000000 5.411630 0.000000 
#    z -0.682870 0.000000 5.169140 
# 
# 
# High freq. dielectric constant tensor:
#      x y z
#    x 1.993050 0.000000 -0.020050 
#    y 0.000000 2.021810 0.000000 
#    z -0.020050 0.000000 2.014150 
# 
# From -- ./inp_files/134169.got.cif
#   From: 2010.06.25/outbox.cif.g09.slc.cpg/sg15_68_cif.got.tgz:134169.got - 2010.06.28 07:06:18.
