data_PCOD8132124
_publ_section_title
;
Structure prediction by ZEFSAII (Michael W. Deem and Ramdas Pophale) SiO2 
 PCOD8132124
Probable space group: C 2/C
;
_chemical_formula_sum "Si O2"
_cell_formula_units_Z 52
_cell_length_a 21.142637
_cell_length_b 12.602579
_cell_length_c 9.575083
_cell_angle_alpha 90.000000
_cell_angle_beta 92.522926
_cell_angle_gamma 90.000000
_cell_volume 2548.824648
_symmetry_space_group_name_H-M "C 2/C"
_symmetry_group_IT_number 15
_symmetry_cell_setting 'monoclinic'
loop_
_space_group_symop_operation_xyz
x,y,z
-x,y,1/2-z
-x,-y,-z
x,-y,1/2+z
1/2+x,1/2+y,z
1/2-x,1/2+y,1/2-z
1/2-x,1/2-y,-z
1/2+x,1/2-y,1/2+z
loop_
_atom_site_type_symbol
_atom_site_label
_atom_site_fract_x
_atom_site_fract_y
_atom_site_fract_z
Si Si1 0.891551 0.894915 0.608363
Si Si2 0.187952 0.080770 0.908986
Si Si3 0.345700 0.879515 0.697522
Si Si4 0.392948 0.676102 0.823178
Si Si5 0.500000 0.515521 0.750000
Si Si6 0.824107 0.568002 0.886896
Si Si7 0.202585 0.199666 0.179129
O O1 0.886378 0.803804 0.489392
O O2 0.849461 0.864626 0.737975
O O3 0.861832 0.998803 0.532297
O O4 0.962939 0.930964 0.649484
O O5 0.167501 0.118765 0.752748
O O6 0.254841 0.020305 0.911660
O O7 0.190615 0.181487 0.012665
O O8 0.397842 0.791181 0.749022
O O9 0.359374 0.910796 0.537669
O O10 0.274465 0.835613 0.721005
O O11 0.360368 0.983587 0.793533
O O12 0.452535 0.596850 0.820165
O O13 0.810655 0.676114 0.798319
#
# Coordination Sequence:
#
# PCOD8132124 Si02
#       7
#     8   8   8   8   4   8   8
#     4  11  23  36  64  94 122 159 208 261 309 366
#     4  10  18  36  55  87 127 166 197 241 310 366
#     4  11  23  38  60  90 128 168 207 246 315 372
#     4  11  22  39  61  89 122 160 210 256 306 366
#     4  10  24  44  64  92 122 162 210 262 310 354
#     4  11  22  36  57  88 130 169 202 245 305 378
#     4  11  21  37  57  91 134 164 194 259 311 367
#
# _framework density 20.40156
#
# number of rings (size 3 to 8) (size 9 to 14) (size 15 to 20)
#    0.000    1.231    4.615    3.231    4.308    1.846 
#    0.000    0.000    0.000    1.846    0.000    0.000 
#    0.000    0.000    0.000    0.000    0.000    0.000 
#
# Total GULP energy -322098.296490 kJ/mol
# GULP energy per Si atom -12388.396019 kJ/mol
# Density = 2.035513 g / cm^3
# Si number density = 20.401560 Si / 1000 Ang^3
#
#
#
# Elastic Constant Matrix: (Units=GPa)
#
#
# Indices 1 2 3 4 5 6 
#
# 1 52.2615 10.8137 26.5991 0.0000 12.4841 0.0000
# 2 10.8137 98.1184 43.4037 0.0000 11.1804 0.0000
# 3 26.5991 43.4037 108.8414 0.0000 7.7572 0.0000
# 4 0.0000 0.0000 0.0000 35.4525 0.0000 3.5252
# 5 12.4841 11.1804 7.7572 0.0000 18.4657 0.0000
# 6 0.0000 0.0000 0.0000 3.5252 0.0000 28.4239
#
#
#
# Elastic Compliance Matrix: (Units=1/GPa)
#
#
# Indices 1 2 3 4 5 6 
#
# 1 0.025490 0.001511 -0.005709 0.000000 -0.015749 0.000000
# 2 0.001511 0.013050 -0.005090 0.000000 -0.006785 0.000000
# 3 -0.005709 -0.005090 0.012492 0.000000 0.001694 0.000000
# 4 0.000000 0.000000 0.000000 0.028559 0.000000 -0.003542
# 5 -0.015749 -0.006785 0.001694 0.000000 0.068198 0.000000
# 6 0.000000 0.000000 0.000000 -0.003542 0.000000 0.035621
#
#
# Mechanical properties :
#
#
# Convention : Reuss Voigt Hill
#
# Bulk Modulus (GPa) = 30.81155 46.76158 38.78657
# Shear Modulus (GPa) = 23.49574 28.36208 25.92891
#
# Velocity S-wave (km/s) = 3.39730 3.73257 3.56888
# Velocity P-wave (km/s) = 5.52487 6.44566 6.00294
#
# Compressibility (1/GPa) = 0.03245536
#
# Stress axis : x y z
#
# Youngs Moduli (GPa) = 39.23119 76.62932 80.05174
#
# Poissons Ratio (x) = -0.11578 0.45705
# Poissons Ratio (y) = -0.05928 0.40744
# Poissons Ratio (z) = 0.22399 0.39002
#
# Static dielectric constant tensor:
#      x y z
#    x 3.423300 0.000000 0.120990 
#    y 0.000000 3.821950 0.000000 
#    z 0.120990 0.000000 3.645420 
# 
# 
# High freq. dielectric constant tensor:
#      x y z
#    x 1.753870 0.000000 0.010000 
#    y 0.000000 1.797750 0.000000 
#    z 0.010000 0.000000 1.801890 
# 
# From -- ./inp_files/65091.got.cif
#   From: 2010.06.25/outbox.cif.g09.slc.cpg/sg15_33_cif.got.tgz:65091.got - 2010.06.28 07:06:18.
