data_PCOD8132937
_publ_section_title
;
Structure prediction by ZEFSAII (Michael W. Deem and Ramdas Pophale) SiO2 
 PCOD8132937
Probable space group: C 2/C
;
_chemical_formula_sum "Si O2"
_cell_formula_units_Z 32
_cell_length_a 12.004521
_cell_length_b 28.123980
_cell_length_c 4.906442
_cell_angle_alpha 90.000000
_cell_angle_beta 80.427090
_cell_angle_gamma 90.000000
_cell_volume 1633.421002
_symmetry_space_group_name_H-M "C 2/C"
_symmetry_group_IT_number 15
_symmetry_cell_setting 'monoclinic'
loop_
_space_group_symop_operation_xyz
x,y,z
-x,y,1/2-z
-x,-y,-z
x,-y,1/2+z
1/2+x,1/2+y,z
1/2-x,1/2+y,1/2-z
1/2-x,1/2-y,-z
1/2+x,1/2-y,1/2+z
loop_
_atom_site_type_symbol
_atom_site_label
_atom_site_fract_x
_atom_site_fract_y
_atom_site_fract_z
Si Si1 0.079631 0.773719 0.965877
Si Si2 0.367418 0.026254 0.241450
Si Si3 0.122345 0.378205 0.067883
Si Si4 0.306512 0.823686 0.966690
O O1 0.131863 0.721234 0.922827
O O2 0.000000 0.780778 0.250000
O O3 0.179692 0.812167 0.928043
O O4 0.000000 0.785101 0.750000
O O5 0.500000 0.023691 0.250000
O O6 0.318995 0.016140 0.563530
O O7 0.333007 0.075320 0.110154
O O8 0.200226 0.363920 0.293837
O O9 0.000000 0.386465 0.250000
O O10 0.877648 0.338114 0.667953
#
# Coordination Sequence:
#
# PCOD8132937 Si02
#       4
#     8   8   8   8
#     4  11  22  38  55  73 105 139 171 217 263 298
#     4  10  19  31  47  71 105 143 172 199 249 309
#     4  12  21  33  52  76 109 141 173 211 248 300
#     4  11  23  35  53  79 102 136 181 212 249 309
#
# _framework density 19.590783999999999
#
# number of rings (size 3 to 8) (size 9 to 14) (size 15 to 20)
#    0.000    1.000    0.000   11.250    0.000    4.000 
#    0.000    0.000    0.000    0.000    0.000    0.000 
#    0.000   70.000    0.000    0.000    0.000    0.000 
#
# Total GULP energy -198242.422014 kJ/mol
# GULP energy per Si atom -12390.151376 kJ/mol
# Density = 1.954619 g / cm^3
# Si number density = 19.590784 Si / 1000 Ang^3
#
#
#
# Elastic Constant Matrix: (Units=GPa)
#
#
# Indices 1 2 3 4 5 6 
#
# 1 64.2882 25.3766 23.7928 0.0000 17.2220 0.0000
# 2 25.3766 66.5012 24.4336 0.0000 10.0125 0.0000
# 3 23.7928 24.4336 127.3592 0.0000 20.4932 0.0000
# 4 0.0000 0.0000 0.0000 37.7930 0.0000 8.1156
# 5 17.2220 10.0125 20.4932 0.0000 29.0148 0.0000
# 6 0.0000 0.0000 0.0000 8.1156 0.0000 16.2724
#
#
#
# Elastic Compliance Matrix: (Units=1/GPa)
#
#
# Indices 1 2 3 4 5 6 
#
# 1 0.020959 -0.006125 -0.001217 0.000000 -0.009467 0.000000
# 2 -0.006125 0.018353 -0.002192 0.000000 -0.001150 0.000000
# 3 -0.001217 -0.002192 0.009321 0.000000 -0.005105 0.000000
# 4 0.000000 0.000000 0.000000 0.029634 0.000000 -0.014779
# 5 -0.009467 -0.001150 -0.005105 0.000000 0.044087 0.000000
# 6 0.000000 0.000000 0.000000 -0.014779 0.000000 0.068825
#
#
# Mechanical properties :
#
#
# Convention : Reuss Voigt Hill
#
# Bulk Modulus (GPa) = 33.82357 45.03939 39.43148
# Shear Modulus (GPa) = 22.71673 28.91906 25.81790
#
# Velocity S-wave (km/s) = 3.40893 3.84625 3.63417
# Velocity P-wave (km/s) = 5.72686 6.53948 6.14661
#
# Compressibility (1/GPa) = 0.02956518
#
# Stress axis : x y z
#
# Youngs Moduli (GPa) = 47.71116 54.48665 107.28406
#
# Poissons Ratio (x) = 0.33376 0.13057
# Poissons Ratio (y) = 0.29225 0.23513
# Poissons Ratio (z) = 0.05807 0.11942
#
# Static dielectric constant tensor:
#      x y z
#    x 3.216430 0.000000 0.058040 
#    y 0.000000 3.676310 0.000000 
#    z 0.058040 0.000000 4.177200 
# 
# 
# High freq. dielectric constant tensor:
#      x y z
#    x 1.698210 0.000000 0.010340 
#    y 0.000000 1.757340 0.000000 
#    z 0.010340 0.000000 1.804150 
# 
# From -- ./inp_files/5225.got.cif
#   From: 2010.06.25/outbox.cif.g09.slc.cpg/sg15_3_cif.got.tgz:5225.got - 2010.06.28 07:06:18.
