data_PCOD8132319
_publ_section_title
;
Structure prediction by ZEFSAII (Michael W. Deem and Ramdas Pophale) SiO2 
 PCOD8132319
Probable space group: C 2/C
;
_chemical_formula_sum "Si O2"
_cell_formula_units_Z 64
_cell_length_a 18.092808
_cell_length_b 18.980647
_cell_length_c 20.005515
_cell_angle_alpha 90.000000
_cell_angle_beta 155.171200
_cell_angle_gamma 90.000000
_cell_volume 2884.836544
_symmetry_space_group_name_H-M "C 2/C"
_symmetry_group_IT_number 15
_symmetry_cell_setting 'monoclinic'
loop_
_space_group_symop_operation_xyz
x,y,z
-x,y,1/2-z
-x,-y,-z
x,-y,1/2+z
1/2+x,1/2+y,z
1/2-x,1/2+y,1/2-z
1/2-x,1/2-y,-z
1/2+x,1/2-y,1/2+z
loop_
_atom_site_type_symbol
_atom_site_label
_atom_site_fract_x
_atom_site_fract_y
_atom_site_fract_z
Si Si1 0.742554 0.084029 0.353142
Si Si2 0.606259 0.897282 0.437633
Si Si3 0.923321 0.473207 0.505239
Si Si4 0.741798 0.435067 0.077197
Si Si5 0.446685 0.219824 0.277987
Si Si6 0.369481 0.206928 0.426733
Si Si7 0.533119 0.648702 0.074556
Si Si8 0.320270 0.828799 0.414031
O O1 0.586867 0.061497 0.176885
O O2 0.681730 0.153612 0.342900
O O3 0.912284 0.106372 0.447867
O O4 0.774271 0.020546 0.432109
O O5 0.399236 0.907182 0.253312
O O6 0.723830 0.903491 0.467890
O O7 0.639582 0.824286 0.504796
O O8 0.670424 0.961927 0.535790
O O9 0.774010 0.412135 0.377010
O O10 0.000000 0.500000 0.500000
O O11 0.554222 0.407266 0.947612
O O12 0.500000 0.250848 0.250000
O O13 0.611677 0.197834 0.458025
O O14 0.349324 0.281223 0.240813
O O15 0.385413 0.291539 0.440017
O O16 0.198181 0.186087 0.244520
O O17 0.538656 0.175978 0.529079
#
# Coordination Sequence:
#
# PCOD8132319 Si02
#       8
#     8   8   8   8   8   8   8   8
#     4  10  21  38  63  93 125 164 207 256 311 377
#     4  10  22  42  64  93 126 165 213 262 321 384
#     4  10  18  36  64  88 118 164 205 250 312 372
#     4  10  24  40  64  94 127 166 212 264 324 377
#     4  11  23  39  63  93 130 168 205 254 310 378
#     4  12  22  41  67  93 128 168 213 265 316 377
#     4  12  23  42  65  96 126 166 215 266 321 380
#     4  11  21  40  61  90 125 164 211 250 310 372
#
# _framework density 22.184964999999998
#
# number of rings (size 3 to 8) (size 9 to 14) (size 15 to 20)
#    0.000    1.250    5.000    1.500    5.250    1.000 
#    0.000    1.250    0.000    0.000    0.000    0.000 
#    0.000    0.000    0.000    0.000    0.000    0.000 
#
# Total GULP energy -396728.760585 kJ/mol
# GULP energy per Si atom -12397.773768 kJ/mol
# Density = 2.213447 g / cm^3
# Si number density = 22.184965 Si / 1000 Ang^3
#
#
#
# Elastic Constant Matrix: (Units=GPa)
#
#
# Indices 1 2 3 4 5 6 
#
# 1 103.2032 17.0277 15.8384 0.0227 3.1499 0.0031
# 2 17.0277 91.0572 6.9673 0.0184 8.9630 0.0061
# 3 15.8384 6.9673 26.6592 0.0064 9.6524 0.0145
# 4 0.0227 0.0184 0.0064 19.8695 0.0128 0.1706
# 5 3.1499 8.9630 9.6524 0.0128 31.2599 0.0076
# 6 0.0031 0.0061 0.0145 0.1706 0.0076 41.4528
#
#
#
# Elastic Compliance Matrix: (Units=1/GPa)
#
#
# Indices 1 2 3 4 5 6 
#
# 1 0.010931 -0.001680 -0.006565 -0.000010 0.001407 0.000002
# 2 -0.001680 0.011655 -0.001012 -0.000007 -0.002860 -0.000001
# 3 -0.006565 -0.001012 0.046533 0.000002 -0.013417 -0.000013
# 4 -0.000010 -0.000007 0.000002 0.050330 -0.000018 -0.000207
# 5 0.001407 -0.002860 -0.013417 -0.000018 0.036811 -0.000002
# 6 0.000002 -0.000001 -0.000013 -0.000207 -0.000002 0.024125
#
#
# Mechanical properties :
#
#
# Convention : Reuss Voigt Hill
#
# Bulk Modulus (GPa) = 19.76101 33.39849 26.57975
# Shear Modulus (GPa) = 23.17300 30.58886 26.88093
#
# Velocity S-wave (km/s) = 3.23543 3.71726 3.48469
# Velocity P-wave (km/s) = 4.78373 5.78889 5.31015
#
# Compressibility (1/GPa) = 0.05060470
#
# Stress axis : x y z
#
# Youngs Moduli (GPa) = 91.47955 85.79787 21.49020
#
# Poissons Ratio (x) = 0.14417 0.14108
# Poissons Ratio (y) = 0.15372 0.02175
# Poissons Ratio (z) = 0.60055 0.08685
#
# Static dielectric constant tensor:
#      x y z
#    x 3.946620 0.000130 -0.076630 
#    y 0.000130 4.737350 -0.000130 
#    z -0.076630 -0.000130 3.739930 
# 
# 
# High freq. dielectric constant tensor:
#      x y z
#    x 1.872050 0.000000 -0.002820 
#    y 0.000000 1.887730 -0.000010 
#    z -0.002820 -0.000010 1.844510 
# 
# From -- ./inp_files/249641.got.cif
#   From: 2010.06.25/outbox.cif.g09.slc.cpg/sg15_125_cif.got.tgz:249641.got - 2010.06.28 07:06:18.
