data_PCOD8132856
_publ_section_title
;
Structure prediction by ZEFSAII (Michael W. Deem and Ramdas Pophale) SiO2 
 PCOD8132856
Probable space group: C 2/C
;
_chemical_formula_sum "Si O2"
_cell_formula_units_Z 56
_cell_length_a 27.340568
_cell_length_b 11.936450
_cell_length_c 15.144386
_cell_angle_alpha 90.000000
_cell_angle_beta 38.959279
_cell_angle_gamma 90.000000
_cell_volume 3107.597404
_symmetry_space_group_name_H-M "C 2/C"
_symmetry_group_IT_number 15
_symmetry_cell_setting 'monoclinic'
loop_
_space_group_symop_operation_xyz
x,y,z
-x,y,1/2-z
-x,-y,-z
x,-y,1/2+z
1/2+x,1/2+y,z
1/2-x,1/2+y,1/2-z
1/2-x,1/2-y,-z
1/2+x,1/2-y,1/2+z
loop_
_atom_site_type_symbol
_atom_site_label
_atom_site_fract_x
_atom_site_fract_y
_atom_site_fract_z
Si Si1 0.074107 0.917760 0.701506
Si Si2 0.774523 0.548394 0.324260
Si Si3 0.975308 0.129000 0.047607
Si Si4 0.631517 0.746197 0.819693
Si Si5 0.293548 0.677518 0.606318
Si Si6 0.193376 0.114194 0.265967
Si Si7 0.808325 0.930474 0.380363
O O1 0.042736 0.841756 0.825158
O O2 0.140699 0.847971 0.558370
O O3 0.000000 0.955306 0.750000
O O4 0.110258 0.031048 0.690705
O O5 0.854307 0.618910 0.194828
O O6 0.775445 0.416520 0.299952
O O7 0.710465 0.596183 0.345701
O O8 0.756414 0.566090 0.452973
O O9 0.896540 0.151648 0.104192
O O10 0.041721 0.217189 0.926515
O O11 0.000000 0.000000 0.000000
O O12 0.660711 0.681656 0.865818
O O13 0.682631 0.696215 0.667268
O O14 0.249814 0.791851 0.646055
O O15 0.209978 0.009096 0.178680
#
# Coordination Sequence:
#
# PCOD8132856 Si02
#       7
#     8   8   8   8   8   8   8
#     4  10  19  29  52  81 106 137 172 224 267 311
#     4  10  21  34  55  77 108 148 175 214 267 324
#     4  11  19  33  53  79 113 132 176 227 275 308
#     4  11  19  34  52  79 110 139 177 219 269 320
#     4  10  20  36  55  76 110 140 184 216 269 316
#     4  10  21  36  55  82 108 141 175 231 261 312
#     4  10  20  32  53  80 108 136 178 214 269 319
#
# _framework density 18.020351000000002
#
# number of rings (size 3 to 8) (size 9 to 14) (size 15 to 20)
#    0.000    1.714    5.714    0.429    2.000    5.143 
#    0.000    0.714    0.000    0.000    0.000    0.000 
#    0.000    0.000    0.000    0.000    0.000    0.000 
#
# Total GULP energy -346882.523083 kJ/mol
# GULP energy per Si atom -12388.661539 kJ/mol
# Density = 1.797934 g / cm^3
# Si number density = 18.020351 Si / 1000 Ang^3
#
#
#
# Elastic Constant Matrix: (Units=GPa)
#
#
# Indices 1 2 3 4 5 6 
#
# 1 64.8083 13.8548 27.0029 0.0000 -4.9784 0.0000
# 2 13.8548 65.9125 28.4548 -0.0001 -5.2385 0.0000
# 3 27.0029 28.4548 74.9614 0.0000 3.5360 0.0000
# 4 0.0000 -0.0001 0.0000 24.0550 0.0000 -1.3859
# 5 -4.9784 -5.2385 3.5360 0.0000 31.3514 0.0000
# 6 0.0000 0.0000 0.0000 -1.3859 0.0000 18.6719
#
#
#
# Elastic Compliance Matrix: (Units=1/GPa)
#
#
# Indices 1 2 3 4 5 6 
#
# 1 0.018611 -0.000792 -0.006572 0.000000 0.003564 0.000000
# 2 -0.000792 0.018648 -0.006972 0.000000 0.003776 0.000000
# 3 -0.006572 -0.006972 0.018557 0.000000 -0.004301 0.000000
# 4 0.000000 0.000000 0.000000 0.041750 0.000000 0.003099
# 5 0.003564 0.003776 -0.004301 0.000000 0.033579 0.000000
# 6 0.000000 0.000000 0.000000 0.003099 0.000000 0.053787
#
#
# Mechanical properties :
#
#
# Convention : Reuss Voigt Hill
#
# Bulk Modulus (GPa) = 36.83815 38.25637 37.54726
# Shear Modulus (GPa) = 22.45678 23.90697 23.18187
#
# Velocity S-wave (km/s) = 3.53397 3.64629 3.59057
# Velocity P-wave (km/s) = 6.09416 6.24523 6.17016
#
# Compressibility (1/GPa) = 0.02714577
#
# Stress axis : x y z
#
# Youngs Moduli (GPa) = 53.73047 53.62551 53.88865
#
# Poissons Ratio (x) = 0.04246 0.35415
# Poissons Ratio (y) = 0.04254 0.37569
# Poissons Ratio (z) = 0.35311 0.37385
#
# Static dielectric constant tensor:
#      x y z
#    x 3.415020 0.000000 0.186530 
#    y 0.000000 3.222880 0.000000 
#    z 0.186530 0.000000 3.449720 
# 
# 
# High freq. dielectric constant tensor:
#      x y z
#    x 1.700850 0.000000 0.017380 
#    y 0.000000 1.674100 0.000000 
#    z 0.017380 0.000000 1.693560 
# 
# From -- ./inp_files/160856.got.cif
#   From: 2010.06.25/outbox.cif.g09.slc.cpg/sg15_81_cif.got.tgz:160856.got - 2010.06.28 07:06:18.
