data_PCOD8132371
_publ_section_title
;
Structure prediction by ZEFSAII (Michael W. Deem and Ramdas Pophale) SiO2 
 PCOD8132371
Probable space group: C 2/C
;
_chemical_formula_sum "Si O2"
_cell_formula_units_Z 52
_cell_length_a 17.787476
_cell_length_b 20.718947
_cell_length_c 13.862197
_cell_angle_alpha 90.000000
_cell_angle_beta 31.702064
_cell_angle_gamma 90.000000
_cell_volume 2684.656304
_symmetry_space_group_name_H-M "C 2/C"
_symmetry_group_IT_number 15
_symmetry_cell_setting 'monoclinic'
loop_
_space_group_symop_operation_xyz
x,y,z
-x,y,1/2-z
-x,-y,-z
x,-y,1/2+z
1/2+x,1/2+y,z
1/2-x,1/2+y,1/2-z
1/2-x,1/2-y,-z
1/2+x,1/2-y,1/2+z
loop_
_atom_site_type_symbol
_atom_site_label
_atom_site_fract_x
_atom_site_fract_y
_atom_site_fract_z
Si Si1 0.000000 0.387705 0.250000
Si Si2 0.806738 0.500550 0.522868
Si Si3 0.206327 0.484140 0.683506
Si Si4 0.871055 0.301622 0.224387
Si Si5 0.542664 0.316227 0.592679
Si Si6 0.999412 0.959749 0.865226
Si Si7 0.548082 0.083875 0.973573
O O1 0.888136 0.432004 0.431542
O O2 0.915407 0.340599 0.271173
O O3 0.800493 0.529994 0.422545
O O4 0.648552 0.489174 0.739311
O O5 0.883664 0.553742 0.504373
O O6 0.370129 0.493013 0.539895
O O7 0.116022 0.549459 0.804528
O O8 0.124679 0.427681 0.832303
O O9 0.702754 0.290918 0.406824
O O10 0.920853 0.340497 0.073426
O O11 0.941871 0.231414 0.142158
O O12 0.500000 0.315197 0.750000
O O13 0.526403 0.387858 0.565347
O O14 0.000000 0.954549 0.750000
#
# Coordination Sequence:
#
# PCOD8132371 Si02
#       7
#     4   8   8   8   8   8   8
#     4  12  18  34  58  78 112 142 190 210 274 328
#     4  11  20  33  59  83 114 150 173 229 281 323
#     4  10  18  37  52  83 115 142 179 225 274 331
#     4  12  24  36  54  82 111 150 187 227 260 344
#     4  11  22  38  54  77 111 153 188 216 276 326
#     4   9  19  34  55  82 116 144 181 223 274 333
#     4  11  20  35  55  82 115 143 188 222 274 332
#
# _framework density 19.369333000000001
#
# number of rings (size 3 to 8) (size 9 to 14) (size 15 to 20)
#    0.000    1.231    5.385    3.231    2.154    0.615 
#    0.000    0.000    0.000    0.000    0.000    4.308 
#    0.000    0.000    0.000    0.000    0.000    0.000 
#
# Total GULP energy -322327.846803 kJ/mol
# GULP energy per Si atom -12397.224877 kJ/mol
# Density = 1.932525 g / cm^3
# Si number density = 19.369333 Si / 1000 Ang^3
#
#
#
# Elastic Constant Matrix: (Units=GPa)
#
#
# Indices 1 2 3 4 5 6 
#
# 1 44.6039 27.2132 44.4112 -0.0042 -6.0694 -0.0018
# 2 27.2132 62.5887 43.4822 -0.0129 -5.5362 -0.0098
# 3 44.4112 43.4822 136.7542 -0.0146 -38.9061 -0.0064
# 4 -0.0042 -0.0129 -0.0146 96.7409 0.0071 43.3950
# 5 -6.0694 -5.5362 -38.9061 0.0071 41.1176 0.0028
# 6 -0.0018 -0.0098 -0.0064 43.3950 0.0028 46.0393
#
#
#
# Elastic Compliance Matrix: (Units=1/GPa)
#
#
# Indices 1 2 3 4 5 6 
#
# 1 0.038614 -0.009487 -0.011310 0.000000 -0.006279 -0.000002
# 2 -0.009487 0.023514 -0.005327 0.000001 -0.003275 0.000004
# 3 -0.011310 -0.005327 0.016420 0.000001 0.013151 -0.000001
# 4 0.000000 0.000001 0.000001 0.017909 -0.000001 -0.016880
# 5 -0.006279 -0.003275 0.013151 -0.000001 0.035396 0.000000
# 6 -0.000002 0.000004 -0.000001 -0.016880 0.000000 0.037631
#
#
# Mechanical properties :
#
#
# Convention : Reuss Voigt Hill
#
# Bulk Modulus (GPa) = 38.02325 52.68444 45.35384
# Shear Modulus (GPa) = 21.69199 45.36890 33.53045
#
# Velocity S-wave (km/s) = 3.35014 4.84499 4.16517
# Velocity P-wave (km/s) = 5.88539 7.65229 6.82625
#
# Compressibility (1/GPa) = 0.02629970
#
# Stress axis : x y z
#
# Youngs Moduli (GPa) = 25.89701 42.52867 60.89993
#
# Poissons Ratio (x) = 0.40349 0.68877
# Poissons Ratio (y) = 0.24570 0.32442
# Poissons Ratio (z) = 0.29289 0.22655
#
# Static dielectric constant tensor:
#      x y z
#    x 3.472430 -0.000010 -0.265380 
#    y -0.000010 3.437730 0.000010 
#    z -0.265380 0.000010 3.850600 
# 
# 
# High freq. dielectric constant tensor:
#      x y z
#    x 1.746450 0.000000 -0.020250 
#    y 0.000000 1.716190 0.000000 
#    z -0.020250 0.000000 1.765140 
# 
# From -- ./inp_files/168963.got.cif
#   From: 2010.06.25/outbox.cif.g09.slc.cpg/sg15_85_cif.got.tgz:168963.got - 2010.06.28 07:06:18.
