data_PCOD8132437
_publ_section_title
;
Structure prediction by ZEFSAII (Michael W. Deem and Ramdas Pophale) SiO2 
 PCOD8132437
Probable space group: C 2/C
;
_chemical_formula_sum "Si O2"
_cell_formula_units_Z 48
_cell_length_a 20.955695
_cell_length_b 8.964698
_cell_length_c 18.335884
_cell_angle_alpha 90.000000
_cell_angle_beta 134.362693
_cell_angle_gamma 90.000000
_cell_volume 2462.645802
_symmetry_space_group_name_H-M "C 2/C"
_symmetry_group_IT_number 15
_symmetry_cell_setting 'monoclinic'
loop_
_space_group_symop_operation_xyz
x,y,z
-x,y,1/2-z
-x,-y,-z
x,-y,1/2+z
1/2+x,1/2+y,z
1/2-x,1/2+y,1/2-z
1/2-x,1/2-y,-z
1/2+x,1/2-y,1/2+z
loop_
_atom_site_type_symbol
_atom_site_label
_atom_site_fract_x
_atom_site_fract_y
_atom_site_fract_z
Si Si1 0.296564 0.901825 0.488132
Si Si2 0.254551 0.113750 0.114421
Si Si3 0.032339 0.200902 0.856587
Si Si4 0.410187 0.875944 0.997718
Si Si5 0.574974 0.528098 0.499303
Si Si6 0.922334 0.441198 0.842680
O O1 0.248044 0.945698 0.525192
O O2 0.238126 0.796797 0.385676
O O3 0.377501 0.793812 0.574098
O O4 0.327705 0.055310 0.476715
O O5 0.337443 0.036773 0.222268
O O6 0.166568 0.062986 0.089539
O O7 0.000000 0.185311 0.750000
O O8 0.964450 0.283062 0.856350
O O9 0.040676 0.034580 0.894727
O O10 0.395021 0.939658 0.904940
O O11 0.402635 0.699917 0.993061
O O12 0.504889 0.926271 0.108913
O O13 0.500000 0.500000 0.500000
#
# Coordination Sequence:
#
# PCOD8132437 Si02
#       6
#     8   8   8   8   8   8
#     4   9  20  38  63  87 115 156 203 254 293 354
#     4  10  21  38  63  88 116 158 208 247 296 360
#     4  10  18  37  63  83 115 159 203 239 297 365
#     4  10  22  39  59  89 128 157 192 251 312 357
#     4  11  23  41  56  86 130 160 191 251 308 355
#     4  10  20  38  64  88 114 161 207 243 296 364
#
# _framework density 19.491232
#
# number of rings (size 3 to 8) (size 9 to 14) (size 15 to 20)
#    0.000    2.000    3.333    0.000    2.333    2.000 
#    3.000    0.000    0.000    0.000    0.000    0.000 
#    0.000    0.000    0.000    0.000    0.000    0.000 
#
# Total GULP energy -297398.746969 kJ/mol
# GULP energy per Si atom -12391.614457 kJ/mol
# Density = 1.944687 g / cm^3
# Si number density = 19.491232 Si / 1000 Ang^3
#
#
#
# Elastic Constant Matrix: (Units=GPa)
#
#
# Indices 1 2 3 4 5 6 
#
# 1 104.7309 25.7311 14.3462 0.0000 -0.9559 0.0000
# 2 25.7311 98.2634 8.4464 0.0000 -5.8706 0.0000
# 3 14.3462 8.4464 84.2022 0.0000 0.0647 0.0000
# 4 0.0000 0.0000 0.0000 76.6641 0.0000 13.9771
# 5 -0.9559 -5.8706 0.0647 0.0000 22.3999 0.0000
# 6 0.0000 0.0000 0.0000 13.9771 0.0000 36.9807
#
#
#
# Elastic Compliance Matrix: (Units=1/GPa)
#
#
# Indices 1 2 3 4 5 6 
#
# 1 0.010393 -0.002606 -0.001509 0.000000 -0.000235 0.000000
# 2 -0.002606 0.011084 -0.000670 0.000000 0.002796 0.000000
# 3 -0.001509 -0.000670 0.012201 0.000000 -0.000275 0.000000
# 4 0.000000 0.000000 0.000000 0.014009 0.000000 -0.005295
# 5 -0.000235 0.002796 -0.000275 0.000000 0.045366 0.000000
# 6 0.000000 0.000000 0.000000 -0.005295 0.000000 0.029042
#
#
# Mechanical properties :
#
#
# Convention : Reuss Voigt Hill
#
# Bulk Modulus (GPa) = 41.48085 42.69375 42.08730
# Shear Modulus (GPa) = 35.79063 43.12047 39.45555
#
# Velocity S-wave (km/s) = 4.28979 4.70861 4.50407
# Velocity P-wave (km/s) = 6.77232 7.17726 6.97773
#
# Compressibility (1/GPa) = 0.02410751
#
# Stress axis : x y z
#
# Youngs Moduli (GPa) = 96.21779 90.22268 81.96230
#
# Poissons Ratio (x) = 0.23511 0.12370
# Poissons Ratio (y) = 0.25073 0.05491
# Poissons Ratio (z) = 0.14521 0.06045
#
# Static dielectric constant tensor:
#      x y z
#    x 3.787570 0.000000 0.101100 
#    y 0.000000 3.474710 0.000000 
#    z 0.101100 0.000000 3.543150 
# 
# 
# High freq. dielectric constant tensor:
#      x y z
#    x 1.775410 0.000000 0.001730 
#    y 0.000000 1.740770 0.000000 
#    z 0.001730 0.000000 1.744210 
# 
# From -- ./inp_files/214080.got.cif
#   From: 2010.06.25/outbox.cif.g09.slc.cpg/sg15_108_cif.got.tgz:214080.got - 2010.06.28 07:06:18.
