data_PCOD8132570
_publ_section_title
;
Structure prediction by ZEFSAII (Michael W. Deem and Ramdas Pophale) SiO2 
 PCOD8132570
Probable space group: C 2/C
;
_chemical_formula_sum "Si O2"
_cell_formula_units_Z 56
_cell_length_a 17.001472
_cell_length_b 16.267283
_cell_length_c 20.987314
_cell_angle_alpha 90.000000
_cell_angle_beta 152.253298
_cell_angle_gamma 90.000000
_cell_volume 2702.323916
_symmetry_space_group_name_H-M "C 2/C"
_symmetry_group_IT_number 15
_symmetry_cell_setting 'monoclinic'
loop_
_space_group_symop_operation_xyz
x,y,z
-x,y,1/2-z
-x,-y,-z
x,-y,1/2+z
1/2+x,1/2+y,z
1/2-x,1/2+y,1/2-z
1/2-x,1/2-y,-z
1/2+x,1/2-y,1/2+z
loop_
_atom_site_type_symbol
_atom_site_label
_atom_site_fract_x
_atom_site_fract_y
_atom_site_fract_z
Si Si1 0.000000 0.560786 0.250000
Si Si2 0.282629 0.834066 0.683983
Si Si3 0.698934 0.406696 0.163878
Si Si4 0.073111 0.421181 0.396150
Si Si5 0.729836 0.353117 0.852587
Si Si6 0.000000 0.281124 0.250000
Si Si7 0.061876 0.939241 0.619853
Si Si8 0.958722 0.262135 0.922839
O O1 0.143472 0.619351 0.323883
O O2 0.095073 0.503662 0.370236
O O3 0.181240 0.898927 0.652699
O O4 0.436742 0.798443 0.836260
O O5 0.154782 0.760925 0.571988
O O6 0.604868 0.464047 0.148767
O O7 0.668046 0.314218 0.162898
O O8 0.895292 0.425700 0.304627
O O9 0.629255 0.422845 0.041477
O O10 0.216804 0.415992 0.553316
O O11 0.089784 0.338857 0.366295
O O12 0.644012 0.272429 0.819909
O O13 0.591209 0.400448 0.710164
O O14 0.895881 0.327460 0.931158
#
# Coordination Sequence:
#
# PCOD8132570 Si02
#       8
#     4   8   8   8   8   4   8   8
#     4  11  24  42  60  83 128 160 198 241 310 364
#     4  10  21  41  62  89 118 158 200 252 298 353
#     4  10  18  38  63  90 119 159 200 241 299 356
#     4  11  23  39  62  91 118 166 197 238 303 368
#     4  11  23  39  61  94 124 153 202 252 293 353
#     4  11  24  38  58  91 132 156 188 243 310 368
#     4   9  21  37  63  90 121 158 198 249 299 348
#     4  10  21  38  66  91 116 154 207 249 294 347
#
# _framework density 20.722905000000001
#
# number of rings (size 3 to 8) (size 9 to 14) (size 15 to 20)
#    0.000    1.714    2.857    1.286    4.000    3.429 
#    2.571    0.000    0.000    0.000    0.000    0.000 
#    0.000    0.000    0.000    0.000    0.000    0.000 
#
# Total GULP energy -347216.461157 kJ/mol
# GULP energy per Si atom -12400.587898 kJ/mol
# Density = 2.067574 g / cm^3
# Si number density = 20.722905 Si / 1000 Ang^3
#
#
#
# Elastic Constant Matrix: (Units=GPa)
#
#
# Indices 1 2 3 4 5 6 
#
# 1 71.3579 26.5261 33.6563 0.0096 -5.9676 0.0100
# 2 26.5261 66.6135 28.0834 0.0416 -17.4316 0.0107
# 3 33.6563 28.0834 92.6766 0.0126 -14.6263 0.0131
# 4 0.0096 0.0416 0.0126 18.8027 0.0158 -1.9094
# 5 -5.9676 -17.4316 -14.6263 0.0158 17.4647 -0.0007
# 6 0.0100 0.0107 0.0131 -1.9094 -0.0007 24.3034
#
#
#
# Elastic Compliance Matrix: (Units=1/GPa)
#
#
# Indices 1 2 3 4 5 6 
#
# 1 0.018583 -0.006239 -0.005575 0.000012 -0.004547 -0.000001
# 2 -0.006239 0.023392 -0.001699 -0.000065 0.019793 -0.000011
# 3 -0.005575 -0.001699 0.014705 -0.000011 0.008714 -0.000005
# 4 0.000012 -0.000065 -0.000011 0.053612 -0.000119 0.004212
# 5 -0.004547 0.019793 0.008714 -0.000119 0.082758 -0.000018
# 6 -0.000001 -0.000011 -0.000005 0.004212 -0.000018 0.041477
#
#
# Mechanical properties :
#
#
# Convention : Reuss Voigt Hill
#
# Bulk Modulus (GPa) = 33.72327 45.24217 39.48272
# Shear Modulus (GPa) = 18.42035 21.60630 20.01332
#
# Velocity S-wave (km/s) = 2.98466 3.23248 3.11104
# Velocity P-wave (km/s) = 5.30908 5.98425 5.65675
#
# Compressibility (1/GPa) = 0.02965311
#
# Stress axis : x y z
#
# Youngs Moduli (GPa) = 53.81387 42.74918 68.00358
#
# Poissons Ratio (x) = 0.26672 0.37915
# Poissons Ratio (y) = 0.33575 0.11553
# Poissons Ratio (z) = 0.30003 0.07263
#
# Static dielectric constant tensor:
#      x y z
#    x 3.583360 -0.000020 -0.108270 
#    y -0.000020 3.833520 -0.000110 
#    z -0.108270 -0.000110 3.839530 
# 
# 
# High freq. dielectric constant tensor:
#      x y z
#    x 1.791720 0.000000 -0.003380 
#    y 0.000000 1.810160 -0.000010 
#    z -0.003380 -0.000010 1.805400 
# 
# From -- ./inp_files/67158.got.cif
#   From: 2010.06.25/outbox.cif.g09.slc.cpg/sg15_34_cif.got.tgz:67158.got - 2010.06.28 07:06:18.
