data_PCOD8132954
_publ_section_title
;
Structure prediction by ZEFSAII (Michael W. Deem and Ramdas Pophale) SiO2 
 PCOD8132954
Probable space group: C 2/C
;
_chemical_formula_sum "Si O2"
_cell_formula_units_Z 56
_cell_length_a 5.208482
_cell_length_b 32.582930
_cell_length_c 19.444396
_cell_angle_alpha 90.000000
_cell_angle_beta 108.111248
_cell_angle_gamma 90.000000
_cell_volume 3136.369294
_symmetry_space_group_name_H-M "C 2/C"
_symmetry_group_IT_number 15
_symmetry_cell_setting 'monoclinic'
loop_
_space_group_symop_operation_xyz
x,y,z
-x,y,1/2-z
-x,-y,-z
x,-y,1/2+z
1/2+x,1/2+y,z
1/2-x,1/2+y,1/2-z
1/2-x,1/2-y,-z
1/2+x,1/2-y,1/2+z
loop_
_atom_site_type_symbol
_atom_site_label
_atom_site_fract_x
_atom_site_fract_y
_atom_site_fract_z
Si Si1 0.234777 0.182925 0.011101
Si Si2 0.598903 0.748163 0.883747
Si Si3 0.831757 0.647028 0.544819
Si Si4 0.037720 0.712431 0.829062
Si Si5 0.775671 0.980927 0.594382
Si Si6 0.580616 0.946460 0.440652
Si Si7 0.360531 0.006691 0.165921
O O1 0.308817 0.205797 0.088427
O O2 0.159290 0.217148 0.950034
O O3 0.501658 0.159574 0.008669
O O4 0.986119 0.151078 0.000087
O O5 0.277796 0.746069 0.845117
O O6 0.765432 0.735303 0.830092
O O7 0.896588 0.674782 0.615840
O O8 0.934366 0.601809 0.572176
O O9 0.000000 0.693787 0.750000
O O10 0.763077 0.955304 0.522977
O O11 0.707873 0.029533 0.572722
O O12 0.558002 0.965587 0.633871
O O13 0.069047 0.972605 0.651920
O O14 0.707724 0.964473 0.380742
O O15 0.500000 0.997338 0.250000
#
# Coordination Sequence:
#
# PCOD8132954 Si02
#       7
#     8   8   8   8   8   8   8
#     4   9  18  31  48  73  93 123 165 207 243 278
#     4   9  17  32  50  66  97 127 165 206 229 281
#     4  10  20  30  49  75 106 130 158 207 256 300
#     4  10  19  31  48  73 103 134 165 190 248 308
#     4   9  20  34  52  74 103 137 180 214 248 313
#     4   9  21  32  54  74 110 136 170 213 266 305
#     4  10  19  33  53  75 100 131 176 215 250 304
#
# _framework density 17.855039000000001
#
# number of rings (size 3 to 8) (size 9 to 14) (size 15 to 20)
#    0.857    1.714    0.000    2.143    2.000    4.000 
#    0.000    0.000    6.286    0.000    0.000   20.000 
#    0.000    0.000    0.000    0.000    0.000    0.000 
#
# Total GULP energy -346875.536815 kJ/mol
# GULP energy per Si atom -12388.412029 kJ/mol
# Density = 1.781440 g / cm^3
# Si number density = 17.855039 Si / 1000 Ang^3
#
#
#
# Elastic Constant Matrix: (Units=GPa)
#
#
# Indices 1 2 3 4 5 6 
#
# 1 134.0954 20.5126 37.4851 0.0000 1.6975 0.0000
# 2 20.5126 29.7141 22.5572 0.0000 -6.9070 0.0000
# 3 37.4851 22.5572 87.5174 0.0000 -6.8614 0.0000
# 4 0.0000 0.0000 0.0000 8.0016 0.0000 -0.3747
# 5 1.6975 -6.9070 -6.8614 0.0000 24.7732 0.0000
# 6 0.0000 0.0000 0.0000 -0.3747 0.0000 12.9328
#
#
#
# Elastic Compliance Matrix: (Units=1/GPa)
#
#
# Indices 1 2 3 4 5 6 
#
# 1 0.009008 -0.004673 -0.002867 0.000000 -0.002714 0.000000
# 2 -0.004673 0.046264 -0.009084 0.000000 0.010703 0.000000
# 3 -0.002867 -0.009084 0.015141 0.000000 0.001857 0.000000
# 4 0.000000 0.000000 0.000000 0.125144 0.000000 0.003626
# 5 -0.002714 0.010703 0.001857 0.000000 0.044051 0.000000
# 6 0.000000 0.000000 0.000000 0.003626 0.000000 0.077428
#
#
# Mechanical properties :
#
#
# Convention : Reuss Voigt Hill
#
# Bulk Modulus (GPa) = 26.90626 45.82630 36.36628
# Shear Modulus (GPa) = 13.78660 20.52632 17.15646
#
# Velocity S-wave (km/s) = 2.78176 3.39427 3.10316
# Velocity P-wave (km/s) = 5.04178 6.40959 5.76639
#
# Compressibility (1/GPa) = 0.03716607
#
# Stress axis : x y z
#
# Youngs Moduli (GPa) = 111.01358 21.61517 66.04613
#
# Poissons Ratio (x) = 0.10101 0.18932
# Poissons Ratio (y) = 0.51879 0.59993
# Poissons Ratio (z) = 0.31822 0.19634
#
# Static dielectric constant tensor:
#      x y z
#    x 3.531170 0.000000 -0.035120 
#    y 0.000000 2.927440 0.000000 
#    z -0.035120 0.000000 3.145420 
# 
# 
# High freq. dielectric constant tensor:
#      x y z
#    x 1.706830 0.000000 -0.004040 
#    y 0.000000 1.643940 0.000000 
#    z -0.004040 0.000000 1.676870 
# 
# From -- ./inp_files/186578.got.cif
#   From: 2010.06.25/outbox.cif.g09.slc.cpg/sg15_94_cif.got.tgz:186578.got - 2010.06.28 07:06:18.
