data_PCOD8132058
_publ_section_title
;
Structure prediction by ZEFSAII (Michael W. Deem and Ramdas Pophale) SiO2 
 PCOD8132058
Probable space group: C 2/C
;
_chemical_formula_sum "Si O2"
_cell_formula_units_Z 48
_cell_length_a 26.978305
_cell_length_b 9.832444
_cell_length_c 18.281975
_cell_angle_alpha 90.000000
_cell_angle_beta 152.597690
_cell_angle_gamma 90.000000
_cell_volume 2231.924201
_symmetry_space_group_name_H-M "C 2/C"
_symmetry_group_IT_number 15
_symmetry_cell_setting 'monoclinic'
loop_
_space_group_symop_operation_xyz
x,y,z
-x,y,1/2-z
-x,-y,-z
x,-y,1/2+z
1/2+x,1/2+y,z
1/2-x,1/2+y,1/2-z
1/2-x,1/2-y,-z
1/2+x,1/2-y,1/2+z
loop_
_atom_site_type_symbol
_atom_site_label
_atom_site_fract_x
_atom_site_fract_y
_atom_site_fract_z
Si Si1 0.354088 0.434072 0.754366
Si Si2 0.228662 0.796315 0.390989
Si Si3 0.726665 0.838936 0.315024
Si Si4 0.404528 0.214192 0.005160
Si Si5 0.083356 0.980903 0.009684
Si Si6 0.578738 0.938698 0.664358
O O1 0.315795 0.553412 0.651966
O O2 0.275027 0.304303 0.644256
O O3 0.345923 0.495778 0.825331
O O4 0.476462 0.395581 0.891242
O O5 0.250000 0.750000 0.500000
O O6 0.340168 0.811085 0.494271
O O7 0.148049 0.699150 0.237353
O O8 0.663816 0.816430 0.157051
O O9 0.847305 0.892298 0.457193
O O10 0.667923 0.944926 0.293239
O O11 0.446906 0.370061 0.061400
O O12 0.505523 0.108044 0.137414
O O13 0.500000 0.000000 0.500000
#
# Coordination Sequence:
#
# PCOD8132058 Si02
#       6
#     8   8   8   8   8   8
#     4  10  22  36  57  96 125 160 211 263 317 387
#     4  12  24  40  61  92 130 172 212 254 320 401
#     4  10  20  34  65  94 123 158 212 279 321 365
#     4  10  20  36  61  90 125 166 206 263 315 383
#     4  10  18  35  62  87 126 156 206 267 327 359
#     4  10  22  39  62  94 120 162 215 265 317 376
#
# _framework density 21.506107
#
# number of rings (size 3 to 8) (size 9 to 14) (size 15 to 20)
#    0.000    1.667    5.000    0.000    2.333    2.000 
#    0.000    0.833    0.000    0.000    0.000    0.000 
#    0.000    0.000    0.000    0.000    0.000    0.000 
#
# Total GULP energy -297316.816413 kJ/mol
# GULP energy per Si atom -12388.200684 kJ/mol
# Density = 2.145716 g / cm^3
# Si number density = 21.506107 Si / 1000 Ang^3
#
#
#
# Elastic Constant Matrix: (Units=GPa)
#
#
# Indices 1 2 3 4 5 6 
#
# 1 101.4067 65.6924 54.5707 0.0000 34.2969 0.0000
# 2 65.6924 174.8433 52.0078 0.0000 23.6707 0.0000
# 3 54.5707 52.0078 48.1953 0.0000 25.0776 0.0000
# 4 0.0000 0.0000 0.0000 31.3399 0.0000 13.6393
# 5 34.2969 23.6707 25.0776 0.0000 35.1313 0.0000
# 6 0.0000 0.0000 0.0000 13.6393 0.0000 35.7400
#
#
#
# Elastic Compliance Matrix: (Units=1/GPa)
#
#
# Indices 1 2 3 4 5 6 
#
# 1 0.026641 -0.001738 -0.024446 0.000000 -0.007387 0.000000
# 2 -0.001738 0.008574 -0.008211 0.000000 0.001781 0.000000
# 3 -0.024446 -0.008211 0.066805 0.000000 -0.018290 0.000000
# 4 0.000000 0.000000 0.000000 0.038263 0.000000 -0.014602
# 5 -0.007387 0.001781 -0.018290 0.000000 0.047532 0.000000
# 6 0.000000 0.000000 0.000000 -0.014602 0.000000 0.033552
#
#
# Mechanical properties :
#
#
# Convention : Reuss Voigt Hill
#
# Bulk Modulus (GPa) = 30.09213 74.33190 52.21202
# Shear Modulus (GPa) = 16.59845 30.58719 23.59282
#
# Velocity S-wave (km/s) = 2.78115 3.77537 3.31574
# Velocity P-wave (km/s) = 4.93313 7.32412 6.24414
#
# Compressibility (1/GPa) = 0.03323128
#
# Stress axis : x y z
#
# Youngs Moduli (GPa) = 37.53664 116.63772 14.96885
#
# Poissons Ratio (x) = 0.20271 0.36592
# Poissons Ratio (y) = 0.06524 0.12290
# Poissons Ratio (z) = 0.91761 0.95766
#
# Static dielectric constant tensor:
#      x y z
#    x 3.736850 0.000000 0.498450 
#    y 0.000000 4.255010 0.000000 
#    z 0.498450 0.000000 3.663650 
# 
# 
# High freq. dielectric constant tensor:
#      x y z
#    x 1.823490 0.000000 0.046430 
#    y 0.000000 1.855350 0.000000 
#    z 0.046430 0.000000 1.811030 
# 
# From -- ./inp_files/257229.got.cif
#   From: 2010.06.25/outbox.cif.g09.slc.cpg/sg15_129_cif.got.tgz:257229.got - 2010.06.28 07:06:18.
