data_PCOD8132577
_publ_section_title
;
Structure prediction by ZEFSAII (Michael W. Deem and Ramdas Pophale) SiO2 
 PCOD8132577
Probable space group: C 2/C
;
_chemical_formula_sum "Si O2"
_cell_formula_units_Z 64
_cell_length_a 35.129478
_cell_length_b 7.725343
_cell_length_c 19.954394
_cell_angle_alpha 90.000000
_cell_angle_beta 143.932996
_cell_angle_gamma 90.000000
_cell_volume 3188.194999
_symmetry_space_group_name_H-M "C 2/C"
_symmetry_group_IT_number 15
_symmetry_cell_setting 'monoclinic'
loop_
_space_group_symop_operation_xyz
x,y,z
-x,y,1/2-z
-x,-y,-z
x,-y,1/2+z
1/2+x,1/2+y,z
1/2-x,1/2+y,1/2-z
1/2-x,1/2-y,-z
1/2+x,1/2-y,1/2+z
loop_
_atom_site_type_symbol
_atom_site_label
_atom_site_fract_x
_atom_site_fract_y
_atom_site_fract_z
Si Si1 0.359186 0.008104 0.178889
Si Si2 0.221991 0.525645 0.053314
Si Si3 0.338776 0.401741 0.138764
Si Si4 0.685913 0.346255 0.545979
Si Si5 0.285911 0.141421 0.696099
Si Si6 0.020674 0.380394 0.587614
Si Si7 0.072484 0.949844 0.120454
Si Si8 0.111934 0.202843 0.069815
O O1 0.329255 0.200427 0.144570
O O2 0.437617 0.016308 0.297370
O O3 0.328756 0.880604 0.190462
O O4 0.343783 0.935280 0.082388
O O5 0.274912 0.501467 0.070225
O O6 0.213823 0.349489 0.084230
O O7 0.240240 0.687982 0.125836
O O8 0.399389 0.493601 0.264482
O O9 0.346078 0.413498 0.068900
O O10 0.743037 0.473474 0.650089
O O11 0.628678 0.356428 0.518970
O O12 0.335196 0.160193 0.828525
O O13 0.071693 0.257420 0.620525
O O14 0.000000 0.500000 0.500000
O O15 0.960136 0.283033 0.534991
O O16 0.117242 0.036818 0.127632
O O17 0.000000 0.000000 0.000000
#
# Coordination Sequence:
#
# PCOD8132577 Si02
#       8
#     8   8   8   8   8   8   8   8
#     4  10  19  36  62  91 116 156 219 262 300 377
#     4  11  21  38  61  95 122 165 212 254 317 384
#     4  10  18  38  64  84 128 168 203 262 307 383
#     4  11  25  41  56  98 134 163 206 257 338 383
#     4  12  22  36  64  92 128 163 205 268 319 378
#     4  10  20  39  64  87 115 169 215 258 310 371
#     4   9  20  38  60  89 113 160 219 257 299 373
#     4  11  24  40  59  95 131 164 212 269 322 378
#
# _framework density 20.074054
#
# number of rings (size 3 to 8) (size 9 to 14) (size 15 to 20)
#    0.000    1.500    5.000    1.125    1.750    0.000 
#    2.250   10.000    0.000    0.000    0.000    0.000 
#    0.000    0.000    0.000    0.000    0.000    0.000 
#
# Total GULP energy -396491.274843 kJ/mol
# GULP energy per Si atom -12390.352339 kJ/mol
# Density = 2.002836 g / cm^3
# Si number density = 20.074054 Si / 1000 Ang^3
#
#
#
# Elastic Constant Matrix: (Units=GPa)
#
#
# Indices 1 2 3 4 5 6 
#
# 1 106.0798 36.3686 32.5933 0.0000 -5.5399 0.0000
# 2 36.3686 66.7287 36.4630 -0.0001 2.6089 0.0000
# 3 32.5933 36.4630 134.0345 0.0000 4.5958 0.0000
# 4 0.0000 -0.0001 0.0000 30.9054 0.0000 1.9191
# 5 -5.5399 2.6089 4.5958 0.0000 22.7826 0.0000
# 6 0.0000 0.0000 0.0000 1.9191 0.0000 18.0959
#
#
#
# Elastic Compliance Matrix: (Units=1/GPa)
#
#
# Indices 1 2 3 4 5 6 
#
# 1 0.012125 -0.005964 -0.001461 0.000000 0.003926 0.000000
# 2 -0.005964 0.020561 -0.004041 0.000000 -0.002990 0.000000
# 3 -0.001461 -0.004041 0.008974 0.000000 -0.001703 0.000000
# 4 0.000000 0.000000 0.000000 0.032571 0.000000 -0.003454
# 5 0.003926 -0.002990 -0.001703 0.000000 0.045534 0.000000
# 6 0.000000 0.000000 0.000000 -0.003454 0.000000 0.055627
#
#
# Mechanical properties :
#
#
# Convention : Reuss Voigt Hill
#
# Bulk Modulus (GPa) = 53.39153 57.52142 55.45648
# Shear Modulus (GPa) = 24.44189 27.78466 26.11327
#
# Velocity S-wave (km/s) = 3.49318 3.72440 3.61064
# Velocity P-wave (km/s) = 6.55170 6.87107 6.71329
#
# Compressibility (1/GPa) = 0.01872956
#
# Stress axis : x y z
#
# Youngs Moduli (GPa) = 82.47162 48.63475 111.43765
#
# Poissons Ratio (x) = 0.29005 0.16278
# Poissons Ratio (y) = 0.49185 0.45030
# Poissons Ratio (z) = 0.12047 0.19652
#
# Static dielectric constant tensor:
#      x y z
#    x 3.518990 0.000000 0.403450 
#    y 0.000000 4.363940 0.000000 
#    z 0.403450 0.000000 4.868600 
# 
# 
# High freq. dielectric constant tensor:
#      x y z
#    x 1.732210 0.000000 -0.003140 
#    y 0.000000 1.783510 0.000000 
#    z -0.003140 0.000000 1.808300 
# 
# From -- ./inp_files/224618.got.cif
#   From: 2010.06.25/outbox.cif.g09.slc.cpg/sg15_113_cif.got.tgz:224618.got - 2010.06.28 07:06:18.
