data_PCOD8132018
_publ_section_title
;
Structure prediction by ZEFSAII (Michael W. Deem and Ramdas Pophale) SiO2 
 PCOD8132018
Probable space group: C 2/C
;
_chemical_formula_sum "Si O2"
_cell_formula_units_Z 40
_cell_length_a 11.724435
_cell_length_b 15.152670
_cell_length_c 11.122704
_cell_angle_alpha 90.000000
_cell_angle_beta 103.792982
_cell_angle_gamma 90.000000
_cell_volume 1919.039064
_symmetry_space_group_name_H-M "C 2/C"
_symmetry_group_IT_number 15
_symmetry_cell_setting 'monoclinic'
loop_
_space_group_symop_operation_xyz
x,y,z
-x,y,1/2-z
-x,-y,-z
x,-y,1/2+z
1/2+x,1/2+y,z
1/2-x,1/2+y,1/2-z
1/2-x,1/2-y,-z
1/2+x,1/2-y,1/2+z
loop_
_atom_site_type_symbol
_atom_site_label
_atom_site_fract_x
_atom_site_fract_y
_atom_site_fract_z
Si Si1 0.822922 0.169993 0.459773
Si Si2 0.936580 0.244116 0.999061
Si Si3 0.283748 0.678574 0.165455
Si Si4 0.490920 0.914852 0.377957
Si Si5 0.798567 0.503976 0.959208
O O1 0.750000 0.250000 0.500000
O O2 0.807400 0.170968 0.312088
O O3 0.788612 0.075008 0.504037
O O4 0.962452 0.178534 0.524293
O O5 0.893969 0.219214 0.122496
O O6 0.999373 0.339050 0.020208
O O7 0.827124 0.254656 0.880216
O O8 0.268229 0.584092 0.096584
O O9 0.500000 0.872191 0.250000
O O10 0.361942 0.957758 0.356518
O O11 0.595538 0.985895 0.420122
#
# Coordination Sequence:
#
# PCOD8132018 Si02
#       5
#     8   8   8   8   8
#     4  12  23  40  66  98 127 162 215 264 315 368
#     4  10  22  41  65  91 123 171 209 252 316 378
#     4  10  23  43  64  91 130 165 209 260 313 383
#     4  10  18  35  59  85 120 164 213 254 303 368
#     4  10  22  36  58  94 122 162 208 262 315 361
#
# _framework density 20.843764
#
# number of rings (size 3 to 8) (size 9 to 14) (size 15 to 20)
#    0.000    1.600    2.000    3.000    0.000    1.600 
#    3.600    0.000    0.000    0.000    0.000    0.000 
#    0.000    0.000    0.000    0.000    0.000    0.000 
#
# Total GULP energy -247883.992477 kJ/mol
# GULP energy per Si atom -12394.199624 kJ/mol
# Density = 2.079632 g / cm^3
# Si number density = 20.843764 Si / 1000 Ang^3
#
#
#
# Elastic Constant Matrix: (Units=GPa)
#
#
# Indices 1 2 3 4 5 6 
#
# 1 132.4893 56.0270 26.6506 0.0000 8.4115 0.0000
# 2 56.0270 105.2393 24.4315 0.0000 0.0059 0.0000
# 3 26.6506 24.4315 65.2900 0.0000 -10.0768 0.0000
# 4 0.0000 0.0000 0.0000 23.6462 0.0000 -5.7766
# 5 8.4115 0.0059 -10.0768 0.0000 18.5360 0.0000
# 6 0.0000 0.0000 0.0000 -5.7766 0.0000 47.7848
#
#
#
# Elastic Compliance Matrix: (Units=1/GPa)
#
#
# Indices 1 2 3 4 5 6 
#
# 1 0.010785 -0.004899 -0.003629 0.000000 -0.006865 0.000000
# 2 -0.004899 0.012723 -0.002640 0.000000 0.000784 0.000000
# 3 -0.003629 -0.002640 0.019692 0.000000 0.012353 0.000000
# 4 0.000000 0.000000 0.000000 0.043577 0.000000 0.005268
# 5 -0.006865 0.000784 0.012353 0.000000 0.063780 0.000000
# 6 0.000000 0.000000 0.000000 0.005268 0.000000 0.021564
#
#
# Mechanical properties :
#
#
# Convention : Reuss Voigt Hill
#
# Bulk Modulus (GPa) = 47.92903 57.47076 52.69989
# Shear Modulus (GPa) = 24.82469 31.05404 27.93936
#
# Velocity S-wave (km/s) = 3.45481 3.86404 3.66514
# Velocity P-wave (km/s) = 6.24169 6.89491 6.57641
#
# Compressibility (1/GPa) = 0.02086418
#
# Stress axis : x y z
#
# Youngs Moduli (GPa) = 92.71885 78.59663 50.78184
#
# Poissons Ratio (x) = 0.38505 0.18428
# Poissons Ratio (y) = 0.45423 0.13408
# Poissons Ratio (z) = 0.33646 0.20752
#
# Static dielectric constant tensor:
#      x y z
#    x 3.948610 0.000000 0.041810 
#    y 0.000000 3.794300 0.000000 
#    z 0.041810 0.000000 3.534930 
# 
# 
# High freq. dielectric constant tensor:
#      x y z
#    x 1.824000 0.000000 -0.003700 
#    y 0.000000 1.821240 0.000000 
#    z -0.003700 0.000000 1.796670 
# 
# From -- ./inp_files/85613.got.cif
#   From: 2010.06.25/outbox.cif.g09.slc.cpg/sg15_43_cif.got.tgz:85613.got - 2010.06.28 07:06:18.
