data_PCOD8132373
_publ_section_title
;
Structure prediction by ZEFSAII (Michael W. Deem and Ramdas Pophale) SiO2 
 PCOD8132373
Probable space group: C 2/C
;
_chemical_formula_sum "Si O2"
_cell_formula_units_Z 52
_cell_length_a 5.336398
_cell_length_b 29.098517
_cell_length_c 16.796948
_cell_angle_alpha 90.000000
_cell_angle_beta 70.251969
_cell_angle_gamma 90.000000
_cell_volume 2454.853930
_symmetry_space_group_name_H-M "C 2/C"
_symmetry_group_IT_number 15
_symmetry_cell_setting 'monoclinic'
loop_
_space_group_symop_operation_xyz
x,y,z
-x,y,1/2-z
-x,-y,-z
x,-y,1/2+z
1/2+x,1/2+y,z
1/2-x,1/2+y,1/2-z
1/2-x,1/2-y,-z
1/2+x,1/2-y,1/2+z
loop_
_atom_site_type_symbol
_atom_site_label
_atom_site_fract_x
_atom_site_fract_y
_atom_site_fract_z
Si Si1 0.353417 0.813756 0.055370
Si Si2 0.500000 0.059626 0.750000
Si Si3 0.513300 0.517935 0.873725
Si Si4 0.903585 0.070035 0.470769
Si Si5 0.481044 0.673554 0.453495
Si Si6 0.808840 0.761715 0.695483
Si Si7 0.390074 0.910329 0.101534
O O1 0.315945 0.779255 0.131482
O O2 0.239042 0.863306 0.096934
O O3 0.668164 0.816125 0.000944
O O4 0.165100 0.800805 0.000440
O O5 0.477106 0.095628 0.825997
O O6 0.742220 0.024198 0.711588
O O7 0.469789 0.463448 0.889982
O O8 0.267985 0.543323 0.859033
O O9 0.516025 0.545293 0.956800
O O10 0.048633 0.119146 0.445823
O O11 0.588227 0.079187 0.507243
O O12 0.568245 0.692846 0.358573
O O13 0.500000 0.770604 0.750000
O O14 0.000000 0.749882 0.750000
#
# Coordination Sequence:
#
# PCOD8132373 Si02
#       7
#     8   4   8   8   8   8   8
#     4  11  23  41  70  93 124 167 221 261 325 380
#     4  10  22  32  50  84 124 158 190 256 326 378
#     4  10  18  37  54  86 118 158 202 259 308 375
#     4   9  20  35  61  84 113 157 218 250 305 360
#     4  11  22  45  66  97 121 175 216 266 305 394
#     4  12  26  43  65  98 135 168 207 270 329 383
#     4  10  20  35  59  85 120 155 208 265 314 369
#
# _framework density 21.182524000000001
#
# number of rings (size 3 to 8) (size 9 to 14) (size 15 to 20)
#    0.000    1.538    1.538    3.692    1.077    1.231 
#    1.385    1.538    0.000    0.000    0.000    0.000 
#    0.000    0.000    0.000    0.000    0.000    0.000 
#
# Total GULP energy -322103.290944 kJ/mol
# GULP energy per Si atom -12388.588113 kJ/mol
# Density = 2.113431 g / cm^3
# Si number density = 21.182524 Si / 1000 Ang^3
#
#
#
# Elastic Constant Matrix: (Units=GPa)
#
#
# Indices 1 2 3 4 5 6 
#
# 1 109.0534 21.1498 35.8720 0.0000 -4.8975 0.0000
# 2 21.1498 105.7186 47.3897 0.0000 -5.3811 0.0000
# 3 35.8720 47.3897 100.2158 0.0000 -10.7111 0.0000
# 4 0.0000 0.0000 0.0000 14.0944 0.0000 -2.8170
# 5 -4.8975 -5.3811 -10.7111 0.0000 31.7498 0.0000
# 6 0.0000 0.0000 0.0000 -2.8170 0.0000 23.6524
#
#
#
# Elastic Compliance Matrix: (Units=1/GPa)
#
#
# Indices 1 2 3 4 5 6 
#
# 1 0.010420 -0.000522 -0.003445 0.000000 0.000357 0.000000
# 2 -0.000522 0.012030 -0.005490 0.000000 0.000106 0.000000
# 3 -0.003445 -0.005490 0.014162 0.000000 0.003316 0.000000
# 4 0.000000 0.000000 0.000000 0.072680 0.000000 0.008656
# 5 0.000357 0.000106 0.003316 0.000000 0.032688 0.000000
# 6 0.000000 0.000000 0.000000 0.008656 0.000000 0.043310
#
#
# Mechanical properties :
#
#
# Convention : Reuss Voigt Hill
#
# Bulk Modulus (GPa) = 56.50521 58.20117 57.35319
# Shear Modulus (GPa) = 23.79761 27.93775 25.86768
#
# Velocity S-wave (km/s) = 3.35543 3.63561 3.49833
# Velocity P-wave (km/s) = 6.46105 6.72006 6.59183
#
# Compressibility (1/GPa) = 0.01769748
#
# Stress axis : x y z
#
# Youngs Moduli (GPa) = 95.96683 83.12460 70.61034
#
# Poissons Ratio (x) = 0.04342 0.24324
# Poissons Ratio (y) = 0.05013 0.38768
# Poissons Ratio (z) = 0.33059 0.45639
#
# Static dielectric constant tensor:
#      x y z
#    x 3.954160 0.000000 0.041710 
#    y 0.000000 3.972670 0.000000 
#    z 0.041710 0.000000 3.801490 
# 
# 
# High freq. dielectric constant tensor:
#      x y z
#    x 1.834970 0.000000 0.001010 
#    y 0.000000 1.829370 0.000000 
#    z 0.001010 0.000000 1.825330 
# 
# From -- ./inp_files/130852.got.cif
#   From: 2010.06.25/outbox.cif.g09.slc.cpg/sg15_66_cif.got.tgz:130852.got - 2010.06.28 07:06:18.
