data_PCOD8132164
_publ_section_title
;
Structure prediction by ZEFSAII (Michael W. Deem and Ramdas Pophale) SiO2 
 PCOD8132164
Probable space group: C 2/C
;
_chemical_formula_sum "Si O2"
_cell_formula_units_Z 52
_cell_length_a 24.694701
_cell_length_b 13.179959
_cell_length_c 16.575627
_cell_angle_alpha 90.000000
_cell_angle_beta 29.383758
_cell_angle_gamma 90.000000
_cell_volume 2647.070988
_symmetry_space_group_name_H-M "C 2/C"
_symmetry_group_IT_number 15
_symmetry_cell_setting 'monoclinic'
loop_
_space_group_symop_operation_xyz
x,y,z
-x,y,1/2-z
-x,-y,-z
x,-y,1/2+z
1/2+x,1/2+y,z
1/2-x,1/2+y,1/2-z
1/2-x,1/2-y,-z
1/2+x,1/2-y,1/2+z
loop_
_atom_site_type_symbol
_atom_site_label
_atom_site_fract_x
_atom_site_fract_y
_atom_site_fract_z
Si Si1 0.207157 0.708536 0.306285
Si Si2 0.292705 0.106351 0.607244
Si Si3 0.135951 0.402237 0.172922
Si Si4 0.818349 0.912274 0.802085
Si Si5 0.505958 0.701801 0.337859
Si Si6 0.128747 0.494523 0.839715
Si Si7 0.000000 0.545673 0.250000
O O1 0.257427 0.779708 0.171557
O O2 0.295763 0.659887 0.253556
O O3 0.157311 0.622048 0.314879
O O4 0.116380 0.773211 0.473024
O O5 0.394524 0.112894 0.411869
O O6 0.194569 0.032321 0.702127
O O7 0.332972 0.062242 0.637772
O O8 0.087820 0.292496 0.255092
O O9 0.187766 0.456323 0.184298
O O10 0.032408 0.471567 0.281009
O O11 0.225712 0.386515 0.987847
O O12 0.939976 0.893027 0.682740
O O13 0.500000 0.679434 0.250000
O O14 0.000000 0.500000 0.000000
#
# Coordination Sequence:
#
# PCOD8132164 Si02
#       7
#     8   8   8   8   8   8   4
#     4  11  23  38  60  92 119 159 202 241 307 361
#     4  10  22  39  58  86 122 157 200 252 300 356
#     4  11  18  35  59  89 116 144 200 255 291 342
#     4  10  23  38  57  89 123 156 196 253 301 356
#     4  12  21  33  59  91 122 156 195 246 305 357
#     4  11  20  35  63  90 113 154 205 251 289 349
#     4  10  18  36  58  80 118 154 196 252 294 338
#
# _framework density 19.644352999999999
#
# number of rings (size 3 to 8) (size 9 to 14) (size 15 to 20)
#    0.000    1.231    5.385    2.308    2.154    0.615 
#    0.000    3.077    0.000    0.000    2.000    0.000 
#    0.000    0.000    0.000    0.000    0.000    0.000 
#
# Total GULP energy -322299.119208 kJ/mol
# GULP energy per Si atom -12396.119970 kJ/mol
# Density = 1.959964 g / cm^3
# Si number density = 19.644353 Si / 1000 Ang^3
#
#
#
# Elastic Constant Matrix: (Units=GPa)
#
#
# Indices 1 2 3 4 5 6 
#
# 1 102.2639 55.7772 25.4220 0.0000 3.0866 0.0000
# 2 55.7772 100.5017 28.4882 0.0000 2.6712 0.0000
# 3 25.4220 28.4882 34.6166 0.0000 4.7215 0.0000
# 4 0.0000 0.0000 0.0000 10.5951 0.0000 19.5926
# 5 3.0866 2.6712 4.7215 0.0000 26.8409 0.0000
# 6 0.0000 0.0000 0.0000 19.5926 0.0000 19.2287
#
#
#
# Elastic Compliance Matrix: (Units=1/GPa)
#
#
# Indices 1 2 3 4 5 6 
#
# 1 0.014743 -0.006671 -0.005325 0.000000 -0.000095 0.000000
# 2 -0.006671 0.016005 -0.008361 0.000000 0.000645 0.000000
# 3 -0.005325 -0.008361 0.040452 0.000000 -0.005671 0.000000
# 4 0.000000 0.000000 0.000000 -0.106743 0.000000 0.108763
# 5 -0.000095 0.000645 -0.005671 0.000000 0.038201 0.000000
# 6 0.000000 0.000000 0.000000 0.108763 0.000000 -0.058816
#
#
# Mechanical properties :
#
#
# Convention : Reuss Voigt Hill
#
# Bulk Modulus (GPa) = 32.79908 50.75079 41.77493
# Shear Modulus (GPa) = -946.54505 19.84592 -463.34957
#
# Velocity S-wave (km/s) = -21.97469 3.18191 -15.37469
# Velocity P-wave (km/s) = 25.04229 6.27617 17.14243
#
# Compressibility (1/GPa) = 0.03048866
#
# Stress axis : x y z
#
# Youngs Moduli (GPa) = 67.82659 62.48069 24.72042
#
# Poissons Ratio (x) = 0.41678 0.13163
# Poissons Ratio (y) = 0.45244 0.20668
# Poissons Ratio (z) = 0.36117 0.52238
#
# Static dielectric constant tensor:
#      x y z
#    x 4.016330 0.000000 0.181800 
#    y 0.000000 3.980790 0.000000 
#    z 0.181800 0.000000 3.514920 
# 
# 
# High freq. dielectric constant tensor:
#      x y z
#    x 1.773950 0.000000 0.008970 
#    y 0.000000 1.751900 0.000000 
#    z 0.008970 0.000000 1.750440 
# 
# From -- ./inp_files/118756.got.cif
#   From: 2010.06.25/outbox.cif.g09.slc.cpg/sg15_60_cif.got.tgz:118756.got - 2010.06.28 07:06:18.
