data_PCOD8132000
_publ_section_title
;
Structure prediction by ZEFSAII (Michael W. Deem and Ramdas Pophale) SiO2 
 PCOD8132000
Probable space group: C 2/C
;
_chemical_formula_sum "Si O2"
_cell_formula_units_Z 64
_cell_length_a 9.206204
_cell_length_b 18.074821
_cell_length_c 30.070298
_cell_angle_alpha 90.000000
_cell_angle_beta 139.805000
_cell_angle_gamma 90.000000
_cell_volume 3229.351045
_symmetry_space_group_name_H-M "C 2/C"
_symmetry_group_IT_number 15
_symmetry_cell_setting 'monoclinic'
loop_
_space_group_symop_operation_xyz
x,y,z
-x,y,1/2-z
-x,-y,-z
x,-y,1/2+z
1/2+x,1/2+y,z
1/2-x,1/2+y,1/2-z
1/2-x,1/2-y,-z
1/2+x,1/2-y,1/2+z
loop_
_atom_site_type_symbol
_atom_site_label
_atom_site_fract_x
_atom_site_fract_y
_atom_site_fract_z
Si Si1 0.336668 0.313367 0.074180
Si Si2 0.054768 0.657231 0.433128
Si Si3 0.063792 0.164196 0.312358
Si Si4 0.780848 0.926551 0.913200
Si Si5 0.015518 0.287002 0.430303
Si Si6 0.259286 0.909960 0.070807
Si Si7 0.689506 0.832223 0.324536
Si Si8 0.756566 0.839141 0.820316
O O1 0.425530 0.245339 0.064904
O O2 0.577255 0.340191 0.150014
O O3 0.151014 0.295346 0.067252
O O4 0.218841 0.370524 0.011506
O O5 0.115694 0.629878 0.398544
O O6 0.801460 0.632280 0.385436
O O7 0.086344 0.252270 0.311599
O O8 0.000000 0.128546 0.250000
O O9 0.872816 0.137150 0.301589
O O10 0.774673 0.907362 0.859367
O O11 0.678043 0.006334 0.901519
O O12 0.028613 0.911866 0.989692
O O13 0.250000 0.250000 0.500000
O O14 0.058921 0.367252 0.417779
O O15 0.889646 0.233540 0.366879
O O16 0.243397 0.868548 0.113432
O O17 0.500000 0.873607 0.250000
O O18 0.500000 0.818292 0.750000
#
# Coordination Sequence:
#
# PCOD8132000 Si02
#       8
#     8   8   8   8   8   8   8   8
#     4  10  20  32  60  91 118 154 205 262 313 368
#     4  10  18  35  58  87 122 158 204 255 318 369
#     4  10  21  35  59  92 124 160 204 267 317 373
#     4  11  23  41  62  90 131 170 213 261 325 397
#     4  12  22  38  63  96 127 162 218 276 319 374
#     4  11  23  41  62  90 130 173 210 260 326 395
#     4  10  21  37  59  86 123 163 204 256 322 377
#     4  12  24  38  65  98 130 163 219 274 324 384
#
# _framework density 19.818223
#
# number of rings (size 3 to 8) (size 9 to 14) (size 15 to 20)
#    0.000    1.250    5.000    1.500    5.250    0.500 
#    0.000    1.875    0.000    3.750    0.000    0.000 
#    0.000    0.000    0.000    0.000    0.000    0.000 
#
# Total GULP energy -396453.444303 kJ/mol
# GULP energy per Si atom -12389.170134 kJ/mol
# Density = 1.977312 g / cm^3
# Si number density = 19.818223 Si / 1000 Ang^3
#
#
#
# Elastic Constant Matrix: (Units=GPa)
#
#
# Indices 1 2 3 4 5 6 
#
# 1 145.4359 13.6506 63.4154 0.0000 10.4878 0.0000
# 2 13.6506 54.6571 32.1779 0.0000 0.2376 0.0000
# 3 63.4154 32.1779 147.2173 -0.0001 14.0076 0.0000
# 4 0.0000 0.0000 -0.0001 12.0483 0.0000 0.9290
# 5 10.4878 0.2376 14.0076 0.0000 37.3860 0.0000
# 6 0.0000 0.0000 0.0000 0.9290 0.0000 22.0907
#
#
#
# Elastic Compliance Matrix: (Units=1/GPa)
#
#
# Indices 1 2 3 4 5 6 
#
# 1 0.008506 -0.000025 -0.003558 0.000000 -0.001053 0.000000
# 2 -0.000025 0.021096 -0.004758 0.000000 0.001656 0.000000
# 3 -0.003558 -0.004758 0.009610 0.000000 -0.002572 0.000000
# 4 0.000000 0.000000 0.000000 0.083269 0.000000 -0.003502
# 5 -0.001053 0.001656 -0.002572 0.000000 0.027997 0.000000
# 6 0.000000 0.000000 0.000000 -0.003502 0.000000 0.045415
#
#
# Mechanical properties :
#
#
# Convention : Reuss Voigt Hill
#
# Bulk Modulus (GPa) = 44.38577 62.86645 53.62611
# Shear Modulus (GPa) = 22.71853 30.17610 26.44731
#
# Velocity S-wave (km/s) = 3.38945 3.90634 3.65704
# Velocity P-wave (km/s) = 6.14515 7.22055 6.70445
#
# Compressibility (1/GPa) = 0.02252975
#
# Stress axis : x y z
#
# Youngs Moduli (GPa) = 117.56844 47.40250 104.05670
#
# Poissons Ratio (x) = 0.00118 0.37027
# Poissons Ratio (y) = 0.00292 0.49509
# Poissons Ratio (z) = 0.41835 0.22553
#
# Static dielectric constant tensor:
#      x y z
#    x 3.722960 0.000000 0.068620 
#    y 0.000000 3.375020 0.000000 
#    z 0.068620 0.000000 4.246800 
# 
# 
# High freq. dielectric constant tensor:
#      x y z
#    x 1.778750 0.000000 0.003670 
#    y 0.000000 1.723200 0.000000 
#    z 0.003670 0.000000 1.792710 
# 
# From -- ./inp_files/308795.got.cif
#   From: 2010.06.25/outbox.cif.g09.slc.cpg/sg15_155_cif.got.tgz:308795.got - 2010.06.28 07:06:18.
