data_PCOD8132104
_publ_section_title
;
Structure prediction by ZEFSAII (Michael W. Deem and Ramdas Pophale) SiO2 
 PCOD8132104
Probable space group: C 2/C
;
_chemical_formula_sum "Si O2"
_cell_formula_units_Z 64
_cell_length_a 29.252907
_cell_length_b 23.025014
_cell_length_c 14.569783
_cell_angle_alpha 90.000000
_cell_angle_beta 18.560918
_cell_angle_gamma 90.000000
_cell_volume 3123.748466
_symmetry_space_group_name_H-M "C 2/C"
_symmetry_group_IT_number 15
_symmetry_cell_setting 'monoclinic'
loop_
_space_group_symop_operation_xyz
x,y,z
-x,y,1/2-z
-x,-y,-z
x,-y,1/2+z
1/2+x,1/2+y,z
1/2-x,1/2+y,1/2-z
1/2-x,1/2-y,-z
1/2+x,1/2-y,1/2+z
loop_
_atom_site_type_symbol
_atom_site_label
_atom_site_fract_x
_atom_site_fract_y
_atom_site_fract_z
Si Si1 0.085630 0.872986 0.168151
Si Si2 0.631446 0.268038 0.347173
Si Si3 0.566795 0.061493 0.362664
Si Si4 0.369039 0.384382 0.054873
Si Si5 0.419091 0.861053 0.995575
Si Si6 0.889954 0.946065 0.207685
Si Si7 0.912556 0.639370 0.008932
Si Si8 0.454454 0.748472 0.685387
O O1 0.046893 0.898867 0.341625
O O2 0.028551 0.806521 0.280450
O O3 0.000000 0.905346 0.250000
O O4 0.247606 0.879810 0.824390
O O5 0.592460 0.318548 0.491728
O O6 0.585634 0.208135 0.481132
O O7 0.538588 0.274371 0.431895
O O8 0.798540 0.276755 0.002273
O O9 0.509552 0.091514 0.379288
O O10 0.518100 0.104528 0.537755
O O11 0.500000 0.000000 0.500000
O O12 0.732814 0.042901 0.046912
O O13 0.236228 0.386043 0.236133
O O14 0.356974 0.422859 0.168871
O O15 0.500000 0.411783 0.750000
O O16 0.500000 0.846523 0.750000
O O17 0.420503 0.797311 0.041716
O O18 0.000000 0.000000 0.000000
O O19 0.000000 0.622773 0.750000
#
# Coordination Sequence:
#
# PCOD8132104 Si02
#       8
#     8   8   8   8   8   8   8   8
#     4  10  22  40  65  94 126 170 218 258 320 398
#     4  10  18  37  65  94 133 166 204 261 333 385
#     4  11  25  45  69  95 125 171 228 276 318 384
#     4  12  26  43  67 101 137 172 214 273 337 393
#     4  12  22  42  71 100 128 171 227 268 322 402
#     4  11  25  47  67  91 130 177 221 271 328 386
#     4  10  22  41  63  95 132 166 208 268 332 381
#     4  10  18  35  69  95 124 168 212 262 318 393
#
# _framework density 20.488205000000001
#
# number of rings (size 3 to 8) (size 9 to 14) (size 15 to 20)
#    0.000    1.250    5.000    0.750    3.500    2.000 
#    2.250    0.625    0.000    0.000    0.000    0.000 
#    0.000    0.000    0.000    0.000    0.000    0.000 
#
# Total GULP energy -396480.039440 kJ/mol
# GULP energy per Si atom -12390.001232 kJ/mol
# Density = 2.044157 g / cm^3
# Si number density = 20.488205 Si / 1000 Ang^3
#
#
#
# Elastic Constant Matrix: (Units=GPa)
#
#
# Indices 1 2 3 4 5 6 
#
# 1 122.7379 36.0512 31.3063 0.0061 -11.8861 -0.0072
# 2 36.0512 106.6331 29.6899 0.0060 -10.5925 -0.0075
# 3 31.3063 29.6899 74.9784 0.0101 1.0441 -0.0099
# 4 0.0061 0.0060 0.0101 25.2563 -0.0099 -4.9267
# 5 -11.8861 -10.5925 1.0441 -0.0099 32.7266 0.0066
# 6 -0.0072 -0.0075 -0.0099 -4.9267 0.0066 16.5263
#
#
#
# Elastic Compliance Matrix: (Units=1/GPa)
#
#
# Indices 1 2 3 4 5 6 
#
# 1 0.009916 -0.002122 -0.003342 0.000001 0.003021 0.000000
# 2 -0.002122 0.011422 -0.003679 0.000001 0.003044 0.000001
# 3 -0.003342 -0.003679 0.016230 -0.000005 -0.002923 0.000006
# 4 0.000001 0.000001 -0.000005 0.042039 0.000011 0.012532
# 5 0.003021 0.003044 -0.002923 0.000011 0.032732 -0.000009
# 6 0.000000 0.000001 0.000006 0.012532 -0.000009 0.064246
#
#
# Mechanical properties :
#
#
# Convention : Reuss Voigt Hill
#
# Bulk Modulus (GPa) = 51.86277 55.38269 53.62273
# Shear Modulus (GPa) = 24.83879 28.72196 26.78038
#
# Velocity S-wave (km/s) = 3.48565 3.74823 3.61932
# Velocity P-wave (km/s) = 6.44734 6.76923 6.61024
#
# Compressibility (1/GPa) = 0.01928166
#
# Stress axis : x y z
#
# Youngs Moduli (GPa) = 100.85051 87.54967 61.61323
#
# Poissons Ratio (x) = 0.18575 0.20592
# Poissons Ratio (y) = 0.21397 0.22670
# Poissons Ratio (z) = 0.33705 0.32213
#
# Static dielectric constant tensor:
#      x y z
#    x 2.248710 -0.000060 1.010850 
#    y -0.000060 3.591580 0.000050 
#    z 1.010850 0.000050 2.757890 
# 
# 
# High freq. dielectric constant tensor:
#      x y z
#    x 1.821700 0.000000 0.000240 
#    y 0.000000 1.794660 0.000000 
#    z 0.000240 0.000000 1.777330 
# 
# From -- ./inp_files/183132.got.cif
#   From: 2010.06.25/outbox.cif.g09.slc.cpg/sg15_92_cif.got.tgz:183132.got - 2010.06.28 07:06:18.
