data_PCOD8132594
_publ_section_title
;
Structure prediction by ZEFSAII (Michael W. Deem and Ramdas Pophale) SiO2 
 PCOD8132594
Probable space group: C 2/C
;
_chemical_formula_sum "Si O2"
_cell_formula_units_Z 44
_cell_length_a 26.985291
_cell_length_b 10.506017
_cell_length_c 14.537816
_cell_angle_alpha 90.000000
_cell_angle_beta 30.463678
_cell_angle_gamma 90.000000
_cell_volume 2089.611331
_symmetry_space_group_name_H-M "C 2/C"
_symmetry_group_IT_number 15
_symmetry_cell_setting 'monoclinic'
loop_
_space_group_symop_operation_xyz
x,y,z
-x,y,1/2-z
-x,-y,-z
x,-y,1/2+z
1/2+x,1/2+y,z
1/2-x,1/2+y,1/2-z
1/2-x,1/2-y,-z
1/2+x,1/2-y,1/2+z
loop_
_atom_site_type_symbol
_atom_site_label
_atom_site_fract_x
_atom_site_fract_y
_atom_site_fract_z
Si Si1 0.852778 0.208248 0.077469
Si Si2 0.398471 0.120739 0.356636
Si Si3 0.398296 0.327342 0.776892
Si Si4 0.500000 0.481257 0.250000
Si Si5 0.512078 0.148898 0.005418
Si Si6 0.772009 0.623931 0.075312
O O1 0.754838 0.140514 0.273331
O O2 0.826539 0.283020 0.025492
O O3 0.933058 0.104003 0.922688
O O4 0.890435 0.313010 0.092693
O O5 0.500000 0.106104 0.250000
O O6 0.419872 0.177071 0.220428
O O7 0.346453 0.986688 0.433498
O O8 0.443758 0.432718 0.768092
O O9 0.482329 0.236702 0.595440
O O10 0.333046 0.399052 0.804857
O O11 0.324092 0.250690 0.959062
O O12 0.500000 0.000000 0.000000
#
# Coordination Sequence:
#
# PCOD8132594 Si02
#       6
#     8   8   8   4   8   8
#     4  10  23  41  62  91 132 165 207 268 314 377
#     4  10  20  40  70  90 124 168 211 258 311 374
#     4  10  24  39  64  91 128 167 207 264 322 371
#     4  12  24  44  62  90 130 176 210 250 334 390
#     4  10  18  38  65  91 120 162 212 257 309 371
#     4  10  22  41  61  95 127 159 212 269 309 368
#
# _framework density 21.056546999999998
#
# number of rings (size 3 to 8) (size 9 to 14) (size 15 to 20)
#    0.000    1.818    4.545    0.000    3.818    2.909 
#    0.000    2.727    8.000    0.000    0.000    0.000 
#    0.000    0.000    0.000    0.000    0.000    0.000 
#
# Total GULP energy -272560.387586 kJ/mol
# GULP energy per Si atom -12389.108527 kJ/mol
# Density = 2.100862 g / cm^3
# Si number density = 21.056547 Si / 1000 Ang^3
#
#
#
# Elastic Constant Matrix: (Units=GPa)
#
#
# Indices 1 2 3 4 5 6 
#
# 1 58.3866 44.3418 31.4545 0.0000 18.5508 0.0000
# 2 44.3418 91.6162 26.6505 0.0000 0.6202 0.0000
# 3 31.4545 26.6505 122.3918 0.0000 38.0590 0.0000
# 4 0.0000 0.0000 0.0000 40.3749 0.0000 12.7337
# 5 18.5508 0.6202 38.0590 0.0000 27.7550 0.0000
# 6 0.0000 0.0000 0.0000 12.7337 0.0000 33.9269
#
#
#
# Elastic Compliance Matrix: (Units=1/GPa)
#
#
# Indices 1 2 3 4 5 6 
#
# 1 0.041185 -0.020921 0.004159 0.000000 -0.032763 0.000000
# 2 -0.020921 0.022805 -0.006588 0.000000 0.022507 0.000000
# 3 0.004159 -0.006588 0.016309 0.000000 -0.024996 0.000000
# 4 0.000000 0.000000 0.000000 0.028093 0.000000 -0.010544
# 5 -0.032763 0.022507 -0.024996 0.000000 0.091700 0.000000
# 6 0.000000 0.000000 0.000000 -0.010544 0.000000 0.033433
#
#
# Mechanical properties :
#
#
# Convention : Reuss Voigt Hill
#
# Bulk Modulus (GPa) = 29.76343 53.03201 41.39772
# Shear Modulus (GPa) = 17.15708 31.74122 24.44915
#
# Velocity S-wave (km/s) = 2.85758 3.88677 3.41122
# Velocity P-wave (km/s) = 5.00534 6.73668 5.93449
#
# Compressibility (1/GPa) = 0.03359828
#
# Stress axis : x y z
#
# Youngs Moduli (GPa) = 24.28084 43.85021 61.31601
#
# Poissons Ratio (x) = 0.91740 -0.25501
# Poissons Ratio (y) = 0.50799 0.40394
# Poissons Ratio (z) = -0.10098 0.28888
#
# Static dielectric constant tensor:
#      x y z
#    x 3.804330 0.000000 0.539120 
#    y 0.000000 3.826240 0.000000 
#    z 0.539120 0.000000 4.206540 
# 
# 
# High freq. dielectric constant tensor:
#      x y z
#    x 1.799240 0.000000 0.039120 
#    y 0.000000 1.824370 0.000000 
#    z 0.039120 0.000000 1.838080 
# 
# From -- ./inp_files/177510.got.cif
#   From: 2010.06.25/outbox.cif.g09.slc.cpg/sg15_89_cif.got.tgz:177510.got - 2010.06.28 07:06:18.
