data_PCOD8133164
_publ_section_title
;
Structure prediction by ZEFSAII (Michael W. Deem and Ramdas Pophale) SiO2 
 PCOD8133164
Probable space group: C 2/C
;
_chemical_formula_sum "Si O2"
_cell_formula_units_Z 60
_cell_length_a 12.638634
_cell_length_b 26.782400
_cell_length_c 10.991489
_cell_angle_alpha 90.000000
_cell_angle_beta 56.672168
_cell_angle_gamma 90.000000
_cell_volume 3108.663405
_symmetry_space_group_name_H-M "C 2/C"
_symmetry_group_IT_number 15
_symmetry_cell_setting 'monoclinic'
loop_
_space_group_symop_operation_xyz
x,y,z
-x,y,1/2-z
-x,-y,-z
x,-y,1/2+z
1/2+x,1/2+y,z
1/2-x,1/2+y,1/2-z
1/2-x,1/2-y,-z
1/2+x,1/2-y,1/2+z
loop_
_atom_site_type_symbol
_atom_site_label
_atom_site_fract_x
_atom_site_fract_y
_atom_site_fract_z
Si Si1 0.575872 0.701279 0.815698
Si Si2 0.041233 0.288440 0.999156
Si Si3 0.138964 0.020863 0.421504
Si Si4 0.500000 0.272656 0.750000
Si Si5 0.205530 0.304415 0.481639
Si Si6 0.357774 0.634947 0.054899
Si Si7 0.788827 0.152485 0.369418
Si Si8 0.651695 0.541332 0.142814
O O1 0.500000 0.725977 0.750000
O O2 0.707453 0.678095 0.686917
O O3 0.614930 0.744021 0.885191
O O4 0.488921 0.657936 0.925377
O O5 0.966654 0.264789 0.160501
O O6 0.938455 0.309618 0.969416
O O7 0.142425 0.330758 0.971822
O O8 0.134911 0.076685 0.473130
O O9 0.202762 0.020413 0.243815
O O10 0.204171 0.990032 0.492475
O O11 0.000000 0.000000 0.500000
O O12 0.619316 0.306088 0.628068
O O13 0.250000 0.250000 0.500000
O O14 0.231088 0.343807 0.572128
O O15 0.345887 0.649959 0.200244
O O16 0.799798 0.097241 0.418779
O O17 0.500000 0.541679 0.250000
#
# Coordination Sequence:
#
# PCOD8133164 Si02
#       8
#     8   8   8   4   8   8   8   8
#     4  10  19  32  54  79 110 141 182 239 287 324
#     4  12  23  35  54  80 114 161 195 228 276 350
#     4   9  19  33  57  85 116 140 189 244 305 353
#     4  12  22  40  50  80 120 158 206 224 276 342
#     4  11  20  35  53  82 115 146 189 238 289 337
#     4  10  20  36  57  89 112 146 190 242 303 336
#     4  11  22  36  58  80 117 158 196 234 284 350
#     4   9  18  36  56  85 114 145 184 250 302 347
#
# _framework density 19.300899999999999
#
# number of rings (size 3 to 8) (size 9 to 14) (size 15 to 20)
#    0.000    1.600    4.667    2.000    0.000    4.800 
#    0.000    1.333    0.000    0.800    0.000    3.733 
#    0.000    0.000    0.000    0.000    0.000    0.000 
#
# Total GULP energy -371692.306067 kJ/mol
# GULP energy per Si atom -12389.743536 kJ/mol
# Density = 1.925697 g / cm^3
# Si number density = 19.300900 Si / 1000 Ang^3
#
#
#
# Elastic Constant Matrix: (Units=GPa)
#
#
# Indices 1 2 3 4 5 6 
#
# 1 79.7962 46.7644 15.5264 0.0000 -4.0875 0.0000
# 2 46.7644 118.7033 34.3406 0.0000 12.4252 0.0000
# 3 15.5264 34.3406 53.4478 0.0000 12.6258 0.0000
# 4 0.0000 0.0000 0.0000 21.6276 0.0000 8.3778
# 5 -4.0875 12.4252 12.6258 0.0000 32.8919 0.0000
# 6 0.0000 0.0000 0.0000 8.3778 0.0000 33.9153
#
#
#
# Elastic Compliance Matrix: (Units=1/GPa)
#
#
# Indices 1 2 3 4 5 6 
#
# 1 0.017150 -0.006771 -0.001913 0.000000 0.005423 0.000000
# 2 -0.006771 0.013088 -0.005582 0.000000 -0.003643 0.000000
# 3 -0.001913 -0.005582 0.024645 0.000000 -0.007589 0.000000
# 4 0.000000 0.000000 0.000000 0.051130 0.000000 -0.012630
# 5 0.005423 -0.003643 -0.007589 0.000000 0.035366 0.000000
# 6 0.000000 0.000000 0.000000 -0.012630 0.000000 0.032605
#
#
# Mechanical properties :
#
#
# Convention : Reuss Voigt Hill
#
# Bulk Modulus (GPa) = 37.94791 49.46778 43.70784
# Shear Modulus (GPa) = 23.66336 28.04134 25.85235
#
# Velocity S-wave (km/s) = 3.50526 3.81576 3.66380
# Velocity P-wave (km/s) = 6.00719 6.71557 6.37123
#
# Compressibility (1/GPa) = 0.02635192
#
# Stress axis : x y z
#
# Youngs Moduli (GPa) = 58.30955 76.40710 40.57698
#
# Poissons Ratio (x) = 0.51733 0.07762
# Poissons Ratio (y) = 0.39479 0.22648
# Poissons Ratio (z) = 0.11154 0.42647
#
# Static dielectric constant tensor:
#      x y z
#    x 3.601270 0.000000 0.295870 
#    y 0.000000 3.653710 0.000000 
#    z 0.295870 0.000000 3.901830 
# 
# 
# High freq. dielectric constant tensor:
#      x y z
#    x 1.736090 0.000000 0.029980 
#    y 0.000000 1.734660 0.000000 
#    z 0.029980 0.000000 1.745590 
# 
# From -- ./inp_files/92045.got.cif
#   From: 2010.06.25/outbox.cif.g09.slc.cpg/sg15_47_cif.got.tgz:92045.got - 2010.06.28 07:06:18.
