data_PCOD8133048
_publ_section_title
;
Structure prediction by ZEFSAII (Michael W. Deem and Ramdas Pophale) SiO2 
 PCOD8133048
Probable space group: C 2/C
;
_chemical_formula_sum "Si O2"
_cell_formula_units_Z 48
_cell_length_a 13.943374
_cell_length_b 11.893552
_cell_length_c 13.684770
_cell_angle_alpha 90.000000
_cell_angle_beta 84.700218
_cell_angle_gamma 90.000000
_cell_volume 2259.729149
_symmetry_space_group_name_H-M "C 2/C"
_symmetry_group_IT_number 15
_symmetry_cell_setting 'monoclinic'
loop_
_space_group_symop_operation_xyz
x,y,z
-x,y,1/2-z
-x,-y,-z
x,-y,1/2+z
1/2+x,1/2+y,z
1/2-x,1/2+y,1/2-z
1/2-x,1/2-y,-z
1/2+x,1/2-y,1/2+z
loop_
_atom_site_type_symbol
_atom_site_label
_atom_site_fract_x
_atom_site_fract_y
_atom_site_fract_z
Si Si1 0.334403 0.738684 0.623183
Si Si2 0.000000 0.003570 0.750000
Si Si3 0.345984 0.516073 0.126743
Si Si4 0.121493 0.246625 0.095710
Si Si5 0.677107 0.037260 0.282057
Si Si6 0.651977 0.511354 0.595969
Si Si7 0.500000 0.117093 0.750000
O O1 0.378322 0.615411 0.636717
O O2 0.219707 0.719215 0.640602
O O3 0.369374 0.788816 0.516396
O O4 0.361498 0.835296 0.698299
O O5 0.071527 0.926133 0.812724
O O6 0.073602 0.076289 0.672431
O O7 0.239670 0.539901 0.177043
O O8 0.346765 0.559326 0.014602
O O9 0.107741 0.113365 0.098207
O O10 0.032433 0.306601 0.156205
O O11 0.741617 0.990533 0.366909
O O12 0.586248 0.958289 0.281162
#
# Coordination Sequence:
#
# PCOD8133048 Si02
#       7
#     8   4   8   8   8   8   4
#     4   9  18  37  54  76 108 156 181 223 285 336
#     4  10  19  31  60  88 106 140 190 242 278 332
#     4  10  19  37  58  79 114 147 186 235 282 338
#     4   9  18  33  58  76 107 146 196 226 266 335
#     4  10  22  33  55  84 113 147 186 238 280 326
#     4   9  19  37  58  84 107 151 193 232 278 336
#     4  12  21  33  54  94 114 142 192 242 270 330
#
# _framework density 21.241485000000001
#
# number of rings (size 3 to 8) (size 9 to 14) (size 15 to 20)
#    0.000    2.333    1.667    2.000    0.000    1.333 
#    0.000    0.000    0.000    2.000    0.000    0.000 
#    0.000    0.000    0.000    0.000    0.000    0.000 
#
# Total GULP energy -297322.567056 kJ/mol
# GULP energy per Si atom -12388.440294 kJ/mol
# Density = 2.119314 g / cm^3
# Si number density = 21.241485 Si / 1000 Ang^3
#
#
#
# Elastic Constant Matrix: (Units=GPa)
#
#
# Indices 1 2 3 4 5 6 
#
# 1 110.8847 17.7824 51.7261 0.0000 -13.8588 0.0000
# 2 17.7824 53.7762 15.6508 0.0000 -8.2003 0.0000
# 3 51.7261 15.6508 148.9193 0.0000 -11.5830 0.0000
# 4 0.0000 0.0000 0.0000 20.2910 0.0000 -2.4962
# 5 -13.8588 -8.2003 -11.5830 0.0000 33.3451 0.0000
# 6 0.0000 0.0000 0.0000 -2.4962 0.0000 14.7290
#
#
#
# Elastic Compliance Matrix: (Units=1/GPa)
#
#
# Indices 1 2 3 4 5 6 
#
# 1 0.011380 -0.002299 -0.003481 0.000000 0.002955 0.000000
# 2 -0.002299 0.020216 -0.001042 0.000000 0.003654 0.000000
# 3 -0.003481 -0.001042 0.008121 0.000000 0.001118 0.000000
# 4 0.000000 0.000000 0.000000 0.050332 0.000000 0.008530
# 5 0.002955 0.003654 0.001118 0.000000 0.032504 0.000000
# 6 0.000000 0.000000 0.000000 0.008530 0.000000 0.069339
#
#
# Mechanical properties :
#
#
# Convention : Reuss Voigt Hill
#
# Bulk Modulus (GPa) = 38.35477 53.76654 46.06066
# Shear Modulus (GPa) = 23.33952 28.90111 26.12032
#
# Velocity S-wave (km/s) = 3.31837 3.69263 3.51049
# Velocity P-wave (km/s) = 5.72519 6.59907 6.17760
#
# Compressibility (1/GPa) = 0.02607237
#
# Stress axis : x y z
#
# Youngs Moduli (GPa) = 87.86962 49.46500 123.14182
#
# Poissons Ratio (x) = 0.11374 0.42871
# Poissons Ratio (y) = 0.20205 0.12828
# Poissons Ratio (z) = 0.30591 0.05153
#
# Static dielectric constant tensor:
#      x y z
#    x 3.806350 0.000000 -0.175280 
#    y 0.000000 3.511640 0.000000 
#    z -0.175280 0.000000 4.170000 
# 
# 
# High freq. dielectric constant tensor:
#      x y z
#    x 1.830620 0.000000 -0.015100 
#    y 0.000000 1.783610 0.000000 
#    z -0.015100 0.000000 1.848040 
# 
# From -- ./inp_files/151979.got.cif
#   From: 2010.06.25/outbox.cif.g09.slc.cpg/sg15_76_cif.got.tgz:151979.got - 2010.06.28 07:06:18.
