data_PCOD8133353
_publ_section_title
;
Structure prediction by ZEFSAII (Michael W. Deem and Ramdas Pophale) SiO2 
 PCOD8133353
Probable space group: C 2/C
;
_chemical_formula_sum "Si O2"
_cell_formula_units_Z 48
_cell_length_a 5.080318
_cell_length_b 25.876346
_cell_length_c 19.844342
_cell_angle_alpha 90.000000
_cell_angle_beta 81.215206
_cell_angle_gamma 90.000000
_cell_volume 2578.135270
_symmetry_space_group_name_H-M "C 2/C"
_symmetry_group_IT_number 15
_symmetry_cell_setting 'monoclinic'
loop_
_space_group_symop_operation_xyz
x,y,z
-x,y,1/2-z
-x,-y,-z
x,-y,1/2+z
1/2+x,1/2+y,z
1/2-x,1/2+y,1/2-z
1/2-x,1/2-y,-z
1/2+x,1/2-y,1/2+z
loop_
_atom_site_type_symbol
_atom_site_label
_atom_site_fract_x
_atom_site_fract_y
_atom_site_fract_z
Si Si1 0.589361 0.915945 0.018722
Si Si2 0.971555 0.899167 0.889949
Si Si3 0.541581 0.805376 0.445312
Si Si4 0.508312 0.850058 0.828882
Si Si5 0.728678 0.515090 0.440489
Si Si6 0.434819 0.246482 0.090551
O O1 0.860012 0.894667 0.971440
O O2 0.421815 0.941890 0.965109
O O3 0.449043 0.867505 0.059620
O O4 0.627284 0.959544 0.076403
O O5 0.733892 0.890071 0.846322
O O6 0.213250 0.858894 0.871033
O O7 0.098356 0.957755 0.879079
O O8 0.473353 0.789577 0.524064
O O9 0.328445 0.780955 0.402875
O O10 0.824930 0.785838 0.409397
O O11 0.500000 0.856868 0.750000
O O12 0.592957 0.791947 0.845059
O O13 0.500000 0.500000 0.500000
#
# Coordination Sequence:
#
# PCOD8133353 Si02
#       6
#     8   8   8   8   8   8
#     4  10  19  33  53  86 115 147 174 218 287 344
#     4  11  20  36  54  79 113 145 180 227 272 333
#     4  10  20  31  54  75 114 138 172 220 284 328
#     4  12  24  38  56  77 111 151 191 229 272 328
#     4   9  19  31  55  80 118 144 168 218 276 337
#     4  10  21  33  49  78 106 146 175 226 268 327
#
# _framework density 18.618110000000001
#
# number of rings (size 3 to 8) (size 9 to 14) (size 15 to 20)
#    0.000    1.667    3.333    1.500    9.333    0.000 
#    0.000    0.000    0.000    0.000    0.000    4.667 
#    0.000    0.000    0.000    0.000    0.000    0.000 
#
# Total GULP energy -297384.379055 kJ/mol
# GULP energy per Si atom -12391.015794 kJ/mol
# Density = 1.857573 g / cm^3
# Si number density = 18.618110 Si / 1000 Ang^3
#
#
#
# Elastic Constant Matrix: (Units=GPa)
#
#
# Indices 1 2 3 4 5 6 
#
# 1 109.0642 52.4366 21.2221 0.0000 13.6232 0.0000
# 2 52.4366 150.0754 41.1057 0.0000 16.8489 0.0000
# 3 21.2221 41.1057 43.2021 0.0000 15.7130 0.0000
# 4 0.0000 0.0000 0.0000 16.2301 0.0000 3.4753
# 5 13.6232 16.8489 15.7130 0.0000 21.5583 0.0000
# 6 0.0000 0.0000 0.0000 3.4753 0.0000 34.2842
#
#
#
# Elastic Compliance Matrix: (Units=1/GPa)
#
#
# Indices 1 2 3 4 5 6 
#
# 1 0.011434 -0.003256 -0.001110 0.000000 -0.003871 0.000000
# 2 -0.003256 0.009958 -0.007882 0.000000 0.000020 0.000000
# 3 -0.001110 -0.007882 0.039048 0.000000 -0.021598 0.000000
# 4 0.000000 0.000000 0.000000 0.062981 0.000000 -0.006384
# 5 -0.003871 0.000020 -0.021598 0.000000 0.064559 0.000000
# 6 0.000000 0.000000 0.000000 -0.006384 0.000000 0.029815
#
#
# Mechanical properties :
#
#
# Convention : Reuss Voigt Hill
#
# Bulk Modulus (GPa) = 27.82304 59.09672 43.45988
# Shear Modulus (GPa) = 19.66389 26.91968 23.29179
#
# Velocity S-wave (km/s) = 3.25340 3.80661 3.54083
# Velocity P-wave (km/s) = 5.39345 7.15058 6.33325
#
# Compressibility (1/GPa) = 0.03594144
#
# Stress axis : x y z
#
# Youngs Moduli (GPa) = 87.45747 100.42390 25.60954
#
# Poissons Ratio (x) = 0.32701 0.02844
# Poissons Ratio (y) = 0.28479 0.20186
# Poissons Ratio (z) = 0.09712 0.79158
#
# Static dielectric constant tensor:
#      x y z
#    x 7.069540 0.000000 -0.684070 
#    y 0.000000 3.980200 0.000000 
#    z -0.684070 0.000000 3.042110 
# 
# 
# High freq. dielectric constant tensor:
#      x y z
#    x 1.753320 0.000000 0.004720 
#    y 0.000000 1.732450 0.000000 
#    z 0.004720 0.000000 1.638410 
# 
# From -- ./inp_files/227691.got.cif
#   From: 2010.06.25/outbox.cif.g09.slc.cpg/sg15_114_cif.got.tgz:227691.got - 2010.06.28 07:06:18.
