data_PCOD8133038
_publ_section_title
;
Structure prediction by ZEFSAII (Michael W. Deem and Ramdas Pophale) SiO2 
 PCOD8133038
Probable space group: C 2/C
;
_chemical_formula_sum "Si O2"
_cell_formula_units_Z 48
_cell_length_a 23.788922
_cell_length_b 6.291814
_cell_length_c 12.054160
_cell_angle_alpha 90.000000
_cell_angle_beta 95.410711
_cell_angle_gamma 90.000000
_cell_volume 1796.173164
_symmetry_space_group_name_H-M "C 2/C"
_symmetry_group_IT_number 15
_symmetry_cell_setting 'monoclinic'
loop_
_space_group_symop_operation_xyz
x,y,z
-x,y,1/2-z
-x,-y,-z
x,-y,1/2+z
1/2+x,1/2+y,z
1/2-x,1/2+y,1/2-z
1/2-x,1/2-y,-z
1/2+x,1/2-y,1/2+z
loop_
_atom_site_type_symbol
_atom_site_label
_atom_site_fract_x
_atom_site_fract_y
_atom_site_fract_z
Si Si1 0.186857 0.482611 0.922714
Si Si2 0.921999 0.633666 0.207964
Si Si3 0.484621 0.215757 0.436368
Si Si4 0.827304 0.095800 0.163194
Si Si5 0.950898 0.853150 0.660403
Si Si6 0.777569 0.717922 0.861777
O O1 0.144109 0.355908 0.833131
O O2 0.175397 0.734606 0.939024
O O3 0.251747 0.446689 0.892815
O O4 0.178993 0.373879 0.040937
O O5 0.932696 0.686969 0.339675
O O6 0.941751 0.393513 0.186857
O O7 0.960275 0.783699 0.129529
O O8 0.467588 0.379706 0.532447
O O9 0.500000 0.000000 0.500000
O O10 0.892334 0.013647 0.181497
O O11 0.814409 0.265132 0.259365
O O12 0.779246 0.922670 0.153703
O O13 0.000000 0.941659 0.750000
#
# Coordination Sequence:
#
# PCOD8133038 Si02
#       6
#     8   8   8   8   8   8
#     4  10  23  39  66  92 124 171 210 269 321 375
#     4   9  17  31  56  89 118 161 205 260 310 373
#     4   9  15  30  51  87 124 149 211 257 305 383
#     4  11  23  40  66  91 129 170 213 268 318 387
#     4  10  19  31  56  92 121 165 208 258 324 371
#     4  11  23  44  60  95 129 165 221 260 323 386
#
# _framework density 26.723483999999999
#
# number of rings (size 3 to 8) (size 9 to 14) (size 15 to 20)
#    0.000    2.000    5.000    0.500    2.333    4.000 
#    3.000    0.000    3.667    1.000    0.000    0.000 
#    0.000    0.000    0.000    0.000    0.000    0.000 
#
# Total GULP energy -297446.884968 kJ/mol
# GULP energy per Si atom -12393.620207 kJ/mol
# Density = 2.666266 g / cm^3
# Si number density = 26.723484 Si / 1000 Ang^3
#
#
#
# Elastic Constant Matrix: (Units=GPa)
#
#
# Indices 1 2 3 4 5 6 
#
# 1 145.8941 36.2372 69.8766 0.0000 5.4859 0.0000
# 2 36.2372 50.0908 28.6599 0.0000 -3.4814 0.0000
# 3 69.8766 28.6599 170.2181 0.0000 11.5275 0.0000
# 4 0.0000 0.0000 0.0000 29.6255 0.0000 -9.5086
# 5 5.4859 -3.4814 11.5275 0.0000 37.4086 0.0000
# 6 0.0000 0.0000 0.0000 -9.5086 0.0000 41.8198
#
#
#
# Elastic Compliance Matrix: (Units=1/GPa)
#
#
# Indices 1 2 3 4 5 6 
#
# 1 0.009652 -0.005337 -0.002997 0.000000 -0.000989 0.000000
# 2 -0.005337 0.025442 -0.002355 0.000000 0.003876 0.000000
# 3 -0.002997 -0.002355 0.007646 0.000000 -0.002136 0.000000
# 4 0.000000 0.000000 0.000000 0.036412 0.000000 0.008279
# 5 -0.000989 0.003876 -0.002136 0.000000 0.027896 0.000000
# 6 0.000000 0.000000 0.000000 0.008279 0.000000 0.025795
#
#
# Mechanical properties :
#
#
# Convention : Reuss Voigt Hill
#
# Bulk Modulus (GPa) = 46.81166 70.63891 58.72529
# Shear Modulus (GPa) = 30.99018 37.19939 34.09479
#
# Velocity S-wave (km/s) = 3.40907 3.73501 3.57576
# Velocity P-wave (km/s) = 5.74898 6.71499 6.25068
#
# Compressibility (1/GPa) = 0.02136220
#
# Stress axis : x y z
#
# Youngs Moduli (GPa) = 103.60099 39.30568 130.78230
#
# Poissons Ratio (x) = 0.20977 0.39194
# Poissons Ratio (y) = 0.55290 0.30803
# Poissons Ratio (z) = 0.31048 0.09258
#
# Static dielectric constant tensor:
#      x y z
#    x 5.009160 0.000000 -0.135290 
#    y 0.000000 5.174080 0.000000 
#    z -0.135290 0.000000 5.153280 
# 
# 
# High freq. dielectric constant tensor:
#      x y z
#    x 2.072440 0.000000 0.001620 
#    y 0.000000 2.117790 0.000000 
#    z 0.001620 0.000000 2.067630 
# 
# From -- ./inp_files/116470.got.cif
#   From: 2010.06.25/outbox.cif.g09.slc.cpg/sg15_59_cif.got.tgz:116470.got - 2010.06.28 07:06:18.
