data_PCOD8133006
_publ_section_title
;
Structure prediction by ZEFSAII (Michael W. Deem and Ramdas Pophale) SiO2 
 PCOD8133006
Probable space group: C 2/C
;
_chemical_formula_sum "Si O2"
_cell_formula_units_Z 64
_cell_length_a 5.269407
_cell_length_b 19.975712
_cell_length_c 28.923133
_cell_angle_alpha 90.000000
_cell_angle_beta 80.477588
_cell_angle_gamma 90.000000
_cell_volume 3002.503880
_symmetry_space_group_name_H-M "C 2/C"
_symmetry_group_IT_number 15
_symmetry_cell_setting 'monoclinic'
loop_
_space_group_symop_operation_xyz
x,y,z
-x,y,1/2-z
-x,-y,-z
x,-y,1/2+z
1/2+x,1/2+y,z
1/2-x,1/2+y,1/2-z
1/2-x,1/2-y,-z
1/2+x,1/2-y,1/2+z
loop_
_atom_site_type_symbol
_atom_site_label
_atom_site_fract_x
_atom_site_fract_y
_atom_site_fract_z
Si Si1 0.559509 0.341808 0.697652
Si Si2 0.239880 0.914755 0.527763
Si Si3 0.381419 0.954369 0.061451
Si Si4 0.499129 0.792931 0.949123
Si Si5 0.114970 0.500058 0.643279
Si Si6 0.381167 0.841743 0.857012
Si Si7 0.559283 0.500236 0.197795
Si Si8 0.392795 0.653131 0.968782
O O1 0.500000 0.311103 0.750000
O O2 0.845044 0.321345 0.673379
O O3 0.523951 0.420855 0.701115
O O4 0.345846 0.313997 0.668675
O O5 0.493013 0.935618 0.491645
O O6 0.265675 0.846380 0.557406
O O7 0.005895 0.902597 0.500272
O O8 0.203819 0.977710 0.563985
O O9 0.194863 0.889538 0.074090
O O10 0.598641 0.962052 0.094295
O O11 0.339451 0.804900 0.907114
O O12 0.586744 0.714194 0.948573
O O13 0.344313 0.809094 0.000318
O O14 0.137557 0.421056 0.634026
O O15 0.849455 0.519227 0.676732
O O16 0.355833 0.527667 0.665785
O O17 0.500000 0.469079 0.250000
#
# Coordination Sequence:
#
# PCOD8133006 Si02
#       8
#     8   8   8   8   8   8   8   8
#     4   9  18  32  51  79 114 143 175 229 293 341
#     4  10  20  36  54  73 111 148 189 236 279 329
#     4  10  21  34  50  83 105 149 193 229 281 330
#     4  10  21  36  52  81 107 149 196 229 279 336
#     4  10  19  31  53  78 113 142 184 230 277 343
#     4  10  19  32  53  82 109 147 185 228 278 347
#     4   9  18  31  50  78 112 145 174 224 292 346
#     4  10  22  36  54  73 114 153 188 236 281 327
#
# _framework density 21.315541
#
# number of rings (size 3 to 8) (size 9 to 14) (size 15 to 20)
#    0.000    2.250    1.250    1.500    3.500    4.000 
#    0.000    0.000    0.000    0.000    0.000    3.500 
#    0.000    0.000    0.000    0.000    0.000    0.000 
#
# Total GULP energy -396513.428021 kJ/mol
# GULP energy per Si atom -12391.044626 kJ/mol
# Density = 2.126703 g / cm^3
# Si number density = 21.315541 Si / 1000 Ang^3
#
#
#
# Elastic Constant Matrix: (Units=GPa)
#
#
# Indices 1 2 3 4 5 6 
#
# 1 68.2719 22.1068 4.8757 0.0000 28.5254 0.0000
# 2 22.1068 90.7914 27.4896 0.0000 12.1840 0.0000
# 3 4.8757 27.4896 84.0880 0.0000 29.7638 0.0000
# 4 0.0000 0.0000 0.0000 9.0705 0.0000 4.8372
# 5 28.5254 12.1840 29.7638 0.0000 36.1908 0.0000
# 6 0.0000 0.0000 0.0000 4.8372 0.0000 15.5221
#
#
#
# Elastic Compliance Matrix: (Units=1/GPa)
#
#
# Indices 1 2 3 4 5 6 
#
# 1 0.027743 -0.006105 0.010438 0.000000 -0.028396 0.000000
# 2 -0.006105 0.013603 -0.005890 0.000000 0.005076 0.000000
# 3 0.010438 -0.005890 0.021756 0.000000 -0.024137 0.000000
# 4 0.000000 0.000000 0.000000 0.132222 0.000000 -0.041205
# 5 -0.028396 0.005076 -0.024137 0.000000 0.068155 0.000000
# 6 0.000000 0.000000 0.000000 -0.041205 0.000000 0.077265
#
#
# Mechanical properties :
#
#
# Convention : Reuss Voigt Hill
#
# Bulk Modulus (GPa) = 16.66962 39.12171 27.89566
# Shear Modulus (GPa) = 13.74182 24.73531 19.23857
#
# Velocity S-wave (km/s) = 2.54182 3.41021 3.00752
# Velocity P-wave (km/s) = 4.05609 5.82233 5.01754
#
# Compressibility (1/GPa) = 0.05998938
#
# Stress axis : x y z
#
# Youngs Moduli (GPa) = 36.04489 73.51418 45.96424
#
# Poissons Ratio (x) = 0.44880 -0.47979
# Poissons Ratio (y) = 0.22005 0.27072
# Poissons Ratio (z) = -0.37625 0.43298
#
# Static dielectric constant tensor:
#      x y z
#    x 3.780240 0.000000 0.168880 
#    y 0.000000 3.916570 0.000000 
#    z 0.168880 0.000000 3.872580 
# 
# 
# High freq. dielectric constant tensor:
#      x y z
#    x 1.833930 0.000000 0.016620 
#    y 0.000000 1.791840 0.000000 
#    z 0.016620 0.000000 1.825500 
# 
# From -- ./inp_files/286382.got.cif
#   From: 2010.06.25/outbox.cif.g09.slc.cpg/sg15_144_cif.got.tgz:286382.got - 2010.06.28 07:06:18.
