data_PCOD8133857
_publ_section_title
;
Structure prediction by ZEFSAII (Michael W. Deem and Ramdas Pophale) SiO2 
 PCOD8133857
Probable space group: C 2/C
;
_chemical_formula_sum "Si O2"
_cell_formula_units_Z 60
_cell_length_a 8.443267
_cell_length_b 20.779802
_cell_length_c 18.232566
_cell_angle_alpha 90.000000
_cell_angle_beta 101.916449
_cell_angle_gamma 90.000000
_cell_volume 3129.956107
_symmetry_space_group_name_H-M "C 2/C"
_symmetry_group_IT_number 15
_symmetry_cell_setting 'monoclinic'
loop_
_space_group_symop_operation_xyz
x,y,z
-x,y,1/2-z
-x,-y,-z
x,-y,1/2+z
1/2+x,1/2+y,z
1/2-x,1/2+y,1/2-z
1/2-x,1/2-y,-z
1/2+x,1/2-y,1/2+z
loop_
_atom_site_type_symbol
_atom_site_label
_atom_site_fract_x
_atom_site_fract_y
_atom_site_fract_z
Si Si1 0.563351 0.607843 0.561970
Si Si2 0.772463 0.569701 0.016142
Si Si3 0.517643 0.836804 0.876616
Si Si4 0.000000 0.568184 0.250000
Si Si5 0.409791 0.304107 0.166833
Si Si6 0.089933 0.623240 0.611168
Si Si7 0.162399 0.529666 0.859187
Si Si8 0.317004 0.180667 0.495533
O O1 0.422253 0.568743 0.507456
O O2 0.491354 0.666792 0.601750
O O3 0.664006 0.564622 0.630008
O O4 0.682621 0.629515 0.508013
O O5 0.829537 0.632916 0.066278
O O6 0.838616 0.505766 0.061556
O O7 0.839875 0.571957 0.940165
O O8 0.442416 0.886194 0.810273
O O9 0.586840 0.772592 0.844945
O O10 0.364824 0.826861 0.915234
O O11 0.853648 0.522045 0.208085
O O12 0.500000 0.322407 0.250000
O O13 0.230451 0.333755 0.161328
O O14 0.987306 0.580473 0.659338
O O15 0.974588 0.674440 0.560964
O O16 0.250000 0.250000 0.500000
#
# Coordination Sequence:
#
# PCOD8133857 Si02
#       8
#     8   8   8   4   8   8   8   8
#     4  10  21  35  59  90 112 149 188 247 288 322
#     4   9  19  35  61  84 114 148 190 237 280 335
#     4  10  20  37  59  84 115 153 191 231 290 353
#     4  10  22  38  58  78 110 164 188 226 280 360
#     4  11  22  36  57  84 120 149 192 232 286 356
#     4   9  21  34  56  88 108 151 189 238 287 332
#     4  10  20  37  57  81 116 147 197 229 285 342
#     4  10  19  34  58  88 117 143 186 242 294 336
#
# _framework density 19.169598000000001
#
# number of rings (size 3 to 8) (size 9 to 14) (size 15 to 20)
#    0.000    2.133    2.000    0.800    3.733    2.667 
#    0.000    0.000    0.000    5.600    0.000    0.000 
#    0.000    0.000    0.000    0.000    0.000    0.000 
#
# Total GULP energy -371871.816600 kJ/mol
# GULP energy per Si atom -12395.727220 kJ/mol
# Density = 1.912597 g / cm^3
# Si number density = 19.169598 Si / 1000 Ang^3
#
#
#
# Elastic Constant Matrix: (Units=GPa)
#
#
# Indices 1 2 3 4 5 6 
#
# 1 122.5589 45.9442 41.0774 0.0000 15.6944 0.0000
# 2 45.9442 101.5967 32.8403 0.0000 9.3234 0.0000
# 3 41.0774 32.8403 81.4759 0.0000 6.2915 0.0000
# 4 0.0000 0.0000 0.0000 30.1067 0.0000 3.5069
# 5 15.6944 9.3234 6.2915 0.0000 20.4572 0.0000
# 6 0.0000 0.0000 0.0000 3.5069 0.0000 22.3156
#
#
#
# Elastic Compliance Matrix: (Units=1/GPa)
#
#
# Indices 1 2 3 4 5 6 
#
# 1 0.011540 -0.003370 -0.003989 0.000000 -0.006090 0.000000
# 2 -0.003370 0.012605 -0.003214 0.000000 -0.002171 0.000000
# 3 -0.003989 -0.003214 0.015601 0.000000 -0.000273 0.000000
# 4 0.000000 0.000000 0.000000 0.033835 0.000000 -0.005317
# 5 -0.006090 -0.002171 -0.000273 0.000000 0.054628 0.000000
# 6 0.000000 0.000000 0.000000 -0.005317 0.000000 0.045647
#
#
# Mechanical properties :
#
#
# Convention : Reuss Voigt Hill
#
# Bulk Modulus (GPa) = 53.76526 60.59505 57.18015
# Shear Modulus (GPa) = 24.85065 26.96055 25.90560
#
# Velocity S-wave (km/s) = 3.60440 3.75430 3.68011
# Velocity P-wave (km/s) = 6.74020 7.10434 6.92466
#
# Compressibility (1/GPa) = 0.01859937
#
# Stress axis : x y z
#
# Youngs Moduli (GPa) = 86.65787 79.33377 64.09721
#
# Poissons Ratio (x) = 0.26736 0.25570
# Poissons Ratio (y) = 0.29205 0.20600
# Poissons Ratio (z) = 0.34570 0.25497
#
# Static dielectric constant tensor:
#      x y z
#    x 3.708110 0.000000 0.138070 
#    y 0.000000 3.789680 0.000000 
#    z 0.138070 0.000000 3.738420 
# 
# 
# High freq. dielectric constant tensor:
#      x y z
#    x 1.734950 0.000000 0.009230 
#    y 0.000000 1.754260 0.000000 
#    z 0.009230 0.000000 1.737770 
# 
# From -- ./inp_files/192090.got.cif
#   From: 2010.06.25/outbox.cif.g09.slc.cpg/sg15_97_cif.got.tgz:192090.got - 2010.06.28 07:06:18.
