data_PCOD8133871
_publ_section_title
;
Structure prediction by ZEFSAII (Michael W. Deem and Ramdas Pophale) SiO2 
 PCOD8133871
Probable space group: C 2/C
;
_chemical_formula_sum "Si O2"
_cell_formula_units_Z 48
_cell_length_a 11.941413
_cell_length_b 25.839768
_cell_length_c 13.110095
_cell_angle_alpha 90.000000
_cell_angle_beta 145.776507
_cell_angle_gamma 90.000000
_cell_volume 2275.164603
_symmetry_space_group_name_H-M "C 2/C"
_symmetry_group_IT_number 15
_symmetry_cell_setting 'monoclinic'
loop_
_space_group_symop_operation_xyz
x,y,z
-x,y,1/2-z
-x,-y,-z
x,-y,1/2+z
1/2+x,1/2+y,z
1/2-x,1/2+y,1/2-z
1/2-x,1/2-y,-z
1/2+x,1/2-y,1/2+z
loop_
_atom_site_type_symbol
_atom_site_label
_atom_site_fract_x
_atom_site_fract_y
_atom_site_fract_z
Si Si1 0.807044 0.036678 0.850234
Si Si2 0.844827 0.783009 0.820524
Si Si3 0.298708 0.352423 0.401958
Si Si4 0.500000 0.216611 0.750000
Si Si5 0.772211 0.915092 0.103183
Si Si6 0.000000 0.522629 0.250000
Si Si7 0.910614 0.681165 0.951286
O O1 0.845130 0.086884 0.951937
O O2 0.755833 0.053277 0.696390
O O3 0.610678 0.010081 0.746683
O O4 0.000000 0.000000 0.000000
O O5 0.807433 0.738377 0.878043
O O6 0.646819 0.812282 0.639969
O O7 0.956333 0.753029 0.812966
O O8 0.994863 0.825973 0.976245
O O9 0.134015 0.346537 0.189495
O O10 0.193355 0.321506 0.416755
O O11 0.673358 0.857905 0.027580
O O12 0.000000 0.906780 0.250000
O O13 0.668383 0.944499 0.932778
#
# Coordination Sequence:
#
# PCOD8133871 Si02
#       7
#     8   8   8   4   8   4   8
#     4  11  24  46  72 101 137 179 234 291 342 413
#     4  11  20  37  60  92 134 179 214 273 342 404
#     4  10  22  36  59  90 136 169 216 273 334 401
#     4  10  19  34  58  94 132 172 213 270 334 414
#     4  11  25  47  72 100 137 177 233 288 347 411
#     4  12  25  48  76  98 136 190 225 294 358 398
#     4  10  22  37  63  92 126 173 218 269 332 408
#
# _framework density 21.097375
#
# number of rings (size 3 to 8) (size 9 to 14) (size 15 to 20)
#    0.000    1.333    5.000    1.500    4.667    0.000 
#    0.000    0.833    0.000    0.000    0.000    0.000 
#    0.000    0.000    0.000    0.000    0.000    0.000 
#
# Total GULP energy -297362.000326 kJ/mol
# GULP energy per Si atom -12390.083347 kJ/mol
# Density = 2.104936 g / cm^3
# Si number density = 21.097375 Si / 1000 Ang^3
#
#
#
# Elastic Constant Matrix: (Units=GPa)
#
#
# Indices 1 2 3 4 5 6 
#
# 1 82.1605 44.1834 38.6763 0.0000 16.1740 0.0000
# 2 44.1834 150.8803 68.3247 0.0000 20.8501 0.0000
# 3 38.6763 68.3247 130.9761 -0.0001 21.6698 0.0001
# 4 0.0000 0.0000 -0.0001 3.5049 -0.0001 47.4522
# 5 16.1740 20.8501 21.6698 -0.0001 31.5219 0.0001
# 6 0.0000 0.0000 0.0001 47.4522 0.0001 0.8659
#
#
#
# Elastic Compliance Matrix: (Units=1/GPa)
#
#
# Indices 1 2 3 4 5 6 
#
# 1 0.015747 -0.002906 -0.002387 0.000000 -0.004517 0.000000
# 2 -0.002906 0.009467 -0.003713 0.000000 -0.002218 0.000000
# 3 -0.002387 -0.003713 0.010909 0.000000 -0.003818 0.000000
# 4 0.000000 0.000000 0.000000 -0.000385 0.000000 0.021102
# 5 -0.004517 -0.002218 -0.003818 0.000000 0.038133 0.000000
# 6 0.000000 0.000000 0.000000 0.021102 0.000000 -0.001559
#
#
# Mechanical properties :
#
#
# Convention : Reuss Voigt Hill
#
# Bulk Modulus (GPa) = 55.21854 74.04285 64.63070
# Shear Modulus (GPa) = 51.88819 21.36738 36.62778
#
# Velocity S-wave (km/s) = 4.96468 3.18590 4.17121
# Velocity P-wave (km/s) = 7.68726 6.97891 7.34164
#
# Compressibility (1/GPa) = 0.01810986
#
# Stress axis : x y z
#
# Youngs Moduli (GPa) = 63.50474 105.63133 91.67147
#
# Poissons Ratio (x) = 0.30701 0.21877
# Poissons Ratio (y) = 0.18457 0.34040
# Poissons Ratio (z) = 0.15155 0.39224
#
# Static dielectric constant tensor:
#      x y z
#    x 3.845290 0.000000 0.143830 
#    y 0.000000 4.303850 0.000000 
#    z 0.143830 0.000000 3.776290 
# 
# 
# High freq. dielectric constant tensor:
#      x y z
#    x 1.801600 0.000000 0.016320 
#    y 0.000000 1.842380 0.000000 
#    z 0.016320 0.000000 1.830610 
# 
# From -- ./inp_files/148891.got.cif
#   From: 2010.06.25/outbox.cif.g09.slc.cpg/sg15_75_cif.got.tgz:148891.got - 2010.06.28 07:06:18.
