data_PCOD8133116
_publ_section_title
;
Structure prediction by ZEFSAII (Michael W. Deem and Ramdas Pophale) SiO2 
 PCOD8133116
Probable space group: C 2/C
;
_chemical_formula_sum "Si O2"
_cell_formula_units_Z 64
_cell_length_a 15.210586
_cell_length_b 24.569014
_cell_length_c 10.178246
_cell_angle_alpha 90.000000
_cell_angle_beta 94.091915
_cell_angle_gamma 90.000000
_cell_volume 3794.006992
_symmetry_space_group_name_H-M "C 2/C"
_symmetry_group_IT_number 15
_symmetry_cell_setting 'monoclinic'
loop_
_space_group_symop_operation_xyz
x,y,z
-x,y,1/2-z
-x,-y,-z
x,-y,1/2+z
1/2+x,1/2+y,z
1/2-x,1/2+y,1/2-z
1/2-x,1/2-y,-z
1/2+x,1/2-y,1/2+z
loop_
_atom_site_type_symbol
_atom_site_label
_atom_site_fract_x
_atom_site_fract_y
_atom_site_fract_z
Si Si1 0.210240 0.699722 0.408055
Si Si2 0.985656 0.280655 0.602357
Si Si3 0.173113 0.297651 0.607767
Si Si4 0.151212 0.891308 0.544681
Si Si5 0.600407 0.394483 0.245460
Si Si6 0.326312 0.325212 0.465756
Si Si7 0.439731 0.491393 0.866051
Si Si8 0.999177 0.186788 0.104191
O O1 0.250000 0.750000 0.500000
O O2 0.106936 0.688329 0.427512
O O3 0.216744 0.713522 0.254504
O O4 0.257646 0.641670 0.431749
O O5 0.981330 0.232077 0.500280
O O6 0.000000 0.255262 0.750000
O O7 0.071686 0.320242 0.594058
O O8 0.233521 0.338932 0.528067
O O9 0.166334 0.239565 0.537837
O O10 0.141313 0.902469 0.390961
O O11 0.141695 0.949606 0.616763
O O12 0.074363 0.857241 0.602100
O O13 0.500000 0.372738 0.250000
O O14 0.663305 0.352052 0.175838
O O15 0.604934 0.451142 0.169786
O O16 0.407352 0.344524 0.566104
O O17 0.500000 0.471864 0.750000
O O18 0.500000 0.500000 0.000000
O O19 0.000000 0.212535 0.250000
#
# Coordination Sequence:
#
# PCOD8133116 Si02
#       8
#     8   8   8   8   8   8   8   8
#     4  11  20  33  52  80 109 140 189 227 265 331
#     4   9  20  36  53  71 110 149 181 225 271 323
#     4   9  20  34  49  76 108 145 183 223 273 327
#     4  12  22  34  55  79 110 149 180 227 275 321
#     4  11  21  36  54  75 107 148 185 215 277 323
#     4  10  19  32  52  72 108 145 184 221 266 340
#     4  11  21  38  54  78 113 145 187 228 268 331
#     4  11  20  29  48  79 108 142 184 217 267 315
#
# _framework density 16.868708000000002
#
# number of rings (size 3 to 8) (size 9 to 14) (size 15 to 20)
#    0.000    1.500    5.000    1.875    3.500    1.000 
#    2.250    0.000    0.000    0.000    0.000    0.875 
#    0.000    0.000    0.000    0.000    0.000    0.000 
#
# Total GULP energy -396450.196277 kJ/mol
# GULP energy per Si atom -12389.068634 kJ/mol
# Density = 1.683031 g / cm^3
# Si number density = 16.868708 Si / 1000 Ang^3
#
#
#
# Elastic Constant Matrix: (Units=GPa)
#
#
# Indices 1 2 3 4 5 6 
#
# 1 127.8955 43.3385 41.0821 0.0000 -10.7290 0.0000
# 2 43.3385 56.0106 18.2051 0.0000 -6.7827 0.0000
# 3 41.0821 18.2051 92.9104 0.0000 -9.8065 0.0000
# 4 0.0000 0.0000 0.0000 26.5961 0.0000 -7.6473
# 5 -10.7290 -6.7827 -9.8065 0.0000 29.1091 0.0000
# 6 0.0000 0.0000 0.0000 -7.6473 0.0000 23.8666
#
#
#
# Elastic Compliance Matrix: (Units=1/GPa)
#
#
# Indices 1 2 3 4 5 6 
#
# 1 0.011678 -0.007736 -0.003509 0.000000 0.001320 0.000000
# 2 -0.007736 0.024503 -0.001119 0.000000 0.002481 0.000000
# 3 -0.003509 -0.001119 0.012826 0.000000 0.002767 0.000000
# 4 0.000000 0.000000 0.000000 0.041415 0.000000 0.013270
# 5 0.001320 0.002481 0.002767 0.000000 0.036350 0.000000
# 6 0.000000 0.000000 0.000000 0.013270 0.000000 0.046152
#
#
# Mechanical properties :
#
#
# Convention : Reuss Voigt Hill
#
# Bulk Modulus (GPa) = 41.18476 53.56311 47.37393
# Shear Modulus (GPa) = 24.30208 27.52709 25.91458
#
# Velocity S-wave (km/s) = 3.79972 4.04399 3.92376
# Velocity P-wave (km/s) = 6.61199 7.32305 6.97658
#
# Compressibility (1/GPa) = 0.02428083
#
# Stress axis : x y z
#
# Youngs Moduli (GPa) = 85.63191 40.81063 77.96834
#
# Poissons Ratio (x) = 0.31570 0.27356
# Poissons Ratio (y) = 0.66242 0.08724
# Poissons Ratio (z) = 0.30044 0.04566
#
# Static dielectric constant tensor:
#      x y z
#    x 9.302040 0.000000 4.916700 
#    y 0.000000 3.005280 0.000000 
#    z 4.916700 0.000000 7.905560 
# 
# 
# High freq. dielectric constant tensor:
#      x y z
#    x 1.644970 0.000000 -0.009640 
#    y 0.000000 1.605050 0.000000 
#    z -0.009640 0.000000 1.671230 
# 
# From -- ./inp_files/43547.got.cif
#   From: 2010.06.25/outbox.cif.g09.slc.cpg/sg15_22_cif.got.tgz:43547.got - 2010.06.28 07:06:18.
