data_PCOD8133451
_publ_section_title
;
Structure prediction by ZEFSAII (Michael W. Deem and Ramdas Pophale) SiO2 
 PCOD8133451
Probable space group: C 2/C
;
_chemical_formula_sum "Si O2"
_cell_formula_units_Z 56
_cell_length_a 13.872029
_cell_length_b 32.431089
_cell_length_c 8.919384
_cell_angle_alpha 90.000000
_cell_angle_beta 132.453152
_cell_angle_gamma 90.000000
_cell_volume 2960.686272
_symmetry_space_group_name_H-M "C 2/C"
_symmetry_group_IT_number 15
_symmetry_cell_setting 'monoclinic'
loop_
_space_group_symop_operation_xyz
x,y,z
-x,y,1/2-z
-x,-y,-z
x,-y,1/2+z
1/2+x,1/2+y,z
1/2-x,1/2+y,1/2-z
1/2-x,1/2-y,-z
1/2+x,1/2-y,1/2+z
loop_
_atom_site_type_symbol
_atom_site_label
_atom_site_fract_x
_atom_site_fract_y
_atom_site_fract_z
Si Si1 0.136457 0.133807 0.469932
Si Si2 0.857300 0.776490 0.527887
Si Si3 0.635381 0.373801 0.313649
Si Si4 0.350692 0.551709 0.112507
Si Si5 0.636769 0.722080 0.814749
Si Si6 0.271566 0.002416 0.263616
Si Si7 0.857751 0.559899 0.104452
O O1 0.207356 0.177697 0.530841
O O2 0.114977 0.119114 0.617274
O O3 0.219052 0.096867 0.476113
O O4 0.000000 0.143152 0.250000
O O5 0.750000 0.750000 0.500000
O O6 0.874327 0.765955 0.371107
O O7 0.000000 0.770905 0.750000
O O8 0.500000 0.386392 0.250000
O O9 0.671655 0.326035 0.383026
O O10 0.748012 0.404662 0.492280
O O11 0.500000 0.563638 0.250000
O O12 0.323143 0.531812 0.241965
O O13 0.318750 0.521663 0.944774
O O14 0.500000 0.733126 0.750000
O O15 0.750000 0.750000 0.000000
O O16 0.362588 0.032371 0.261080
O O17 0.347529 0.970988 0.451261
O O18 0.000000 0.581522 0.250000
#
# Coordination Sequence:
#
# PCOD8133451 Si02
#       7
#     8   8   8   8   8   8   8
#     4   9  19  35  58  81 120 149 183 230 293 337
#     4  10  20  37  61  87 116 157 195 237 287 349
#     4  10  22  38  61  88 118 150 194 241 292 341
#     4  10  19  33  55  87 115 146 187 239 288 335
#     4  10  21  39  62  91 122 158 193 242 296 355
#     4  10  22  36  56  79 113 152 196 236 288 344
#     4  11  23  40  58  81 115 157 196 239 291 345
#
# _framework density 18.914532999999999
#
# number of rings (size 3 to 8) (size 9 to 14) (size 15 to 20)
#    0.000    2.000    1.429    1.714    4.000    4.000 
#    0.000    0.000    0.000    0.000    0.000    0.000 
#    0.000    0.000    0.000    0.000    0.000    0.000 
#
# Total GULP energy -346928.820973 kJ/mol
# GULP energy per Si atom -12390.315035 kJ/mol
# Density = 1.887148 g / cm^3
# Si number density = 18.914533 Si / 1000 Ang^3
#
#
#
# Elastic Constant Matrix: (Units=GPa)
#
#
# Indices 1 2 3 4 5 6 
#
# 1 113.9842 72.0987 60.3561 0.0000 2.3535 0.0000
# 2 72.0987 122.9582 50.9065 0.0000 2.1228 0.0000
# 3 60.3561 50.9065 92.5320 0.0000 -5.1669 0.0000
# 4 0.0000 0.0000 0.0000 -23.9793 0.0000 33.5795
# 5 2.3535 2.1228 -5.1669 0.0000 34.3014 0.0000
# 6 0.0000 0.0000 0.0000 33.5795 0.0000 7.4883
#
#
#
# Elastic Compliance Matrix: (Units=1/GPa)
#
#
# Indices 1 2 3 4 5 6 
#
# 1 0.017158 -0.006930 -0.007484 0.000000 -0.001876 0.000000
# 2 -0.006930 0.013412 -0.002902 0.000000 -0.000792 0.000000
# 3 -0.007484 -0.002902 0.017471 0.000000 0.003325 0.000000
# 4 0.000000 0.000000 0.000000 -0.005729 0.000000 0.025689
# 5 -0.001876 -0.000792 0.003325 0.000000 0.029832 0.000000
# 6 0.000000 0.000000 0.000000 0.025689 0.000000 0.018345
#
#
# Mechanical properties :
#
#
# Convention : Reuss Voigt Hill
#
# Bulk Modulus (GPa) = 74.58175 77.35523 75.96849
# Shear Modulus (GPa) = 38.58282 13.30295 25.94288
#
# Velocity S-wave (km/s) = 4.52137 2.65489 3.70751
# Velocity P-wave (km/s) = 8.17151 7.09817 7.65368
#
# Compressibility (1/GPa) = 0.01340811
#
# Stress axis : x y z
#
# Youngs Moduli (GPa) = 58.28075 74.56144 57.23767
#
# Poissons Ratio (x) = 0.51673 0.42837
# Poissons Ratio (y) = 0.40390 0.16612
# Poissons Ratio (z) = 0.43617 0.21640
#
# Static dielectric constant tensor:
#      x y z
#    x 3.457140 0.000000 -0.345570 
#    y 0.000000 4.248580 0.000000 
#    z -0.345570 0.000000 3.568350 
# 
# 
# High freq. dielectric constant tensor:
#      x y z
#    x 1.720480 0.000000 -0.021180 
#    y 0.000000 1.750090 0.000000 
#    z -0.021180 0.000000 1.738860 
# 
# From -- ./inp_files/44582.got.cif
#   From: 2010.06.25/outbox.cif.g09.slc.cpg/sg15_23_cif.got.tgz:44582.got - 2010.06.28 07:06:18.
