data_PCOD8133794
_publ_section_title
;
Structure prediction by ZEFSAII (Michael W. Deem and Ramdas Pophale) SiO2 
 PCOD8133794
Probable space group: C 2/C
;
_chemical_formula_sum "Si O2"
_cell_formula_units_Z 64
_cell_length_a 22.527932
_cell_length_b 8.094759
_cell_length_c 17.009731
_cell_angle_alpha 90.000000
_cell_angle_beta 85.922947
_cell_angle_gamma 90.000000
_cell_volume 3094.013823
_symmetry_space_group_name_H-M "C 2/C"
_symmetry_group_IT_number 15
_symmetry_cell_setting 'monoclinic'
loop_
_space_group_symop_operation_xyz
x,y,z
-x,y,1/2-z
-x,-y,-z
x,-y,1/2+z
1/2+x,1/2+y,z
1/2-x,1/2+y,1/2-z
1/2-x,1/2-y,-z
1/2+x,1/2-y,1/2+z
loop_
_atom_site_type_symbol
_atom_site_label
_atom_site_fract_x
_atom_site_fract_y
_atom_site_fract_z
Si Si1 0.259136 0.167285 0.172963
Si Si2 0.923551 0.147006 0.471091
Si Si3 0.099568 0.469057 0.101412
Si Si4 0.712696 0.008833 0.988025
Si Si5 0.331307 0.089498 0.755814
Si Si6 0.680341 0.434270 0.413304
Si Si7 0.042338 0.780912 0.039015
Si Si8 0.365588 0.231215 0.596764
O O1 0.257656 0.103804 0.082861
O O2 0.195723 0.240955 0.205993
O O3 0.305859 0.317720 0.162278
O O4 0.278469 0.035488 0.236404
O O5 0.931831 0.288017 0.402778
O O6 0.858761 0.159176 0.517307
O O7 0.972469 0.190047 0.533313
O O8 0.930855 0.959530 0.435804
O O9 0.126480 0.496051 0.185035
O O10 0.055734 0.628369 0.096975
O O11 0.149600 0.453001 0.029566
O O12 0.693579 0.182384 0.949324
O O13 0.759601 0.011297 0.054101
O O14 0.370586 0.121696 0.674492
O O15 0.642677 0.579897 0.378055
O O16 0.072616 0.718907 0.955274
#
# Coordination Sequence:
#
# PCOD8133794 Si02
#       8
#     8   8   8   8   8   8   8   8
#     4  11  21  36  51  79 123 151 187 226 282 358
#     4  10  20  37  65  89 109 147 197 252 300 331
#     4  11  20  38  60  88 116 152 194 243 288 347
#     4  10  19  34  57  83 114 140 198 237 280 348
#     4  11  23  36  52  84 121 162 187 223 300 360
#     4  11  18  34  58  86 109 152 189 242 286 344
#     4   9  21  40  62  90 111 143 205 253 288 342
#     4   9  21  36  55  81 116 153 186 240 292 341
#
# _framework density 20.685105
#
# number of rings (size 3 to 8) (size 9 to 14) (size 15 to 20)
#    0.000    1.750    2.500    2.625    0.000    0.000 
#    9.000    0.625    0.000    0.000    0.000    0.000 
#    0.000    0.000    0.000    0.000    0.000    0.000 
#
# Total GULP energy -396420.969168 kJ/mol
# GULP energy per Si atom -12388.155287 kJ/mol
# Density = 2.063802 g / cm^3
# Si number density = 20.685105 Si / 1000 Ang^3
#
#
#
# Elastic Constant Matrix: (Units=GPa)
#
#
# Indices 1 2 3 4 5 6 
#
# 1 56.3009 12.8120 -1.6939 0.0000 7.0840 0.0000
# 2 12.8120 108.7497 32.8742 0.0000 8.9424 0.0000
# 3 -1.6939 32.8742 43.4391 0.0000 13.5290 0.0000
# 4 0.0000 0.0000 0.0000 20.3210 0.0000 -1.8815
# 5 7.0840 8.9424 13.5290 0.0000 20.9747 0.0000
# 6 0.0000 0.0000 0.0000 -1.8815 0.0000 26.5327
#
#
#
# Elastic Compliance Matrix: (Units=1/GPa)
#
#
# Indices 1 2 3 4 5 6 
#
# 1 0.019918 -0.003491 0.006320 0.000000 -0.009315 0.000000
# 2 -0.003491 0.012549 -0.010429 0.000000 0.002556 0.000000
# 3 0.006320 -0.010429 0.038092 0.000000 -0.022258 0.000000
# 4 0.000000 0.000000 0.000000 0.049535 0.000000 0.003513
# 5 -0.009315 0.002556 -0.022258 0.000000 0.064090 0.000000
# 6 0.000000 0.000000 0.000000 0.003513 0.000000 0.037938
#
#
# Mechanical properties :
#
#
# Convention : Reuss Voigt Hill
#
# Bulk Modulus (GPa) = 18.06393 32.94158 25.50275
# Shear Modulus (GPa) = 19.54828 24.53218 22.04023
#
# Velocity S-wave (km/s) = 3.07749 3.44755 3.26776
# Velocity P-wave (km/s) = 4.62382 5.63979 5.15689
#
# Compressibility (1/GPa) = 0.05535895
#
# Stress axis : x y z
#
# Youngs Moduli (GPa) = 50.20485 79.68610 26.25215
#
# Poissons Ratio (x) = 0.27819 -0.16591
# Poissons Ratio (y) = 0.17527 0.27379
# Poissons Ratio (z) = -0.31729 0.83107
#
# Static dielectric constant tensor:
#      x y z
#    x 3.500580 0.000000 -0.081770 
#    y 0.000000 4.125100 0.000000 
#    z -0.081770 0.000000 3.422130 
# 
# 
# High freq. dielectric constant tensor:
#      x y z
#    x 1.787040 0.000000 -0.005190 
#    y 0.000000 1.830500 0.000000 
#    z -0.005190 0.000000 1.775780 
# 
# From -- ./inp_files/218239.got.cif
#   From: 2010.06.25/outbox.cif.g09.slc.cpg/sg15_110_cif.got.tgz:218239.got - 2010.06.28 07:06:18.
