data_PCOD8133320
_publ_section_title
;
Structure prediction by ZEFSAII (Michael W. Deem and Ramdas Pophale) SiO2 
 PCOD8133320
Probable space group: C 2/C
;
_chemical_formula_sum "Si O2"
_cell_formula_units_Z 60
_cell_length_a 25.010889
_cell_length_b 17.062745
_cell_length_c 7.597309
_cell_angle_alpha 90.000000
_cell_angle_beta 85.205736
_cell_angle_gamma 90.000000
_cell_volume 3230.841549
_symmetry_space_group_name_H-M "C 2/C"
_symmetry_group_IT_number 15
_symmetry_cell_setting 'monoclinic'
loop_
_space_group_symop_operation_xyz
x,y,z
-x,y,1/2-z
-x,-y,-z
x,-y,1/2+z
1/2+x,1/2+y,z
1/2-x,1/2+y,1/2-z
1/2-x,1/2-y,-z
1/2+x,1/2-y,1/2+z
loop_
_atom_site_type_symbol
_atom_site_label
_atom_site_fract_x
_atom_site_fract_y
_atom_site_fract_z
Si Si1 0.714732 0.604646 0.665787
Si Si2 0.310005 0.556934 0.436167
Si Si3 0.303583 0.092624 0.137017
Si Si4 0.000000 0.233998 0.250000
Si Si5 0.596058 0.201685 0.899943
Si Si6 0.171020 0.573999 0.771423
Si Si7 0.892258 0.184344 0.396399
Si Si8 0.149911 0.251480 0.728375
O O1 0.683172 0.537414 0.563804
O O2 0.779015 0.601600 0.617311
O O3 0.691016 0.689599 0.628556
O O4 0.705991 0.586999 0.870958
O O5 0.260393 0.578959 0.320781
O O6 0.365077 0.600024 0.364624
O O7 0.316967 0.171333 0.235627
O O8 0.335025 0.019974 0.217761
O O9 0.321143 0.101106 0.930530
O O10 0.032291 0.290892 0.376724
O O11 0.042645 0.178289 0.135459
O O12 0.617393 0.113349 0.865410
O O13 0.628487 0.256242 0.750089
O O14 0.604692 0.229538 0.097043
O O15 0.878309 0.216275 0.592604
#
# Coordination Sequence:
#
# PCOD8133320 Si02
#       8
#     8   8   8   4   8   8   8   8
#     4   9  21  32  53  84 113 153 182 220 274 339
#     4   9  19  33  53  76 118 149 182 226 280 317
#     4  10  19  33  52  83 117 151 183 221 272 340
#     4   8  20  38  58  82 104 144 190 238 284 314
#     4  10  21  36  57  81 106 146 181 234 275 327
#     4  10  19  35  53  80 121 149 184 226 272 326
#     4   9  20  38  55  79 109 144 181 241 266 329
#     4  11  21  34  58  83 110 146 185 226 284 334
#
# _framework density 18.571013000000001
#
# number of rings (size 3 to 8) (size 9 to 14) (size 15 to 20)
#    0.800    1.600    1.333    0.800    3.733    3.733 
#    0.000    0.000    0.000   14.400    0.000    0.000 
#    0.000    0.000    0.000    0.000    0.000    0.000 
#
# Total GULP energy -371798.552091 kJ/mol
# GULP energy per Si atom -12393.285070 kJ/mol
# Density = 1.852874 g / cm^3
# Si number density = 18.571013 Si / 1000 Ang^3
#
#
#
# Elastic Constant Matrix: (Units=GPa)
#
#
# Indices 1 2 3 4 5 6 
#
# 1 95.3909 42.6426 29.7513 0.0000 11.0010 0.0000
# 2 42.6426 105.4323 30.5588 0.0000 18.6909 0.0000
# 3 29.7513 30.5588 52.1955 0.0000 8.0284 0.0000
# 4 0.0000 0.0000 0.0000 27.3703 0.0000 0.3193
# 5 11.0010 18.6909 8.0284 0.0000 21.3075 0.0000
# 6 0.0000 0.0000 0.0000 0.3193 0.0000 31.1915
#
#
#
# Elastic Compliance Matrix: (Units=1/GPa)
#
#
# Indices 1 2 3 4 5 6 
#
# 1 0.014116 -0.003765 -0.005550 0.000000 -0.001894 0.000000
# 2 -0.003765 0.013859 -0.004668 0.000000 -0.008455 0.000000
# 3 -0.005550 -0.004668 0.025460 0.000000 -0.002633 0.000000
# 4 0.000000 0.000000 0.000000 0.036540 0.000000 -0.000374
# 5 -0.001894 -0.008455 -0.002633 0.000000 0.056318 0.000000
# 6 0.000000 0.000000 0.000000 -0.000374 0.000000 0.032064
#
#
# Mechanical properties :
#
#
# Convention : Reuss Voigt Hill
#
# Bulk Modulus (GPa) = 39.26290 50.99160 45.12725
# Shear Modulus (GPa) = 23.27606 25.97828 24.62717
#
# Velocity S-wave (km/s) = 3.54411 3.74419 3.64553
# Velocity P-wave (km/s) = 6.15919 6.79774 6.48632
#
# Compressibility (1/GPa) = 0.02546933
#
# Stress axis : x y z
#
# Youngs Moduli (GPa) = 70.84344 72.15449 39.27679
#
# Poissons Ratio (x) = 0.27163 0.21801
# Poissons Ratio (y) = 0.26669 0.18334
# Poissons Ratio (z) = 0.39322 0.33681
#
# Static dielectric constant tensor:
#      x y z
#    x 3.212610 0.000000 0.069000 
#    y 0.000000 3.524610 0.000000 
#    z 0.069000 0.000000 3.343510 
# 
# 
# High freq. dielectric constant tensor:
#      x y z
#    x 1.685300 0.000000 0.008300 
#    y 0.000000 1.717470 0.000000 
#    z 0.008300 0.000000 1.725550 
# 
# From -- ./inp_files/65950.got.cif
#   From: 2010.06.25/outbox.cif.g09.slc.cpg/sg15_33_cif.got.tgz:65950.got - 2010.06.28 07:06:18.
