data_PCOD8133608
_publ_section_title
;
Structure prediction by ZEFSAII (Michael W. Deem and Ramdas Pophale) SiO2 
 PCOD8133608
Probable space group: C 2/C
;
_chemical_formula_sum "Si O2"
_cell_formula_units_Z 56
_cell_length_a 17.432960
_cell_length_b 27.809142
_cell_length_c 8.937593
_cell_angle_alpha 90.000000
_cell_angle_beta 135.431358
_cell_angle_gamma 90.000000
_cell_volume 3040.674431
_symmetry_space_group_name_H-M "C 2/C"
_symmetry_group_IT_number 15
_symmetry_cell_setting 'monoclinic'
loop_
_space_group_symop_operation_xyz
x,y,z
-x,y,1/2-z
-x,-y,-z
x,-y,1/2+z
1/2+x,1/2+y,z
1/2-x,1/2+y,1/2-z
1/2-x,1/2-y,-z
1/2+x,1/2-y,1/2+z
loop_
_atom_site_type_symbol
_atom_site_label
_atom_site_fract_x
_atom_site_fract_y
_atom_site_fract_z
Si Si1 0.838080 0.652794 0.347558
Si Si2 0.299821 0.260636 0.792657
Si Si3 0.540354 0.183667 0.459503
Si Si4 0.366076 0.040328 0.895270
Si Si5 0.628258 0.298732 0.913544
Si Si6 0.795918 0.625434 0.620477
Si Si7 0.378755 0.056019 0.250070
O O1 0.731507 0.687420 0.180440
O O2 0.851729 0.633511 0.536149
O O3 0.825324 0.606379 0.225002
O O4 0.942513 0.685157 0.444750
O O5 0.344657 0.264904 0.687618
O O6 0.189538 0.227466 0.638156
O O7 0.403549 0.234542 0.015778
O O8 0.500000 0.158542 0.250000
O O9 0.637300 0.152966 0.660600
O O10 0.294519 0.070516 0.675387
O O11 0.345460 0.985430 0.820206
O O12 0.330643 0.044849 0.018863
O O13 0.490399 0.058999 0.058095
O O14 0.500000 0.302889 0.750000
O O15 0.673866 0.352825 0.950988
#
# Coordination Sequence:
#
# PCOD8133608 Si02
#       7
#     8   8   8   8   8   8   8
#     4  11  20  33  52  74 103 147 177 217 264 305
#     4   9  20  32  49  74 101 138 185 219 264 314
#     4  11  21  33  49  72 106 141 177 220 261 311
#     4  10  19  34  49  83 108 137 174 202 265 323
#     4   9  17  33  52  74 101 136 181 229 259 305
#     4  10  20  32  53  79 105 140 180 212 266 321
#     4  10  20  31  54  75 114 141 164 213 258 322
#
# _framework density 18.416965999999999
#
# number of rings (size 3 to 8) (size 9 to 14) (size 15 to 20)
#    0.000    2.000    1.429    3.857    0.000    1.714 
#    0.000    1.429    0.000    0.000    0.000   10.000 
#    0.000    0.000    0.000    0.000    0.000    0.000 
#
# Total GULP energy -346918.120572 kJ/mol
# GULP energy per Si atom -12389.932878 kJ/mol
# Density = 1.837505 g / cm^3
# Si number density = 18.416966 Si / 1000 Ang^3
#
#
#
# Elastic Constant Matrix: (Units=GPa)
#
#
# Indices 1 2 3 4 5 6 
#
# 1 95.7505 51.4429 52.1547 0.0000 0.5597 0.0000
# 2 51.4429 108.9440 28.9130 0.0000 -1.4565 0.0000
# 3 52.1547 28.9130 65.3719 0.0000 -5.9421 0.0000
# 4 0.0000 0.0000 0.0000 22.9505 0.0000 -2.6046
# 5 0.5597 -1.4565 -5.9421 0.0000 28.7817 0.0000
# 6 0.0000 0.0000 0.0000 -2.6046 0.0000 29.7629
#
#
#
# Elastic Compliance Matrix: (Units=1/GPa)
#
#
# Indices 1 2 3 4 5 6 
#
# 1 0.022273 -0.006525 -0.015239 0.000000 -0.003910 0.000000
# 2 -0.006525 0.012317 -0.000177 0.000000 0.000714 0.000000
# 3 -0.015239 -0.000177 0.028086 0.000000 0.006086 0.000000
# 4 0.000000 0.000000 0.000000 0.044009 0.000000 0.003851
# 5 -0.003910 0.000714 0.006086 0.000000 0.036113 0.000000
# 6 0.000000 0.000000 0.000000 0.003851 0.000000 0.033936
#
#
# Mechanical properties :
#
#
# Convention : Reuss Voigt Hill
#
# Bulk Modulus (GPa) = 53.20821 59.45416 56.33119
# Shear Modulus (GPa) = 22.03802 25.46942 23.75372
#
# Velocity S-wave (km/s) = 3.46297 3.72281 3.59524
# Velocity P-wave (km/s) = 6.70396 7.12962 6.92006
#
# Compressibility (1/GPa) = 0.01879409
#
# Stress axis : x y z
#
# Youngs Moduli (GPa) = 44.89738 81.19112 35.60435
#
# Poissons Ratio (x) = 0.52978 0.54258
# Poissons Ratio (y) = 0.29296 0.00629
# Poissons Ratio (z) = 0.68420 0.01435
#
# Static dielectric constant tensor:
#      x y z
#    x 3.292440 0.000000 -0.065460 
#    y 0.000000 3.641180 0.000000 
#    z -0.065460 0.000000 3.356390 
# 
# 
# High freq. dielectric constant tensor:
#      x y z
#    x 1.697880 0.000000 -0.022400 
#    y 0.000000 1.717400 0.000000 
#    z -0.022400 0.000000 1.684310 
# 
# From -- ./inp_files/52350.got.cif
#   From: 2010.06.25/outbox.cif.g09.slc.cpg/sg15_27_cif.got.tgz:52350.got - 2010.06.28 07:06:18.
