data_PCOD8133257
_publ_section_title
;
Structure prediction by ZEFSAII (Michael W. Deem and Ramdas Pophale) SiO2 
 PCOD8133257
Probable space group: C 2/C
;
_chemical_formula_sum "Si O2"
_cell_formula_units_Z 40
_cell_length_a 11.892524
_cell_length_b 19.960720
_cell_length_c 10.684429
_cell_angle_alpha 90.000000
_cell_angle_beta 38.298540
_cell_angle_gamma 90.000000
_cell_volume 1571.898222
_symmetry_space_group_name_H-M "C 2/C"
_symmetry_group_IT_number 15
_symmetry_cell_setting 'monoclinic'
loop_
_space_group_symop_operation_xyz
x,y,z
-x,y,1/2-z
-x,-y,-z
x,-y,1/2+z
1/2+x,1/2+y,z
1/2-x,1/2+y,1/2-z
1/2-x,1/2-y,-z
1/2+x,1/2-y,1/2+z
loop_
_atom_site_type_symbol
_atom_site_label
_atom_site_fract_x
_atom_site_fract_y
_atom_site_fract_z
Si Si1 0.022730 0.768823 0.583206
Si Si2 0.284036 0.566997 0.937866
Si Si3 0.500000 0.037715 0.750000
Si Si4 0.000000 0.763185 0.250000
Si Si5 0.756690 0.670180 0.342481
Si Si6 0.159587 0.357844 0.298641
O O1 0.208925 0.803839 0.382416
O O2 0.000000 0.765877 0.750000
O O3 0.863087 0.818094 0.674452
O O4 0.017191 0.691232 0.532325
O O5 0.500000 0.549062 0.750000
O O6 0.238928 0.616288 0.860248
O O7 0.213901 0.593385 0.138933
O O8 0.156069 0.502007 0.036703
O O9 0.388936 0.080756 0.746575
O O10 0.066371 0.717745 0.309153
O O11 0.847259 0.810813 0.437135
#
# Coordination Sequence:
#
# PCOD8133257 Si02
#       6
#     8   8   4   4   8   8
#     4  12  25  45  79 112 159 196 246 335 396 461
#     4  12  26  52  81 113 157 207 263 319 375 461
#     4  12  31  52  76 114 157 214 264 306 376 476
#     4  10  19  32  66 102 147 180 230 326 376 448
#     4  11  20  40  67 110 143 189 249 307 391 444
#     4  12  27  53  77 117 151 202 263 318 399 458
#
# _framework density 25.446939
#
# number of rings (size 3 to 8) (size 9 to 14) (size 15 to 20)
#    0.000    0.400    4.000    5.400    0.000    3.200 
#    3.600    0.000    0.000    0.000    0.000    0.000 
#    0.000    0.000    0.000    0.000    0.000    0.000 
#
# Total GULP energy -247780.345939 kJ/mol
# GULP energy per Si atom -12389.017297 kJ/mol
# Density = 2.538902 g / cm^3
# Si number density = 25.446939 Si / 1000 Ang^3
#
#
#
# Elastic Constant Matrix: (Units=GPa)
#
#
# Indices 1 2 3 4 5 6 
#
# 1 168.8058 49.5679 11.7216 -0.0006 10.5814 0.0006
# 2 49.5679 121.6281 41.4739 -0.0001 -0.5820 0.0002
# 3 11.7216 41.4739 39.8132 0.0000 -2.0873 0.0000
# 4 -0.0006 -0.0001 0.0000 36.9284 0.0004 -12.0207
# 5 10.5814 -0.5820 -2.0873 0.0004 43.7095 -0.0004
# 6 0.0006 0.0002 0.0000 -12.0207 -0.0004 50.0978
#
#
#
# Elastic Compliance Matrix: (Units=1/GPa)
#
#
# Indices 1 2 3 4 5 6 
#
# 1 0.006894 -0.003250 0.001270 0.000000 -0.001652 0.000000
# 2 -0.003250 0.014293 -0.013916 0.000000 0.000313 0.000000
# 3 0.001270 -0.013916 0.039312 0.000000 0.001385 0.000000
# 4 0.000000 0.000000 0.000000 0.029374 0.000000 0.007048
# 5 -0.001652 0.000313 0.001385 0.000000 0.023348 0.000000
# 6 0.000000 0.000000 0.000000 0.007048 0.000000 0.021652
#
#
# Mechanical properties :
#
#
# Convention : Reuss Voigt Hill
#
# Bulk Modulus (GPa) = 34.83577 59.53044 47.18310
# Shear Modulus (GPa) = 28.37117 41.31273 34.84195
#
# Velocity S-wave (km/s) = 3.34266 4.03362 3.70428
# Velocity P-wave (km/s) = 5.34949 6.71850 6.07270
#
# Compressibility (1/GPa) = 0.02870613
#
# Stress axis : x y z
#
# Youngs Moduli (GPa) = 145.05914 69.96397 25.43724
#
# Poissons Ratio (x) = 0.22740 -0.03230
# Poissons Ratio (y) = 0.47148 0.35398
# Poissons Ratio (z) = -0.18418 0.97361
#
# Static dielectric constant tensor:
#      x y z
#    x 4.902090 0.000000 -0.406980 
#    y 0.000000 4.750660 0.000000 
#    z -0.406980 0.000000 5.052680 
# 
# 
# High freq. dielectric constant tensor:
#      x y z
#    x 2.042370 0.000000 -0.001480 
#    y 0.000000 2.000600 0.000000 
#    z -0.001480 0.000000 2.041740 
# 
# From -- ./inp_files/89362.got.cif
#   From: 2010.06.25/outbox.cif.g09.slc.cpg/sg15_45_cif.got.tgz:89362.got - 2010.06.28 07:06:18.
