data_PCOD8133796
_publ_section_title
;
Structure prediction by ZEFSAII (Michael W. Deem and Ramdas Pophale) SiO2 
 PCOD8133796
Probable space group: C 2/C
;
_chemical_formula_sum "Si O2"
_cell_formula_units_Z 56
_cell_length_a 20.204816
_cell_length_b 14.463321
_cell_length_c 9.846389
_cell_angle_alpha 90.000000
_cell_angle_beta 73.012632
_cell_angle_gamma 90.000000
_cell_volume 2751.854653
_symmetry_space_group_name_H-M "C 2/C"
_symmetry_group_IT_number 15
_symmetry_cell_setting 'monoclinic'
loop_
_space_group_symop_operation_xyz
x,y,z
-x,y,1/2-z
-x,-y,-z
x,-y,1/2+z
1/2+x,1/2+y,z
1/2-x,1/2+y,1/2-z
1/2-x,1/2-y,-z
1/2+x,1/2-y,1/2+z
loop_
_atom_site_type_symbol
_atom_site_label
_atom_site_fract_x
_atom_site_fract_y
_atom_site_fract_z
Si Si1 0.177175 0.226423 0.226059
Si Si2 0.024993 0.427250 0.378352
Si Si3 0.592103 0.209231 0.526968
Si Si4 0.312435 0.079161 0.741542
Si Si5 0.926056 0.088537 0.471337
Si Si6 0.711046 0.915886 0.934188
Si Si7 0.413452 0.426168 0.662738
O O1 0.121927 0.279072 0.161614
O O2 0.214562 0.314981 0.274826
O O3 0.229380 0.161556 0.110872
O O4 0.133933 0.160899 0.355660
O O5 0.106677 0.419907 0.341131
O O6 0.000000 0.467585 0.250000
O O7 0.000000 0.500000 0.500000
O O8 0.986680 0.327811 0.423657
O O9 0.596425 0.311089 0.459485
O O10 0.640745 0.134110 0.422466
O O11 0.273619 0.005102 0.668462
O O12 0.295376 0.050498 0.906675
O O13 0.902321 0.064440 0.332118
O O14 0.008435 0.089667 0.427748
O O15 0.889380 0.017727 0.597007
#
# Coordination Sequence:
#
# PCOD8133796 Si02
#       7
#     8   8   8   8   8   8   8
#     4  10  21  36  59  82 111 161 202 231 281 365
#     4  12  20  35  64  90 118 151 191 252 309 350
#     4  10  19  34  57  84 108 149 195 233 292 357
#     4  11  21  40  57  87 118 150 199 250 293 354
#     4   9  18  32  56  77 108 137 184 241 287 345
#     4  11  23  37  58  82 119 154 198 239 289 353
#     4   9  18  33  53  80 105 141 187 237 288 334
#
# _framework density 20.349910000000001
#
# number of rings (size 3 to 8) (size 9 to 14) (size 15 to 20)
#    0.000    1.714    4.286    2.571    2.000    3.429 
#    0.000    2.143    6.286    0.000    0.000    0.000 
#    0.000    0.000    0.000    0.000    0.000    0.000 
#
# Total GULP energy -346913.596959 kJ/mol
# GULP energy per Si atom -12389.771320 kJ/mol
# Density = 2.030359 g / cm^3
# Si number density = 20.349910 Si / 1000 Ang^3
#
#
#
# Elastic Constant Matrix: (Units=GPa)
#
#
# Indices 1 2 3 4 5 6 
#
# 1 30.3657 19.9101 18.7112 0.0000 -4.2286 0.0000
# 2 19.9101 177.6629 73.7992 0.0000 9.9399 0.0000
# 3 18.7112 73.7992 88.8984 0.0000 -4.1555 0.0000
# 4 0.0000 0.0000 0.0000 39.9304 0.0000 -0.5466
# 5 -4.2286 9.9399 -4.1555 0.0000 19.9152 0.0000
# 6 0.0000 0.0000 0.0000 -0.5466 0.0000 34.0268
#
#
#
# Elastic Compliance Matrix: (Units=1/GPa)
#
#
# Indices 1 2 3 4 5 6 
#
# 1 0.039301 -0.002437 -0.005859 0.000000 0.008339 0.000000
# 2 -0.002437 0.009470 -0.007669 0.000000 -0.006844 0.000000
# 3 -0.005859 -0.007669 0.019156 0.000000 0.006580 0.000000
# 4 0.000000 0.000000 0.000000 0.025049 0.000000 0.000402
# 5 0.008339 -0.006844 0.006580 0.000000 0.056773 0.000000
# 6 0.000000 0.000000 0.000000 0.000402 0.000000 0.029395
#
#
# Mechanical properties :
#
#
# Convention : Reuss Voigt Hill
#
# Bulk Modulus (GPa) = 27.77971 57.97422 42.87697
# Shear Modulus (GPa) = 22.41421 31.07493 26.74457
#
# Velocity S-wave (km/s) = 3.32240 3.91196 3.62917
# Velocity P-wave (km/s) = 5.32902 6.99679 6.21907
#
# Compressibility (1/GPa) = 0.03599750
#
# Stress axis : x y z
#
# Youngs Moduli (GPa) = 25.44442 105.59508 52.20361
#
# Poissons Ratio (x) = 0.25734 0.30587
# Poissons Ratio (y) = 0.06201 0.40033
# Poissons Ratio (z) = 0.14908 0.80977
#
# Static dielectric constant tensor:
#      x y z
#    x 3.685680 0.000000 -0.246640 
#    y 0.000000 4.387490 0.000000 
#    z -0.246640 0.000000 3.572310 
# 
# 
# High freq. dielectric constant tensor:
#      x y z
#    x 1.781270 0.000000 -0.034400 
#    y 0.000000 1.814830 0.000000 
#    z -0.034400 0.000000 1.764130 
# 
# From -- ./inp_files/112336.got.cif
#   From: 2010.06.25/outbox.cif.g09.slc.cpg/sg15_57_cif.got.tgz:112336.got - 2010.06.28 07:06:18.
