data_PCOD8133287
_publ_section_title
;
Structure prediction by ZEFSAII (Michael W. Deem and Ramdas Pophale) SiO2 
 PCOD8133287
Probable space group: C 2/C
;
_chemical_formula_sum "Si O2"
_cell_formula_units_Z 32
_cell_length_a 41.713821
_cell_length_b 8.238140
_cell_length_c 4.980818
_cell_angle_alpha 90.000000
_cell_angle_beta 83.885442
_cell_angle_gamma 90.000000
_cell_volume 1701.892090
_symmetry_space_group_name_H-M "C 2/C"
_symmetry_group_IT_number 15
_symmetry_cell_setting 'monoclinic'
loop_
_space_group_symop_operation_xyz
x,y,z
-x,y,1/2-z
-x,-y,-z
x,-y,1/2+z
1/2+x,1/2+y,z
1/2-x,1/2+y,1/2-z
1/2-x,1/2-y,-z
1/2+x,1/2-y,1/2+z
loop_
_atom_site_type_symbol
_atom_site_label
_atom_site_fract_x
_atom_site_fract_y
_atom_site_fract_z
Si Si1 0.036710 0.393657 0.244039
Si Si2 0.413836 0.610788 0.305830
Si Si3 0.655040 0.396514 0.523413
Si Si4 0.275828 0.388261 0.932497
O O1 0.043746 0.459056 0.534646
O O2 0.059192 0.242567 0.158627
O O3 0.000000 0.332475 0.250000
O O4 0.417648 0.459463 0.504334
O O5 0.378396 0.696365 0.375432
O O6 0.654966 0.440348 0.208555
O O7 0.688551 0.304608 0.564327
O O8 0.271546 0.462458 0.641435
O O9 0.250000 0.250000 0.000000
#
# Coordination Sequence:
#
# PCOD8133287 Si02
#       4
#     8   8   8   8
#     4  10  21  36  51  71 103 135 157 191 250 299
#     4  10  19  33  54  76  95 124 169 207 234 279
#     4   8  16  30  48  69  96 127 156 195 246 287
#     4  10  19  33  51  72  99 130 163 199 242 289
#
# _framework density 18.802603000000001
#
# number of rings (size 3 to 8) (size 9 to 14) (size 15 to 20)
#    0.000    2.500    0.000    2.250    0.000    1.000 
#    0.000    2.500    0.000    0.000    0.000    0.000 
#    0.000    0.000    0.000    0.000    0.000    0.000 
#
# Total GULP energy -198292.696471 kJ/mol
# GULP energy per Si atom -12393.293529 kJ/mol
# Density = 1.875981 g / cm^3
# Si number density = 18.802603 Si / 1000 Ang^3
#
#
#
# Elastic Constant Matrix: (Units=GPa)
#
#
# Indices 1 2 3 4 5 6 
#
# 1 168.3111 65.2173 19.1236 0.0000 -13.3025 0.0000
# 2 65.2173 48.2154 3.1412 0.0000 -6.6380 0.0000
# 3 19.1236 3.1412 73.3211 0.0000 -1.7911 0.0000
# 4 0.0000 0.0000 0.0000 15.4726 0.0000 -6.7648
# 5 -13.3025 -6.6380 -1.7911 0.0000 26.4119 0.0000
# 6 0.0000 0.0000 0.0000 -6.7648 0.0000 29.0486
#
#
#
# Elastic Compliance Matrix: (Units=1/GPa)
#
#
# Indices 1 2 3 4 5 6 
#
# 1 0.013084 -0.017241 -0.002623 0.000000 0.002079 0.000000
# 2 -0.017241 0.044248 0.002665 0.000000 0.002618 0.000000
# 3 -0.002623 0.002665 0.014216 0.000000 0.000313 0.000000
# 4 0.000000 0.000000 0.000000 0.071957 0.000000 0.016757
# 5 0.002079 0.002618 0.000313 0.000000 0.039588 0.000000
# 6 0.000000 0.000000 0.000000 0.016757 0.000000 0.038327
#
#
# Mechanical properties :
#
#
# Convention : Reuss Voigt Hill
#
# Bulk Modulus (GPa) = 26.91796 51.64574 39.28185
# Shear Modulus (GPa) = 18.64267 27.67764 23.16015
#
# Velocity S-wave (km/s) = 3.15222 3.84084 3.51344
# Velocity P-wave (km/s) = 5.25317 6.86996 6.11523
#
# Compressibility (1/GPa) = 0.03714992
#
# Stress axis : x y z
#
# Youngs Moduli (GPa) = 76.42755 22.60013 70.34186
#
# Poissons Ratio (x) = 0.38965 0.18452
# Poissons Ratio (y) = 1.31769 -0.18747
# Poissons Ratio (z) = 0.20049 -0.06023
#
# Static dielectric constant tensor:
#      x y z
#    x 3.904710 0.000000 -0.059590 
#    y 0.000000 2.734330 0.000000 
#    z -0.059590 0.000000 3.651240 
# 
# 
# High freq. dielectric constant tensor:
#      x y z
#    x 1.755860 0.000000 -0.002570 
#    y 0.000000 1.658420 0.000000 
#    z -0.002570 0.000000 1.757350 
# 
# From -- ./inp_files/17921.got.cif
#   From: 2010.06.25/outbox.cif.g09.slc.cpg/sg15_9_cif.got.tgz:17921.got - 2010.06.28 07:06:18.
