data_PCOD8133019
_publ_section_title
;
Structure prediction by ZEFSAII (Michael W. Deem and Ramdas Pophale) SiO2 
 PCOD8133019
Probable space group: C 2/C
;
_chemical_formula_sum "Si O2"
_cell_formula_units_Z 60
_cell_length_a 19.944599
_cell_length_b 25.087732
_cell_length_c 13.543641
_cell_angle_alpha 90.000000
_cell_angle_beta 150.214373
_cell_angle_gamma 90.000000
_cell_volume 3366.398260
_symmetry_space_group_name_H-M "C 2/C"
_symmetry_group_IT_number 15
_symmetry_cell_setting 'monoclinic'
loop_
_space_group_symop_operation_xyz
x,y,z
-x,y,1/2-z
-x,-y,-z
x,-y,1/2+z
1/2+x,1/2+y,z
1/2-x,1/2+y,1/2-z
1/2-x,1/2-y,-z
1/2+x,1/2-y,1/2+z
loop_
_atom_site_type_symbol
_atom_site_label
_atom_site_fract_x
_atom_site_fract_y
_atom_site_fract_z
Si Si1 0.400320 0.663390 0.543764
Si Si2 0.421749 0.437278 0.285109
Si Si3 0.814783 0.373628 0.591870
Si Si4 0.943046 0.789632 0.570286
Si Si5 0.500000 0.469745 0.750000
Si Si6 0.357300 0.595578 0.913181
Si Si7 0.896575 0.357020 0.486714
Si Si8 0.142083 0.250873 0.170004
O O1 0.500000 0.691843 0.750000
O O2 0.462836 0.605148 0.598221
O O3 0.255135 0.660231 0.411090
O O4 0.382242 0.697645 0.423413
O O5 0.450721 0.495524 0.279401
O O6 0.412355 0.439549 0.391855
O O7 0.277463 0.424402 0.050776
O O8 0.827590 0.342073 0.504033
O O9 0.963571 0.389139 0.820229
O O10 0.924676 0.846057 0.492136
O O11 0.800726 0.758335 0.394300
O O12 0.000000 0.801297 0.750000
O O13 0.056104 0.754722 0.659813
O O14 0.385056 0.432217 0.554257
O O15 0.196392 0.603820 0.697470
O O16 0.922286 0.301067 0.467452
#
# Coordination Sequence:
#
# PCOD8133019 Si02
#       8
#     8   8   8   8   4   8   8   8
#     4  10  19  31  54  81 116 143 177 228 269 331
#     4  10  19  36  55  81 106 137 183 228 282 325
#     4   9  17  34  51  76 117 145 173 226 275 330
#     4  11  22  40  56  82 110 154 192 232 273 330
#     4  12  20  36  60  84  98 146 186 238 282 320
#     4  10  21  36  57  80 110 138 188 234 275 326
#     4   9  20  33  51  82 112 150 181 218 277 339
#     4  11  22  34  57  80 116 152 191 220 281 334
#
# _framework density 17.823202999999999
#
# number of rings (size 3 to 8) (size 9 to 14) (size 15 to 20)
#    0.000    1.867    4.000    1.600    3.733    0.533 
#    0.000    0.667    0.000    0.000    0.000    0.000 
#    0.000    0.000    0.000    0.000    0.000    0.000 
#
# Total GULP energy -371810.306672 kJ/mol
# GULP energy per Si atom -12393.676889 kJ/mol
# Density = 1.778264 g / cm^3
# Si number density = 17.823203 Si / 1000 Ang^3
#
#
#
# Elastic Constant Matrix: (Units=GPa)
#
#
# Indices 1 2 3 4 5 6 
#
# 1 83.0807 28.4560 49.7114 0.0000 7.0488 0.0000
# 2 28.4560 67.5719 41.8127 0.0000 1.1763 0.0000
# 3 49.7114 41.8127 129.7169 0.0000 0.2732 0.0000
# 4 0.0000 0.0000 0.0000 20.1244 0.0000 -9.9292
# 5 7.0488 1.1763 0.2732 0.0000 29.8645 0.0000
# 6 0.0000 0.0000 0.0000 -9.9292 0.0000 18.2470
#
#
#
# Elastic Compliance Matrix: (Units=1/GPa)
#
#
# Indices 1 2 3 4 5 6 
#
# 1 0.016759 -0.003776 -0.005197 0.000000 -0.003759 0.000000
# 2 -0.003776 0.019351 -0.004791 0.000000 0.000173 0.000000
# 3 -0.005197 -0.004791 0.011242 0.000000 0.001313 0.000000
# 4 0.000000 0.000000 0.000000 0.067928 0.000000 0.036963
# 5 -0.003759 0.000173 0.001313 0.000000 0.034353 0.000000
# 6 0.000000 0.000000 0.000000 0.036963 0.000000 0.074917
#
#
# Mechanical properties :
#
#
# Convention : Reuss Voigt Hill
#
# Bulk Modulus (GPa) = 50.44514 57.81440 54.12977
# Shear Modulus (GPa) = 19.32846 24.33981 21.83413
#
# Velocity S-wave (km/s) = 3.29668 3.69945 3.50385
# Velocity P-wave (km/s) = 6.54640 7.12432 6.84147
#
# Compressibility (1/GPa) = 0.01982352
#
# Stress axis : x y z
#
# Youngs Moduli (GPa) = 59.67107 51.67786 88.94934
#
# Poissons Ratio (x) = 0.19513 0.46230
# Poissons Ratio (y) = 0.22531 0.42614
# Poissons Ratio (z) = 0.31013 0.24758
#
# Static dielectric constant tensor:
#      x y z
#    x 3.372730 0.000000 0.040980 
#    y 0.000000 2.983220 0.000000 
#    z 0.040980 0.000000 3.499380 
# 
# 
# High freq. dielectric constant tensor:
#      x y z
#    x 1.693980 0.000000 -0.006040 
#    y 0.000000 1.660720 0.000000 
#    z -0.006040 0.000000 1.697530 
# 
# From -- ./inp_files/169474.got.cif
#   From: 2010.06.25/outbox.cif.g09.slc.cpg/sg15_85_cif.got.tgz:169474.got - 2010.06.28 07:06:18.
