data_PCOD8133844
_publ_section_title
;
Structure prediction by ZEFSAII (Michael W. Deem and Ramdas Pophale) SiO2 
 PCOD8133844
Probable space group: C 2/C
;
_chemical_formula_sum "Si O2"
_cell_formula_units_Z 48
_cell_length_a 10.205317
_cell_length_b 13.559582
_cell_length_c 18.732425
_cell_angle_alpha 90.000000
_cell_angle_beta 118.922055
_cell_angle_gamma 90.000000
_cell_volume 2268.887854
_symmetry_space_group_name_H-M "C 2/C"
_symmetry_group_IT_number 15
_symmetry_cell_setting 'monoclinic'
loop_
_space_group_symop_operation_xyz
x,y,z
-x,y,1/2-z
-x,-y,-z
x,-y,1/2+z
1/2+x,1/2+y,z
1/2-x,1/2+y,1/2-z
1/2-x,1/2-y,-z
1/2+x,1/2-y,1/2+z
loop_
_atom_site_type_symbol
_atom_site_label
_atom_site_fract_x
_atom_site_fract_y
_atom_site_fract_z
Si Si1 0.352029 0.657474 0.550170
Si Si2 0.179153 0.135680 0.603074
Si Si3 0.312470 0.561629 0.046412
Si Si4 0.164528 0.069377 0.163133
Si Si5 0.805237 0.652493 0.344106
Si Si6 0.408969 0.814333 0.656906
O O1 0.250000 0.750000 0.500000
O O2 0.501496 0.646184 0.542894
O O3 0.269063 0.553628 0.528549
O O4 0.393978 0.695540 0.641700
O O5 0.243797 0.116512 0.540347
O O6 0.246777 0.233366 0.657893
O O7 0.214050 0.044244 0.665275
O O8 0.487859 0.579410 0.106753
O O9 0.219386 0.597348 0.088863
O O10 0.209239 0.107210 0.253591
O O11 0.247240 0.132099 0.121418
O O12 0.984332 0.643941 0.378324
O O13 0.500000 0.839375 0.750000
#
# Coordination Sequence:
#
# PCOD8133844 Si02
#       6
#     8   8   8   8   8   8
#     4  10  19  34  58  84 108 146 191 229 275 337
#     4  10  21  38  58  82 119 153 183 234 294 339
#     4  11  21  36  59  87 115 147 189 239 285 338
#     4  10  20  39  60  81 112 156 195 232 283 340
#     4  10  22  37  57  86 115 148 192 238 283 335
#     4   9  19  36  55  78 112 150 189 234 283 335
#
# _framework density 21.155739000000001
#
# number of rings (size 3 to 8) (size 9 to 14) (size 15 to 20)
#    0.000    2.000    0.000    5.000    0.000    5.333 
#    0.000   15.833    0.000    0.000    0.000    0.000 
#    0.000    0.000    0.000    0.000    0.000    0.000 
#
# Total GULP energy -297322.421903 kJ/mol
# GULP energy per Si atom -12388.434246 kJ/mol
# Density = 2.110759 g / cm^3
# Si number density = 21.155739 Si / 1000 Ang^3
#
#
#
# Elastic Constant Matrix: (Units=GPa)
#
#
# Indices 1 2 3 4 5 6 
#
# 1 98.0602 50.8987 41.6757 0.0000 -30.3074 0.0000
# 2 50.8987 139.5520 62.6093 0.0000 -25.1651 0.0000
# 3 41.6757 62.6093 96.1760 0.0000 -22.8229 0.0000
# 4 0.0000 0.0000 0.0000 40.1582 0.0000 -3.3460
# 5 -30.3074 -25.1651 -22.8229 0.0000 36.5232 0.0000
# 6 0.0000 0.0000 0.0000 -3.3460 0.0000 27.7719
#
#
#
# Elastic Compliance Matrix: (Units=1/GPa)
#
#
# Indices 1 2 3 4 5 6 
#
# 1 0.015731 -0.002804 -0.002761 0.000000 0.009396 0.000000
# 2 -0.002804 0.010984 -0.005509 0.000000 0.001799 0.000000
# 3 -0.002761 -0.005509 0.016127 0.000000 0.003991 0.000000
# 4 0.000000 0.000000 0.000000 0.025154 0.000000 0.003031
# 5 0.009396 0.001799 0.003991 0.000000 0.038910 0.000000
# 6 0.000000 0.000000 0.000000 0.003031 0.000000 0.036373
#
#
# Mechanical properties :
#
#
# Convention : Reuss Voigt Hill
#
# Bulk Modulus (GPa) = 48.32294 71.57283 59.94789
# Shear Modulus (GPa) = 29.01470 32.79762 30.90616
#
# Velocity S-wave (km/s) = 3.70737 3.94165 3.82630
# Velocity P-wave (km/s) = 6.42006 7.39056 6.92234
#
# Compressibility (1/GPa) = 0.02069410
#
# Stress axis : x y z
#
# Youngs Moduli (GPa) = 63.56852 91.03781 62.00683
#
# Poissons Ratio (x) = 0.25530 0.17123
# Poissons Ratio (y) = 0.17827 0.34157
# Poissons Ratio (z) = 0.17554 0.50149
#
# Static dielectric constant tensor:
#      x y z
#    x 4.186680 0.000000 -0.267030 
#    y 0.000000 4.337070 0.000000 
#    z -0.267030 0.000000 4.263450 
# 
# 
# High freq. dielectric constant tensor:
#      x y z
#    x 1.825190 0.000000 -0.013990 
#    y 0.000000 1.833430 0.000000 
#    z -0.013990 0.000000 1.829420 
# 
# From -- ./inp_files/237237.got.cif
#   From: 2010.06.25/outbox.cif.g09.slc.cpg/sg15_119_cif.got.tgz:237237.got - 2010.06.28 07:06:18.
