data_PCOD8133685
_publ_section_title
;
Structure prediction by ZEFSAII (Michael W. Deem and Ramdas Pophale) SiO2 
 PCOD8133685
Probable space group: C 2/C
;
_chemical_formula_sum "Si O2"
_cell_formula_units_Z 60
_cell_length_a 8.956301
_cell_length_b 18.660721
_cell_length_c 25.825076
_cell_angle_alpha 90.000000
_cell_angle_beta 129.357496
_cell_angle_gamma 90.000000
_cell_volume 3337.282167
_symmetry_space_group_name_H-M "C 2/C"
_symmetry_group_IT_number 15
_symmetry_cell_setting 'monoclinic'
loop_
_space_group_symop_operation_xyz
x,y,z
-x,y,1/2-z
-x,-y,-z
x,-y,1/2+z
1/2+x,1/2+y,z
1/2-x,1/2+y,1/2-z
1/2-x,1/2-y,-z
1/2+x,1/2-y,1/2+z
loop_
_atom_site_type_symbol
_atom_site_label
_atom_site_fract_x
_atom_site_fract_y
_atom_site_fract_z
Si Si1 0.064055 0.332176 0.454511
Si Si2 0.060364 0.425162 0.987283
Si Si3 0.000000 0.512469 0.750000
Si Si4 0.497016 0.672731 0.419015
Si Si5 0.253641 0.442385 0.661148
Si Si6 0.152820 0.085244 0.207115
Si Si7 0.984699 0.447421 0.138572
Si Si8 0.331967 0.443532 0.959748
O O1 0.271711 0.334605 0.528015
O O2 0.963764 0.256812 0.420458
O O3 0.086697 0.377152 0.406543
O O4 0.917462 0.367919 0.462422
O O5 0.268253 0.425216 0.004641
O O6 0.896997 0.402474 0.909646
O O7 0.000000 0.500000 0.000000
O O8 0.808439 0.463074 0.711309
O O9 0.994934 0.568468 0.701574
O O10 0.405101 0.651970 0.342957
O O11 0.395350 0.626716 0.441900
O O12 0.269038 0.394368 0.717821
O O13 0.452979 0.456119 0.674536
O O14 0.187347 0.523548 0.660641
O O15 0.847908 0.517180 0.105832
O O16 0.500000 0.500000 0.000000
#
# Coordination Sequence:
#
# PCOD8133685 Si02
#       8
#     8   8   4   8   8   8   8   8
#     4  11  22  37  56  83 119 151 185 231 306 340
#     4  11  19  34  58  86 113 144 186 237 280 336
#     4  10  20  32  60  82 108 136 192 248 272 324
#     4  11  22  36  57  82 118 154 184 240 291 348
#     4   9  19  32  55  83 106 142 194 229 272 328
#     4  10  19  34  54  85 106 145 190 237 273 336
#     4  10  19  35  55  86 106 145 191 241 275 340
#     4  11  20  33  57  86 109 143 194 232 278 331
#
# _framework density 17.978701999999998
#
# number of rings (size 3 to 8) (size 9 to 14) (size 15 to 20)
#    0.000    1.600    6.667    0.000    0.000    0.533 
#    0.000    1.333    0.000    3.200    0.000    0.000 
#    0.000    0.000    0.000    0.000    0.000    0.000 
#
# Total GULP energy -371647.886507 kJ/mol
# GULP energy per Si atom -12388.262884 kJ/mol
# Density = 1.793778 g / cm^3
# Si number density = 17.978702 Si / 1000 Ang^3
#
#
#
# Elastic Constant Matrix: (Units=GPa)
#
#
# Indices 1 2 3 4 5 6 
#
# 1 122.8215 46.4802 34.6200 0.0000 -7.2393 0.0000
# 2 46.4802 110.9758 48.5828 0.0000 -16.1507 0.0000
# 3 34.6200 48.5828 99.3923 0.0001 -18.3077 0.0000
# 4 0.0000 0.0000 0.0001 22.9352 0.0000 0.4311
# 5 -7.2393 -16.1507 -18.3077 0.0000 32.8073 0.0000
# 6 0.0000 0.0000 0.0000 0.4311 0.0000 23.4474
#
#
#
# Elastic Compliance Matrix: (Units=1/GPa)
#
#
# Indices 1 2 3 4 5 6 
#
# 1 0.009934 -0.003411 -0.001893 0.000000 -0.000544 0.000000
# 2 -0.003411 0.012872 -0.004542 0.000000 0.003049 0.000000
# 3 -0.001893 -0.004542 0.013878 0.000000 0.005091 0.000000
# 4 0.000000 0.000000 0.000000 0.043616 0.000000 -0.000802
# 5 -0.000544 0.003049 0.005091 0.000000 0.034703 0.000000
# 6 0.000000 0.000000 0.000000 -0.000802 0.000000 0.042663
#
#
# Mechanical properties :
#
#
# Convention : Reuss Voigt Hill
#
# Bulk Modulus (GPa) = 58.85018 65.83951 62.34485
# Shear Modulus (GPa) = 27.31889 29.40509 28.36199
#
# Velocity S-wave (km/s) = 3.90232 4.04858 3.97613
# Velocity P-wave (km/s) = 7.28756 7.65213 7.47207
#
# Compressibility (1/GPa) = 0.01699230
#
# Stress axis : x y z
#
# Youngs Moduli (GPa) = 100.66045 77.68918 72.05494
#
# Poissons Ratio (x) = 0.26501 0.13640
# Poissons Ratio (y) = 0.34337 0.32726
# Poissons Ratio (z) = 0.19055 0.35285
#
# Static dielectric constant tensor:
#      x y z
#    x 4.533690 0.000000 0.332420 
#    y 0.000000 3.052540 0.000000 
#    z 0.332420 0.000000 3.791850 
# 
# 
# High freq. dielectric constant tensor:
#      x y z
#    x 1.716020 0.000000 -0.011200 
#    y 0.000000 1.647630 0.000000 
#    z -0.011200 0.000000 1.703800 
# 
# From -- ./inp_files/289598.got.cif
#   From: 2010.06.25/outbox.cif.g09.slc.cpg/sg15_145_cif.got.tgz:289598.got - 2010.06.28 07:06:18.
