data_PCOD8133840
_publ_section_title
;
Structure prediction by ZEFSAII (Michael W. Deem and Ramdas Pophale) SiO2 
 PCOD8133840
Probable space group: C 2/C
;
_chemical_formula_sum "Si O2"
_cell_formula_units_Z 56
_cell_length_a 9.573769
_cell_length_b 23.937317
_cell_length_c 14.179589
_cell_angle_alpha 90.000000
_cell_angle_beta 60.454156
_cell_angle_gamma 90.000000
_cell_volume 2826.975531
_symmetry_space_group_name_H-M "C 2/C"
_symmetry_group_IT_number 15
_symmetry_cell_setting 'monoclinic'
loop_
_space_group_symop_operation_xyz
x,y,z
-x,y,1/2-z
-x,-y,-z
x,-y,1/2+z
1/2+x,1/2+y,z
1/2-x,1/2+y,1/2-z
1/2-x,1/2-y,-z
1/2+x,1/2-y,1/2+z
loop_
_atom_site_type_symbol
_atom_site_label
_atom_site_fract_x
_atom_site_fract_y
_atom_site_fract_z
Si Si1 0.206635 0.467411 0.335502
Si Si2 0.128970 0.118053 0.590395
Si Si3 0.188361 0.078501 0.880838
Si Si4 0.354231 0.932114 0.517271
Si Si5 0.052742 0.335948 0.502204
Si Si6 0.150231 0.686519 0.756558
Si Si7 0.527854 0.261523 0.340104
O O1 0.337822 0.422410 0.330768
O O2 0.249476 0.471322 0.209577
O O3 0.222882 0.527730 0.378446
O O4 0.023878 0.449453 0.415475
O O5 0.307121 0.129659 0.487622
O O6 0.004757 0.087827 0.561162
O O7 0.057593 0.178316 0.642266
O O8 0.223139 0.066814 0.978162
O O9 0.290256 0.131738 0.816401
O O10 0.386346 0.871545 0.555841
O O11 0.038092 0.275248 0.552638
O O12 0.111920 0.327654 0.376385
O O13 0.283431 0.733978 0.705214
O O14 0.000000 0.711098 0.750000
O O15 0.500000 0.229827 0.250000
#
# Coordination Sequence:
#
# PCOD8133840 Si02
#       7
#     8   8   8   8   8   8   8
#     4  10  19  34  58  83 111 146 197 245 290 352
#     4  10  20  35  59  86 111 152 203 246 284 355
#     4  11  18  35  61  83 110 147 201 246 288 354
#     4  10  21  35  55  84 113 152 191 243 303 349
#     4  11  21  38  59  86 121 153 200 245 293 372
#     4  11  20  36  60  87 111 155 202 243 291 351
#     4  11  22  36  59  88 119 157 197 248 304 351
#
# _framework density 19.809156000000002
#
# number of rings (size 3 to 8) (size 9 to 14) (size 15 to 20)
#    0.000    1.429    5.714    2.143    0.000    1.143 
#    0.000    4.286    0.000    1.714    0.000    0.000 
#    0.000    0.000    0.000    0.000    0.000    0.000 
#
# Total GULP energy -346949.678334 kJ/mol
# GULP energy per Si atom -12391.059940 kJ/mol
# Density = 1.976407 g / cm^3
# Si number density = 19.809156 Si / 1000 Ang^3
#
#
#
# Elastic Constant Matrix: (Units=GPa)
#
#
# Indices 1 2 3 4 5 6 
#
# 1 153.0836 31.9028 36.1148 0.0000 0.1732 0.0000
# 2 31.9028 74.5674 37.1502 0.0000 2.8595 0.0000
# 3 36.1148 37.1502 43.0963 0.0000 3.4844 0.0000
# 4 0.0000 0.0000 0.0000 19.4162 0.0000 -0.7270
# 5 0.1732 2.8595 3.4844 0.0000 19.2866 0.0000
# 6 0.0000 0.0000 0.0000 -0.7270 0.0000 15.5300
#
#
#
# Elastic Compliance Matrix: (Units=1/GPa)
#
#
# Indices 1 2 3 4 5 6 
#
# 1 0.008169 -0.000144 -0.006817 0.000000 0.001180 0.000000
# 2 -0.000144 0.023509 -0.020157 0.000000 0.000157 0.000000
# 3 -0.006817 -0.020157 0.046729 0.000000 -0.005392 0.000000
# 4 0.000000 0.000000 0.000000 0.051594 0.000000 0.002415
# 5 0.001180 0.000157 -0.005392 0.000000 0.052790 0.000000
# 6 0.000000 0.000000 0.000000 0.002415 0.000000 0.064504
#
#
# Mechanical properties :
#
#
# Convention : Reuss Voigt Hill
#
# Bulk Modulus (GPa) = 41.37362 53.45367 47.41365
# Shear Modulus (GPa) = 16.15048 21.88520 19.01784
#
# Velocity S-wave (km/s) = 2.85845 3.32746 3.10183
# Velocity P-wave (km/s) = 5.64143 6.46572 6.06759
#
# Compressibility (1/GPa) = 0.02416999
#
# Stress axis : x y z
#
# Youngs Moduli (GPa) = 122.40912 42.53726 21.40013
#
# Poissons Ratio (x) = 0.00613 0.14589
# Poissons Ratio (y) = 0.01763 0.43137
# Poissons Ratio (z) = 0.83448 0.85743
#
# Static dielectric constant tensor:
#      x y z
#    x 4.180440 0.000000 -0.051410 
#    y 0.000000 3.539120 0.000000 
#    z -0.051410 0.000000 3.255220 
# 
# 
# High freq. dielectric constant tensor:
#      x y z
#    x 1.794850 0.000000 -0.002510 
#    y 0.000000 1.747690 0.000000 
#    z -0.002510 0.000000 1.735830 
# 
# From -- ./inp_files/138501.got.cif
#   From: 2010.06.25/outbox.cif.g09.slc.cpg/sg15_70_cif.got.tgz:138501.got - 2010.06.28 07:06:18.
