data_PCOD8133114
_publ_section_title
;
Structure prediction by ZEFSAII (Michael W. Deem and Ramdas Pophale) SiO2 
 PCOD8133114
Probable space group: C 2/C
;
_chemical_formula_sum "Si O2"
_cell_formula_units_Z 64
_cell_length_a 9.179180
_cell_length_b 20.371149
_cell_length_c 23.339917
_cell_angle_alpha 90.000000
_cell_angle_beta 52.942720
_cell_angle_gamma 90.000000
_cell_volume 3482.890500
_symmetry_space_group_name_H-M "C 2/C"
_symmetry_group_IT_number 15
_symmetry_cell_setting 'monoclinic'
loop_
_space_group_symop_operation_xyz
x,y,z
-x,y,1/2-z
-x,-y,-z
x,-y,1/2+z
1/2+x,1/2+y,z
1/2-x,1/2+y,1/2-z
1/2-x,1/2-y,-z
1/2+x,1/2-y,1/2+z
loop_
_atom_site_type_symbol
_atom_site_label
_atom_site_fract_x
_atom_site_fract_y
_atom_site_fract_z
Si Si1 0.423616 0.197587 0.533445
Si Si2 0.240892 0.504413 0.007050
Si Si3 0.398658 0.318801 0.603629
Si Si4 0.053554 0.094849 0.969597
Si Si5 0.390418 0.272674 0.102808
Si Si6 0.605223 0.923162 0.938785
Si Si7 0.603839 0.669943 0.167030
Si Si8 0.574652 0.268088 0.171517
O O1 0.506979 0.251514 0.558754
O O2 0.438022 0.235289 0.468353
O O3 0.529191 0.128915 0.504460
O O4 0.215432 0.182965 0.603853
O O5 0.275140 0.447507 0.046476
O O6 0.055318 0.546155 0.062813
O O7 0.418414 0.550444 0.963913
O O8 0.214766 0.477099 0.949035
O O9 0.436146 0.377017 0.550299
O O10 0.462078 0.344255 0.649969
O O11 0.181467 0.301109 0.656963
O O12 0.128495 0.151487 0.910465
O O13 0.202054 0.238492 0.129194
O O14 0.406360 0.261903 0.167672
O O15 0.746647 0.887863 0.863062
O O16 0.500000 0.674201 0.250000
O O17 0.500000 0.295850 0.250000
#
# Coordination Sequence:
#
# PCOD8133114 Si02
#       8
#     8   8   8   8   8   8   8   8
#     4   8  19  31  57  79 110 137 184 226 287 329
#     4  10  21  34  55  86 104 147 188 233 273 321
#     4   9  20  33  53  82 112 141 178 230 292 326
#     4  10  20  35  57  83 116 135 188 239 273 326
#     4  10  20  33  58  82 110 146 177 232 287 341
#     4  10  20  36  58  80 113 142 197 233 272 329
#     4  11  22  36  56  85 113 146 181 233 295 337
#     4  10  19  32  51  85 116 142 176 220 288 354
#
# _framework density 18.375543
#
# number of rings (size 3 to 8) (size 9 to 14) (size 15 to 20)
#    0.750    1.500    1.250    1.875    5.250    1.500 
#    0.000    0.000    0.000    8.250    3.250    0.000 
#    0.000    0.000    0.000    0.000    0.000    0.000 
#
# Total GULP energy -396428.517355 kJ/mol
# GULP energy per Si atom -12388.391167 kJ/mol
# Density = 1.833372 g / cm^3
# Si number density = 18.375543 Si / 1000 Ang^3
#
#
#
# Elastic Constant Matrix: (Units=GPa)
#
#
# Indices 1 2 3 4 5 6 
#
# 1 96.7308 40.0989 17.9927 0.0000 7.7620 0.0002
# 2 40.0989 95.7935 25.3075 0.0000 -2.7957 0.0000
# 3 17.9927 25.3075 89.5551 0.0000 6.9901 0.0001
# 4 0.0000 0.0000 0.0000 11.3509 0.0000 -2.2984
# 5 7.7620 -2.7957 6.9901 0.0000 24.3421 -0.0001
# 6 0.0002 0.0000 0.0001 -2.2984 -0.0001 31.8182
#
#
#
# Elastic Compliance Matrix: (Units=1/GPa)
#
#
# Indices 1 2 3 4 5 6 
#
# 1 0.013089 -0.005417 -0.000741 0.000000 -0.004583 0.000000
# 2 -0.005417 0.013646 -0.003094 0.000000 0.004183 0.000000
# 3 -0.000741 -0.003094 0.012479 0.000000 -0.003702 0.000000
# 4 0.000000 0.000000 0.000000 0.089406 0.000000 0.006458
# 5 -0.004583 0.004183 -0.003702 0.000000 0.044086 0.000000
# 6 0.000000 0.000000 0.000000 0.006458 0.000000 0.031895
#
#
# Mechanical properties :
#
#
# Convention : Reuss Voigt Hill
#
# Bulk Modulus (GPa) = 48.28899 49.87528 49.08213
# Shear Modulus (GPa) = 21.73820 26.74761 24.24290
#
# Velocity S-wave (km/s) = 3.44320 3.81938 3.63616
# Velocity P-wave (km/s) = 6.49180 6.83018 6.66314
#
# Compressibility (1/GPa) = 0.02070865
#
# Stress axis : x y z
#
# Youngs Moduli (GPa) = 76.39888 73.27999 80.13653
#
# Poissons Ratio (x) = 0.39696 0.05940
# Poissons Ratio (y) = 0.41386 0.24798
# Poissons Ratio (z) = 0.05663 0.22676
#
# Static dielectric constant tensor:
#      x y z
#    x 3.401580 0.000000 0.010490 
#    y 0.000000 3.398030 0.000000 
#    z 0.010490 0.000000 3.099500 
# 
# 
# High freq. dielectric constant tensor:
#      x y z
#    x 1.717370 0.000000 0.005870 
#    y 0.000000 1.701140 0.000000 
#    z 0.005870 0.000000 1.677360 
# 
# From -- ./inp_files/265909.got.cif
#   From: 2010.06.25/outbox.cif.g09.slc.cpg/sg15_133_cif.got.tgz:265909.got - 2010.06.28 07:06:18.
