data_PCOD8133738
_publ_section_title
;
Structure prediction by ZEFSAII (Michael W. Deem and Ramdas Pophale) SiO2 
 PCOD8133738
Probable space group: C 2/C
;
_chemical_formula_sum "Si O2"
_cell_formula_units_Z 64
_cell_length_a 18.286939
_cell_length_b 9.987394
_cell_length_c 23.118552
_cell_angle_alpha 90.000000
_cell_angle_beta 125.525737
_cell_angle_gamma 90.000000
_cell_volume 3436.375737
_symmetry_space_group_name_H-M "C 2/C"
_symmetry_group_IT_number 15
_symmetry_cell_setting 'monoclinic'
loop_
_space_group_symop_operation_xyz
x,y,z
-x,y,1/2-z
-x,-y,-z
x,-y,1/2+z
1/2+x,1/2+y,z
1/2-x,1/2+y,1/2-z
1/2-x,1/2-y,-z
1/2+x,1/2-y,1/2+z
loop_
_atom_site_type_symbol
_atom_site_label
_atom_site_fract_x
_atom_site_fract_y
_atom_site_fract_z
Si Si1 0.638577 0.425665 0.552248
Si Si2 0.948777 0.793326 0.460994
Si Si3 0.819867 0.666811 0.174984
Si Si4 0.131659 0.325301 0.469027
Si Si5 0.304754 0.544485 0.034627
Si Si6 0.431947 0.602651 0.670260
Si Si7 0.445421 0.804335 0.835159
Si Si8 0.443383 0.964224 0.170051
O O1 0.553008 0.330275 0.510049
O O2 0.611781 0.572114 0.564173
O O3 0.712159 0.351588 0.626655
O O4 0.682422 0.430941 0.508264
O O5 0.934979 0.688346 0.507282
O O6 0.921923 0.709040 0.391717
O O7 0.855273 0.797508 0.158032
O O8 0.853290 0.682930 0.256361
O O9 0.858174 0.536438 0.159816
O O10 0.202499 0.448188 0.512108
O O11 0.181539 0.184483 0.490629
O O12 0.083339 0.344332 0.384884
O O13 0.378521 0.521664 0.118419
O O14 0.500000 0.547242 0.750000
O O15 0.495917 0.674089 0.653274
O O16 0.502520 0.934498 0.845874
O O17 0.500000 0.906178 0.250000
#
# Coordination Sequence:
#
# PCOD8133738 Si02
#       8
#     8   8   8   8   8   8   8   8
#     4  10  19  35  58  78 104 152 188 214 272 342
#     4  10  21  35  54  79 114 147 179 225 279 329
#     4   9  18  34  57  82 103 137 193 225 264 324
#     4  10  21  34  52  82 113 140 182 227 275 335
#     4  10  19  34  56  79 106 144 186 228 267 321
#     4   9  18  33  56  84 106 135 186 237 266 310
#     4   9  18  35  55  79 111 141 177 230 271 322
#     4   9  18  34  56  79 107 145 178 225 280 321
#
# _framework density 18.624274
#
# number of rings (size 3 to 8) (size 9 to 14) (size 15 to 20)
#    0.000    2.500    2.500    1.500    0.000    2.500 
#    0.000    5.000    0.000    0.000    0.000    0.000 
#    0.000    0.000    0.000    0.000    0.000    0.000 
#
# Total GULP energy -396559.090263 kJ/mol
# GULP energy per Si atom -12392.471571 kJ/mol
# Density = 1.858188 g / cm^3
# Si number density = 18.624274 Si / 1000 Ang^3
#
#
#
# Elastic Constant Matrix: (Units=GPa)
#
#
# Indices 1 2 3 4 5 6 
#
# 1 98.6215 34.1860 67.6983 0.0000 4.7341 0.0000
# 2 34.1860 34.4734 39.8823 0.0000 1.5253 0.0000
# 3 67.6983 39.8823 145.3218 0.0000 4.3542 0.0000
# 4 0.0000 0.0000 0.0000 34.6160 0.0000 1.3785
# 5 4.7341 1.5253 4.3542 0.0000 38.7601 0.0000
# 6 0.0000 0.0000 0.0000 1.3785 0.0000 23.4683
#
#
#
# Elastic Compliance Matrix: (Units=1/GPa)
#
#
# Indices 1 2 3 4 5 6 
#
# 1 0.017677 -0.011709 -0.004987 0.000000 -0.001138 0.000000
# 2 -0.011709 0.050264 -0.008351 0.000000 0.000390 0.000000
# 3 -0.004987 -0.008351 0.011507 0.000000 -0.000355 0.000000
# 4 0.000000 0.000000 0.000000 0.028956 0.000000 -0.001701
# 5 -0.001138 0.000390 -0.000355 0.000000 0.025963 0.000000
# 6 0.000000 0.000000 0.000000 -0.001701 0.000000 0.042711
#
#
# Mechanical properties :
#
#
# Convention : Reuss Voigt Hill
#
# Bulk Modulus (GPa) = 34.06905 62.43889 48.25397
# Shear Modulus (GPa) = 21.10081 28.47887 24.78984
#
# Velocity S-wave (km/s) = 3.36962 3.91465 3.65231
# Velocity P-wave (km/s) = 5.78547 7.35057 6.61448
#
# Compressibility (1/GPa) = 0.02935216
#
# Stress axis : x y z
#
# Youngs Moduli (GPa) = 56.57166 19.89490 86.90283
#
# Poissons Ratio (x) = 0.23296 0.43339
# Poissons Ratio (y) = 0.66242 0.72576
# Poissons Ratio (z) = 0.28213 0.16615
#
# Static dielectric constant tensor:
#      x y z
#    x 3.461930 0.000000 0.008140 
#    y 0.000000 3.141490 0.000000 
#    z 0.008140 0.000000 3.434430 
# 
# 
# High freq. dielectric constant tensor:
#      x y z
#    x 1.711530 0.000000 0.005540 
#    y 0.000000 1.697050 0.000000 
#    z 0.005540 0.000000 1.728970 
# 
# From -- ./inp_files/252390.got.cif
#   From: 2010.06.25/outbox.cif.g09.slc.cpg/sg15_127_cif.got.tgz:252390.got - 2010.06.28 07:06:18.
