data_PCOD8133528
_publ_section_title
;
Structure prediction by ZEFSAII (Michael W. Deem and Ramdas Pophale) SiO2 
 PCOD8133528
Probable space group: C 2/C
;
_chemical_formula_sum "Si O2"
_cell_formula_units_Z 56
_cell_length_a 24.564088
_cell_length_b 15.355686
_cell_length_c 10.409279
_cell_angle_alpha 90.000000
_cell_angle_beta 137.004516
_cell_angle_gamma 90.000000
_cell_volume 2677.547204
_symmetry_space_group_name_H-M "C 2/C"
_symmetry_group_IT_number 15
_symmetry_cell_setting 'monoclinic'
loop_
_space_group_symop_operation_xyz
x,y,z
-x,y,1/2-z
-x,-y,-z
x,-y,1/2+z
1/2+x,1/2+y,z
1/2-x,1/2+y,1/2-z
1/2-x,1/2-y,-z
1/2+x,1/2-y,1/2+z
loop_
_atom_site_type_symbol
_atom_site_label
_atom_site_fract_x
_atom_site_fract_y
_atom_site_fract_z
Si Si1 0.876218 0.786618 0.684236
Si Si2 0.912492 0.974876 0.800461
Si Si3 0.189426 0.393927 0.151361
Si Si4 0.066431 0.455519 0.766928
Si Si5 0.245632 0.787841 0.796411
Si Si6 0.682549 0.536324 0.097685
Si Si7 0.451542 0.122134 0.891751
O O1 0.915216 0.881274 0.731398
O O2 0.806531 0.800217 0.666484
O O3 0.836696 0.737589 0.493007
O O4 0.948833 0.724196 0.854391
O O5 0.860701 0.974180 0.840444
O O6 0.877545 0.040515 0.629872
O O7 0.000000 0.000000 0.000000
O O8 0.213644 0.295124 0.163186
O O9 0.262356 0.451774 0.329141
O O10 0.119572 0.401127 0.133906
O O11 0.156160 0.429170 0.958699
O O12 0.065889 0.560296 0.759785
O O13 0.000000 0.420517 0.750000
O O14 0.040280 0.405980 0.591096
O O15 0.236378 0.875135 0.694197
#
# Coordination Sequence:
#
# PCOD8133528 Si02
#       7
#     8   8   8   8   8   8   8
#     4   9  17  34  59  82 110 155 206 237 283 367
#     4  11  24  42  62  87 122 160 204 251 305 360
#     4  10  19  33  58  81 112 148 193 244 287 352
#     4   9  18  31  49  82 116 145 182 239 304 342
#     4   9  18  33  57  88 109 148 204 243 286 356
#     4  11  23  39  65  90 118 160 203 252 303 354
#     4   9  18  32  55  80 111 151 192 236 288 356
#
# _framework density 20.914663000000001
#
# number of rings (size 3 to 8) (size 9 to 14) (size 15 to 20)
#    0.000    2.286    1.429    1.286    4.000    1.143 
#    0.000    6.429    6.286    0.000    0.000    0.000 
#    0.000    0.000    0.000    0.000    0.000    0.000 
#
# Total GULP energy -346875.713109 kJ/mol
# GULP energy per Si atom -12388.418325 kJ/mol
# Density = 2.086706 g / cm^3
# Si number density = 20.914663 Si / 1000 Ang^3
#
#
#
# Elastic Constant Matrix: (Units=GPa)
#
#
# Indices 1 2 3 4 5 6 
#
# 1 22.7396 14.4681 21.5309 0.0000 -5.7118 0.0000
# 2 14.4681 132.2388 61.9687 0.0000 0.0079 0.0000
# 3 21.5309 61.9687 145.9316 0.0000 -5.2881 0.0000
# 4 0.0000 0.0000 0.0000 34.8150 0.0000 -1.9792
# 5 -5.7118 0.0079 -5.2881 0.0000 25.3952 0.0000
# 6 0.0000 0.0000 0.0000 -1.9792 0.0000 18.8870
#
#
#
# Elastic Compliance Matrix: (Units=1/GPa)
#
#
# Indices 1 2 3 4 5 6 
#
# 1 0.054694 -0.002983 -0.006405 0.000000 0.010969 0.000000
# 2 -0.002983 0.009621 -0.003698 0.000000 -0.001444 0.000000
# 3 -0.006405 -0.003698 0.009387 0.000000 0.000515 0.000000
# 4 0.000000 0.000000 0.000000 0.028895 0.000000 0.003028
# 5 0.010969 -0.001444 0.000515 0.000000 0.041952 0.000000
# 6 0.000000 0.000000 0.000000 0.003028 0.000000 0.053264
#
#
# Mechanical properties :
#
#
# Convention : Reuss Voigt Hill
#
# Bulk Modulus (GPa) = 21.03955 55.20504 38.12230
# Shear Modulus (GPa) = 20.84814 29.34894 25.09854
#
# Velocity S-wave (km/s) = 3.16067 3.75009 3.46792
# Velocity P-wave (km/s) = 4.83749 6.72336 5.85683
#
# Compressibility (1/GPa) = 0.04752953
#
# Stress axis : x y z
#
# Youngs Moduli (GPa) = 18.28344 103.93508 106.53580
#
# Poissons Ratio (x) = 0.31004 0.68241
# Poissons Ratio (y) = 0.05454 0.39395
# Poissons Ratio (z) = 0.11711 0.38434
#
# Static dielectric constant tensor:
#      x y z
#    x 3.340300 0.000000 -0.067130 
#    y 0.000000 3.956140 0.000000 
#    z -0.067130 0.000000 4.216390 
# 
# 
# High freq. dielectric constant tensor:
#      x y z
#    x 1.773270 0.000000 -0.000480 
#    y 0.000000 1.822390 0.000000 
#    z -0.000480 0.000000 1.831040 
# 
# From -- ./inp_files/123353.got.cif
#   From: 2010.06.25/outbox.cif.g09.slc.cpg/sg15_62_cif.got.tgz:123353.got - 2010.06.28 07:06:18.
