data_PCOD8133750
_publ_section_title
;
Structure prediction by ZEFSAII (Michael W. Deem and Ramdas Pophale) SiO2 
 PCOD8133750
Probable space group: C 2/C
;
_chemical_formula_sum "Si O2"
_cell_formula_units_Z 48
_cell_length_a 20.374254
_cell_length_b 9.246777
_cell_length_c 15.426463
_cell_angle_alpha 90.000000
_cell_angle_beta 118.069467
_cell_angle_gamma 90.000000
_cell_volume 2564.442745
_symmetry_space_group_name_H-M "C 2/C"
_symmetry_group_IT_number 15
_symmetry_cell_setting 'monoclinic'
loop_
_space_group_symop_operation_xyz
x,y,z
-x,y,1/2-z
-x,-y,-z
x,-y,1/2+z
1/2+x,1/2+y,z
1/2-x,1/2+y,1/2-z
1/2-x,1/2-y,-z
1/2+x,1/2-y,1/2+z
loop_
_atom_site_type_symbol
_atom_site_label
_atom_site_fract_x
_atom_site_fract_y
_atom_site_fract_z
Si Si1 0.784297 0.404652 0.540625
Si Si2 0.076085 0.244723 0.835410
Si Si3 0.885030 0.013486 0.260678
Si Si4 0.256157 0.340942 0.591719
Si Si5 0.320400 0.581322 0.902799
Si Si6 0.964257 0.001538 0.070479
O O1 0.750000 0.250000 0.500000
O O2 0.871086 0.381998 0.616022
O O3 0.779006 0.502028 0.450004
O O4 0.743602 0.479427 0.596737
O O5 0.000000 0.308927 0.750000
O O6 0.116094 0.133987 0.794441
O O7 0.058392 0.160025 0.913815
O O8 0.839799 0.136889 0.180654
O O9 0.971778 0.064353 0.325046
O O10 0.846213 0.986816 0.328822
O O11 0.250000 0.250000 0.500000
O O12 0.209735 0.244846 0.632103
O O13 0.388031 0.593178 0.015593
O O14 0.000000 0.000000 0.000000
#
# Coordination Sequence:
#
# PCOD8133750 Si02
#       6
#     8   8   8   8   8   8
#     4  11  19  35  58  80 111 152 187 234 292 339
#     4  10  19  34  56  83 109 150 198 228 280 348
#     4  10  20  33  58  81 112 154 194 234 284 347
#     4  10  21  36  52  84 117 148 189 238 285 342
#     4  10  21  35  56  86 117 142 197 245 287 336
#     4   9  18  35  56  82 110 151 198 239 278 344
#
# _framework density 18.717517999999998
#
# number of rings (size 3 to 8) (size 9 to 14) (size 15 to 20)
#    0.000    2.000    3.333    1.000    2.333    0.000 
#    0.000    3.333    0.000    9.000    0.000    0.000 
#    0.000    0.000    0.000    0.000    0.000    0.000 
#
# Total GULP energy -297334.623696 kJ/mol
# GULP energy per Si atom -12388.942654 kJ/mol
# Density = 1.867492 g / cm^3
# Si number density = 18.717518 Si / 1000 Ang^3
#
#
#
# Elastic Constant Matrix: (Units=GPa)
#
#
# Indices 1 2 3 4 5 6 
#
# 1 103.3118 41.7512 54.2312 0.0000 14.2321 0.0000
# 2 41.7512 94.7768 45.5818 0.0000 19.5713 0.0000
# 3 54.2312 45.5818 114.8570 0.0000 30.7627 0.0000
# 4 0.0000 0.0000 0.0000 29.7158 0.0000 8.6611
# 5 14.2321 19.5713 30.7627 0.0000 53.1218 0.0000
# 6 0.0000 0.0000 0.0000 8.6611 0.0000 26.6047
#
#
#
# Elastic Compliance Matrix: (Units=1/GPa)
#
#
# Indices 1 2 3 4 5 6 
#
# 1 0.013840 -0.003718 -0.005247 0.000000 0.000700 0.000000
# 2 -0.003718 0.014247 -0.003266 0.000000 -0.002362 0.000000
# 3 -0.005247 -0.003266 0.013944 0.000000 -0.005466 0.000000
# 4 0.000000 0.000000 0.000000 0.037180 0.000000 -0.012104
# 5 0.000700 -0.002362 -0.005466 0.000000 0.022672 0.000000
# 6 0.000000 0.000000 0.000000 -0.012104 0.000000 0.041528
#
#
# Mechanical properties :
#
#
# Convention : Reuss Voigt Hill
#
# Bulk Modulus (GPa) = 56.91709 66.23044 61.57376
# Shear Modulus (GPa) = 28.78045 33.31388 31.04717
#
# Velocity S-wave (km/s) = 3.92551 4.22337 4.07716
# Velocity P-wave (km/s) = 7.14287 7.69698 7.42510
#
# Compressibility (1/GPa) = 0.01756942
#
# Stress axis : x y z
#
# Youngs Moduli (GPa) = 72.25656 70.18807 71.71600
#
# Poissons Ratio (x) = 0.26095 0.37626
# Poissons Ratio (y) = 0.26864 0.23424
# Poissons Ratio (z) = 0.37910 0.22925
#
# Static dielectric constant tensor:
#      x y z
#    x 3.857920 0.000000 0.385830 
#    y 0.000000 3.683670 0.000000 
#    z 0.385830 0.000000 4.056940 
# 
# 
# High freq. dielectric constant tensor:
#      x y z
#    x 1.732510 0.000000 0.010600 
#    y 0.000000 1.690010 0.000000 
#    z 0.010600 0.000000 1.742040 
# 
# From -- ./inp_files/213555.got.cif
#   From: 2010.06.25/outbox.cif.g09.slc.cpg/sg15_107_cif.got.tgz:213555.got - 2010.06.28 07:06:18.
