data_PCOD8133512
_publ_section_title
;
Structure prediction by ZEFSAII (Michael W. Deem and Ramdas Pophale) SiO2 
 PCOD8133512
Probable space group: C 2/C
;
_chemical_formula_sum "Si O2"
_cell_formula_units_Z 40
_cell_length_a 12.176421
_cell_length_b 21.994087
_cell_length_c 5.264911
_cell_angle_alpha 90.000000
_cell_angle_beta 84.033909
_cell_angle_gamma 90.000000
_cell_volume 1402.354830
_symmetry_space_group_name_H-M "C 2/C"
_symmetry_group_IT_number 15
_symmetry_cell_setting 'monoclinic'
loop_
_space_group_symop_operation_xyz
x,y,z
-x,y,1/2-z
-x,-y,-z
x,-y,1/2+z
1/2+x,1/2+y,z
1/2-x,1/2+y,1/2-z
1/2-x,1/2-y,-z
1/2+x,1/2-y,1/2+z
loop_
_atom_site_type_symbol
_atom_site_label
_atom_site_fract_x
_atom_site_fract_y
_atom_site_fract_z
Si Si1 0.622698 0.022043 0.092689
Si Si2 0.362275 0.471096 0.140144
Si Si3 0.875177 0.830663 0.239652
Si Si4 0.070315 0.651019 0.979560
Si Si5 0.870087 0.225956 0.237905
O O1 0.561372 0.019215 0.385368
O O2 0.733422 0.989459 0.177037
O O3 0.645684 0.092106 0.015911
O O4 0.419562 0.499177 0.378962
O O5 0.373542 0.399152 0.140772
O O6 0.821161 0.819937 0.533066
O O7 0.000000 0.807967 0.250000
O O8 0.817367 0.788955 0.030548
O O9 0.149969 0.706063 0.869643
O O10 0.000000 0.633188 0.750000
O O11 0.000000 0.668710 0.250000
O O12 0.000000 0.215646 0.250000
#
# Coordination Sequence:
#
# PCOD8133512 Si02
#       5
#     8   8   8   8   8
#     4  10  22  38  56  78 115 156 191 233 282 331
#     4  10  21  37  56  77 113 157 193 232 280 329
#     4  10  19  33  57  85 113 147 188 231 281 339
#     4  11  21  35  59  88 116 147 187 234 286 343
#     4   9  18  33  53  83 116 141 178 235 290 338
#
# _framework density 28.52345
#
# number of rings (size 3 to 8) (size 9 to 14) (size 15 to 20)
#    0.000    2.000    0.000    5.400    0.000    3.200 
#    0.000    0.000    0.000   28.800    0.000    0.000 
#    0.000    0.000    0.000    0.000    0.000    0.000 
#
# Total GULP energy -247868.673994 kJ/mol
# GULP energy per Si atom -12393.433700 kJ/mol
# Density = 2.845853 g / cm^3
# Si number density = 28.523450 Si / 1000 Ang^3
#
#
#
# Elastic Constant Matrix: (Units=GPa)
#
#
# Indices 1 2 3 4 5 6 
#
# 1 41.2150 -10.8708 22.7112 0.0000 11.9654 0.0000
# 2 -10.8708 213.0806 95.4031 0.0000 17.0629 0.0000
# 3 22.7112 95.4031 297.6084 0.0000 16.6594 0.0000
# 4 0.0000 0.0000 0.0000 71.8436 0.0000 6.9507
# 5 11.9654 17.0629 16.6594 0.0000 30.4731 0.0000
# 6 0.0000 0.0000 0.0000 6.9507 0.0000 37.8315
#
#
#
# Elastic Compliance Matrix: (Units=1/GPa)
#
#
# Indices 1 2 3 4 5 6 
#
# 1 0.030497 0.003840 -0.002855 0.000000 -0.012564 0.000000
# 2 0.003840 0.006106 -0.002037 0.000000 -0.003813 0.000000
# 3 -0.002855 -0.002037 0.004234 0.000000 -0.000053 0.000000
# 4 0.000000 0.000000 0.000000 0.014171 0.000000 -0.002604
# 5 -0.012564 -0.003813 -0.000053 0.000000 0.039913 0.000000
# 6 0.000000 0.000000 0.000000 -0.002604 0.000000 0.026911
#
#
# Mechanical properties :
#
#
# Convention : Reuss Voigt Hill
#
# Bulk Modulus (GPa) = 25.81757 85.15457 55.48607
# Shear Modulus (GPa) = 36.53696 57.67368 47.10532
#
# Velocity S-wave (km/s) = 3.58291 4.50152 4.06822
# Velocity P-wave (km/s) = 5.11736 7.54568 6.44688
#
# Compressibility (1/GPa) = 0.03873332
#
# Stress axis : x y z
#
# Youngs Moduli (GPa) = 32.79045 163.76206 236.18408
#
# Poissons Ratio (x) = -0.62888 0.67431
# Poissons Ratio (y) = -0.12592 0.48113
# Poissons Ratio (z) = 0.09362 0.33360
#
# Static dielectric constant tensor:
#      x y z
#    x 5.206200 0.000000 -0.232960 
#    y 0.000000 4.782600 0.000000 
#    z -0.232960 0.000000 6.579390 
# 
# 
# High freq. dielectric constant tensor:
#      x y z
#    x 2.180450 0.000000 0.004180 
#    y 0.000000 2.140360 0.000000 
#    z 0.004180 0.000000 2.211530 
# 
# From -- ./inp_files/9868.got.cif
#   From: 2010.06.25/outbox.cif.g09.slc.cpg/sg15_5_cif.got.tgz:9868.got - 2010.06.28 07:06:18.
