data_PCOD8133907
_publ_section_title
;
Structure prediction by ZEFSAII (Michael W. Deem and Ramdas Pophale) SiO2 
 PCOD8133907
Probable space group: C 2/C
;
_chemical_formula_sum "Si O2"
_cell_formula_units_Z 40
_cell_length_a 16.836520
_cell_length_b 14.146090
_cell_length_c 9.025499
_cell_angle_alpha 90.000000
_cell_angle_beta 114.897290
_cell_angle_gamma 90.000000
_cell_volume 1949.835019
_symmetry_space_group_name_H-M "C 2/C"
_symmetry_group_IT_number 15
_symmetry_cell_setting 'monoclinic'
loop_
_space_group_symop_operation_xyz
x,y,z
-x,y,1/2-z
-x,-y,-z
x,-y,1/2+z
1/2+x,1/2+y,z
1/2-x,1/2+y,1/2-z
1/2-x,1/2-y,-z
1/2+x,1/2-y,1/2+z
loop_
_atom_site_type_symbol
_atom_site_label
_atom_site_fract_x
_atom_site_fract_y
_atom_site_fract_z
Si Si1 0.032818 0.721991 0.112688
Si Si2 0.312121 0.929811 0.751580
Si Si3 0.920818 0.074083 0.930808
Si Si4 0.197641 0.996866 0.414688
Si Si5 0.548772 0.076122 0.635604
O O1 0.119703 0.656287 0.184069
O O2 0.000000 0.743488 0.250000
O O3 0.046437 0.818975 0.037014
O O4 0.953400 0.672348 0.960526
O O5 0.252307 0.921041 0.557152
O O6 0.354869 0.034580 0.763006
O O7 0.256588 0.933738 0.859375
O O8 0.132262 0.063533 0.762996
O O9 0.000000 0.000000 0.000000
O O10 0.857834 0.063562 0.021375
O O11 0.500000 0.093572 0.750000
O O12 0.500000 0.000000 0.500000
#
# Coordination Sequence:
#
# PCOD8133907 Si02
#       5
#     8   8   8   8   8
#     4  11  22  37  62  88 117 157 195 236 284 348
#     4  10  19  37  60  91 120 142 187 237 299 350
#     4  11  24  43  60  80 113 158 206 240 284 346
#     4  10  22  39  61  81 116 156 185 247 296 335
#     4  10  19  34  59  91 125 154 183 231 288 349
#
# _framework density 20.514555999999999
#
# number of rings (size 3 to 8) (size 9 to 14) (size 15 to 20)
#    0.000    1.600    0.000    7.800    0.000    3.200 
#    0.000    8.000    0.000    0.000    0.000    0.000 
#    0.000    0.000    0.000    0.000    0.000    0.000 
#
# Total GULP energy -247950.478529 kJ/mol
# GULP energy per Si atom -12397.523926 kJ/mol
# Density = 2.046786 g / cm^3
# Si number density = 20.514556 Si / 1000 Ang^3
#
#
#
# Elastic Constant Matrix: (Units=GPa)
#
#
# Indices 1 2 3 4 5 6 
#
# 1 105.4534 46.7024 37.2905 0.0000 -4.0776 0.0000
# 2 46.7024 128.9777 24.1753 0.0000 3.2638 0.0000
# 3 37.2905 24.1753 108.6287 0.0000 -11.6562 0.0000
# 4 0.0000 0.0000 0.0000 14.5452 0.0000 -1.0283
# 5 -4.0776 3.2638 -11.6562 0.0000 35.2021 0.0000
# 6 0.0000 0.0000 0.0000 -1.0283 0.0000 30.0598
#
#
#
# Elastic Compliance Matrix: (Units=1/GPa)
#
#
# Indices 1 2 3 4 5 6 
#
# 1 0.012405 -0.003887 -0.003318 0.000000 0.000699 0.000000
# 2 -0.003887 0.009376 -0.000927 0.000000 -0.001626 0.000000
# 3 -0.003318 -0.000927 0.010906 0.000000 0.003313 0.000000
# 4 0.000000 0.000000 0.000000 0.068918 0.000000 0.002358
# 5 0.000699 -0.001626 0.003313 0.000000 0.029736 0.000000
# 6 0.000000 0.000000 0.000000 0.002358 0.000000 0.033348
#
#
# Mechanical properties :
#
#
# Convention : Reuss Voigt Hill
#
# Bulk Modulus (GPa) = 60.89224 62.15514 61.52369
# Shear Modulus (GPa) = 26.82002 31.62085 29.22044
#
# Velocity S-wave (km/s) = 3.61967 3.93031 3.77818
# Velocity P-wave (km/s) = 6.87141 7.13865 7.00630
#
# Compressibility (1/GPa) = 0.01642245
#
# Stress axis : x y z
#
# Youngs Moduli (GPa) = 80.61294 106.65804 91.68849
#
# Poissons Ratio (x) = 0.41463 0.30425
# Poissons Ratio (y) = 0.31338 0.08496
# Poissons Ratio (z) = 0.26750 0.09883
#
# Static dielectric constant tensor:
#      x y z
#    x 4.077350 0.000000 0.223070 
#    y 0.000000 3.700720 0.000000 
#    z 0.223070 0.000000 4.240370 
# 
# 
# High freq. dielectric constant tensor:
#      x y z
#    x 1.807860 0.000000 -0.005070 
#    y 0.000000 1.776750 0.000000 
#    z -0.005070 0.000000 1.826660 
# 
# From -- ./inp_files/37960.got.cif
#   From: 2010.06.25/outbox.cif.g09.slc.cpg/sg15_19_cif.got.tgz:37960.got - 2010.06.28 07:06:18.
