data_PCOD8133727
_publ_section_title
;
Structure prediction by ZEFSAII (Michael W. Deem and Ramdas Pophale) SiO2 
 PCOD8133727
Probable space group: C 2/C
;
_chemical_formula_sum "Si O2"
_cell_formula_units_Z 60
_cell_length_a 14.238728
_cell_length_b 17.094277
_cell_length_c 25.167724
_cell_angle_alpha 90.000000
_cell_angle_beta 148.455117
_cell_angle_gamma 90.000000
_cell_volume 3204.834857
_symmetry_space_group_name_H-M "C 2/C"
_symmetry_group_IT_number 15
_symmetry_cell_setting 'monoclinic'
loop_
_space_group_symop_operation_xyz
x,y,z
-x,y,1/2-z
-x,-y,-z
x,-y,1/2+z
1/2+x,1/2+y,z
1/2-x,1/2+y,1/2-z
1/2-x,1/2-y,-z
1/2+x,1/2-y,1/2+z
loop_
_atom_site_type_symbol
_atom_site_label
_atom_site_fract_x
_atom_site_fract_y
_atom_site_fract_z
Si Si1 0.799781 0.648341 0.673192
Si Si2 0.537349 0.801165 0.430902
Si Si3 0.234661 0.420245 0.232508
Si Si4 0.396427 0.493854 0.103935
Si Si5 0.344227 0.365027 0.507746
Si Si6 0.009152 0.539274 0.445639
Si Si7 0.320043 0.815322 0.883854
Si Si8 0.500000 0.411715 0.750000
O O1 0.798642 0.585613 0.720111
O O2 0.683131 0.616531 0.567675
O O3 0.700150 0.727001 0.647054
O O4 0.000000 0.668462 0.750000
O O5 0.341756 0.842462 0.334350
O O6 0.519164 0.707517 0.415435
O O7 0.650660 0.841859 0.438598
O O8 0.645989 0.817171 0.536775
O O9 0.448196 0.428195 0.324823
O O10 0.135741 0.496436 0.161681
O O11 0.389673 0.533716 0.157803
O O12 0.429363 0.557487 0.073732
O O13 0.197011 0.459614 0.004837
O O14 0.972252 0.632580 0.429415
O O15 0.000000 0.500000 0.500000
O O16 0.133887 0.858143 0.781199
#
# Coordination Sequence:
#
# PCOD8133727 Si02
#       8
#     8   8   8   8   8   8   8   4
#     4  11  22  36  58  84 114 153 199 240 281 343
#     4  10  19  34  55  86 115 142 186 250 290 325
#     4  12  23  35  56  86 120 152 193 235 284 351
#     4  12  23  35  57  87 119 154 185 233 301 356
#     4  10  20  36  57  80 118 152 186 241 292 330
#     4  12  20  38  57  88 122 143 187 246 303 344
#     4  11  21  33  58  87 118 142 182 250 296 336
#     4  12  18  30  56  90 108 136 186 236 296 344
#
# _framework density 18.721713000000001
#
# number of rings (size 3 to 8) (size 9 to 14) (size 15 to 20)
#    0.000    0.800    8.667    0.000    1.867    0.533 
#    0.000    0.667    0.000    0.000    0.000    0.000 
#    0.000    0.000    0.000    0.000    0.000    0.000 
#
# Total GULP energy -371855.615236 kJ/mol
# GULP energy per Si atom -12395.187175 kJ/mol
# Density = 1.867910 g / cm^3
# Si number density = 18.721713 Si / 1000 Ang^3
#
#
#
# Elastic Constant Matrix: (Units=GPa)
#
#
# Indices 1 2 3 4 5 6 
#
# 1 61.2604 38.0561 30.6164 0.0003 0.3698 -0.0002
# 2 38.0561 84.3586 32.0996 0.0006 6.0421 -0.0002
# 3 30.6164 32.0996 65.5995 0.0031 8.8980 -0.0007
# 4 0.0003 0.0006 0.0031 29.8119 0.0001 0.7176
# 5 0.3698 6.0421 8.8980 0.0001 40.1362 -0.0001
# 6 -0.0002 -0.0002 -0.0007 0.7176 -0.0001 27.0266
#
#
#
# Elastic Compliance Matrix: (Units=1/GPa)
#
#
# Indices 1 2 3 4 5 6 
#
# 1 0.025821 -0.008750 -0.008161 0.000001 0.002889 0.000000
# 2 -0.008750 0.017547 -0.004284 0.000000 -0.001611 0.000000
# 3 -0.008161 -0.004284 0.021704 -0.000002 -0.004092 0.000000
# 4 0.000001 0.000000 -0.000002 0.033565 0.000000 -0.000891
# 5 0.002889 -0.001611 -0.004092 0.000000 0.026038 0.000000
# 6 0.000000 0.000000 0.000000 -0.000891 0.000000 0.037024
#
#
# Mechanical properties :
#
#
# Convention : Reuss Voigt Hill
#
# Bulk Modulus (GPa) = 44.08810 45.86253 44.97531
# Shear Modulus (GPa) = 23.62396 26.75805 25.19100
#
# Velocity S-wave (km/s) = 3.55610 3.78465 3.67215
# Velocity P-wave (km/s) = 6.36093 6.60668 6.48497
#
# Compressibility (1/GPa) = 0.02268186
#
# Stress axis : x y z
#
# Youngs Moduli (GPa) = 38.72888 56.99033 46.07386
#
# Poissons Ratio (x) = 0.49865 0.37602
# Poissons Ratio (y) = 0.33886 0.19738
# Poissons Ratio (z) = 0.31608 0.24415
#
# Static dielectric constant tensor:
#      x y z
#    x 3.242720 0.000000 -0.152360 
#    y 0.000000 3.448440 0.000000 
#    z -0.152360 0.000000 3.578220 
# 
# 
# High freq. dielectric constant tensor:
#      x y z
#    x 1.694780 0.000000 -0.016790 
#    y 0.000000 1.710680 0.000000 
#    z -0.016790 0.000000 1.736910 
# 
# From -- ./inp_files/178703.got.cif
#   From: 2010.06.25/outbox.cif.g09.slc.cpg/sg15_90_cif.got.tgz:178703.got - 2010.06.28 07:06:18.
