data_PCOD8133372
_publ_section_title
;
Structure prediction by ZEFSAII (Michael W. Deem and Ramdas Pophale) SiO2 
 PCOD8133372
Probable space group: C 2/C
;
_chemical_formula_sum "Si O2"
_cell_formula_units_Z 64
_cell_length_a 34.284145
_cell_length_b 5.040569
_cell_length_c 19.288787
_cell_angle_alpha 90.000000
_cell_angle_beta 83.284973
_cell_angle_gamma 90.000000
_cell_volume 3310.459551
_symmetry_space_group_name_H-M "C 2/C"
_symmetry_group_IT_number 15
_symmetry_cell_setting 'monoclinic'
loop_
_space_group_symop_operation_xyz
x,y,z
-x,y,1/2-z
-x,-y,-z
x,-y,1/2+z
1/2+x,1/2+y,z
1/2-x,1/2+y,1/2-z
1/2-x,1/2-y,-z
1/2+x,1/2-y,1/2+z
loop_
_atom_site_type_symbol
_atom_site_label
_atom_site_fract_x
_atom_site_fract_y
_atom_site_fract_z
Si Si1 0.719075 0.808328 0.185056
Si Si2 0.586489 0.610922 0.126728
Si Si3 0.437066 0.092986 0.292252
Si Si4 0.704633 0.731082 0.489219
Si Si5 0.728951 0.809116 0.336865
Si Si6 0.830848 0.263431 0.434718
Si Si7 0.996119 0.125593 0.426081
Si Si8 0.519192 0.877057 0.848345
O O1 0.705914 0.776514 0.268393
O O2 0.753790 0.603737 0.160537
O O3 0.682339 0.752600 0.142944
O O4 0.735029 0.102572 0.166982
O O5 0.586692 0.331682 0.166734
O O6 0.624296 0.664870 0.071199
O O7 0.549760 0.642287 0.082776
O O8 0.586949 0.828980 0.187039
O O9 0.441952 0.107919 0.207917
O O10 0.480357 0.060323 0.313507
O O11 0.750000 0.750000 0.500000
O O12 0.699471 0.764493 0.407240
O O13 0.693170 0.435032 0.512041
O O14 0.676572 0.942484 0.533643
O O15 0.018422 0.409962 0.412379
O O16 0.018885 0.926253 0.371162
O O17 0.000000 0.000000 0.500000
#
# Coordination Sequence:
#
# PCOD8133372 Si02
#       8
#     8   8   8   8   8   8   8   8
#     4  10  19  34  53  79 102 136 174 225 275 325
#     4  10  21  34  53  79 109 142 173 222 274 325
#     4   9  17  33  53  78 104 127 176 220 266 309
#     4  12  21  35  56  84 105 140 189 235 268 325
#     4  10  20  33  54  78 105 131 178 229 271 314
#     4  12  22  35  57  80 110 144 184 227 281 333
#     4  10  19  33  54  80 108 144 181 216 262 324
#     4   9  17  30  55  81  98 131 175 227 259 301
#
# _framework density 19.332664000000001
#
# number of rings (size 3 to 8) (size 9 to 14) (size 15 to 20)
#    0.000    1.750    2.500    3.000    0.000    3.000 
#    0.000    0.000    8.250    0.000    0.000    0.000 
#    0.000    0.000    0.000    0.000    0.000    0.000 
#
# Total GULP energy -396684.431747 kJ/mol
# GULP energy per Si atom -12396.388492 kJ/mol
# Density = 1.928866 g / cm^3
# Si number density = 19.332664 Si / 1000 Ang^3
#
#
#
# Elastic Constant Matrix: (Units=GPa)
#
#
# Indices 1 2 3 4 5 6 
#
# 1 53.8488 18.8137 37.1879 0.0000 -11.3187 0.0000
# 2 18.8137 80.5566 7.8334 0.0000 -1.8670 0.0000
# 3 37.1879 7.8334 113.7963 0.0000 -4.2740 0.0000
# 4 0.0000 0.0000 0.0000 24.7708 0.0000 -5.5135
# 5 -11.3187 -1.8670 -4.2740 0.0000 21.5128 0.0000
# 6 0.0000 0.0000 0.0000 -5.5135 0.0000 19.1790
#
#
#
# Elastic Compliance Matrix: (Units=1/GPa)
#
#
# Indices 1 2 3 4 5 6 
#
# 1 0.029352 -0.005702 -0.008703 0.000000 0.013219 0.000000
# 2 -0.005702 0.013623 0.000864 0.000000 -0.001646 0.000000
# 3 -0.008703 0.000864 0.011489 0.000000 -0.002221 0.000000
# 4 0.000000 0.000000 0.000000 0.043130 0.000000 0.012399
# 5 0.013219 -0.001646 -0.002221 0.000000 0.052855 0.000000
# 6 0.000000 0.000000 0.000000 0.012399 0.000000 0.055705
#
#
# Mechanical properties :
#
#
# Convention : Reuss Voigt Hill
#
# Bulk Modulus (GPa) = 36.52182 41.76352 39.14267
# Shear Modulus (GPa) = 20.63027 25.38364 23.00695
#
# Velocity S-wave (km/s) = 3.27022 3.62745 3.45346
# Velocity P-wave (km/s) = 5.76120 6.26051 6.01604
#
# Compressibility (1/GPa) = 0.02738089
#
# Stress axis : x y z
#
# Youngs Moduli (GPa) = 34.06973 73.40401 87.04142
#
# Poissons Ratio (x) = 0.41857 0.75751
# Poissons Ratio (y) = 0.19428 -0.07519
# Poissons Ratio (z) = 0.29651 -0.06341
#
# Static dielectric constant tensor:
#      x y z
#    x 3.010160 0.000000 -0.156480 
#    y 0.000000 4.119320 0.000000 
#    z -0.156480 0.000000 3.770880 
# 
# 
# High freq. dielectric constant tensor:
#      x y z
#    x 1.700180 0.000000 -0.016920 
#    y 0.000000 1.776190 0.000000 
#    z -0.016920 0.000000 1.757280 
# 
# From -- ./inp_files/223893.got.cif
#   From: 2010.06.25/outbox.cif.g09.slc.cpg/sg15_112_cif.got.tgz:223893.got - 2010.06.28 07:06:18.
