data_PCOD8133391
_publ_section_title
;
Structure prediction by ZEFSAII (Michael W. Deem and Ramdas Pophale) SiO2 
 PCOD8133391
Probable space group: C 2/C
;
_chemical_formula_sum "Si O2"
_cell_formula_units_Z 48
_cell_length_a 18.331272
_cell_length_b 20.989018
_cell_length_c 9.108241
_cell_angle_alpha 90.000000
_cell_angle_beta 43.279017
_cell_angle_gamma 90.000000
_cell_volume 2402.478434
_symmetry_space_group_name_H-M "C 2/C"
_symmetry_group_IT_number 15
_symmetry_cell_setting 'monoclinic'
loop_
_space_group_symop_operation_xyz
x,y,z
-x,y,1/2-z
-x,-y,-z
x,-y,1/2+z
1/2+x,1/2+y,z
1/2-x,1/2+y,1/2-z
1/2-x,1/2-y,-z
1/2+x,1/2-y,1/2+z
loop_
_atom_site_type_symbol
_atom_site_label
_atom_site_fract_x
_atom_site_fract_y
_atom_site_fract_z
Si Si1 0.122139 0.221126 0.108270
Si Si2 0.918616 0.108933 0.130957
Si Si3 0.625924 0.861563 0.072380
Si Si4 0.666367 0.627821 0.799070
Si Si5 0.262936 0.544517 0.556766
Si Si6 0.262617 0.400172 0.609292
O O1 0.132445 0.175230 0.234011
O O2 0.166941 0.292269 0.074274
O O3 0.000000 0.230282 0.250000
O O4 0.178170 0.190247 0.882933
O O5 0.873464 0.053528 0.304470
O O6 0.875052 0.099033 0.030910
O O7 0.044520 0.108089 0.949481
O O8 0.500000 0.866776 0.250000
O O9 0.669056 0.916598 0.114305
O O10 0.669346 0.869725 0.843115
O O11 0.723352 0.640805 0.560104
O O12 0.722786 0.568716 0.797675
O O13 0.230129 0.471324 0.610386
#
# Coordination Sequence:
#
# PCOD8133391 Si02
#       6
#     8   8   8   8   8   8
#     4   8  17  36  58  79 102 140 186 212 260 333
#     4   9  19  34  56  81 113 147 166 205 270 336
#     4  10  22  41  59  72 101 148 189 229 266 303
#     4  10  19  33  54  85 116 135 168 223 267 317
#     4  10  21  35  53  80 109 144 185 210 256 334
#     4  11  22  33  52  84 110 138 182 219 261 319
#
# _framework density 19.979368000000001
#
# number of rings (size 3 to 8) (size 9 to 14) (size 15 to 20)
#    0.000    2.333    0.000    4.000    0.000   11.333 
#    0.000    0.833    0.000    4.000    0.000    0.000 
#    0.000    0.000    0.000    0.000    0.000    0.000 
#
# Total GULP energy -297557.245023 kJ/mol
# GULP energy per Si atom -12398.218543 kJ/mol
# Density = 1.993389 g / cm^3
# Si number density = 19.979368 Si / 1000 Ang^3
#
#
#
# Elastic Constant Matrix: (Units=GPa)
#
#
# Indices 1 2 3 4 5 6 
#
# 1 62.4795 20.4500 33.6055 0.0000 17.9750 0.0000
# 2 20.4500 123.0493 28.5556 0.0000 6.8709 0.0000
# 3 33.6055 28.5556 114.4110 0.0000 17.2178 0.0000
# 4 0.0000 0.0000 0.0000 12.7834 0.0000 2.5126
# 5 17.9750 6.8709 17.2178 0.0000 37.0144 0.0000
# 6 0.0000 0.0000 0.0000 2.5126 0.0000 25.8430
#
#
#
# Elastic Compliance Matrix: (Units=1/GPa)
#
#
# Indices 1 2 3 4 5 6 
#
# 1 0.021415 -0.002053 -0.004591 0.000000 -0.007883 0.000000
# 2 -0.002053 0.008838 -0.001619 0.000000 0.000110 0.000000
# 3 -0.004591 -0.001619 0.010874 0.000000 -0.002528 0.000000
# 4 0.000000 0.000000 0.000000 0.079750 0.000000 -0.007754
# 5 -0.007883 0.000110 -0.002528 0.000000 0.032000 0.000000
# 6 0.000000 0.000000 0.000000 -0.007754 0.000000 0.039449
#
#
# Mechanical properties :
#
#
# Convention : Reuss Voigt Hill
#
# Bulk Modulus (GPa) = 40.65336 51.68466 46.16901
# Shear Modulus (GPa) = 23.03594 29.61674 26.32634
#
# Velocity S-wave (km/s) = 3.39925 3.85433 3.63392
# Velocity P-wave (km/s) = 5.98317 6.76262 6.38480
#
# Compressibility (1/GPa) = 0.02459821
#
# Stress axis : x y z
#
# Youngs Moduli (GPa) = 46.69718 113.15156 91.96641
#
# Poissons Ratio (x) = 0.23234 0.42224
# Poissons Ratio (y) = 0.09588 0.14891
# Poissons Ratio (z) = 0.21440 0.18321
#
# Static dielectric constant tensor:
#      x y z
#    x 3.573970 0.000000 0.086270 
#    y 0.000000 3.771700 0.000000 
#    z 0.086270 0.000000 3.670300 
# 
# 
# High freq. dielectric constant tensor:
#      x y z
#    x 1.782420 0.000000 0.006530 
#    y 0.000000 1.776140 0.000000 
#    z 0.006530 0.000000 1.766570 
# 
# From -- ./inp_files/50042.got.cif
#   From: 2010.06.25/outbox.cif.g09.slc.cpg/sg15_26_cif.got.tgz:50042.got - 2010.06.28 07:06:18.
