data_PCOD8133998
_publ_section_title
;
Structure prediction by ZEFSAII (Michael W. Deem and Ramdas Pophale) SiO2 
 PCOD8133998
Probable space group: C 2/C
;
_chemical_formula_sum "Si O2"
_cell_formula_units_Z 56
_cell_length_a 23.312194
_cell_length_b 14.843060
_cell_length_c 12.611887
_cell_angle_alpha 90.000000
_cell_angle_beta 146.273365
_cell_angle_gamma 90.000000
_cell_volume 2423.039308
_symmetry_space_group_name_H-M "C 2/C"
_symmetry_group_IT_number 15
_symmetry_cell_setting 'monoclinic'
loop_
_space_group_symop_operation_xyz
x,y,z
-x,y,1/2-z
-x,-y,-z
x,-y,1/2+z
1/2+x,1/2+y,z
1/2-x,1/2+y,1/2-z
1/2-x,1/2-y,-z
1/2+x,1/2-y,1/2+z
loop_
_atom_site_type_symbol
_atom_site_label
_atom_site_fract_x
_atom_site_fract_y
_atom_site_fract_z
Si Si1 0.390068 0.056055 0.066951
Si Si2 0.307354 0.455760 0.759955
Si Si3 0.702722 0.835204 0.253545
Si Si4 0.900905 0.271825 0.733196
Si Si5 0.080227 0.895592 0.952170
Si Si6 0.763464 0.181024 0.363967
Si Si7 0.066714 0.204768 0.131159
O O1 0.500000 0.003572 0.250000
O O2 0.406560 0.143246 0.165113
O O3 0.362385 0.084416 0.902675
O O4 0.295801 0.991542 0.959677
O O5 0.276180 0.415654 0.827355
O O6 0.365934 0.385946 0.775165
O O7 0.384103 0.539855 0.897815
O O8 0.819621 0.864608 0.462453
O O9 0.713251 0.756126 0.185431
O O10 0.643276 0.792059 0.264889
O O11 0.838471 0.190537 0.581362
O O12 0.851528 0.305063 0.768123
O O13 0.011550 0.229232 0.933480
O O14 0.000000 0.945279 0.750000
O O15 0.017432 0.809979 0.905524
#
# Coordination Sequence:
#
# PCOD8133998 Si02
#       7
#     8   8   8   8   8   8   8
#     4  10  19  37  60  93 125 169 205 265 318 365
#     4  10  24  37  59  93 140 151 203 263 329 380
#     4   9  19  37  59  87 119 158 222 253 293 379
#     4  10  19  34  70  90 114 167 228 258 303 367
#     4  11  24  39  58  88 131 167 196 262 334 379
#     4   9  19  35  58  93 120 157 208 267 301 373
#     4  11  21  39  65  91 118 167 218 267 302 377
#
# _framework density 23.111470000000001
#
# number of rings (size 3 to 8) (size 9 to 14) (size 15 to 20)
#    0.000    2.000    2.857    0.429    4.000    1.714 
#    0.000    3.571    3.143    0.000    0.000    0.000 
#    0.000    0.000    0.000    0.000    0.000    0.000 
#
# Total GULP energy -346939.819832 kJ/mol
# GULP energy per Si atom -12390.707851 kJ/mol
# Density = 2.305887 g / cm^3
# Si number density = 23.111470 Si / 1000 Ang^3
#
#
#
# Elastic Constant Matrix: (Units=GPa)
#
#
# Indices 1 2 3 4 5 6 
#
# 1 56.9838 3.8163 16.2736 0.0000 15.8583 0.0000
# 2 3.8163 51.5201 31.2213 0.0000 11.4807 0.0000
# 3 16.2736 31.2213 156.4404 0.0000 33.5364 0.0000
# 4 0.0000 0.0000 0.0000 27.5313 0.0000 8.2005
# 5 15.8583 11.4807 33.5364 0.0000 26.8026 0.0000
# 6 0.0000 0.0000 0.0000 8.2005 0.0000 26.9372
#
#
#
# Elastic Compliance Matrix: (Units=1/GPa)
#
#
# Indices 1 2 3 4 5 6 
#
# 1 0.021118 0.001173 0.000486 0.000000 -0.013605 0.000000
# 2 0.001173 0.022730 -0.003310 0.000000 -0.006289 0.000000
# 3 0.000486 -0.003310 0.009238 0.000000 -0.010428 0.000000
# 4 0.000000 0.000000 0.000000 0.039944 0.000000 -0.012160
# 5 -0.013605 -0.006289 -0.010428 0.000000 0.061101 0.000000
# 6 0.000000 0.000000 0.000000 -0.012160 0.000000 0.040825
#
#
# Mechanical properties :
#
#
# Convention : Reuss Voigt Hill
#
# Bulk Modulus (GPa) = 20.08724 40.84073 30.46398
# Shear Modulus (GPa) = 23.27160 30.49643 26.88402
#
# Velocity S-wave (km/s) = 3.17666 3.63648 3.41432
# Velocity P-wave (km/s) = 4.70799 5.94488 5.36222
#
# Compressibility (1/GPa) = 0.04978286
#
# Stress axis : x y z
#
# Youngs Moduli (GPa) = 47.35349 43.99394 108.25051
#
# Poissons Ratio (x) = -0.05161 -0.05257
# Poissons Ratio (y) = -0.05555 0.35835
# Poissons Ratio (z) = -0.02300 0.14563
#
# Static dielectric constant tensor:
#      x y z
#    x 4.335790 0.000000 0.447500 
#    y 0.000000 4.078770 0.000000 
#    z 0.447500 0.000000 4.461680 
# 
# 
# High freq. dielectric constant tensor:
#      x y z
#    x 1.893560 0.000000 0.027420 
#    y 0.000000 1.885890 0.000000 
#    z 0.027420 0.000000 1.923420 
# 
# From -- ./inp_files/178435.got.cif
#   From: 2010.06.25/outbox.cif.g09.slc.cpg/sg15_90_cif.got.tgz:178435.got - 2010.06.28 07:06:18.
