data_PCOD8133453
_publ_section_title
;
Structure prediction by ZEFSAII (Michael W. Deem and Ramdas Pophale) SiO2 
 PCOD8133453
Probable space group: C 2/C
;
_chemical_formula_sum "Si O2"
_cell_formula_units_Z 64
_cell_length_a 11.928758
_cell_length_b 28.130973
_cell_length_c 15.881340
_cell_angle_alpha 90.000000
_cell_angle_beta 144.781201
_cell_angle_gamma 90.000000
_cell_volume 3073.387876
_symmetry_space_group_name_H-M "C 2/C"
_symmetry_group_IT_number 15
_symmetry_cell_setting 'monoclinic'
loop_
_space_group_symop_operation_xyz
x,y,z
-x,y,1/2-z
-x,-y,-z
x,-y,1/2+z
1/2+x,1/2+y,z
1/2-x,1/2+y,1/2-z
1/2-x,1/2-y,-z
1/2+x,1/2-y,1/2+z
loop_
_atom_site_type_symbol
_atom_site_label
_atom_site_fract_x
_atom_site_fract_y
_atom_site_fract_z
Si Si1 0.271000 0.536712 0.602501
Si Si2 0.632396 0.188379 0.899831
Si Si3 0.269713 0.814584 0.752587
Si Si4 0.314086 0.526224 0.977308
Si Si5 0.257534 0.496509 0.769413
Si Si6 0.447367 0.750943 0.002993
Si Si7 0.447627 0.619332 0.130568
Si Si8 0.969626 0.593059 0.327599
O O1 0.500000 0.546168 0.750000
O O2 0.212008 0.494364 0.499572
O O3 0.178851 0.522338 0.636673
O O4 0.166468 0.584314 0.502946
O O5 0.500000 0.160802 0.750000
O O6 0.754476 0.224656 0.916705
O O7 0.496563 0.213957 0.885676
O O8 0.764666 0.153132 0.034069
O O9 0.401625 0.779424 0.889557
O O10 0.412540 0.851255 0.792721
O O11 0.133887 0.784074 0.604648
O O12 0.127874 0.847657 0.719050
O O13 0.511204 0.495821 0.090523
O O14 0.379700 0.580941 0.021423
O O15 0.184084 0.520474 0.812513
O O16 0.196468 0.440810 0.732683
O O17 0.500000 0.592523 0.250000
O O18 0.000000 0.577435 0.250000
#
# Coordination Sequence:
#
# PCOD8133453 Si02
#       8
#     8   8   8   8   8   8   8   8
#     4  10  22  40  66  92 126 169 211 264 315 367
#     4  10  19  33  55  87 130 161 187 242 317 392
#     4  11  23  39  64  90 119 163 203 261 313 386
#     4  10  20  37  61  94 132 166 206 251 306 371
#     4  10  20  39  63  89 129 172 207 255 310 363
#     4  10  20  37  59  87 123 156 198 251 327 377
#     4  11  20  34  59  95 129 164 204 242 304 385
#     4  12  24  44  64  91 120 167 225 261 309 370
#
# _framework density 20.823926
#
# number of rings (size 3 to 8) (size 9 to 14) (size 15 to 20)
#    0.000    1.500    5.000    1.500    0.000    0.000 
#    4.500    1.875    0.000    0.000    0.000    0.000 
#    0.000    0.000    0.000    0.000    0.000    0.000 
#
# Total GULP energy -396489.791456 kJ/mol
# GULP energy per Si atom -12390.305983 kJ/mol
# Density = 2.077653 g / cm^3
# Si number density = 20.823926 Si / 1000 Ang^3
#
#
#
# Elastic Constant Matrix: (Units=GPa)
#
#
# Indices 1 2 3 4 5 6 
#
# 1 64.8541 29.5556 40.2676 0.0000 -19.8626 0.0000
# 2 29.5556 98.9124 44.3809 0.0000 -9.0912 0.0000
# 3 40.2676 44.3809 96.2624 0.0000 -22.2392 0.0000
# 4 0.0000 0.0000 0.0000 40.6316 0.0000 1.2540
# 5 -19.8626 -9.0912 -22.2392 0.0000 26.9180 0.0000
# 6 0.0000 0.0000 0.0000 1.2540 0.0000 26.5097
#
#
#
# Elastic Compliance Matrix: (Units=1/GPa)
#
#
# Indices 1 2 3 4 5 6 
#
# 1 0.024279 -0.003579 -0.005743 0.000000 0.011962 0.000000
# 2 -0.003579 0.013284 -0.005192 0.000000 -0.002444 0.000000
# 3 -0.005743 -0.005192 0.017056 0.000000 0.008100 0.000000
# 4 0.000000 0.000000 0.000000 0.024647 0.000000 -0.001166
# 5 0.011962 -0.002444 0.008100 0.000000 0.051843 0.000000
# 6 0.000000 0.000000 0.000000 -0.001166 0.000000 0.037777
#
#
# Mechanical properties :
#
#
# Convention : Reuss Voigt Hill
#
# Bulk Modulus (GPa) = 39.07454 54.27081 46.67268
# Shear Modulus (GPa) = 24.21944 28.53350 26.37647
#
# Velocity S-wave (km/s) = 3.41406 3.70567 3.56285
# Velocity P-wave (km/s) = 5.86055 6.66541 6.27590
#
# Compressibility (1/GPa) = 0.02559211
#
# Stress axis : x y z
#
# Youngs Moduli (GPa) = 41.18708 75.27653 58.63143
#
# Poissons Ratio (x) = 0.26939 0.33671
# Poissons Ratio (y) = 0.14739 0.30443
# Poissons Ratio (z) = 0.23653 0.39085
#
# Static dielectric constant tensor:
#      x y z
#    x 3.622970 0.000000 -0.122050 
#    y 0.000000 3.568550 0.000000 
#    z -0.122050 0.000000 3.904050 
# 
# 
# High freq. dielectric constant tensor:
#      x y z
#    x 1.786900 0.000000 -0.007270 
#    y 0.000000 1.792290 0.000000 
#    z -0.007270 0.000000 1.831010 
# 
# From -- ./inp_files/148780.got.cif
#   From: 2010.06.25/outbox.cif.g09.slc.cpg/sg15_75_cif.got.tgz:148780.got - 2010.06.28 07:06:18.
