data_PCOD8133716
_publ_section_title
;
Structure prediction by ZEFSAII (Michael W. Deem and Ramdas Pophale) SiO2 
 PCOD8133716
Probable space group: C 2/C
;
_chemical_formula_sum "Si O2"
_cell_formula_units_Z 56
_cell_length_a 22.714614
_cell_length_b 19.596917
_cell_length_c 9.143004
_cell_angle_alpha 90.000000
_cell_angle_beta 132.908357
_cell_angle_gamma 90.000000
_cell_volume 2980.960452
_symmetry_space_group_name_H-M "C 2/C"
_symmetry_group_IT_number 15
_symmetry_cell_setting 'monoclinic'
loop_
_space_group_symop_operation_xyz
x,y,z
-x,y,1/2-z
-x,-y,-z
x,-y,1/2+z
1/2+x,1/2+y,z
1/2-x,1/2+y,1/2-z
1/2-x,1/2-y,-z
1/2+x,1/2-y,1/2+z
loop_
_atom_site_type_symbol
_atom_site_label
_atom_site_fract_x
_atom_site_fract_y
_atom_site_fract_z
Si Si1 0.925359 0.119672 0.045624
Si Si2 0.588937 0.772979 0.386108
Si Si3 0.748220 0.430328 0.222455
Si Si4 0.755248 0.706758 0.157443
Si Si5 0.189465 0.289065 0.292921
Si Si6 0.771946 0.056537 0.484484
Si Si7 0.453416 0.446883 0.319355
O O1 0.915625 0.192326 0.102885
O O2 0.000000 0.080266 0.250000
O O3 0.847633 0.075282 0.946622
O O4 0.943450 0.122466 0.901607
O O5 0.500000 0.806095 0.250000
O O6 0.655505 0.796502 0.618065
O O7 0.608169 0.791382 0.249489
O O8 0.787806 0.366118 0.209587
O O9 0.772028 0.435441 0.433354
O O10 0.776853 0.499572 0.190231
O O11 0.688163 0.743498 0.144795
O O12 0.750000 0.750000 0.000000
O O13 0.728283 0.629350 0.094444
O O14 0.250000 0.250000 0.500000
O O15 0.862706 0.027703 0.639930
O O16 0.500000 0.428592 0.250000
O O17 0.500000 0.500000 0.500000
#
# Coordination Sequence:
#
# PCOD8133716 Si02
#       7
#     8   8   8   8   8   8   8
#     4  10  19  34  55  80 121 155 199 238 285 355
#     4  10  22  39  62  89 116 163 202 251 307 366
#     4  11  21  37  53  92 113 154 205 244 305 360
#     4  11  20  41  60  90 125 158 204 259 297 355
#     4  10  20  38  64  83 119 161 201 251 304 365
#     4  11  24  33  59  85 120 159 202 250 300 367
#     4  11  21  36  48  79 125 168 191 236 282 355
#
# _framework density 18.785890999999999
#
# number of rings (size 3 to 8) (size 9 to 14) (size 15 to 20)
#    0.000    1.429    4.286    3.857    4.000    2.286 
#    0.000    0.714    0.000    0.857    0.000    0.000 
#    0.000    0.000    0.000    0.000    0.000    0.000 
#
# Total GULP energy -346865.964382 kJ/mol
# GULP energy per Si atom -12388.070156 kJ/mol
# Density = 1.874313 g / cm^3
# Si number density = 18.785891 Si / 1000 Ang^3
#
#
#
# Elastic Constant Matrix: (Units=GPa)
#
#
# Indices 1 2 3 4 5 6 
#
# 1 145.3365 51.7175 50.7460 0.0000 -30.4358 0.0000
# 2 51.7175 132.8883 35.2832 0.0000 -24.4997 0.0000
# 3 50.7460 35.2832 82.4303 0.0000 -15.1320 0.0000
# 4 0.0000 0.0000 0.0000 27.9315 0.0000 -9.2503
# 5 -30.4358 -24.4997 -15.1320 0.0000 38.9504 0.0000
# 6 0.0000 0.0000 0.0000 -9.2503 0.0000 18.3579
#
#
#
# Elastic Compliance Matrix: (Units=1/GPa)
#
#
# Indices 1 2 3 4 5 6 
#
# 1 0.010175 -0.001821 -0.004560 0.000000 0.005034 0.000000
# 2 -0.001821 0.009517 -0.002277 0.000000 0.003678 0.000000
# 3 -0.004560 -0.002277 0.016148 0.000000 0.001278 0.000000
# 4 0.000000 0.000000 0.000000 0.042973 0.000000 0.021653
# 5 0.005034 0.003678 0.001278 0.000000 0.032417 0.000000
# 6 0.000000 0.000000 0.000000 0.021653 0.000000 0.065383
#
#
# Mechanical properties :
#
#
# Convention : Reuss Voigt Hill
#
# Bulk Modulus (GPa) = 53.98832 70.68316 62.33574
# Shear Modulus (GPa) = 24.98693 31.90851 28.44772
#
# Velocity S-wave (km/s) = 3.65100 4.12580 3.89564
# Velocity P-wave (km/s) = 6.82453 7.77198 7.31361
#
# Compressibility (1/GPa) = 0.01852253
#
# Stress axis : x y z
#
# Youngs Moduli (GPa) = 98.27933 105.07982 61.92624
#
# Poissons Ratio (x) = 0.19136 0.28241
# Poissons Ratio (y) = 0.17897 0.14101
# Poissons Ratio (z) = 0.44820 0.23928
#
# Static dielectric constant tensor:
#      x y z
#    x 4.441830 0.000000 -0.236260 
#    y 0.000000 3.354740 0.000000 
#    z -0.236260 0.000000 3.833240 
# 
# 
# High freq. dielectric constant tensor:
#      x y z
#    x 1.725590 0.000000 -0.029280 
#    y 0.000000 1.722240 0.000000 
#    z -0.029280 0.000000 1.721440 
# 
# From -- ./inp_files/63291.got.cif
#   From: 2010.06.25/outbox.cif.g09.slc.cpg/sg15_32_cif.got.tgz:63291.got - 2010.06.28 07:06:18.
