data_PCOD8133288
_publ_section_title
;
Structure prediction by ZEFSAII (Michael W. Deem and Ramdas Pophale) SiO2 
 PCOD8133288
Probable space group: C 2/C
;
_chemical_formula_sum "Si O2"
_cell_formula_units_Z 48
_cell_length_a 24.895241
_cell_length_b 5.272439
_cell_length_c 27.647375
_cell_angle_alpha 90.000000
_cell_angle_beta 133.240730
_cell_angle_gamma 90.000000
_cell_volume 2643.629067
_symmetry_space_group_name_H-M "C 2/C"
_symmetry_group_IT_number 15
_symmetry_cell_setting 'monoclinic'
loop_
_space_group_symop_operation_xyz
x,y,z
-x,y,1/2-z
-x,-y,-z
x,-y,1/2+z
1/2+x,1/2+y,z
1/2-x,1/2+y,1/2-z
1/2-x,1/2-y,-z
1/2+x,1/2-y,1/2+z
loop_
_atom_site_type_symbol
_atom_site_label
_atom_site_fract_x
_atom_site_fract_y
_atom_site_fract_z
Si Si1 0.332254 0.206128 0.489329
Si Si2 0.940276 0.726076 0.914803
Si Si3 0.025171 0.413629 0.375434
Si Si4 0.303222 0.557176 0.557543
Si Si5 0.460893 0.599147 0.674958
Si Si6 0.405242 0.273616 0.437530
O O1 0.399944 0.021773 0.547344
O O2 0.339043 0.415346 0.534556
O O3 0.346993 0.315629 0.445103
O O4 0.248926 0.099153 0.438009
O O5 0.888864 0.493059 0.900818
O O6 0.960383 0.672674 0.871622
O O7 0.895945 0.991023 0.894458
O O8 0.012313 0.756115 0.991879
O O9 0.004080 0.679788 0.336993
O O10 0.031561 0.185377 0.340950
O O11 0.250000 0.750000 0.500000
O O12 0.373609 0.666793 0.629772
O O13 0.500000 0.610295 0.750000
#
# Coordination Sequence:
#
# PCOD8133288 Si02
#       6
#     8   8   8   8   8   8
#     4   9  19  30  49  76 106 138 167 210 260 311
#     4   9  17  28  45  70 101 134 163 202 255 300
#     4  10  19  34  52  73 106 140 167 212 261 305
#     4  10  19  33  51  73 107 139 169 209 265 311
#     4  11  22  35  53  77 105 135 177 214 255 313
#     4   9  17  27  44  72 103 129 165 205 248 301
#
# _framework density 18.156856999999999
#
# number of rings (size 3 to 8) (size 9 to 14) (size 15 to 20)
#    0.000    2.333    1.667    1.500    2.333    4.000 
#    0.000    0.000    0.000    0.000    0.000    4.667 
#    0.000    0.000    0.000    0.000    0.000    0.000 
#
# Total GULP energy -297317.243845 kJ/mol
# GULP energy per Si atom -12388.218494 kJ/mol
# Density = 1.811553 g / cm^3
# Si number density = 18.156857 Si / 1000 Ang^3
#
#
#
# Elastic Constant Matrix: (Units=GPa)
#
#
# Indices 1 2 3 4 5 6 
#
# 1 119.9658 37.9251 40.4164 -0.0204 -14.1993 0.0173
# 2 37.9251 107.8393 23.1142 -0.0175 -5.0618 0.0291
# 3 40.4164 23.1142 76.4376 0.0167 0.5363 -0.0083
# 4 -0.0204 -0.0175 0.0167 17.4234 -0.0187 1.4487
# 5 -14.1993 -5.0618 0.5363 -0.0187 16.0913 -0.0056
# 6 0.0173 0.0291 -0.0083 1.4487 -0.0056 -2.2569
#
#
#
# Elastic Compliance Matrix: (Units=1/GPa)
#
#
# Indices 1 2 3 4 5 6 
#
# 1 0.012329 -0.002611 -0.005801 0.000022 0.010251 0.000071
# 2 -0.002611 0.010638 -0.001844 0.000000 0.001104 0.000122
# 3 -0.005801 -0.001844 0.016752 -0.000021 -0.006258 -0.000128
# 4 0.000022 0.000000 -0.000021 0.054486 0.000096 0.034975
# 5 0.010251 0.001104 -0.006258 0.000096 0.071747 -0.000001
# 6 0.000071 0.000122 -0.000128 0.034975 -0.000001 -0.420637
#
#
# Mechanical properties :
#
#
# Convention : Reuss Voigt Hill
#
# Bulk Modulus (GPa) = 52.06751 56.35046 54.20899
# Shear Modulus (GPa) = -21.95202 19.77070 -1.09066
#
# Velocity S-wave (km/s) = -3.48087 3.30340 -0.77588
# Velocity P-wave (km/s) = 3.54732 6.75668 5.39612
#
# Compressibility (1/GPa) = 0.01920583
#
# Stress axis : x y z
#
# Youngs Moduli (GPa) = 81.10946 93.99899 59.69614
#
# Poissons Ratio (x) = 0.24546 0.34631
# Poissons Ratio (y) = 0.21180 0.11008
# Poissons Ratio (z) = 0.47054 0.17333
#
# Static dielectric constant tensor:
#      x y z
#    x 1.644960 -0.004770 -0.620840 
#    y -0.004770 2.400710 -0.002290 
#    z -0.620840 -0.002290 2.681230 
# 
# 
# High freq. dielectric constant tensor:
#      x y z
#    x 1.704230 -0.000030 -0.017000 
#    y -0.000030 1.714080 0.000010 
#    z -0.017000 0.000010 1.641310 
# 
# From -- ./inp_files/253823.got.cif
#   From: 2010.06.25/outbox.cif.g09.slc.cpg/sg15_127_cif.got.tgz:253823.got - 2010.06.28 07:06:18.
