data_PCOD8133733
_publ_section_title
;
Structure prediction by ZEFSAII (Michael W. Deem and Ramdas Pophale) SiO2 
 PCOD8133733
Probable space group: C 2/C
;
_chemical_formula_sum "Si O2"
_cell_formula_units_Z 56
_cell_length_a 31.489850
_cell_length_b 10.114170
_cell_length_c 8.514407
_cell_angle_alpha 90.000000
_cell_angle_beta 67.418104
_cell_angle_gamma 90.000000
_cell_volume 2503.876738
_symmetry_space_group_name_H-M "C 2/C"
_symmetry_group_IT_number 15
_symmetry_cell_setting 'monoclinic'
loop_
_space_group_symop_operation_xyz
x,y,z
-x,y,1/2-z
-x,-y,-z
x,-y,1/2+z
1/2+x,1/2+y,z
1/2-x,1/2+y,1/2-z
1/2-x,1/2-y,-z
1/2+x,1/2-y,1/2+z
loop_
_atom_site_type_symbol
_atom_site_label
_atom_site_fract_x
_atom_site_fract_y
_atom_site_fract_z
Si Si1 0.140653 0.850600 0.155990
Si Si2 0.051453 0.815809 0.698664
Si Si3 0.911071 0.950821 0.559896
Si Si4 0.764161 0.938677 0.483793
Si Si5 0.866017 0.323401 0.553990
Si Si6 0.303164 0.065370 0.681339
Si Si7 0.198527 0.207433 0.096267
O O1 0.195252 0.834560 0.038772
O O2 0.127774 0.718719 0.272810
O O3 0.127510 0.980082 0.277324
O O4 0.113260 0.853921 0.031030
O O5 0.058127 0.859414 0.870246
O O6 0.085493 0.694263 0.605363
O O7 0.000000 0.762134 0.750000
O O8 0.058270 0.940326 0.572249
O O9 0.735901 0.980574 0.676132
O O10 0.725194 0.879695 0.425961
O O11 0.796065 0.055794 0.362887
O O12 0.846036 0.472271 0.569283
O O13 0.830384 0.219813 0.523763
O O14 0.323837 0.191085 0.745528
O O15 0.250000 0.250000 0.000000
#
# Coordination Sequence:
#
# PCOD8133733 Si02
#       7
#     8   8   8   8   8   8   8
#     4  10  19  34  55  90 123 156 191 240 293 350
#     4  10  20  36  62  88 119 157 195 245 303 356
#     4   9  18  34  56  90 124 155 189 238 298 360
#     4  11  21  35  57  78 116 157 203 236 285 350
#     4  11  22  39  55  81 121 153 197 248 295 358
#     4  11  22  37  53  81 109 162 198 245 289 343
#     4  10  19  38  56  74 114 153 194 233 289 342
#
# _framework density 22.365319
#
# number of rings (size 3 to 8) (size 9 to 14) (size 15 to 20)
#    0.000    1.714    2.857    5.571    0.000    0.571 
#    5.143    0.000    0.000    0.857    0.000    0.000 
#    0.000    0.000    0.000    0.000    0.000    0.000 
#
# Total GULP energy -346935.025066 kJ/mol
# GULP energy per Si atom -12390.536609 kJ/mol
# Density = 2.231441 g / cm^3
# Si number density = 22.365319 Si / 1000 Ang^3
#
#
#
# Elastic Constant Matrix: (Units=GPa)
#
#
# Indices 1 2 3 4 5 6 
#
# 1 144.4694 26.6058 60.0062 0.0000 -3.2640 0.0000
# 2 26.6058 53.3541 17.9262 0.0000 -1.6369 0.0000
# 3 60.0062 17.9262 72.4857 0.0000 5.2541 0.0000
# 4 0.0000 0.0000 0.0000 34.7320 0.0000 -7.4800
# 5 -3.2640 -1.6369 5.2541 0.0000 40.0451 0.0000
# 6 0.0000 0.0000 0.0000 -7.4800 0.0000 1.9690
#
#
#
# Elastic Compliance Matrix: (Units=1/GPa)
#
#
# Indices 1 2 3 4 5 6 
#
# 1 0.011019 -0.002534 -0.008634 0.000000 0.001927 0.000000
# 2 -0.002534 0.021115 -0.003202 0.000000 0.001077 0.000000
# 3 -0.008634 -0.003202 0.022005 0.000000 -0.003722 0.000000
# 4 0.000000 0.000000 0.000000 0.158329 0.000000 0.601485
# 5 0.001927 0.001077 -0.003722 0.000000 0.025661 0.000000
# 6 0.000000 0.000000 0.000000 0.601485 0.000000 2.792897
#
#
# Mechanical properties :
#
#
# Convention : Reuss Voigt Hill
#
# Bulk Modulus (GPa) = 39.37369 53.26508 46.31938
# Shear Modulus (GPa) = 1.62960 26.40060 14.01510
#
# Velocity S-wave (km/s) = 0.85452 3.43946 2.50600
# Velocity P-wave (km/s) = 4.31470 6.29609 5.39710
#
# Compressibility (1/GPa) = 0.02539767
#
# Stress axis : x y z
#
# Youngs Moduli (GPa) = 90.75609 47.35889 45.44337
#
# Poissons Ratio (x) = 0.12003 0.39238
# Poissons Ratio (y) = 0.23001 0.14551
# Poissons Ratio (z) = 0.78363 0.15164
#
# Static dielectric constant tensor:
#      x y z
#    x 3.876570 0.000000 0.220390 
#    y 0.000000 3.855060 0.000000 
#    z 0.220390 0.000000 4.247560 
# 
# 
# High freq. dielectric constant tensor:
#      x y z
#    x 1.863320 0.000000 0.016020 
#    y 0.000000 1.854150 0.000000 
#    z 0.016020 0.000000 1.885150 
# 
# From -- ./inp_files/69054.got.cif
#   From: 2010.06.25/outbox.cif.g09.slc.cpg/sg15_35_cif.got.tgz:69054.got - 2010.06.28 07:06:18.
