data_PCOD8133242
_publ_section_title
;
Structure prediction by ZEFSAII (Michael W. Deem and Ramdas Pophale) SiO2 
 PCOD8133242
Probable space group: C 2/C
;
_chemical_formula_sum "Si O2"
_cell_formula_units_Z 60
_cell_length_a 20.205571
_cell_length_b 18.753142
_cell_length_c 14.341398
_cell_angle_alpha 90.000000
_cell_angle_beta 30.465928
_cell_angle_gamma 90.000000
_cell_volume 2755.286689
_symmetry_space_group_name_H-M "C 2/C"
_symmetry_group_IT_number 15
_symmetry_cell_setting 'monoclinic'
loop_
_space_group_symop_operation_xyz
x,y,z
-x,y,1/2-z
-x,-y,-z
x,-y,1/2+z
1/2+x,1/2+y,z
1/2-x,1/2+y,1/2-z
1/2-x,1/2-y,-z
1/2+x,1/2-y,1/2+z
loop_
_atom_site_type_symbol
_atom_site_label
_atom_site_fract_x
_atom_site_fract_y
_atom_site_fract_z
Si Si1 0.835437 0.625161 0.049657
Si Si2 0.608521 0.876234 0.804890
Si Si3 0.092862 0.740626 0.991410
Si Si4 0.500000 0.242350 0.750000
Si Si5 0.426402 0.030997 0.430586
Si Si6 0.186469 0.132338 0.743089
Si Si7 0.059624 0.165633 0.354853
Si Si8 0.668396 0.681706 0.570665
O O1 0.854410 0.643380 0.135013
O O2 0.683858 0.612444 0.206046
O O3 0.914320 0.553323 0.933295
O O4 0.886483 0.691431 0.927033
O O5 0.523589 0.949124 0.898905
O O6 0.740704 0.880059 0.584857
O O7 0.523254 0.815007 0.859628
O O8 0.233582 0.703470 0.828272
O O9 0.088672 0.775088 0.896069
O O10 0.068711 0.795485 0.107704
O O11 0.446028 0.294803 0.736672
O O12 0.500000 0.062369 0.250000
O O13 0.282991 0.064646 0.621676
O O14 0.112509 0.146131 0.733809
O O15 0.073514 0.122059 0.958623
O O16 0.750000 0.750000 0.500000
#
# Coordination Sequence:
#
# PCOD8133242 Si02
#       8
#     8   8   8   4   8   8   8   8
#     4  12  25  44  68  94 128 177 228 277 320 391
#     4  11  21  39  62  98 131 170 217 266 321 388
#     4  10  19  35  62  93 135 164 205 260 331 403
#     4  12  26  46  68  98 130 176 230 282 330 388
#     4  11  23  44  68  94 129 175 225 270 321 392
#     4  10  23  38  65  96 134 174 211 269 338 397
#     4  12  24  43  65  97 134 168 223 277 339 393
#     4  10  19  32  58  98 132 164 199 252 333 396
#
# _framework density 21.776316999999999
#
# number of rings (size 3 to 8) (size 9 to 14) (size 15 to 20)
#    0.000    1.067    4.667    3.200    0.000    3.200 
#    0.000    0.000    0.000    0.000    0.000    0.000 
#    0.000    0.000    0.000    0.000    0.000    0.000 
#
# Total GULP energy -371838.881224 kJ/mol
# GULP energy per Si atom -12394.629374 kJ/mol
# Density = 2.172675 g / cm^3
# Si number density = 21.776317 Si / 1000 Ang^3
#
#
#
# Elastic Constant Matrix: (Units=GPa)
#
#
# Indices 1 2 3 4 5 6 
#
# 1 137.9954 37.0278 49.9725 -0.0003 6.5111 0.0002
# 2 37.0278 72.2146 28.1147 -0.0002 -1.5243 0.0003
# 3 49.9725 28.1147 117.5312 -0.0007 1.4871 0.0010
# 4 -0.0003 -0.0002 -0.0007 20.4744 0.0005 3.0440
# 5 6.5111 -1.5243 1.4871 0.0005 35.4950 -0.0005
# 6 0.0002 0.0003 0.0010 3.0440 -0.0005 21.7978
#
#
#
# Elastic Compliance Matrix: (Units=1/GPa)
#
#
# Indices 1 2 3 4 5 6 
#
# 1 0.009441 -0.003665 -0.003115 0.000000 -0.001759 0.000000
# 2 -0.003665 0.016716 -0.002459 0.000000 0.001493 0.000000
# 3 -0.003115 -0.002459 0.010421 0.000000 0.000029 0.000000
# 4 0.000000 0.000000 0.000000 0.049877 -0.000001 -0.006965
# 5 -0.001759 0.001493 0.000029 -0.000001 0.028559 0.000001
# 6 0.000000 0.000000 0.000000 -0.006965 0.000001 0.046849
#
#
# Mechanical properties :
#
#
# Convention : Reuss Voigt Hill
#
# Bulk Modulus (GPa) = 55.25255 61.99679 58.62467
# Shear Modulus (GPa) = 26.82772 29.72851 28.27812
#
# Velocity S-wave (km/s) = 3.51375 3.69884 3.60748
# Velocity P-wave (km/s) = 6.47223 6.83911 6.65820
#
# Compressibility (1/GPa) = 0.01809871
#
# Stress axis : x y z
#
# Youngs Moduli (GPa) = 105.91863 59.82339 95.96185
#
# Poissons Ratio (x) = 0.21927 0.29894
# Poissons Ratio (y) = 0.38822 0.23598
# Poissons Ratio (z) = 0.32996 0.14711
#
# Static dielectric constant tensor:
#      x y z
#    x 4.273490 0.000000 -0.110940 
#    y 0.000000 3.641340 0.000000 
#    z -0.110940 0.000000 4.183470 
# 
# 
# High freq. dielectric constant tensor:
#      x y z
#    x 1.869840 0.000000 -0.002080 
#    y 0.000000 1.817030 0.000000 
#    z -0.002080 0.000000 1.870100 
# 
# From -- ./inp_files/169464.got.cif
#   From: 2010.06.25/outbox.cif.g09.slc.cpg/sg15_85_cif.got.tgz:169464.got - 2010.06.28 07:06:18.
