data_PCOD8133986
_publ_section_title
;
Structure prediction by ZEFSAII (Michael W. Deem and Ramdas Pophale) SiO2 
 PCOD8133986
Probable space group: C 2/C
;
_chemical_formula_sum "Si O2"
_cell_formula_units_Z 64
_cell_length_a 11.648565
_cell_length_b 16.316020
_cell_length_c 15.996157
_cell_angle_alpha 90.000000
_cell_angle_beta 107.883452
_cell_angle_gamma 90.000000
_cell_volume 2893.308128
_symmetry_space_group_name_H-M "C 2/C"
_symmetry_group_IT_number 15
_symmetry_cell_setting 'monoclinic'
loop_
_space_group_symop_operation_xyz
x,y,z
-x,y,1/2-z
-x,-y,-z
x,-y,1/2+z
1/2+x,1/2+y,z
1/2-x,1/2+y,1/2-z
1/2-x,1/2-y,-z
1/2+x,1/2-y,1/2+z
loop_
_atom_site_type_symbol
_atom_site_label
_atom_site_fract_x
_atom_site_fract_y
_atom_site_fract_z
Si Si1 0.454638 0.749150 0.396110
Si Si2 0.641405 0.045067 0.436265
Si Si3 0.399678 0.881740 0.163634
Si Si4 0.259531 0.366783 0.105623
Si Si5 0.438315 0.136394 0.321609
Si Si6 0.293692 0.600249 0.315858
Si Si7 0.013613 0.200920 0.913947
Si Si8 0.161082 0.916652 0.201643
O O1 0.558661 0.793489 0.363938
O O2 0.350848 0.815142 0.384690
O O3 0.398650 0.668709 0.339519
O O4 0.514740 0.722717 0.496702
O O5 0.706478 0.057344 0.539919
O O6 0.506596 0.085051 0.409794
O O7 0.720371 0.096483 0.386583
O O8 0.626523 0.948703 0.414389
O O9 0.500000 0.917015 0.250000
O O10 0.277845 0.871715 0.188848
O O11 0.342701 0.307397 0.067477
O O12 0.340348 0.400080 0.199746
O O13 0.500000 0.107392 0.250000
O O14 0.296181 0.118102 0.282228
O O15 0.455810 0.232288 0.340004
O O16 0.352299 0.512833 0.314261
O O17 0.954334 0.115791 0.873909
#
# Coordination Sequence:
#
# PCOD8133986 Si02
#       8
#     8   8   8   8   8   8   8   8
#     4  12  24  41  72  96 139 175 226 284 342 409
#     4  10  20  39  68  99 134 168 229 284 337 401
#     4  11  24  45  65  98 139 188 222 276 349 413
#     4  12  22  42  70 103 132 171 225 291 347 396
#     4  10  19  34  63  96 128 158 215 274 330 397
#     4  10  22  42  63  97 129 185 223 277 342 405
#     4  12  24  41  67 102 131 170 227 285 342 394
#     4  11  25  44  70  91 136 183 229 276 344 415
#
# _framework density 22.120007999999999
#
# number of rings (size 3 to 8) (size 9 to 14) (size 15 to 20)
#    0.000    1.000    3.750    5.625    0.000    2.500 
#    0.000    1.250    0.000    0.000    0.000    0.000 
#    0.000    0.000    0.000    0.000    0.000    0.000 
#
# Total GULP energy -396812.972635 kJ/mol
# GULP energy per Si atom -12400.405395 kJ/mol
# Density = 2.206966 g / cm^3
# Si number density = 22.120008 Si / 1000 Ang^3
#
#
#
# Elastic Constant Matrix: (Units=GPa)
#
#
# Indices 1 2 3 4 5 6 
#
# 1 56.1817 33.5465 5.8053 0.0000 -3.5083 0.0000
# 2 33.5465 124.7413 45.6426 0.0000 3.2804 0.0000
# 3 5.8053 45.6426 102.1979 0.0000 8.4502 0.0000
# 4 0.0000 0.0000 0.0000 28.0945 0.0000 5.3973
# 5 -3.5083 3.2804 8.4502 0.0000 21.8179 0.0000
# 6 0.0000 0.0000 0.0000 5.3973 0.0000 38.7891
#
#
#
# Elastic Compliance Matrix: (Units=1/GPa)
#
#
# Indices 1 2 3 4 5 6 
#
# 1 0.021753 -0.006433 0.001310 0.000000 0.003958 0.000000
# 2 -0.006433 0.011486 -0.004686 0.000000 -0.000947 0.000000
# 3 0.001310 -0.004686 0.012116 0.000000 -0.003777 0.000000
# 4 0.000000 0.000000 0.000000 0.036572 0.000000 -0.005089
# 5 0.003958 -0.000947 -0.003777 0.000000 0.048076 0.000000
# 6 0.000000 0.000000 0.000000 -0.005089 0.000000 0.026489
#
#
# Mechanical properties :
#
#
# Convention : Reuss Voigt Hill
#
# Bulk Modulus (GPa) = 38.85596 50.34552 44.60074
# Shear Modulus (GPa) = 27.07273 30.94872 29.01072
#
# Velocity S-wave (km/s) = 3.50223 3.74455 3.62541
# Velocity P-wave (km/s) = 5.82737 6.44245 6.14261
#
# Compressibility (1/GPa) = 0.02573608
#
# Stress axis : x y z
#
# Youngs Moduli (GPa) = 45.97151 87.06039 82.53747
#
# Poissons Ratio (x) = 0.56010 -0.10815
# Poissons Ratio (y) = 0.29575 0.38678
# Poissons Ratio (z) = -0.06024 0.40798
#
# Static dielectric constant tensor:
#      x y z
#    x 3.820160 0.000000 0.100230 
#    y 0.000000 3.841180 0.000000 
#    z 0.100230 0.000000 4.079330 
# 
# 
# High freq. dielectric constant tensor:
#      x y z
#    x 1.848830 0.000000 0.014310 
#    y 0.000000 1.867860 0.000000 
#    z 0.014310 0.000000 1.875240 
# 
# From -- ./inp_files/155222.got.cif
#   From: 2010.06.25/outbox.cif.g09.slc.cpg/sg15_78_cif.got.tgz:155222.got - 2010.06.28 07:06:18.
