data_PCOD8133725
_publ_section_title
;
Structure prediction by ZEFSAII (Michael W. Deem and Ramdas Pophale) SiO2 
 PCOD8133725
Probable space group: C 2/C
;
_chemical_formula_sum "Si O2"
_cell_formula_units_Z 56
_cell_length_a 15.621771
_cell_length_b 8.106038
_cell_length_c 22.075667
_cell_angle_alpha 90.000000
_cell_angle_beta 84.960848
_cell_angle_gamma 90.000000
_cell_volume 2784.651796
_symmetry_space_group_name_H-M "C 2/C"
_symmetry_group_IT_number 15
_symmetry_cell_setting 'monoclinic'
loop_
_space_group_symop_operation_xyz
x,y,z
-x,y,1/2-z
-x,-y,-z
x,-y,1/2+z
1/2+x,1/2+y,z
1/2-x,1/2+y,1/2-z
1/2-x,1/2-y,-z
1/2+x,1/2-y,1/2+z
loop_
_atom_site_type_symbol
_atom_site_label
_atom_site_fract_x
_atom_site_fract_y
_atom_site_fract_z
Si Si1 0.906685 0.731482 0.782666
Si Si2 0.260603 0.645729 0.558796
Si Si3 0.859064 0.571254 0.366295
Si Si4 0.800495 0.264527 0.169925
Si Si5 0.297588 0.560847 0.368776
Si Si6 0.924513 0.129371 0.932297
Si Si7 0.414756 0.582902 0.067637
O O1 0.908821 0.562978 0.822428
O O2 0.835396 0.728930 0.735123
O O3 0.880958 0.892375 0.823297
O O4 0.000000 0.761343 0.750000
O O5 0.250000 0.750000 0.500000
O O6 0.185429 0.509711 0.571423
O O7 0.252438 0.770770 0.615181
O O8 0.353799 0.568882 0.555472
O O9 0.783428 0.648754 0.329664
O O10 0.925469 0.708366 0.388633
O O11 0.773421 0.450719 0.158890
O O12 0.875227 0.207911 0.118803
O O13 0.333768 0.464430 0.425817
O O14 0.931856 0.178997 0.002929
O O15 0.999835 0.000628 0.910488
#
# Coordination Sequence:
#
# PCOD8133725 Si02
#       7
#     8   8   8   8   8   8   8
#     4  11  22  39  58  83 116 149 194 245 293 341
#     4  10  19  34  55  84 113 150 189 228 287 345
#     4   9  22  37  58  81 115 152 195 241 282 355
#     4  10  21  38  60  84 113 152 199 233 295 342
#     4  10  21  36  61  82 114 151 192 241 282 350
#     4  10  20  38  55  86 117 149 196 231 300 338
#     4  10  21  35  59  84 119 152 186 244 283 359
#
# _framework density 20.110233999999998
#
# number of rings (size 3 to 8) (size 9 to 14) (size 15 to 20)
#    0.000    2.000    1.429    1.714    2.000    2.857 
#    0.000    7.857    0.000    0.000    0.000    0.000 
#    0.000    0.000    0.000    0.000    0.000    0.000 
#
# Total GULP energy -347095.080022 kJ/mol
# GULP energy per Si atom -12396.252858 kJ/mol
# Density = 2.006446 g / cm^3
# Si number density = 20.110234 Si / 1000 Ang^3
#
#
#
# Elastic Constant Matrix: (Units=GPa)
#
#
# Indices 1 2 3 4 5 6 
#
# 1 66.7639 27.3850 29.4118 0.0000 0.5115 0.0000
# 2 27.3850 97.6239 34.3266 0.0000 3.1588 0.0000
# 3 29.4118 34.3266 88.2000 0.0000 8.2179 0.0000
# 4 0.0000 0.0000 0.0000 32.3204 0.0000 5.1235
# 5 0.5115 3.1588 8.2179 0.0000 32.9431 0.0000
# 6 0.0000 0.0000 0.0000 5.1235 0.0000 31.4023
#
#
#
# Elastic Compliance Matrix: (Units=1/GPa)
#
#
# Indices 1 2 3 4 5 6 
#
# 1 0.018591 -0.003516 -0.004951 0.000000 0.001284 0.000000
# 2 -0.003516 0.012532 -0.003684 0.000000 -0.000228 0.000000
# 3 -0.004951 -0.003684 0.014725 0.000000 -0.003243 0.000000
# 4 0.000000 0.000000 0.000000 0.031762 0.000000 -0.005182
# 5 0.001284 -0.000228 -0.003243 0.000000 0.031166 0.000000
# 6 0.000000 0.000000 0.000000 -0.005182 0.000000 0.032690
#
#
# Mechanical properties :
#
#
# Convention : Reuss Voigt Hill
#
# Bulk Modulus (GPa) = 46.40930 48.31495 47.36213
# Shear Modulus (GPa) = 28.91002 30.09745 29.50374
#
# Velocity S-wave (km/s) = 3.79565 3.87282 3.83443
# Velocity P-wave (km/s) = 6.50668 6.63894 6.57314
#
# Compressibility (1/GPa) = 0.02154740
#
# Stress axis : x y z
#
# Youngs Moduli (GPa) = 53.78807 79.79363 67.91324
#
# Poissons Ratio (x) = 0.28055 0.33623
# Poissons Ratio (y) = 0.18911 0.25018
# Poissons Ratio (z) = 0.26630 0.29394
#
# Static dielectric constant tensor:
#      x y z
#    x 3.585320 0.000000 -0.038080 
#    y 0.000000 3.830830 0.000000 
#    z -0.038080 0.000000 3.793410 
# 
# 
# High freq. dielectric constant tensor:
#      x y z
#    x 1.776630 0.000000 0.002070 
#    y 0.000000 1.787450 0.000000 
#    z 0.002070 0.000000 1.786500 
# 
# From -- ./inp_files/242778.got.cif
#   From: 2010.06.25/outbox.cif.g09.slc.cpg/sg15_122_cif.got.tgz:242778.got - 2010.06.28 07:06:18.
