data_PCOD8133032
_publ_section_title
;
Structure prediction by ZEFSAII (Michael W. Deem and Ramdas Pophale) SiO2 
 PCOD8133032
Probable space group: C 2/C
;
_chemical_formula_sum "Si O2"
_cell_formula_units_Z 44
_cell_length_a 16.049907
_cell_length_b 16.350174
_cell_length_c 9.115752
_cell_angle_alpha 90.000000
_cell_angle_beta 101.622684
_cell_angle_gamma 90.000000
_cell_volume 2343.094874
_symmetry_space_group_name_H-M "C 2/C"
_symmetry_group_IT_number 15
_symmetry_cell_setting 'monoclinic'
loop_
_space_group_symop_operation_xyz
x,y,z
-x,y,1/2-z
-x,-y,-z
x,-y,1/2+z
1/2+x,1/2+y,z
1/2-x,1/2+y,1/2-z
1/2-x,1/2-y,-z
1/2+x,1/2-y,1/2+z
loop_
_atom_site_type_symbol
_atom_site_label
_atom_site_fract_x
_atom_site_fract_y
_atom_site_fract_z
Si Si1 0.136250 0.011555 0.107630
Si Si2 0.000000 0.505372 0.250000
Si Si3 0.291277 0.393966 0.595205
Si Si4 0.591400 0.101863 0.025809
Si Si5 0.510685 0.603431 0.905623
Si Si6 0.063688 0.773796 0.901059
O O1 0.187893 0.053028 0.254962
O O2 0.108414 0.078194 0.973596
O O3 0.048182 0.976751 0.142357
O O4 0.191112 0.941055 0.050568
O O5 0.057670 0.561806 0.164478
O O6 0.061943 0.450309 0.373076
O O7 0.191349 0.383787 0.564679
O O8 0.342382 0.306507 0.616983
O O9 0.560312 0.194859 0.003401
O O10 0.500000 0.654611 0.750000
O O11 0.477334 0.650914 0.031987
O O12 0.000000 0.750589 0.750000
#
# Coordination Sequence:
#
# PCOD8133032 Si02
#       6
#     8   4   8   8   8   8
#     4  10  19  31  55  86 121 153 189 224 278 342
#     4  10  24  44  68  80 104 156 200 258 288 338
#     4  11  21  36  59  90 121 155 188 242 279 344
#     4  11  23  43  63  85 111 149 206 243 296 335
#     4  10  19  32  54  84 121 158 185 218 281 350
#     4  11  22  37  60  86 122 158 186 230 294 355
#
# _framework density 18.778580999999999
#
# number of rings (size 3 to 8) (size 9 to 14) (size 15 to 20)
#    0.000    1.455    4.545    1.636    1.273    0.000 
#    0.000    0.000    0.000    2.182    0.000    0.000 
#    0.000    0.000    0.000    0.000    0.000    0.000 
#
# Total GULP energy -272598.116207 kJ/mol
# GULP energy per Si atom -12390.823464 kJ/mol
# Density = 1.873584 g / cm^3
# Si number density = 18.778581 Si / 1000 Ang^3
#
#
#
# Elastic Constant Matrix: (Units=GPa)
#
#
# Indices 1 2 3 4 5 6 
#
# 1 90.7559 25.7067 17.3699 0.0000 5.7167 0.0000
# 2 25.7067 87.7798 21.7115 0.0000 1.7227 0.0000
# 3 17.3699 21.7115 84.0954 0.0000 0.7686 0.0000
# 4 0.0000 0.0000 0.0000 28.6557 0.0000 2.8316
# 5 5.7167 1.7227 0.7686 0.0000 26.3002 0.0000
# 6 0.0000 0.0000 0.0000 2.8316 0.0000 16.9983
#
#
#
# Elastic Compliance Matrix: (Units=1/GPa)
#
#
# Indices 1 2 3 4 5 6 
#
# 1 0.012396 -0.003156 -0.001723 0.000000 -0.002437 0.000000
# 2 -0.003156 0.012986 -0.002700 0.000000 -0.000086 0.000000
# 3 -0.001723 -0.002700 0.012943 0.000000 0.000173 0.000000
# 4 0.000000 0.000000 0.000000 0.035481 0.000000 -0.005911
# 5 -0.002437 -0.000086 0.000173 0.000000 0.038553 0.000000
# 6 0.000000 0.000000 0.000000 -0.005911 0.000000 0.059814
#
#
# Mechanical properties :
#
#
# Convention : Reuss Voigt Hill
#
# Bulk Modulus (GPa) = 43.16715 43.57859 43.37287
# Shear Modulus (GPa) = 25.63402 27.58037 26.60719
#
# Velocity S-wave (km/s) = 3.69869 3.83654 3.76824
# Velocity P-wave (km/s) = 6.42478 6.54846 6.48691
#
# Compressibility (1/GPa) = 0.02316576
#
# Stress axis : x y z
#
# Youngs Moduli (GPa) = 80.67195 77.00646 77.26375
#
# Poissons Ratio (x) = 0.24304 0.13314
# Poissons Ratio (y) = 0.25461 0.20861
# Poissons Ratio (z) = 0.13902 0.20792
#
# Static dielectric constant tensor:
#      x y z
#    x 3.466400 0.000000 0.139920 
#    y 0.000000 3.398330 0.000000 
#    z 0.139920 0.000000 3.722500 
# 
# 
# High freq. dielectric constant tensor:
#      x y z
#    x 1.717630 0.000000 0.008780 
#    y 0.000000 1.719620 0.000000 
#    z 0.008780 0.000000 1.746220 
# 
# From -- ./inp_files/39060.got.cif
#   From: 2010.06.25/outbox.cif.g09.slc.cpg/sg15_20_cif.got.tgz:39060.got - 2010.06.28 07:06:18.
