data_PCOD8133415
_publ_section_title
;
Structure prediction by ZEFSAII (Michael W. Deem and Ramdas Pophale) SiO2 
 PCOD8133415
Probable space group: C 2/C
;
_chemical_formula_sum "Si O2"
_cell_formula_units_Z 48
_cell_length_a 16.021030
_cell_length_b 9.041882
_cell_length_c 18.147950
_cell_angle_alpha 90.000000
_cell_angle_beta 90.775503
_cell_angle_gamma 90.000000
_cell_volume 2628.676003
_symmetry_space_group_name_H-M "C 2/C"
_symmetry_group_IT_number 15
_symmetry_cell_setting 'monoclinic'
loop_
_space_group_symop_operation_xyz
x,y,z
-x,y,1/2-z
-x,-y,-z
x,-y,1/2+z
1/2+x,1/2+y,z
1/2-x,1/2+y,1/2-z
1/2-x,1/2-y,-z
1/2+x,1/2-y,1/2+z
loop_
_atom_site_type_symbol
_atom_site_label
_atom_site_fract_x
_atom_site_fract_y
_atom_site_fract_z
Si Si1 0.658644 0.595021 0.677771
Si Si2 0.480621 0.077647 0.075363
Si Si3 0.919066 0.100801 0.202466
Si Si4 0.848641 0.589818 0.665848
Si Si5 0.414885 0.102983 0.288963
Si Si6 0.998294 0.918565 0.422610
O O1 0.645355 0.477392 0.742931
O O2 0.751129 0.577171 0.647072
O O3 0.647266 0.758788 0.710614
O O4 0.595876 0.573169 0.608968
O O5 0.559167 0.044978 0.129990
O O6 0.469596 0.252431 0.064562
O O7 0.395467 0.009022 0.106002
O O8 0.500000 0.000000 0.000000
O O9 0.877491 0.241191 0.163133
O O10 0.000000 0.149775 0.250000
O O11 0.940697 0.990558 0.136446
O O12 0.869074 0.530921 0.747869
O O13 0.500000 0.156914 0.250000
O O14 0.000000 0.000000 0.500000
#
# Coordination Sequence:
#
# PCOD8133415 Si02
#       6
#     8   8   8   8   8   8
#     4  10  20  35  54  80 108 135 171 220 263 302
#     4  10  20  36  56  76 105 143 178 211 257 318
#     4  10  19  33  55  79 106 139 174 210 257 316
#     4  11  20  33  55  84 106 131 174 223 260 300
#     4   9  18  35  55  75 105 143 174 206 259 318
#     4  10  21  38  56  74 104 145 179 208 257 320
#
# _framework density 18.260142999999999
#
# number of rings (size 3 to 8) (size 9 to 14) (size 15 to 20)
#    0.000    2.000    0.000    7.000    0.000    1.333 
#    0.000   10.000    0.000    0.000    0.000    0.000 
#    0.000    0.000    0.000    0.000    0.000    0.000 
#
# Total GULP energy -297654.212482 kJ/mol
# GULP energy per Si atom -12402.258853 kJ/mol
# Density = 1.821858 g / cm^3
# Si number density = 18.260143 Si / 1000 Ang^3
#
#
#
# Elastic Constant Matrix: (Units=GPa)
#
#
# Indices 1 2 3 4 5 6 
#
# 1 122.2186 66.5219 43.8061 0.0000 -11.5018 0.0000
# 2 66.5219 136.9115 65.2467 0.0000 -4.2782 0.0000
# 3 43.8061 65.2467 120.4803 0.0000 -2.9639 0.0000
# 4 0.0000 0.0000 0.0000 36.7334 0.0000 -1.9590
# 5 -11.5018 -4.2782 -2.9639 0.0000 14.8209 0.0000
# 6 0.0000 0.0000 0.0000 -1.9590 0.0000 21.5943
#
#
#
# Elastic Compliance Matrix: (Units=1/GPa)
#
#
# Indices 1 2 3 4 5 6 
#
# 1 0.012141 -0.004913 -0.001564 0.000000 0.007691 0.000000
# 2 -0.004913 0.011880 -0.004680 0.000000 -0.001319 0.000000
# 3 -0.001564 -0.004680 0.011396 0.000000 -0.000286 0.000000
# 4 0.000000 0.000000 0.000000 0.027356 0.000000 0.002482
# 5 0.007691 -0.001319 -0.000286 0.000000 0.073003 0.000000
# 6 0.000000 0.000000 0.000000 0.002482 0.000000 0.046534
#
#
# Mechanical properties :
#
#
# Convention : Reuss Voigt Hill
#
# Bulk Modulus (GPa) = 76.32122 81.19552 78.75837
# Shear Modulus (GPa) = 23.92447 28.23209 26.07828
#
# Velocity S-wave (km/s) = 3.62360 3.93632 3.78319
# Velocity P-wave (km/s) = 7.70679 8.07601 7.89356
#
# Compressibility (1/GPa) = 0.01310252
#
# Stress axis : x y z
#
# Youngs Moduli (GPa) = 82.36824 84.17463 87.74778
#
# Poissons Ratio (x) = 0.41354 0.13728
# Poissons Ratio (y) = 0.40467 0.41065
# Poissons Ratio (z) = 0.12886 0.39392
#
# Static dielectric constant tensor:
#      x y z
#    x 3.240410 0.000000 0.037500 
#    y 0.000000 3.456520 0.000000 
#    z 0.037500 0.000000 3.416800 
# 
# 
# High freq. dielectric constant tensor:
#      x y z
#    x 1.693910 0.000000 -0.001570 
#    y 0.000000 1.721310 0.000000 
#    z -0.001570 0.000000 1.704190 
# 
# From -- ./inp_files/202998.got.cif
#   From: 2010.06.25/outbox.cif.g09.slc.cpg/sg15_102_cif.got.tgz:202998.got - 2010.06.28 07:06:18.
