data_PCOD8133784
_publ_section_title
;
Structure prediction by ZEFSAII (Michael W. Deem and Ramdas Pophale) SiO2 
 PCOD8133784
Probable space group: C 2/C
;
_chemical_formula_sum "Si O2"
_cell_formula_units_Z 56
_cell_length_a 26.063846
_cell_length_b 20.161621
_cell_length_c 19.419994
_cell_angle_alpha 90.000000
_cell_angle_beta 162.221179
_cell_angle_gamma 90.000000
_cell_volume 3116.028956
_symmetry_space_group_name_H-M "C 2/C"
_symmetry_group_IT_number 15
_symmetry_cell_setting 'monoclinic'
loop_
_space_group_symop_operation_xyz
x,y,z
-x,y,1/2-z
-x,-y,-z
x,-y,1/2+z
1/2+x,1/2+y,z
1/2-x,1/2+y,1/2-z
1/2-x,1/2-y,-z
1/2+x,1/2-y,1/2+z
loop_
_atom_site_type_symbol
_atom_site_label
_atom_site_fract_x
_atom_site_fract_y
_atom_site_fract_z
Si Si1 0.425849 0.984458 0.282070
Si Si2 0.124676 0.620712 0.533428
Si Si3 0.553288 0.623227 0.652946
Si Si4 0.227769 0.943871 0.780305
Si Si5 0.730215 0.448907 0.164556
Si Si6 0.619548 0.513686 0.291287
Si Si7 0.055786 0.249756 0.743923
O O1 0.571750 0.928171 0.458679
O O2 0.359737 0.979233 0.275491
O O3 0.506923 0.056229 0.369013
O O4 0.274258 0.968143 0.037502
O O5 0.274344 0.627842 0.669548
O O6 0.197161 0.617488 0.705120
O O7 0.008355 0.684497 0.376427
O O8 0.392039 0.615855 0.396199
O O9 0.572042 0.564283 0.733248
O O10 0.502291 0.688342 0.628916
O O11 0.164470 0.970902 0.771064
O O12 0.206465 0.002160 0.698244
O O13 0.542858 0.442159 0.892490
O O14 0.000000 0.242133 0.750000
O O15 0.250000 0.250000 0.000000
#
# Coordination Sequence:
#
# PCOD8133784 Si02
#       7
#     8   8   8   8   8   8   8
#     4  11  22  31  58  90 114 138 185 242 288 327
#     4  11  21  39  56  75 118 158 181 229 283 333
#     4  11  21  38  57  77 115 158 188 224 277 341
#     4  10  19  34  57  79 106 152 190 217 283 355
#     4  10  20  36  54  83 112 148 186 230 286 342
#     4  11  19  34  58  84 113 148 181 229 292 341
#     4  12  26  38  57  85 113 153 201 229 265 330
#
# _framework density 17.971592000000001
#
# number of rings (size 3 to 8) (size 9 to 14) (size 15 to 20)
#    0.000    1.143    5.714    4.286    0.000    5.714 
#    0.000    0.000    0.000    0.000    0.000    6.000 
#    0.000    0.000    0.000    0.000    0.000    0.000 
#
# Total GULP energy -346932.199479 kJ/mol
# GULP energy per Si atom -12390.435696 kJ/mol
# Density = 1.793069 g / cm^3
# Si number density = 17.971592 Si / 1000 Ang^3
#
#
#
# Elastic Constant Matrix: (Units=GPa)
#
#
# Indices 1 2 3 4 5 6 
#
# 1 104.3768 40.7609 48.1990 0.0002 8.0315 0.0001
# 2 40.7609 82.7468 49.4069 0.0000 -4.2621 -0.0001
# 3 48.1990 49.4069 183.1515 0.0002 -0.8396 0.0002
# 4 0.0002 0.0000 0.0002 30.1104 0.0001 -2.7768
# 5 8.0315 -4.2621 -0.8396 0.0001 32.8839 0.0001
# 6 0.0001 -0.0001 0.0002 -2.7768 0.0001 22.5205
#
#
#
# Elastic Compliance Matrix: (Units=1/GPa)
#
#
# Indices 1 2 3 4 5 6 
#
# 1 0.012885 -0.005379 -0.001958 0.000000 -0.003894 0.000000
# 2 -0.005379 0.016754 -0.003088 0.000000 0.003406 0.000000
# 3 -0.001958 -0.003088 0.006809 0.000000 0.000252 0.000000
# 4 0.000000 0.000000 0.000000 0.033593 0.000000 0.004142
# 5 -0.003894 0.003406 0.000252 0.000000 0.031809 0.000000
# 6 0.000000 0.000000 0.000000 0.004142 0.000000 0.044915
#
#
# Mechanical properties :
#
#
# Convention : Reuss Voigt Hill
#
# Bulk Modulus (GPa) = 64.10824 71.88984 67.99904
# Shear Modulus (GPa) = 28.93272 32.56350 30.74811
#
# Velocity S-wave (km/s) = 4.01673 4.26131 4.14082
# Velocity P-wave (km/s) = 7.56714 8.01876 7.79622
#
# Compressibility (1/GPa) = 0.01559862
#
# Stress axis : x y z
#
# Youngs Moduli (GPa) = 77.61072 59.68673 146.85433
#
# Poissons Ratio (x) = 0.32104 0.28750
# Poissons Ratio (y) = 0.41744 0.45356
# Poissons Ratio (z) = 0.15194 0.18434
#
# Static dielectric constant tensor:
#      x y z
#    x 3.368920 0.000000 0.008410 
#    y 0.000000 3.114500 0.000000 
#    z 0.008410 0.000000 4.216020 
# 
# 
# High freq. dielectric constant tensor:
#      x y z
#    x 1.705210 0.000000 0.010340 
#    y 0.000000 1.639260 0.000000 
#    z 0.010340 0.000000 1.726440 
# 
# From -- ./inp_files/220201.got.cif
#   From: 2010.06.25/outbox.cif.g09.slc.cpg/sg15_111_cif.got.tgz:220201.got - 2010.06.28 07:06:18.
