data_PCOD8133814
_publ_section_title
;
Structure prediction by ZEFSAII (Michael W. Deem and Ramdas Pophale) SiO2 
 PCOD8133814
Probable space group: C 2/C
;
_chemical_formula_sum "Si O2"
_cell_formula_units_Z 52
_cell_length_a 16.999035
_cell_length_b 9.620624
_cell_length_c 18.362721
_cell_angle_alpha 90.000000
_cell_angle_beta 66.526968
_cell_angle_gamma 90.000000
_cell_volume 2754.553146
_symmetry_space_group_name_H-M "C 2/C"
_symmetry_group_IT_number 15
_symmetry_cell_setting 'monoclinic'
loop_
_space_group_symop_operation_xyz
x,y,z
-x,y,1/2-z
-x,-y,-z
x,-y,1/2+z
1/2+x,1/2+y,z
1/2-x,1/2+y,1/2-z
1/2-x,1/2-y,-z
1/2+x,1/2-y,1/2+z
loop_
_atom_site_type_symbol
_atom_site_label
_atom_site_fract_x
_atom_site_fract_y
_atom_site_fract_z
Si Si1 0.251922 0.592908 0.521000
Si Si2 0.570586 0.343036 0.952303
Si Si3 0.000000 0.883696 0.250000
Si Si4 0.209599 0.651238 0.953139
Si Si5 0.318739 0.715695 0.777692
Si Si6 0.228868 0.997300 0.330229
Si Si7 0.442933 0.525178 0.414031
O O1 0.250000 0.750000 0.500000
O O2 0.188127 0.499528 0.495235
O O3 0.227729 0.572658 0.614498
O O4 0.342938 0.534117 0.463516
O O5 0.618358 0.200296 0.954012
O O6 0.637607 0.446583 0.889102
O O7 0.493295 0.333101 0.921134
O O8 0.527492 0.401723 0.042255
O O9 0.922437 0.788659 0.247396
O O10 0.964734 0.987997 0.323893
O O11 0.279301 0.646154 0.863869
O O12 0.250000 0.750000 0.000000
O O13 0.284226 0.623180 0.723784
O O14 0.288587 0.876117 0.778693
#
# Coordination Sequence:
#
# PCOD8133814 Si02
#       7
#     8   8   4   8   8   8   8
#     4  11  23  39  61  89 116 158 208 251 296 356
#     4   9  18  35  58  82 112 146 201 238 289 337
#     4  12  20  32  62  94 112 158 204 244 292 368
#     4  11  18  38  61  84 110 158 200 247 290 358
#     4  11  22  36  60  89 120 156 198 244 303 355
#     4  10  22  38  59  86 120 155 194 247 295 364
#     4  10  19  34  57  88 112 151 197 248 283 363
#
# _framework density 18.877835000000001
#
# number of rings (size 3 to 8) (size 9 to 14) (size 15 to 20)
#    0.000    1.538    7.692    0.000    2.154    0.000 
#    0.000    0.769    6.769    0.000    0.000    1.077 
#    0.000    0.000    0.000    0.000    0.000    0.000 
#
# Total GULP energy -322147.211905 kJ/mol
# GULP energy per Si atom -12390.277381 kJ/mol
# Density = 1.883487 g / cm^3
# Si number density = 18.877835 Si / 1000 Ang^3
#
#
#
# Elastic Constant Matrix: (Units=GPa)
#
#
# Indices 1 2 3 4 5 6 
#
# 1 76.8461 38.6057 32.4165 0.0000 4.1431 0.0000
# 2 38.6057 131.1699 49.0401 0.0000 17.9521 0.0000
# 3 32.4165 49.0401 120.4779 0.0000 10.7201 0.0000
# 4 0.0000 0.0000 0.0000 29.4737 0.0000 9.9617
# 5 4.1431 17.9521 10.7201 0.0000 18.4211 0.0000
# 6 0.0000 0.0000 0.0000 9.9617 0.0000 28.1051
#
#
#
# Elastic Compliance Matrix: (Units=1/GPa)
#
#
# Indices 1 2 3 4 5 6 
#
# 1 0.016103 -0.003909 -0.002909 0.000000 0.001881 0.000000
# 2 -0.003909 0.010886 -0.002651 0.000000 -0.008187 0.000000
# 3 -0.002909 -0.002651 0.010413 0.000000 -0.002822 0.000000
# 4 0.000000 0.000000 0.000000 0.038546 0.000000 -0.013663
# 5 0.001881 -0.008187 -0.002822 0.000000 0.063483 0.000000
# 6 0.000000 0.000000 0.000000 -0.013663 0.000000 0.040423
#
#
# Mechanical properties :
#
#
# Convention : Reuss Voigt Hill
#
# Bulk Modulus (GPa) = 54.15961 63.17984 58.66973
# Shear Modulus (GPa) = 24.39661 29.09541 26.74601
#
# Velocity S-wave (km/s) = 3.59882 3.93013 3.76812
# Velocity P-wave (km/s) = 6.78384 7.35765 7.07656
#
# Compressibility (1/GPa) = 0.01846394
#
# Stress axis : x y z
#
# Youngs Moduli (GPa) = 62.10204 91.86358 96.03352
#
# Poissons Ratio (x) = 0.35911 0.27934
# Poissons Ratio (y) = 0.24277 0.25456
# Poissons Ratio (z) = 0.18064 0.24350
#
# Static dielectric constant tensor:
#      x y z
#    x 3.609840 0.000000 0.171040 
#    y 0.000000 3.204050 0.000000 
#    z 0.171040 0.000000 3.684690 
# 
# 
# High freq. dielectric constant tensor:
#      x y z
#    x 1.729150 0.000000 0.010020 
#    y 0.000000 1.702670 0.000000 
#    z 0.010020 0.000000 1.746100 
# 
# From -- ./inp_files/209040.got.cif
#   From: 2010.06.25/outbox.cif.g09.slc.cpg/sg15_105_cif.got.tgz:209040.got - 2010.06.28 07:06:18.
