data_PCOD8133254
_publ_section_title
;
Structure prediction by ZEFSAII (Michael W. Deem and Ramdas Pophale) SiO2 
 PCOD8133254
Probable space group: C 2/C
;
_chemical_formula_sum "Si O2"
_cell_formula_units_Z 40
_cell_length_a 17.669760
_cell_length_b 10.534528
_cell_length_c 14.901454
_cell_angle_alpha 90.000000
_cell_angle_beta 31.988822
_cell_angle_gamma 90.000000
_cell_volume 1469.428519
_symmetry_space_group_name_H-M "C 2/C"
_symmetry_group_IT_number 15
_symmetry_cell_setting 'monoclinic'
loop_
_space_group_symop_operation_xyz
x,y,z
-x,y,1/2-z
-x,-y,-z
x,-y,1/2+z
1/2+x,1/2+y,z
1/2-x,1/2+y,1/2-z
1/2-x,1/2-y,-z
1/2+x,1/2-y,1/2+z
loop_
_atom_site_type_symbol
_atom_site_label
_atom_site_fract_x
_atom_site_fract_y
_atom_site_fract_z
Si Si1 0.488055 0.748520 0.155710
Si Si2 0.272052 0.166247 0.184909
Si Si3 0.867509 0.993602 0.537171
Si Si4 0.154028 0.577354 0.105881
Si Si5 0.862700 0.177515 0.766115
O O1 0.500000 0.738252 0.250000
O O2 0.325730 0.748566 0.285536
O O3 0.557658 0.627873 0.034799
O O4 0.582704 0.864071 0.018077
O O5 0.198915 0.036650 0.296477
O O6 0.303336 0.256084 0.237720
O O7 0.742525 0.001524 0.589702
O O8 0.981713 0.884041 0.400385
O O9 0.118969 0.718523 0.174490
O O10 0.000000 0.505754 0.250000
O O11 0.244824 0.576427 0.921708
#
# Coordination Sequence:
#
# PCOD8133254 Si02
#       5
#     8   8   8   8   8
#     4  12  26  48  72 100 138 190 237 283 347 419
#     4  11  24  42  71 101 136 184 233 289 340 414
#     4  11  23  44  70 102 137 186 232 282 354 419
#     4  10  19  32  62 105 141 174 218 292 349 403
#     4  10  19  35  63  98 140 178 222 278 352 412
#
# _framework density 27.221465999999999
#
# number of rings (size 3 to 8) (size 9 to 14) (size 15 to 20)
#    0.000    1.200    2.000    6.600    2.800    0.000 
#    0.000    6.000    0.000    0.000    0.000    0.000 
#    0.000    0.000    0.000    0.000    0.000    0.000 
#
# Total GULP energy -248009.070299 kJ/mol
# GULP energy per Si atom -12400.453515 kJ/mol
# Density = 2.715951 g / cm^3
# Si number density = 27.221466 Si / 1000 Ang^3
#
#
#
# Elastic Constant Matrix: (Units=GPa)
#
#
# Indices 1 2 3 4 5 6 
#
# 1 175.0182 -32.3326 46.9756 0.0000 -4.9025 0.0000
# 2 -32.3326 33.9742 -3.0585 0.0000 10.3182 0.0000
# 3 46.9756 -3.0585 125.4074 0.0000 20.1333 0.0000
# 4 0.0000 0.0000 0.0000 28.4620 0.0000 2.1162
# 5 -4.9025 10.3182 20.1333 0.0000 62.5024 0.0000
# 6 0.0000 0.0000 0.0000 2.1162 0.0000 -1.7642
#
#
#
# Elastic Compliance Matrix: (Units=1/GPa)
#
#
# Indices 1 2 3 4 5 6 
#
# 1 0.007775 0.007042 -0.002797 0.000000 0.000348 0.000000
# 2 0.007042 0.037698 -0.000852 0.000000 -0.005397 0.000000
# 3 -0.002797 -0.000852 0.009505 0.000000 -0.003140 0.000000
# 4 0.000000 0.000000 0.000000 0.032258 0.000000 0.038695
# 5 0.000348 -0.005397 -0.003140 0.000000 0.017929 0.000000
# 6 0.000000 0.000000 0.000000 0.038695 0.000000 -0.520427
#
#
# Mechanical properties :
#
#
# Convention : Reuss Voigt Hill
#
# Bulk Modulus (GPa) = 16.19059 39.72987 27.96023
# Shear Modulus (GPa) = -12.45452 39.36106 13.45327
#
# Velocity S-wave (km/s) = -2.14131 3.80670 2.22551
# Velocity P-wave (km/s) = 0.39108 5.82649 4.11066
#
# Compressibility (1/GPa) = 0.06176427
#
# Stress axis : x y z
#
# Youngs Moduli (GPa) = 128.61853 26.52671 105.20841
#
# Poissons Ratio (x) = -0.18679 0.29422
# Poissons Ratio (y) = -0.90570 0.08963
# Poissons Ratio (z) = 0.35968 0.02260
#
# Static dielectric constant tensor:
#      x y z
#    x 4.899480 0.000000 -0.178510 
#    y 0.000000 4.977040 0.000000 
#    z -0.178510 0.000000 5.837220 
# 
# 
# High freq. dielectric constant tensor:
#      x y z
#    x 2.113430 0.000000 0.001020 
#    y 0.000000 2.080110 0.000000 
#    z 0.001020 0.000000 2.119660 
# 
# From -- ./inp_files/162428.got.cif
#   From: 2010.06.25/outbox.cif.g09.slc.cpg/sg15_82_cif.got.tgz:162428.got - 2010.06.28 07:06:18.
