data_PCOD8133831
_publ_section_title
;
Structure prediction by ZEFSAII (Michael W. Deem and Ramdas Pophale) SiO2 
 PCOD8133831
Probable space group: C 2/C
;
_chemical_formula_sum "Si O2"
_cell_formula_units_Z 56
_cell_length_a 10.947011
_cell_length_b 15.826438
_cell_length_c 17.049230
_cell_angle_alpha 90.000000
_cell_angle_beta 109.121600
_cell_angle_gamma 90.000000
_cell_volume 2790.841065
_symmetry_space_group_name_H-M "C 2/C"
_symmetry_group_IT_number 15
_symmetry_cell_setting 'monoclinic'
loop_
_space_group_symop_operation_xyz
x,y,z
-x,y,1/2-z
-x,-y,-z
x,-y,1/2+z
1/2+x,1/2+y,z
1/2-x,1/2+y,1/2-z
1/2-x,1/2-y,-z
1/2+x,1/2-y,1/2+z
loop_
_atom_site_type_symbol
_atom_site_label
_atom_site_fract_x
_atom_site_fract_y
_atom_site_fract_z
Si Si1 0.794187 0.916939 0.402712
Si Si2 0.249768 0.337452 0.543923
Si Si3 0.050382 0.843826 0.413024
Si Si4 0.759492 0.401104 0.573615
Si Si5 0.351311 0.768099 0.197377
Si Si6 0.744948 0.774579 0.152845
Si Si7 0.464422 0.166584 0.009059
O O1 0.825828 0.903728 0.503323
O O2 0.676932 0.853265 0.357535
O O3 0.918928 0.897309 0.374555
O O4 0.747904 0.012579 0.378160
O O5 0.250000 0.250000 0.500000
O O6 0.317166 0.318386 0.642161
O O7 0.104062 0.373389 0.521763
O O8 0.139089 0.896984 0.490016
O O9 0.127693 0.826630 0.348198
O O10 0.011691 0.754907 0.442523
O O11 0.757230 0.322796 0.631739
O O12 0.890135 0.398510 0.549830
O O13 0.500000 0.763117 0.250000
O O14 0.262337 0.775551 0.255511
O O15 0.617379 0.816279 0.087282
#
# Coordination Sequence:
#
# PCOD8133831 Si02
#       7
#     8   8   8   8   8   8   8
#     4  11  21  36  57  88 113 152 196 246 294 341
#     4  10  19  34  58  80 108 146 200 239 271 361
#     4   9  17  34  60  83 109 147 195 232 285 348
#     4   9  20  34  59  87 117 145 189 251 297 338
#     4  11  23  37  58  79 112 157 195 239 301 357
#     4   9  19  36  59  83 114 150 191 236 291 366
#     4   9  16  36  58  84 102 150 197 230 278 348
#
# _framework density 20.065636000000001
#
# number of rings (size 3 to 8) (size 9 to 14) (size 15 to 20)
#    0.000    2.286    2.857    3.857    2.000    1.143 
#    0.000    4.286    0.000    0.000    0.000    0.000 
#    0.000    0.000    0.000    0.000    0.000    0.000 
#
# Total GULP energy -347038.719001 kJ/mol
# GULP energy per Si atom -12394.239964 kJ/mol
# Density = 2.001997 g / cm^3
# Si number density = 20.065636 Si / 1000 Ang^3
#
#
#
# Elastic Constant Matrix: (Units=GPa)
#
#
# Indices 1 2 3 4 5 6 
#
# 1 132.9418 37.4510 37.8404 0.0000 1.9004 0.0000
# 2 37.4510 89.5887 25.8897 0.0000 -0.1522 0.0000
# 3 37.8404 25.8897 86.0978 0.0000 -13.7347 0.0000
# 4 0.0000 0.0000 0.0000 18.0647 0.0000 -4.4724
# 5 1.9004 -0.1522 -13.7347 0.0000 31.6735 0.0000
# 6 0.0000 0.0000 0.0000 -4.4724 0.0000 25.8307
#
#
#
# Elastic Compliance Matrix: (Units=1/GPa)
#
#
# Indices 1 2 3 4 5 6 
#
# 1 0.009391 -0.002889 -0.003600 0.000000 -0.002138 0.000000
# 2 -0.002889 0.013194 -0.002858 0.000000 -0.001002 0.000000
# 3 -0.003600 -0.002858 0.015135 0.000000 0.006765 0.000000
# 4 0.000000 0.000000 0.000000 0.057836 0.000000 0.010014
# 5 -0.002138 -0.001002 0.006765 0.000000 0.034629 0.000000
# 6 0.000000 0.000000 0.000000 0.010014 0.000000 0.040448
#
#
# Mechanical properties :
#
#
# Convention : Reuss Voigt Hill
#
# Bulk Modulus (GPa) = 52.55560 56.77672 54.66616
# Shear Modulus (GPa) = 25.55338 28.94359 27.24848
#
# Velocity S-wave (km/s) = 3.57247 3.80207 3.68906
# Velocity P-wave (km/s) = 6.57765 6.90154 6.74154
#
# Compressibility (1/GPa) = 0.01902747
#
# Stress axis : x y z
#
# Youngs Moduli (GPa) = 106.48253 75.79213 66.07040
#
# Poissons Ratio (x) = 0.21898 0.23784
# Poissons Ratio (y) = 0.30765 0.18880
# Poissons Ratio (z) = 0.38332 0.21658
#
# Static dielectric constant tensor:
#      x y z
#    x 4.121940 0.000000 -0.265560 
#    y 0.000000 3.397430 0.000000 
#    z -0.265560 0.000000 3.697160 
# 
# 
# High freq. dielectric constant tensor:
#      x y z
#    x 1.799070 0.000000 -0.009420 
#    y 0.000000 1.751460 0.000000 
#    z -0.009420 0.000000 1.759890 
# 
# From -- ./inp_files/197929.got.cif
#   From: 2010.06.25/outbox.cif.g09.slc.cpg/sg15_99_cif.got.tgz:197929.got - 2010.06.28 07:06:18.
