data_PCOD8133418
_publ_section_title
;
Structure prediction by ZEFSAII (Michael W. Deem and Ramdas Pophale) SiO2 
 PCOD8133418
Probable space group: C 2/C
;
_chemical_formula_sum "Si O2"
_cell_formula_units_Z 56
_cell_length_a 15.045930
_cell_length_b 21.382841
_cell_length_c 17.359002
_cell_angle_alpha 90.000000
_cell_angle_beta 149.148544
_cell_angle_gamma 90.000000
_cell_volume 2863.974384
_symmetry_space_group_name_H-M "C 2/C"
_symmetry_group_IT_number 15
_symmetry_cell_setting 'monoclinic'
loop_
_space_group_symop_operation_xyz
x,y,z
-x,y,1/2-z
-x,-y,-z
x,-y,1/2+z
1/2+x,1/2+y,z
1/2-x,1/2+y,1/2-z
1/2-x,1/2-y,-z
1/2+x,1/2-y,1/2+z
loop_
_atom_site_type_symbol
_atom_site_label
_atom_site_fract_x
_atom_site_fract_y
_atom_site_fract_z
Si Si1 0.902832 0.831082 0.404414
Si Si2 0.667047 0.026297 0.081932
Si Si3 0.627909 0.258122 0.667843
Si Si4 0.201484 0.669283 0.073364
Si Si5 0.679731 0.003370 0.415657
Si Si6 0.197334 0.639415 0.902509
Si Si7 0.976453 0.034517 0.902554
O O1 0.800947 0.781182 0.275557
O O2 0.803325 0.830331 0.412483
O O3 0.902759 0.896421 0.361314
O O4 0.092738 0.804874 0.569089
O O5 0.652857 0.101008 0.069995
O O6 0.843246 0.006252 0.254512
O O7 0.500000 0.000000 0.000000
O O8 0.671757 0.996666 0.001176
O O9 0.655273 0.298927 0.765757
O O10 0.472032 0.209566 0.561081
O O11 0.278819 0.661537 0.044640
O O12 0.500000 0.032395 0.250000
O O13 0.842817 0.043663 0.507996
O O14 0.707371 0.934932 0.400477
O O15 0.000000 0.662361 0.750000
O O16 0.000000 0.000000 0.000000
#
# Coordination Sequence:
#
# PCOD8133418 Si02
#       7
#     8   8   8   8   8   8   8
#     4  11  22  37  56  83 117 161 204 247 299 358
#     4  11  23  38  62  92 122 158 200 255 315 370
#     4  10  22  36  52  80 118 163 207 242 284 360
#     4  10  21  35  52  79 117 158 200 238 292 351
#     4  10  22  39  59  90 124 156 196 256 311 365
#     4  10  19  33  55  79 122 157 197 243 295 357
#     4  12  22  38  63  89 119 162 206 251 308 359
#
# _framework density 19.553248
#
# number of rings (size 3 to 8) (size 9 to 14) (size 15 to 20)
#    0.000    1.429    2.857    3.000    2.000    4.000 
#    0.000    0.000    0.000    0.000    0.000   25.000 
#    0.000    0.000    0.000    0.000    0.000    0.000 
#
# Total GULP energy -347195.640199 kJ/mol
# GULP energy per Si atom -12399.844293 kJ/mol
# Density = 1.950874 g / cm^3
# Si number density = 19.553248 Si / 1000 Ang^3
#
#
#
# Elastic Constant Matrix: (Units=GPa)
#
#
# Indices 1 2 3 4 5 6 
#
# 1 84.0867 33.0635 39.8572 -0.0036 3.2989 0.0011
# 2 33.0635 93.7265 31.8486 -0.0095 -3.9417 -0.0006
# 3 39.8572 31.8486 128.3879 -0.0168 -5.1315 0.0049
# 4 -0.0036 -0.0095 -0.0168 34.8590 -0.0212 -4.7724
# 5 3.2989 -3.9417 -5.1315 -0.0212 27.2519 -0.0017
# 6 0.0011 -0.0006 0.0049 -4.7724 -0.0017 22.2772
#
#
#
# Elastic Compliance Matrix: (Units=1/GPa)
#
#
# Indices 1 2 3 4 5 6 
#
# 1 0.015555 -0.004301 -0.003891 -0.000004 -0.003238 -0.000001
# 2 -0.004301 0.012877 -0.001777 0.000004 0.002049 0.000002
# 3 -0.003891 -0.001777 0.009518 0.000005 0.002006 -0.000001
# 4 -0.000004 0.000004 0.000005 0.029554 0.000025 0.006331
# 5 -0.003238 0.002049 0.002006 0.000025 0.037761 0.000008
# 6 -0.000001 0.000002 -0.000001 0.006331 0.000008 0.046245
#
#
# Mechanical properties :
#
#
# Convention : Reuss Voigt Hill
#
# Bulk Modulus (GPa) = 55.52339 57.30441 56.41390
# Shear Modulus (GPa) = 28.17647 30.30640 29.24143
#
# Velocity S-wave (km/s) = 3.80018 3.94120 3.87134
# Velocity P-wave (km/s) = 6.90745 7.07681 6.99264
#
# Compressibility (1/GPa) = 0.01801043
#
# Stress axis : x y z
#
# Youngs Moduli (GPa) = 64.28660 77.65981 105.06399
#
# Poissons Ratio (x) = 0.33403 0.40885
# Poissons Ratio (y) = 0.27651 0.18671
# Poissons Ratio (z) = 0.25017 0.13801
#
# Static dielectric constant tensor:
#      x y z
#    x 3.313680 -0.000010 -0.107390 
#    y -0.000010 3.669940 -0.000020 
#    z -0.107390 -0.000020 3.992830 
# 
# 
# High freq. dielectric constant tensor:
#      x y z
#    x 1.721960 0.000000 -0.007290 
#    y 0.000000 1.761710 0.000000 
#    z -0.007290 0.000000 1.786430 
# 
# From -- ./inp_files/207006.got.cif
#   From: 2010.06.25/outbox.cif.g09.slc.cpg/sg15_104_cif.got.tgz:207006.got - 2010.06.28 07:06:18.
