data_PCOD8133851
_publ_section_title
;
Structure prediction by ZEFSAII (Michael W. Deem and Ramdas Pophale) SiO2 
 PCOD8133851
Probable space group: C 2/C
;
_chemical_formula_sum "Si O2"
_cell_formula_units_Z 32
_cell_length_a 18.965181
_cell_length_b 15.586499
_cell_length_c 12.782992
_cell_angle_alpha 90.000000
_cell_angle_beta 156.860121
_cell_angle_gamma 90.000000
_cell_volume 1484.928280
_symmetry_space_group_name_H-M "C 2/C"
_symmetry_group_IT_number 15
_symmetry_cell_setting 'monoclinic'
loop_
_space_group_symop_operation_xyz
x,y,z
-x,y,1/2-z
-x,-y,-z
x,-y,1/2+z
1/2+x,1/2+y,z
1/2-x,1/2+y,1/2-z
1/2-x,1/2-y,-z
1/2+x,1/2-y,1/2+z
loop_
_atom_site_type_symbol
_atom_site_label
_atom_site_fract_x
_atom_site_fract_y
_atom_site_fract_z
Si Si1 0.126822 0.680369 0.277561
Si Si2 0.619679 0.546342 0.810756
Si Si3 0.743870 0.745121 0.730889
Si Si4 0.560897 0.630046 0.136737
O O1 0.250000 0.750000 0.500000
O O2 0.184763 0.586287 0.397472
O O3 0.160415 0.687851 0.199355
O O4 0.918349 0.697148 0.017753
O O5 0.500000 0.554634 0.750000
O O6 0.524020 0.599215 0.588526
O O7 0.651209 0.447573 0.822479
O O8 0.595705 0.671738 0.505156
O O9 0.790213 0.797913 0.688537
#
# Coordination Sequence:
#
# PCOD8133851 Si02
#       4
#     8   8   8   8
#     4  11  17  30  59  85 113 143 185 232 282 326
#     4  11  20  35  55  86 116 146 183 235 289 321
#     4  10  19  34  58  87 106 149 191 228 278 337
#     4  10  22  34  59  82 116 145 188 235 279 334
#
# _framework density 21.549863999999999
#
# number of rings (size 3 to 8) (size 9 to 14) (size 15 to 20)
#    0.000    1.500    7.500    0.750    0.000    0.000 
#    0.000    2.500   11.000    0.000    0.000    0.000 
#    0.000    0.000    0.000    0.000    0.000    0.000 
#
# Total GULP energy -198374.024801 kJ/mol
# GULP energy per Si atom -12398.376550 kJ/mol
# Density = 2.150082 g / cm^3
# Si number density = 21.549864 Si / 1000 Ang^3
#
#
#
# Elastic Constant Matrix: (Units=GPa)
#
#
# Indices 1 2 3 4 5 6 
#
# 1 50.9611 35.6945 26.9070 0.0000 25.5996 0.0000
# 2 35.6945 153.4269 55.0451 0.0000 11.4723 0.0000
# 3 26.9070 55.0451 50.5105 0.0000 15.4968 0.0000
# 4 0.0000 0.0000 0.0000 43.0290 0.0000 -5.9586
# 5 25.5996 11.4723 15.4968 0.0000 24.1437 0.0000
# 6 0.0000 0.0000 0.0000 -5.9586 0.0000 41.4623
#
#
#
# Elastic Compliance Matrix: (Units=1/GPa)
#
#
# Indices 1 2 3 4 5 6 
#
# 1 0.050649 -0.006180 -0.005816 0.000000 -0.047033 0.000000
# 2 -0.006180 0.011632 -0.012077 0.000000 0.008777 0.000000
# 3 -0.005816 -0.012077 0.040351 0.000000 -0.013994 0.000000
# 4 0.000000 0.000000 0.000000 0.023712 0.000000 0.003408
# 5 -0.047033 0.008777 -0.013994 0.000000 0.096100 0.000000
# 6 0.000000 0.000000 0.000000 0.003408 0.000000 0.024608
#
#
# Mechanical properties :
#
#
# Convention : Reuss Voigt Hill
#
# Bulk Modulus (GPa) = 18.35349 54.46576 36.40962
# Shear Modulus (GPa) = 15.95609 30.87713 23.41661
#
# Velocity S-wave (km/s) = 2.72403 3.78937 3.29998
# Velocity P-wave (km/s) = 4.29290 6.66895 5.60821
#
# Compressibility (1/GPa) = 0.05448556
#
# Stress axis : x y z
#
# Youngs Moduli (GPa) = 19.74381 85.96836 24.78253
#
# Poissons Ratio (x) = 0.53127 0.14414
# Poissons Ratio (y) = 0.12201 0.29931
# Poissons Ratio (z) = 0.11483 1.03827
#
# Static dielectric constant tensor:
#      x y z
#    x 3.947480 0.000000 0.223460 
#    y 0.000000 4.338690 0.000000 
#    z 0.223460 0.000000 3.642170 
# 
# 
# High freq. dielectric constant tensor:
#      x y z
#    x 1.849820 0.000000 0.018620 
#    y 0.000000 1.841060 0.000000 
#    z 0.018620 0.000000 1.810480 
# 
# From -- ./inp_files/22256.got.cif
#   From: 2010.06.25/outbox.cif.g09.slc.cpg/sg15_12_cif.got.tgz:22256.got - 2010.06.28 07:06:18.
