data_PCOD8133014
_publ_section_title
;
Structure prediction by ZEFSAII (Michael W. Deem and Ramdas Pophale) SiO2 
 PCOD8133014
Probable space group: C 2/C
;
_chemical_formula_sum "Si O2"
_cell_formula_units_Z 64
_cell_length_a 21.619931
_cell_length_b 11.213282
_cell_length_c 23.142103
_cell_angle_alpha 90.000000
_cell_angle_beta 141.015807
_cell_angle_gamma 90.000000
_cell_volume 3529.503956
_symmetry_space_group_name_H-M "C 2/C"
_symmetry_group_IT_number 15
_symmetry_cell_setting 'monoclinic'
loop_
_space_group_symop_operation_xyz
x,y,z
-x,y,1/2-z
-x,-y,-z
x,-y,1/2+z
1/2+x,1/2+y,z
1/2-x,1/2+y,1/2-z
1/2-x,1/2-y,-z
1/2+x,1/2-y,1/2+z
loop_
_atom_site_type_symbol
_atom_site_label
_atom_site_fract_x
_atom_site_fract_y
_atom_site_fract_z
Si Si1 0.744670 0.974860 0.649647
Si Si2 0.955985 0.882703 0.038110
Si Si3 0.412325 0.830993 0.014903
Si Si4 0.984507 0.244222 0.302814
Si Si5 0.090589 0.669307 0.571931
Si Si6 0.469704 0.527477 0.790626
Si Si7 0.132131 0.092987 0.583530
Si Si8 0.302896 0.754668 0.243013
O O1 0.685875 0.911858 0.553833
O O2 0.850800 0.025305 0.708798
O O3 0.746407 0.872078 0.700381
O O4 0.677946 0.079997 0.624071
O O5 0.054833 0.925896 0.078681
O O6 0.930591 0.747142 0.001032
O O7 0.978984 0.889799 0.123310
O O8 0.866630 0.970983 0.953422
O O9 0.449972 0.825431 0.107589
O O10 0.491743 0.890398 0.027465
O O11 0.395455 0.697580 0.980407
O O12 0.000000 0.293855 0.250000
O O13 0.014059 0.105130 0.329250
O O14 0.870161 0.259545 0.234703
O O15 0.130407 0.754941 0.651795
O O16 0.500000 0.580263 0.750000
O O17 0.233835 0.128001 0.689516
#
# Coordination Sequence:
#
# PCOD8133014 Si02
#       8
#     8   8   8   8   8   8   8   8
#     4  10  20  34  52  75 105 136 167 209 259 308
#     4  10  19  31  54  74 102 133 171 216 253 294
#     4   9  17  33  50  77 105 132 161 211 263 309
#     4   9  17  32  50  74 104 135 167 206 256 308
#     4  10  20  31  53  78 104 134 169 208 264 308
#     4  10  20  36  53  74 101 140 180 214 249 297
#     4   9  17  30  51  76 102 129 164 209 258 306
#     4   9  19  31  49  78 105 133 164 207 257 306
#
# _framework density 18.132860000000001
#
# number of rings (size 3 to 8) (size 9 to 14) (size 15 to 20)
#    0.000    2.500    1.250    1.125    7.000    0.000 
#    2.250    3.125    0.000    0.750    0.000    0.000 
#    0.000    0.000    0.000    0.000    0.000    0.000 
#
# Total GULP energy -396562.119550 kJ/mol
# GULP energy per Si atom -12392.566236 kJ/mol
# Density = 1.809159 g / cm^3
# Si number density = 18.132860 Si / 1000 Ang^3
#
#
#
# Elastic Constant Matrix: (Units=GPa)
#
#
# Indices 1 2 3 4 5 6 
#
# 1 71.9195 28.5902 41.1697 0.0000 -16.7872 0.0000
# 2 28.5902 37.5688 23.8380 0.0000 -3.7572 0.0000
# 3 41.1697 23.8380 98.6637 0.0000 -9.0365 0.0000
# 4 0.0000 0.0000 0.0000 28.0495 0.0000 4.4176
# 5 -16.7872 -3.7572 -9.0365 0.0000 26.7987 0.0000
# 6 0.0000 0.0000 0.0000 4.4176 0.0000 18.7086
#
#
#
# Elastic Compliance Matrix: (Units=1/GPa)
#
#
# Indices 1 2 3 4 5 6 
#
# 1 0.026202 -0.014751 -0.006248 0.000000 0.012238 0.000000
# 2 -0.014751 0.039837 -0.003926 0.000000 -0.004979 0.000000
# 3 -0.006248 -0.003926 0.013706 0.000000 0.000157 0.000000
# 4 0.000000 0.000000 0.000000 0.037028 0.000000 -0.008743
# 5 0.012238 -0.004979 0.000157 0.000000 0.044336 0.000000
# 6 0.000000 0.000000 0.000000 -0.008743 0.000000 0.055516
#
#
# Mechanical properties :
#
#
# Convention : Reuss Voigt Hill
#
# Bulk Modulus (GPa) = 33.45203 43.92753 38.68978
# Shear Modulus (GPa) = 18.08712 22.34832 20.21772
#
# Velocity S-wave (km/s) = 3.16171 3.51447 3.34275
# Velocity P-wave (km/s) = 5.64065 6.38331 6.02344
#
# Compressibility (1/GPa) = 0.02989355
#
# Stress axis : x y z
#
# Youngs Moduli (GPa) = 38.16498 25.10254 72.96297
#
# Poissons Ratio (x) = 0.37029 0.45591
# Poissons Ratio (y) = 0.56298 0.28642
# Poissons Ratio (z) = 0.23847 0.09854
#
# Static dielectric constant tensor:
#      x y z
#    x 3.171450 0.000000 0.058450 
#    y 0.000000 3.117280 0.000000 
#    z 0.058450 0.000000 3.564000 
# 
# 
# High freq. dielectric constant tensor:
#      x y z
#    x 1.672260 0.000000 0.002410 
#    y 0.000000 1.677160 0.000000 
#    z 0.002410 0.000000 1.716820 
# 
# From -- ./inp_files/255349.got.cif
#   From: 2010.06.25/outbox.cif.g09.slc.cpg/sg15_128_cif.got.tgz:255349.got - 2010.06.28 07:06:18.
