data_PCOD8133885
_publ_section_title
;
Structure prediction by ZEFSAII (Michael W. Deem and Ramdas Pophale) SiO2 
 PCOD8133885
Probable space group: C 2/C
;
_chemical_formula_sum "Si O2"
_cell_formula_units_Z 64
_cell_length_a 20.269735
_cell_length_b 8.136363
_cell_length_c 25.344720
_cell_angle_alpha 90.000000
_cell_angle_beta 51.208718
_cell_angle_gamma 90.000000
_cell_volume 3257.953191
_symmetry_space_group_name_H-M "C 2/C"
_symmetry_group_IT_number 15
_symmetry_cell_setting 'monoclinic'
loop_
_space_group_symop_operation_xyz
x,y,z
-x,y,1/2-z
-x,-y,-z
x,-y,1/2+z
1/2+x,1/2+y,z
1/2-x,1/2+y,1/2-z
1/2-x,1/2-y,-z
1/2+x,1/2-y,1/2+z
loop_
_atom_site_type_symbol
_atom_site_label
_atom_site_fract_x
_atom_site_fract_y
_atom_site_fract_z
Si Si1 0.750523 0.447203 0.874740
Si Si2 0.656146 0.125076 0.935376
Si Si3 0.765289 0.728412 0.785398
Si Si4 0.326750 0.440977 0.845144
Si Si5 0.687270 0.163718 0.569634
Si Si6 0.439154 0.076049 0.411208
Si Si7 0.369981 0.011426 0.162967
Si Si8 0.912699 0.263641 0.816746
O O1 0.676363 0.313170 0.909768
O O2 0.731117 0.585278 0.840894
O O3 0.755489 0.526683 0.930202
O O4 0.841719 0.362998 0.819566
O O5 0.741702 0.030132 0.909689
O O6 0.616595 0.028810 0.905565
O O7 0.589292 0.134166 0.016547
O O8 0.815789 0.871283 0.791477
O O9 0.685382 0.822959 0.799512
O O10 0.824944 0.648097 0.711290
O O11 0.352268 0.289367 0.868778
O O12 0.402729 0.570827 0.809288
O O13 0.750000 0.250000 0.500000
O O14 0.607556 0.094393 0.577858
O O15 0.539114 0.046087 0.357536
O O16 0.410612 0.207589 0.381017
O O17 0.000000 0.330134 0.750000
#
# Coordination Sequence:
#
# PCOD8133885 Si02
#       8
#     8   8   8   8   8   8   8   8
#     4   9  20  36  60  82 109 153 194 235 292 347
#     4  10  20  38  58  85 116 156 196 239 284 348
#     4  10  21  40  61  81 110 154 198 240 279 347
#     4   9  20  36  61  88 113 152 195 234 292 350
#     4  10  19  34  59  86 118 148 184 234 295 351
#     4  11  23  36  59  87 122 151 190 243 293 348
#     4  11  23  39  61  83 115 158 198 236 288 339
#     4  10  21  36  57  87 118 148 190 244 293 345
#
# _framework density 19.644235999999999
#
# number of rings (size 3 to 8) (size 9 to 14) (size 15 to 20)
#    0.000    2.000    1.250    1.875    1.750    4.500 
#    0.000    3.125    0.000    0.000    0.000    0.000 
#    0.000    0.000    0.000    0.000    0.000    0.000 
#
# Total GULP energy -396802.999208 kJ/mol
# GULP energy per Si atom -12400.093725 kJ/mol
# Density = 1.959952 g / cm^3
# Si number density = 19.644236 Si / 1000 Ang^3
#
#
#
# Elastic Constant Matrix: (Units=GPa)
#
#
# Indices 1 2 3 4 5 6 
#
# 1 91.1854 42.7095 29.3949 -0.0007 -9.0946 -0.0012
# 2 42.7095 110.7378 27.5284 -0.0027 -6.6056 -0.0013
# 3 29.3949 27.5284 89.2743 -0.0005 -1.9663 0.0005
# 4 -0.0007 -0.0027 -0.0005 29.3112 0.0003 3.3051
# 5 -9.0946 -6.6056 -1.9663 0.0003 25.4294 0.0000
# 6 -0.0012 -0.0013 0.0005 3.3051 0.0000 31.1320
#
#
#
# Elastic Compliance Matrix: (Units=1/GPa)
#
#
# Indices 1 2 3 4 5 6 
#
# 1 0.014543 -0.004565 -0.003298 0.000000 0.003760 0.000000
# 2 -0.004565 0.011350 -0.001971 0.000001 0.001163 0.000000
# 3 -0.003298 -0.001971 0.012880 0.000000 -0.000696 0.000000
# 4 0.000000 0.000001 0.000000 0.034530 0.000000 -0.003666
# 5 0.003760 0.001163 -0.000696 0.000000 0.040918 0.000000
# 6 0.000000 0.000000 0.000000 -0.003666 0.000000 0.032510
#
#
# Mechanical properties :
#
#
# Convention : Reuss Voigt Hill
#
# Bulk Modulus (GPa) = 52.34267 54.49593 53.41930
# Shear Modulus (GPa) = 28.94053 29.94551 29.44302
#
# Velocity S-wave (km/s) = 3.84244 3.90858 3.87565
# Velocity P-wave (km/s) = 6.81094 6.94053 6.87604
#
# Compressibility (1/GPa) = 0.01910487
#
# Stress axis : x y z
#
# Youngs Moduli (GPa) = 68.76181 88.10313 77.64020
#
# Poissons Ratio (x) = 0.40217 0.25606
# Poissons Ratio (y) = 0.31388 0.15305
# Poissons Ratio (z) = 0.22678 0.17368
#
# Static dielectric constant tensor:
#      x y z
#    x 3.673910 -0.000010 0.212670 
#    y -0.000010 4.061330 0.000000 
#    z 0.212670 0.000000 3.464520 
# 
# 
# High freq. dielectric constant tensor:
#      x y z
#    x 1.756840 0.000000 0.016830 
#    y 0.000000 1.772790 0.000000 
#    z 0.016830 0.000000 1.756830 
# 
# From -- ./inp_files/279558.got.cif
#   From: 2010.06.25/outbox.cif.g09.slc.cpg/sg15_140_cif.got.tgz:279558.got - 2010.06.28 07:06:18.
