data_PCOD8133798
_publ_section_title
;
Structure prediction by ZEFSAII (Michael W. Deem and Ramdas Pophale) SiO2 
 PCOD8133798
Probable space group: C 2/C
;
_chemical_formula_sum "Si O2"
_cell_formula_units_Z 40
_cell_length_a 9.142662
_cell_length_b 25.324480
_cell_length_c 8.821383
_cell_angle_alpha 90.000000
_cell_angle_beta 70.421446
_cell_angle_gamma 90.000000
_cell_volume 1924.354674
_symmetry_space_group_name_H-M "C 2/C"
_symmetry_group_IT_number 15
_symmetry_cell_setting 'monoclinic'
loop_
_space_group_symop_operation_xyz
x,y,z
-x,y,1/2-z
-x,-y,-z
x,-y,1/2+z
1/2+x,1/2+y,z
1/2-x,1/2+y,1/2-z
1/2-x,1/2-y,-z
1/2+x,1/2-y,1/2+z
loop_
_atom_site_type_symbol
_atom_site_label
_atom_site_fract_x
_atom_site_fract_y
_atom_site_fract_z
Si Si1 0.663141 0.532161 0.112801
Si Si2 0.683533 0.234441 0.182923
Si Si3 0.685553 0.644593 0.182363
Si Si4 0.183405 0.329481 0.182090
Si Si5 0.663266 0.433316 0.266464
O O1 0.500000 0.520269 0.250000
O O2 0.740157 0.583284 0.166011
O O3 0.750972 0.477171 0.127766
O O4 0.642364 0.541587 0.941564
O O5 0.500000 0.234240 0.250000
O O6 0.744864 0.175569 0.199142
O O7 0.746518 0.275966 0.279916
O O8 0.750000 0.250000 0.000000
O O9 0.500000 0.647124 0.250000
O O10 0.752603 0.670540 0.008912
O O11 0.232521 0.380948 0.261371
O O12 0.000000 0.325948 0.250000
O O13 0.500000 0.415145 0.250000
#
# Coordination Sequence:
#
# PCOD8133798 Si02
#       5
#     8   8   8   8   8
#     4   9  18  32  56  84 111 148 188 231 279 331
#     4  12  24  38  60  89 113 145 191 241 285 335
#     4  10  21  40  60  81 113 154 189 227 284 343
#     4  11  23  40  58  82 117 155 187 230 288 342
#     4  10  19  34  57  84 112 148 192 233 274 333
#
# _framework density 20.786187999999999
#
# number of rings (size 3 to 8) (size 9 to 14) (size 15 to 20)
#    0.000    1.600    0.000    6.600    0.000    4.800 
#    0.000    5.000    0.000    0.000    0.000    0.000 
#    0.000    0.000    0.000    0.000    0.000    0.000 
#
# Total GULP energy -247897.161945 kJ/mol
# GULP energy per Si atom -12394.858097 kJ/mol
# Density = 2.073888 g / cm^3
# Si number density = 20.786188 Si / 1000 Ang^3
#
#
#
# Elastic Constant Matrix: (Units=GPa)
#
#
# Indices 1 2 3 4 5 6 
#
# 1 115.8974 42.3805 15.1444 0.0000 0.2456 0.0000
# 2 42.3805 104.1211 1.5885 0.0000 22.8568 0.0000
# 3 15.1444 1.5885 66.7355 0.0000 2.6853 0.0000
# 4 0.0000 0.0000 0.0000 38.7799 0.0000 21.3950
# 5 0.2456 22.8568 2.6853 0.0000 30.8613 0.0000
# 6 0.0000 0.0000 0.0000 21.3950 0.0000 -8.1955
#
#
#
# Elastic Compliance Matrix: (Units=1/GPa)
#
#
# Indices 1 2 3 4 5 6 
#
# 1 0.010876 -0.005275 -0.002505 0.000000 0.004038 0.000000
# 2 -0.005275 0.014028 0.001284 0.000000 -0.010459 0.000000
# 3 -0.002505 0.001284 0.015615 0.000000 -0.002290 0.000000
# 4 0.000000 0.000000 0.000000 0.010567 0.000000 0.027586
# 5 0.004038 -0.010459 -0.002290 0.000000 0.040317 0.000000
# 6 0.000000 0.000000 0.000000 0.027586 0.000000 -0.050002
#
#
# Mechanical properties :
#
#
# Convention : Reuss Voigt Hill
#
# Bulk Modulus (GPa) = 36.32919 44.99785 40.66352
# Shear Modulus (GPa) = 78.65599 27.46517 53.06058
#
# Velocity S-wave (km/s) = 6.15814 3.63894 5.05789
# Velocity P-wave (km/s) = 8.25100 6.27302 7.32905
#
# Compressibility (1/GPa) = 0.02752607
#
# Stress axis : x y z
#
# Youngs Moduli (GPa) = 91.94466 71.28699 64.04270
#
# Poissons Ratio (x) = 0.37605 0.16043
# Poissons Ratio (y) = 0.48503 -0.08224
# Poissons Ratio (z) = 0.23033 -0.09154
#
# Static dielectric constant tensor:
#      x y z
#    x 3.547460 0.000000 0.094170 
#    y 0.000000 5.673910 0.000000 
#    z 0.094170 0.000000 3.885910 
# 
# 
# High freq. dielectric constant tensor:
#      x y z
#    x 1.783790 0.000000 0.007880 
#    y 0.000000 1.844960 0.000000 
#    z 0.007880 0.000000 1.820550 
# 
# From -- ./inp_files/24435.got.cif
#   From: 2010.06.25/outbox.cif.g09.slc.cpg/sg15_13_cif.got.tgz:24435.got - 2010.06.28 07:06:18.
