data_PCOD8133161
_publ_section_title
;
Structure prediction by ZEFSAII (Michael W. Deem and Ramdas Pophale) SiO2 
 PCOD8133161
Probable space group: C 2/C
;
_chemical_formula_sum "Si O2"
_cell_formula_units_Z 36
_cell_length_a 17.627321
_cell_length_b 21.753269
_cell_length_c 5.112829
_cell_angle_alpha 90.000000
_cell_angle_beta 113.641560
_cell_angle_gamma 90.000000
_cell_volume 1795.981108
_symmetry_space_group_name_H-M "C 2/C"
_symmetry_group_IT_number 15
_symmetry_cell_setting 'monoclinic'
loop_
_space_group_symop_operation_xyz
x,y,z
-x,y,1/2-z
-x,-y,-z
x,-y,1/2+z
1/2+x,1/2+y,z
1/2-x,1/2+y,1/2-z
1/2-x,1/2-y,-z
1/2+x,1/2-y,1/2+z
loop_
_atom_site_type_symbol
_atom_site_label
_atom_site_fract_x
_atom_site_fract_y
_atom_site_fract_z
Si Si1 0.763824 0.670416 0.259894
Si Si2 0.162372 0.797998 0.132361
Si Si3 0.583100 0.537480 0.044605
Si Si4 0.500000 0.641006 0.250000
Si Si5 0.279475 0.963249 0.829243
O O1 0.830466 0.724718 0.309785
O O2 0.709411 0.682493 0.437946
O O3 0.814235 0.606293 0.356873
O O4 0.702967 0.665018 0.927683
O O5 0.066288 0.815556 0.985010
O O6 0.557735 0.480065 0.206342
O O7 0.544736 0.601223 0.087515
O O8 0.680825 0.543667 0.196913
O O9 0.311977 0.004515 0.635958
#
# Coordination Sequence:
#
# PCOD8133161 Si02
#       5
#     8   8   8   4   8
#     4  10  20  41  50  77 101 143 172 225 251 312
#     4  10  23  34  58  70 107 139 181 211 265 290
#     4  10  22  33  45  73 111 143 166 204 243 300
#     4  12  22  36  52  80 100 148 174 216 246 320
#     4  10  19  32  54  76 100 138 175 210 253 309
#
# _framework density 20.044753
#
# number of rings (size 3 to 8) (size 9 to 14) (size 15 to 20)
#    0.000    1.778    2.222    2.000    6.222    2.667 
#    0.000    0.000    0.000    0.000    0.000    1.556 
#    0.000    0.000    0.000    0.000    0.000    0.000 
#
# Total GULP energy -223257.898531 kJ/mol
# GULP energy per Si atom -12403.216585 kJ/mol
# Density = 1.999913 g / cm^3
# Si number density = 20.044753 Si / 1000 Ang^3
#
#
#
# Elastic Constant Matrix: (Units=GPa)
#
#
# Indices 1 2 3 4 5 6 
#
# 1 30.6568 15.8086 24.1280 0.0000 -5.0276 0.0000
# 2 15.8086 149.0504 38.0151 0.0000 -3.0659 0.0000
# 3 24.1280 38.0151 113.8380 0.0000 -20.9409 0.0000
# 4 0.0000 0.0000 0.0000 31.1299 0.0000 -5.5954
# 5 -5.0276 -3.0659 -20.9409 0.0000 32.7553 0.0000
# 6 0.0000 0.0000 0.0000 -5.5954 0.0000 33.0062
#
#
#
# Elastic Compliance Matrix: (Units=1/GPa)
#
#
# Indices 1 2 3 4 5 6 
#
# 1 0.039873 -0.002299 -0.007476 0.000000 0.001125 0.000000
# 2 -0.002299 0.007495 -0.002212 0.000000 -0.001065 0.000000
# 3 -0.007476 -0.002212 0.012306 0.000000 0.006513 0.000000
# 4 0.000000 0.000000 0.000000 0.033133 0.000000 0.005617
# 5 0.001125 -0.001065 0.006513 0.000000 0.034766 0.000000
# 6 0.000000 0.000000 0.000000 0.005617 0.000000 0.031250
#
#
# Mechanical properties :
#
#
# Convention : Reuss Voigt Hill
#
# Bulk Modulus (GPa) = 28.01126 49.93874 38.97500
# Shear Modulus (GPa) = 25.68094 33.75118 29.71606
#
# Velocity S-wave (km/s) = 3.58324 4.10785 3.85448
# Velocity P-wave (km/s) = 5.57891 6.88963 6.26862
#
# Compressibility (1/GPa) = 0.03569993
#
# Stress axis : x y z
#
# Youngs Moduli (GPa) = 25.07937 133.41988 81.26382
#
# Poissons Ratio (x) = 0.30674 0.60757
# Poissons Ratio (y) = 0.05766 0.17972
# Poissons Ratio (z) = 0.18750 0.29507
#
# Static dielectric constant tensor:
#      x y z
#    x 3.350820 0.000000 -0.220390 
#    y 0.000000 3.995390 0.000000 
#    z -0.220390 0.000000 3.791880 
# 
# 
# High freq. dielectric constant tensor:
#      x y z
#    x 1.738620 0.000000 -0.033970 
#    y 0.000000 1.791690 0.000000 
#    z -0.033970 0.000000 1.793570 
# 
# From -- ./inp_files/10036.got.cif
#   From: 2010.06.25/outbox.cif.g09.slc.cpg/sg15_6_cif.got.tgz:10036.got - 2010.06.28 07:06:18.
