data_PCOD8133945
_publ_section_title
;
Structure prediction by ZEFSAII (Michael W. Deem and Ramdas Pophale) SiO2 
 PCOD8133945
Probable space group: C 2/C
;
_chemical_formula_sum "Si O2"
_cell_formula_units_Z 48
_cell_length_a 17.792549
_cell_length_b 8.517410
_cell_length_c 15.632300
_cell_angle_alpha 90.000000
_cell_angle_beta 80.121653
_cell_angle_gamma 90.000000
_cell_volume 2333.896798
_symmetry_space_group_name_H-M "C 2/C"
_symmetry_group_IT_number 15
_symmetry_cell_setting 'monoclinic'
loop_
_space_group_symop_operation_xyz
x,y,z
-x,y,1/2-z
-x,-y,-z
x,-y,1/2+z
1/2+x,1/2+y,z
1/2-x,1/2+y,1/2-z
1/2-x,1/2-y,-z
1/2+x,1/2-y,1/2+z
loop_
_atom_site_type_symbol
_atom_site_label
_atom_site_fract_x
_atom_site_fract_y
_atom_site_fract_z
Si Si1 0.931592 0.863840 0.817956
Si Si2 0.929854 0.567714 0.098353
Si Si3 0.329469 0.889300 0.781155
Si Si4 0.827298 0.042649 0.720371
Si Si5 0.413707 0.060811 0.914096
Si Si6 0.974778 0.087131 0.589753
O O1 0.858261 0.909642 0.777263
O O2 0.895762 0.739869 0.891085
O O3 0.000000 0.782867 0.750000
O O4 0.967941 0.023499 0.849185
O O5 0.870782 0.556220 0.186622
O O6 0.981054 0.726212 0.081433
O O7 0.994208 0.438961 0.103076
O O8 0.884714 0.535339 0.017678
O O9 0.251419 0.984948 0.804522
O O10 0.316576 0.703049 0.776669
O O11 0.378097 0.932980 0.856156
O O12 0.886104 0.057653 0.630153
O O13 0.000000 0.000000 0.500000
#
# Coordination Sequence:
#
# PCOD8133945 Si02
#       6
#     8   8   8   8   8   8
#     4  10  19  34  61  90 114 156 198 242 296 351
#     4  10  22  38  61  91 120 158 198 247 299 353
#     4  11  22  42  58  86 124 161 198 245 301 359
#     4  10  23  39  61  86 121 162 196 243 303 355
#     4  11  21  37  62  91 121 157 199 247 296 352
#     4  10  19  39  61  90 118 149 200 251 293 348
#
# _framework density 20.566462000000001
#
# number of rings (size 3 to 8) (size 9 to 14) (size 15 to 20)
#    0.000    1.667    1.667    3.500    0.000    4.000 
#    3.000    3.333    0.000    0.000    0.000    0.000 
#    0.000    0.000    0.000    0.000    0.000    0.000 
#
# Total GULP energy -297513.360400 kJ/mol
# GULP energy per Si atom -12396.390017 kJ/mol
# Density = 2.051965 g / cm^3
# Si number density = 20.566462 Si / 1000 Ang^3
#
#
#
# Elastic Constant Matrix: (Units=GPa)
#
#
# Indices 1 2 3 4 5 6 
#
# 1 77.3727 20.5276 39.1925 0.0000 11.5126 0.0000
# 2 20.5276 79.4077 27.1417 0.0000 4.5810 0.0000
# 3 39.1925 27.1417 122.4000 0.0000 18.1448 0.0000
# 4 0.0000 0.0000 0.0000 31.8448 0.0000 2.7006
# 5 11.5126 4.5810 18.1448 0.0000 24.9887 0.0000
# 6 0.0000 0.0000 0.0000 2.7006 0.0000 26.6141
#
#
#
# Elastic Compliance Matrix: (Units=1/GPa)
#
#
# Indices 1 2 3 4 5 6 
#
# 1 0.016260 -0.002591 -0.004025 0.000000 -0.004093 0.000000
# 2 -0.002591 0.014042 -0.002330 0.000000 0.000312 0.000000
# 3 -0.004025 -0.002330 0.010800 0.000000 -0.005560 0.000000
# 4 0.000000 0.000000 0.000000 0.031675 0.000000 -0.003214
# 5 -0.004093 0.000312 -0.005560 0.000000 0.045884 0.000000
# 6 0.000000 0.000000 0.000000 -0.003214 0.000000 0.037900
#
#
# Mechanical properties :
#
#
# Convention : Reuss Voigt Hill
#
# Bulk Modulus (GPa) = 43.08823 50.32267 46.70545
# Shear Modulus (GPa) = 27.44394 29.51076 28.47735
#
# Velocity S-wave (km/s) = 3.65691 3.79211 3.72513
# Velocity P-wave (km/s) = 6.23112 6.61021 6.42346
#
# Compressibility (1/GPa) = 0.02320820
#
# Stress axis : x y z
#
# Youngs Moduli (GPa) = 61.50108 71.21695 92.59513
#
# Poissons Ratio (x) = 0.18455 0.37269
# Poissons Ratio (y) = 0.15938 0.21576
# Poissons Ratio (z) = 0.24754 0.16594
#
# Static dielectric constant tensor:
#      x y z
#    x 3.479980 0.000000 0.092430 
#    y 0.000000 3.807450 0.000000 
#    z 0.092430 0.000000 3.881700 
# 
# 
# High freq. dielectric constant tensor:
#      x y z
#    x 1.785050 0.000000 0.009440 
#    y 0.000000 1.812260 0.000000 
#    z 0.009440 0.000000 1.808270 
# 
# From -- ./inp_files/159721.got.cif
#   From: 2010.06.25/outbox.cif.g09.slc.cpg/sg15_80_cif.got.tgz:159721.got - 2010.06.28 07:06:18.
