data_PCOD8133213
_publ_section_title
;
Structure prediction by ZEFSAII (Michael W. Deem and Ramdas Pophale) SiO2 
 PCOD8133213
Probable space group: C 2/C
;
_chemical_formula_sum "Si O2"
_cell_formula_units_Z 56
_cell_length_a 7.259153
_cell_length_b 23.584034
_cell_length_c 18.481919
_cell_angle_alpha 90.000000
_cell_angle_beta 125.516319
_cell_angle_gamma 90.000000
_cell_volume 2575.424839
_symmetry_space_group_name_H-M "C 2/C"
_symmetry_group_IT_number 15
_symmetry_cell_setting 'monoclinic'
loop_
_space_group_symop_operation_xyz
x,y,z
-x,y,1/2-z
-x,-y,-z
x,-y,1/2+z
1/2+x,1/2+y,z
1/2-x,1/2+y,1/2-z
1/2-x,1/2-y,-z
1/2+x,1/2-y,1/2+z
loop_
_atom_site_type_symbol
_atom_site_label
_atom_site_fract_x
_atom_site_fract_y
_atom_site_fract_z
Si Si1 0.533800 0.824390 0.950643
Si Si2 0.675345 0.468697 0.958358
Si Si3 0.535128 0.702404 0.604304
Si Si4 0.306628 0.122730 0.762878
Si Si5 0.169187 0.998414 0.728914
Si Si6 0.319407 0.853192 0.045703
Si Si7 0.988367 0.551877 0.097233
O O1 0.349544 0.827022 0.973053
O O2 0.781499 0.819445 0.040963
O O3 0.466970 0.770489 0.886244
O O4 0.530883 0.880327 0.900147
O O5 0.419246 0.478625 0.870358
O O6 0.845291 0.464509 0.929970
O O7 0.685782 0.412604 0.009828
O O8 0.746167 0.522606 0.024322
O O9 0.649461 0.674895 0.701237
O O10 0.674342 0.687985 0.563293
O O11 0.500000 0.109493 0.750000
O O12 0.425849 0.137453 0.865804
O O13 0.158188 0.066349 0.733691
O O14 0.417323 0.973352 0.805024
O O15 0.000000 0.972559 0.750000
#
# Coordination Sequence:
#
# PCOD8133213 Si02
#       7
#     8   8   8   8   8   8   8
#     4  10  21  38  60  79 115 153 190 244 291 339
#     4   9  17  31  54  84 111 143 187 233 285 352
#     4  10  22  38  56  87 112 150 202 235 286 352
#     4  10  21  36  53  85 116 144 190 240 281 348
#     4  10  19  32  56  85 112 147 191 232 293 354
#     4  10  20  38  60  83 113 153 189 238 291 346
#     4   9  17  32  53  83 112 145 185 236 292 344
#
# _framework density 21.743986
#
# number of rings (size 3 to 8) (size 9 to 14) (size 15 to 20)
#    0.000    2.286    1.429    1.286    4.000    0.000 
#    2.571   14.286    0.000    1.714    0.000    0.000 
#    0.000    0.000    0.000    0.000    0.000    0.000 
#
# Total GULP energy -347165.764267 kJ/mol
# GULP energy per Si atom -12398.777295 kJ/mol
# Density = 2.169450 g / cm^3
# Si number density = 21.743986 Si / 1000 Ang^3
#
#
#
# Elastic Constant Matrix: (Units=GPa)
#
#
# Indices 1 2 3 4 5 6 
#
# 1 19.7710 10.8309 6.4962 0.0000 8.6469 0.0000
# 2 10.8309 173.6435 83.5589 0.0000 14.3258 0.0000
# 3 6.4962 83.5589 137.9697 0.0000 19.4470 0.0000
# 4 0.0000 0.0000 0.0000 32.2674 0.0000 3.0800
# 5 8.6469 14.3258 19.4470 0.0000 21.2483 0.0000
# 6 0.0000 0.0000 0.0000 3.0800 0.0000 22.8252
#
#
#
# Elastic Compliance Matrix: (Units=1/GPa)
#
#
# Indices 1 2 3 4 5 6 
#
# 1 0.062664 -0.002979 0.002486 0.000000 -0.025767 0.000000
# 2 -0.002979 0.008292 -0.004896 0.000000 0.000103 0.000000
# 3 0.002486 -0.004896 0.011221 0.000000 -0.007980 0.000000
# 4 0.000000 0.000000 0.000000 0.031395 0.000000 -0.004236
# 5 -0.025767 0.000103 -0.007980 0.000000 0.064783 0.000000
# 6 0.000000 0.000000 0.000000 -0.004236 0.000000 0.044383
#
#
# Mechanical properties :
#
#
# Convention : Reuss Voigt Hill
#
# Bulk Modulus (GPa) = 14.00603 59.23958 36.62281
# Shear Modulus (GPa) = 19.43126 30.63471 25.03298
#
# Velocity S-wave (km/s) = 2.99262 3.75758 3.39670
# Velocity P-wave (km/s) = 4.28910 6.79184 5.68003
#
# Compressibility (1/GPa) = 0.07139781
#
# Stress axis : x y z
#
# Youngs Moduli (GPa) = 15.95823 120.59170 89.11720
#
# Poissons Ratio (x) = 0.35922 -0.22150
# Poissons Ratio (y) = 0.04754 0.43635
# Poissons Ratio (z) = -0.03966 0.59046
#
# Static dielectric constant tensor:
#      x y z
#    x 3.622400 0.000000 0.162350 
#    y 0.000000 3.849950 0.000000 
#    z 0.162350 0.000000 4.167270 
# 
# 
# High freq. dielectric constant tensor:
#      x y z
#    x 1.846750 0.000000 0.008790 
#    y 0.000000 1.845590 0.000000 
#    z 0.008790 0.000000 1.850260 
# 
# From -- ./inp_files/233932.got.cif
#   From: 2010.06.25/outbox.cif.g09.slc.cpg/sg15_117_cif.got.tgz:233932.got - 2010.06.28 07:06:18.
