data_PCOD8133262
_publ_section_title
;
Structure prediction by ZEFSAII (Michael W. Deem and Ramdas Pophale) SiO2 
 PCOD8133262
Probable space group: C 2/C
;
_chemical_formula_sum "Si O2"
_cell_formula_units_Z 64
_cell_length_a 22.484569
_cell_length_b 18.247447
_cell_length_c 20.055833
_cell_angle_alpha 90.000000
_cell_angle_beta 28.388258
_cell_angle_gamma 90.000000
_cell_volume 3912.250791
_symmetry_space_group_name_H-M "C 2/C"
_symmetry_group_IT_number 15
_symmetry_cell_setting 'monoclinic'
loop_
_space_group_symop_operation_xyz
x,y,z
-x,y,1/2-z
-x,-y,-z
x,-y,1/2+z
1/2+x,1/2+y,z
1/2-x,1/2+y,1/2-z
1/2-x,1/2-y,-z
1/2+x,1/2-y,1/2+z
loop_
_atom_site_type_symbol
_atom_site_label
_atom_site_fract_x
_atom_site_fract_y
_atom_site_fract_z
Si Si1 0.886145 0.828622 0.147826
Si Si2 0.889602 0.169825 0.971785
Si Si3 0.743225 0.932452 0.380464
Si Si4 0.857405 0.667569 0.204673
Si Si5 0.560179 0.827923 0.619311
Si Si6 0.642381 0.977000 0.869460
Si Si7 0.007025 0.024160 0.670736
Si Si8 0.893397 0.038579 0.559180
O O1 0.773884 0.868982 0.296916
O O2 0.847520 0.744627 0.175198
O O3 0.905149 0.873655 0.060277
O O4 0.013015 0.830489 0.064175
O O5 0.884901 0.245540 0.935431
O O6 0.925096 0.103120 0.887657
O O7 0.756063 0.154080 0.134048
O O8 0.664483 0.891447 0.515007
O O9 0.865461 0.967951 0.289026
O O10 0.670893 0.000477 0.417510
O O11 0.857229 0.609638 0.144816
O O12 0.976070 0.661330 0.136468
O O13 0.500000 0.840247 0.750000
O O14 0.751656 0.012428 0.715233
O O15 0.500000 0.000000 0.000000
O O16 0.000000 0.985390 0.750000
O O17 0.080983 0.975304 0.543895
O O18 0.000000 0.000000 0.500000
#
# Coordination Sequence:
#
# PCOD8133262 Si02
#       8
#     8   8   8   8   8   8   8   8
#     4   9  19  32  51  72 100 132 172 222 257 294
#     4  10  19  33  47  74 102 138 181 205 245 313
#     4  10  20  36  48  72 108 134 175 225 256 299
#     4  11  20  32  52  74 101 136 177 209 257 323
#     4  11  23  32  45  70 111 151 168 205 260 312
#     4  11  20  33  54  77 104 135 175 221 266 305
#     4  11  22  34  54  78 101 139 181 220 255 312
#     4  11  18  35  56  74 102 142 177 223 266 299
#
# _framework density 16.35887
#
# number of rings (size 3 to 8) (size 9 to 14) (size 15 to 20)
#    0.000    1.500    7.500    0.375    1.750    0.500 
#    0.000    0.000    0.000    0.000    0.000    1.750 
#    0.000    0.000    0.000    0.000    0.000    0.000 
#
# Total GULP energy -396518.905772 kJ/mol
# GULP energy per Si atom -12391.215805 kJ/mol
# Density = 1.632164 g / cm^3
# Si number density = 16.358870 Si / 1000 Ang^3
#
#
#
# Elastic Constant Matrix: (Units=GPa)
#
#
# Indices 1 2 3 4 5 6 
#
# 1 51.7940 41.4429 35.1646 -0.0002 18.1788 0.0000
# 2 41.4429 79.4430 26.5214 -0.0010 7.9970 0.0005
# 3 35.1646 26.5214 99.3336 -0.0011 1.4969 0.0003
# 4 -0.0002 -0.0010 -0.0011 25.5584 0.0003 1.9696
# 5 18.1788 7.9970 1.4969 0.0003 29.8479 0.0002
# 6 0.0000 0.0005 0.0003 1.9696 0.0002 15.9905
#
#
#
# Elastic Compliance Matrix: (Units=1/GPa)
#
#
# Indices 1 2 3 4 5 6 
#
# 1 0.055194 -0.021598 -0.013363 -0.000001 -0.027159 0.000001
# 2 -0.021598 0.022651 0.001493 0.000001 0.007011 -0.000001
# 3 -0.013363 0.001493 0.014293 0.000000 0.007022 0.000000
# 4 -0.000001 0.000001 0.000000 0.039501 0.000000 -0.004866
# 5 -0.027159 0.007011 0.007022 0.000000 0.047814 -0.000001
# 6 0.000001 -0.000001 0.000000 -0.004866 -0.000001 0.063136
#
#
# Mechanical properties :
#
#
# Convention : Reuss Voigt Hill
#
# Bulk Modulus (GPa) = 39.68110 48.53651 44.10881
# Shear Modulus (GPa) = 15.72693 22.77548 19.25121
#
# Velocity S-wave (km/s) = 3.10396 3.73532 3.43418
# Velocity P-wave (km/s) = 6.09552 6.95254 6.53809
#
# Compressibility (1/GPa) = 0.02520091
#
# Stress axis : x y z
#
# Youngs Moduli (GPa) = 18.11799 44.14907 69.96237
#
# Poissons Ratio (x) = 0.95352 0.93492
# Poissons Ratio (y) = 0.39131 -0.10442
# Poissons Ratio (z) = 0.24211 -0.06589
#
# Static dielectric constant tensor:
#      x y z
#    x 1.365640 -0.000020 -0.754450 
#    y -0.000020 3.349040 -0.000010 
#    z -0.754450 -0.000010 3.038260 
# 
# 
# High freq. dielectric constant tensor:
#      x y z
#    x 1.600990 0.000000 -0.013050 
#    y 0.000000 1.615440 0.000000 
#    z -0.013050 0.000000 1.646520 
# 
# From -- ./inp_files/253221.got.cif
#   From: 2010.06.25/outbox.cif.g09.slc.cpg/sg15_127_cif.got.tgz:253221.got - 2010.06.28 07:06:18.
