data_PCOD8133437
_publ_section_title
;
Structure prediction by ZEFSAII (Michael W. Deem and Ramdas Pophale) SiO2 
 PCOD8133437
Probable space group: C 2/C
;
_chemical_formula_sum "Si O2"
_cell_formula_units_Z 56
_cell_length_a 8.724454
_cell_length_b 18.184010
_cell_length_c 20.671636
_cell_angle_alpha 90.000000
_cell_angle_beta 118.697121
_cell_angle_gamma 90.000000
_cell_volume 2876.647734
_symmetry_space_group_name_H-M "C 2/C"
_symmetry_group_IT_number 15
_symmetry_cell_setting 'monoclinic'
loop_
_space_group_symop_operation_xyz
x,y,z
-x,y,1/2-z
-x,-y,-z
x,-y,1/2+z
1/2+x,1/2+y,z
1/2-x,1/2+y,1/2-z
1/2-x,1/2-y,-z
1/2+x,1/2-y,1/2+z
loop_
_atom_site_type_symbol
_atom_site_label
_atom_site_fract_x
_atom_site_fract_y
_atom_site_fract_z
Si Si1 0.231283 0.943672 0.023097
Si Si2 0.152136 0.103057 0.021045
Si Si3 0.978133 0.775434 0.821513
Si Si4 0.131420 0.370752 0.331693
Si Si5 0.358271 0.817667 0.672801
Si Si6 0.707730 0.812191 0.543803
Si Si7 0.482371 0.285440 0.396488
O O1 0.318036 0.938284 0.111930
O O2 0.229476 0.029187 0.003011
O O3 0.343935 0.891376 0.997687
O O4 0.035257 0.911795 0.984753
O O5 0.284861 0.126439 0.104572
O O6 0.130264 0.164661 0.961321
O O7 0.786469 0.790056 0.807025
O O8 0.000000 0.785036 0.750000
O O9 0.029994 0.691956 0.851719
O O10 0.114381 0.830837 0.881818
O O11 0.310619 0.332504 0.341802
O O12 0.000000 0.400835 0.250000
O O13 0.500000 0.855052 0.750000
O O14 0.438979 0.746755 0.653263
O O15 0.750000 0.750000 0.500000
O O16 0.560652 0.781853 0.562828
#
# Coordination Sequence:
#
# PCOD8133437 Si02
#       7
#     8   8   8   8   8   8   8
#     4  10  19  34  59  81 112 149 198 229 281 340
#     4  10  21  36  54  86 114 155 181 237 289 341
#     4  10  19  33  55  84 105 138 189 234 280 330
#     4   9  17  32  55  83 108 143 191 237 274 333
#     4  12  22  35  56  86 117 146 180 240 292 337
#     4  11  16  34  58  84 103 144 199 234 262 336
#     4  10  21  36  57  84 116 146 193 236 287 336
#
# _framework density 19.467105
#
# number of rings (size 3 to 8) (size 9 to 14) (size 15 to 20)
#    0.000    1.714    5.714    3.000    0.000    0.571 
#    0.000    0.714    0.000    0.857    3.714    0.000 
#    0.000    0.000    0.000    0.000    0.000    0.000 
#
# Total GULP energy -346981.333717 kJ/mol
# GULP energy per Si atom -12392.190490 kJ/mol
# Density = 1.942280 g / cm^3
# Si number density = 19.467105 Si / 1000 Ang^3
#
#
#
# Elastic Constant Matrix: (Units=GPa)
#
#
# Indices 1 2 3 4 5 6 
#
# 1 78.9616 32.8192 36.5040 0.0000 -8.8517 0.0000
# 2 32.8192 91.1613 51.9477 0.0000 1.5853 0.0000
# 3 36.5040 51.9477 138.5831 0.0000 19.3035 0.0000
# 4 0.0000 0.0000 0.0000 21.4735 0.0000 2.1203
# 5 -8.8517 1.5853 19.3035 0.0000 31.7737 0.0000
# 6 0.0000 0.0000 0.0000 2.1203 0.0000 17.9142
#
#
#
# Elastic Compliance Matrix: (Units=1/GPa)
#
#
# Indices 1 2 3 4 5 6 
#
# 1 0.016994 -0.003955 -0.004021 0.000000 0.007374 0.000000
# 2 -0.003955 0.015086 -0.004758 0.000000 0.001036 0.000000
# 3 -0.004021 -0.004758 0.011123 0.000000 -0.007640 0.000000
# 4 0.000000 0.000000 0.000000 0.047120 0.000000 -0.005577
# 5 0.007374 0.001036 -0.007640 0.000000 0.038117 0.000000
# 6 0.000000 0.000000 0.000000 -0.005577 0.000000 0.056482
#
#
# Mechanical properties :
#
#
# Convention : Reuss Voigt Hill
#
# Bulk Modulus (GPa) = 56.38322 61.24975 58.81648
# Shear Modulus (GPa) = 23.11598 26.72794 24.92196
#
# Velocity S-wave (km/s) = 3.44966 3.70939 3.58188
# Velocity P-wave (km/s) = 6.70023 7.06241 6.88370
#
# Compressibility (1/GPa) = 0.01773577
#
# Stress axis : x y z
#
# Youngs Moduli (GPa) = 58.84507 66.28449 89.90611
#
# Poissons Ratio (x) = 0.26214 0.36152
# Poissons Ratio (y) = 0.23272 0.42775
# Poissons Ratio (z) = 0.23662 0.31536
#
# Static dielectric constant tensor:
#      x y z
#    x 3.460800 0.000000 0.321370 
#    y 0.000000 3.403900 0.000000 
#    z 0.321370 0.000000 4.168710 
# 
# 
# High freq. dielectric constant tensor:
#      x y z
#    x 1.737750 0.000000 0.015160 
#    y 0.000000 1.726750 0.000000 
#    z 0.015160 0.000000 1.775720 
# 
# From -- ./inp_files/232779.got.cif
#   From: 2010.06.25/outbox.cif.g09.slc.cpg/sg15_117_cif.got.tgz:232779.got - 2010.06.28 07:06:18.
