data_PCOD8133978
_publ_section_title
;
Structure prediction by ZEFSAII (Michael W. Deem and Ramdas Pophale) SiO2 
 PCOD8133978
Probable space group: C 2/C
;
_chemical_formula_sum "Si O2"
_cell_formula_units_Z 64
_cell_length_a 15.233038
_cell_length_b 11.490616
_cell_length_c 21.392740
_cell_angle_alpha 90.000000
_cell_angle_beta 48.293938
_cell_angle_gamma 90.000000
_cell_volume 2795.538655
_symmetry_space_group_name_H-M "C 2/C"
_symmetry_group_IT_number 15
_symmetry_cell_setting 'monoclinic'
loop_
_space_group_symop_operation_xyz
x,y,z
-x,y,1/2-z
-x,-y,-z
x,-y,1/2+z
1/2+x,1/2+y,z
1/2-x,1/2+y,1/2-z
1/2-x,1/2-y,-z
1/2+x,1/2-y,1/2+z
loop_
_atom_site_type_symbol
_atom_site_label
_atom_site_fract_x
_atom_site_fract_y
_atom_site_fract_z
Si Si1 0.236727 0.150787 0.935696
Si Si2 0.517077 0.651736 0.811599
Si Si3 0.122826 0.913602 0.744544
Si Si4 0.876101 0.362804 0.663121
Si Si5 0.512957 0.220113 0.638080
Si Si6 0.609884 0.969170 0.231532
Si Si7 0.401388 0.874354 0.519181
Si Si8 0.332090 0.530353 0.412217
O O1 0.347207 0.211736 0.917445
O O2 0.279661 0.050527 0.866899
O O3 0.162824 0.250076 0.936710
O O4 0.153273 0.093935 0.027921
O O5 0.500000 0.704814 0.750000
O O6 0.617263 0.550709 0.764547
O O7 0.561090 0.749511 0.838759
O O8 0.390042 0.598005 0.892514
O O9 0.244111 0.846185 0.700519
O O10 0.099830 0.906737 0.679581
O O11 0.027362 0.854028 0.836739
O O12 0.856498 0.459342 0.724240
O O13 0.949959 0.408646 0.566103
O O14 0.436501 0.157703 0.727050
O O15 0.494223 0.154248 0.579824
O O16 0.500000 0.034177 0.250000
O O17 0.307964 0.971954 0.538601
#
# Coordination Sequence:
#
# PCOD8133978 Si02
#       8
#     8   8   8   8   8   8   8   8
#     4  10  19  34  63  90 118 146 195 253 305 348
#     4  10  21  39  63  85 116 163 204 243 295 361
#     4  10  21  35  63  89 119 151 200 251 300 351
#     4  11  24  38  56  82 127 160 200 243 296 356
#     4  10  20  37  62  91 118 151 196 246 305 359
#     4  10  22  38  60  81 116 162 202 238 292 363
#     4  10  20  35  60  90 122 149 194 257 301 347
#     4   9  18  36  60  91 116 148 197 248 299 354
#
# _framework density 22.893619000000001
#
# number of rings (size 3 to 8) (size 9 to 14) (size 15 to 20)
#    0.000    2.000    0.000    4.875    3.500    7.000 
#    2.250    1.250    0.000    9.750    0.000    0.000 
#    0.000    0.000    0.000    0.000    0.000    0.000 
#
# Total GULP energy -396418.302806 kJ/mol
# GULP energy per Si atom -12388.071963 kJ/mol
# Density = 2.284151 g / cm^3
# Si number density = 22.893619 Si / 1000 Ang^3
#
#
#
# Elastic Constant Matrix: (Units=GPa)
#
#
# Indices 1 2 3 4 5 6 
#
# 1 59.6516 16.3671 15.9309 0.0000 18.6097 0.0000
# 2 16.3671 43.8157 1.9741 0.0000 8.8962 0.0000
# 3 15.9309 1.9741 124.2888 0.0000 14.9062 0.0000
# 4 0.0000 0.0000 0.0000 20.3383 0.0000 17.4507
# 5 18.6097 8.8962 14.9062 0.0000 35.5170 0.0000
# 6 0.0000 0.0000 0.0000 17.4507 0.0000 29.4226
#
#
#
# Elastic Compliance Matrix: (Units=1/GPa)
#
#
# Indices 1 2 3 4 5 6 
#
# 1 0.021750 -0.006189 -0.001589 0.000000 -0.009179 0.000000
# 2 -0.006189 0.025822 0.000811 0.000000 -0.003565 0.000000
# 3 -0.001589 0.000811 0.008594 0.000000 -0.002977 0.000000
# 4 0.000000 0.000000 0.000000 0.100118 0.000000 -0.059380
# 5 -0.009179 -0.003565 -0.002977 0.000000 0.035108 0.000000
# 6 0.000000 0.000000 0.000000 -0.059380 0.000000 0.069206
#
#
# Mechanical properties :
#
#
# Convention : Reuss Voigt Hill
#
# Bulk Modulus (GPa) = 23.67899 32.92225 28.30062
# Shear Modulus (GPa) = 17.32445 29.95452 23.63948
#
# Velocity S-wave (km/s) = 2.75387 3.62114 3.21686
# Velocity P-wave (km/s) = 4.52518 5.64759 5.11725
#
# Compressibility (1/GPa) = 0.04223154
#
# Stress axis : x y z
#
# Youngs Moduli (GPa) = 45.97653 38.72636 116.36557
#
# Poissons Ratio (x) = 0.23969 0.18486
# Poissons Ratio (y) = 0.28457 -0.09435
# Poissons Ratio (z) = 0.07304 -0.03140
#
# Static dielectric constant tensor:
#      x y z
#    x 3.956750 0.000000 0.083770 
#    y 0.000000 3.721890 0.000000 
#    z 0.083770 0.000000 4.623770 
# 
# 
# High freq. dielectric constant tensor:
#      x y z
#    x 1.878290 0.000000 0.010330 
#    y 0.000000 1.877820 0.000000 
#    z 0.010330 0.000000 1.932040 
# 
# From -- ./inp_files/248596.got.cif
#   From: 2010.06.25/outbox.cif.g09.slc.cpg/sg15_125_cif.got.tgz:248596.got - 2010.06.28 07:06:18.
