data_PCOD8133667
_publ_section_title
;
Structure prediction by ZEFSAII (Michael W. Deem and Ramdas Pophale) SiO2 
 PCOD8133667
Probable space group: C 2/C
;
_chemical_formula_sum "Si O2"
_cell_formula_units_Z 48
_cell_length_a 11.613187
_cell_length_b 22.110358
_cell_length_c 10.655969
_cell_angle_alpha 90.000000
_cell_angle_beta 108.519287
_cell_angle_gamma 90.000000
_cell_volume 2594.464802
_symmetry_space_group_name_H-M "C 2/C"
_symmetry_group_IT_number 15
_symmetry_cell_setting 'monoclinic'
loop_
_space_group_symop_operation_xyz
x,y,z
-x,y,1/2-z
-x,-y,-z
x,-y,1/2+z
1/2+x,1/2+y,z
1/2-x,1/2+y,1/2-z
1/2-x,1/2-y,-z
1/2+x,1/2-y,1/2+z
loop_
_atom_site_type_symbol
_atom_site_label
_atom_site_fract_x
_atom_site_fract_y
_atom_site_fract_z
Si Si1 0.145407 0.950768 0.301153
Si Si2 0.794966 0.814001 0.160749
Si Si3 0.066822 0.253356 0.990831
Si Si4 0.894609 0.850157 0.805535
Si Si5 0.701917 0.225941 0.114030
Si Si6 0.368279 0.473073 0.933292
O O1 0.192028 0.883437 0.300732
O O2 0.196200 0.977335 0.451931
O O3 0.000000 0.952694 0.250000
O O4 0.197597 0.989710 0.201587
O O5 0.910781 0.788326 0.124143
O O6 0.778136 0.781088 0.285673
O O7 0.673784 0.802947 0.035731
O O8 0.941011 0.289959 0.939109
O O9 0.059731 0.209914 0.109122
O O10 0.773481 0.833996 0.684309
O O11 0.868835 0.902372 0.897073
O O12 0.000000 0.873832 0.750000
O O13 0.750000 0.250000 0.000000
O O14 0.500000 0.500000 0.000000
#
# Coordination Sequence:
#
# PCOD8133667 Si02
#       6
#     8   8   8   8   8   8
#     4  10  19  34  54  79 111 143 188 236 287 337
#     4  10  21  34  57  79 111 150 183 227 274 347
#     4  10  20  37  54  80 113 146 187 221 280 336
#     4  11  20  34  54  80 114 144 184 233 281 344
#     4  11  22  33  55  83 115 148 180 233 286 336
#     4  10  21  33  53  81 110 148 188 239 289 335
#
# _framework density 18.500926
#
# number of rings (size 3 to 8) (size 9 to 14) (size 15 to 20)
#    0.000    1.667    3.333    3.000    2.333    1.333 
#    0.000    0.000    0.000    1.000    0.000    2.333 
#    0.000    0.000    0.000    0.000    0.000    0.000 
#
# Total GULP energy -297528.801307 kJ/mol
# GULP energy per Si atom -12397.033388 kJ/mol
# Density = 1.845882 g / cm^3
# Si number density = 18.500926 Si / 1000 Ang^3
#
#
#
# Elastic Constant Matrix: (Units=GPa)
#
#
# Indices 1 2 3 4 5 6 
#
# 1 76.1335 15.5829 39.0413 0.0000 1.4212 0.0000
# 2 15.5829 70.5113 35.0146 0.0000 -1.8589 0.0000
# 3 39.0413 35.0146 111.5992 0.0000 -18.8403 0.0000
# 4 0.0000 0.0000 0.0000 36.4136 0.0000 0.3601
# 5 1.4212 -1.8589 -18.8403 0.0000 37.9556 0.0000
# 6 0.0000 0.0000 0.0000 0.3601 0.0000 17.5327
#
#
#
# Elastic Compliance Matrix: (Units=1/GPa)
#
#
# Indices 1 2 3 4 5 6 
#
# 1 0.016520 -0.000671 -0.006198 0.000000 -0.003728 0.000000
# 2 -0.000671 0.016961 -0.005394 0.000000 -0.001822 0.000000
# 3 -0.006198 -0.005394 0.013988 0.000000 0.006911 0.000000
# 4 0.000000 0.000000 0.000000 0.027468 0.000000 -0.000564
# 5 -0.003728 -0.001822 0.006911 0.000000 0.029828 0.000000
# 6 0.000000 0.000000 0.000000 -0.000564 0.000000 0.057048
#
#
# Mechanical properties :
#
#
# Convention : Reuss Voigt Hill
#
# Bulk Modulus (GPa) = 43.58806 48.61351 46.10079
# Shear Modulus (GPa) = 25.77484 29.62074 27.69779
#
# Velocity S-wave (km/s) = 3.73656 4.00564 3.87344
# Velocity P-wave (km/s) = 6.49823 6.90846 6.70648
#
# Compressibility (1/GPa) = 0.02294206
#
# Stress axis : x y z
#
# Youngs Moduli (GPa) = 60.53190 58.95821 71.48881
#
# Poissons Ratio (x) = 0.03958 0.44309
# Poissons Ratio (y) = 0.04064 0.38563
# Poissons Ratio (z) = 0.37518 0.31804
#
# Static dielectric constant tensor:
#      x y z
#    x 3.332030 0.000000 -0.224930 
#    y 0.000000 3.262310 0.000000 
#    z -0.224930 0.000000 3.991210 
# 
# 
# High freq. dielectric constant tensor:
#      x y z
#    x 1.685740 0.000000 -0.023600 
#    y 0.000000 1.700010 0.000000 
#    z -0.023600 0.000000 1.739860 
# 
# From -- ./inp_files/88348.got.cif
#   From: 2010.06.25/outbox.cif.g09.slc.cpg/sg15_45_cif.got.tgz:88348.got - 2010.06.28 07:06:18.
