data_PCOD8133614
_publ_section_title
;
Structure prediction by ZEFSAII (Michael W. Deem and Ramdas Pophale) SiO2 
 PCOD8133614
Probable space group: C 2/C
;
_chemical_formula_sum "Si O2"
_cell_formula_units_Z 56
_cell_length_a 26.740942
_cell_length_b 21.588124
_cell_length_c 5.202231
_cell_angle_alpha 90.000000
_cell_angle_beta 74.520511
_cell_angle_gamma 90.000000
_cell_volume 2894.241996
_symmetry_space_group_name_H-M "C 2/C"
_symmetry_group_IT_number 15
_symmetry_cell_setting 'monoclinic'
loop_
_space_group_symop_operation_xyz
x,y,z
-x,y,1/2-z
-x,-y,-z
x,-y,1/2+z
1/2+x,1/2+y,z
1/2-x,1/2+y,1/2-z
1/2-x,1/2-y,-z
1/2+x,1/2-y,1/2+z
loop_
_atom_site_type_symbol
_atom_site_label
_atom_site_fract_x
_atom_site_fract_y
_atom_site_fract_z
Si Si1 0.634052 0.461283 0.266886
Si Si2 0.198666 0.782620 0.797721
Si Si3 0.123135 0.730857 0.533165
Si Si4 0.967908 0.754191 0.534461
Si Si5 0.254491 0.038721 0.587080
Si Si6 0.203048 0.334875 0.641948
Si Si7 0.600141 0.667560 0.683923
O O1 0.620366 0.492128 0.556204
O O2 0.596716 0.401325 0.301575
O O3 0.694253 0.441903 0.163833
O O4 0.174803 0.768739 0.550413
O O5 0.251613 0.822245 0.707434
O O6 0.208171 0.716438 0.915547
O O7 0.158120 0.825619 0.000623
O O8 0.083698 0.712403 0.821073
O O9 0.145786 0.670745 0.353460
O O10 0.089717 0.778019 0.404922
O O11 0.944627 0.820687 0.469760
O O12 0.000000 0.763310 0.750000
O O13 0.000000 0.723656 0.250000
O O14 0.290846 0.098286 0.494557
O O15 0.268033 0.010397 0.845541
#
# Coordination Sequence:
#
# PCOD8133614 Si02
#       7
#     8   8   8   8   8   8   8
#     4  10  22  35  53  77 109 151 197 238 268 321
#     4   9  19  31  52  83 114 153 177 238 273 337
#     4  10  21  33  58  85 110 147 183 229 291 344
#     4  11  22  39  59  84 110 142 180 235 302 360
#     4  10  22  36  52  76 113 164 195 225 266 315
#     4  10  19  34  50  82 120 150 191 227 274 332
#     4  10  20  36  57  83 109 146 194 229 291 339
#
# _framework density 19.348762000000001
#
# number of rings (size 3 to 8) (size 9 to 14) (size 15 to 20)
#    0.000    2.000    2.857    0.429    6.000    1.143 
#    0.000    0.000    0.000    2.571    0.000    0.000 
#    0.000    3.429    0.000    0.000    0.000    0.000 
#
# Total GULP energy -346912.807565 kJ/mol
# GULP energy per Si atom -12389.743127 kJ/mol
# Density = 1.930472 g / cm^3
# Si number density = 19.348762 Si / 1000 Ang^3
#
#
#
# Elastic Constant Matrix: (Units=GPa)
#
#
# Indices 1 2 3 4 5 6 
#
# 1 54.9138 5.1446 23.7222 0.0000 3.2251 0.0000
# 2 5.1446 35.3113 -6.4210 0.0000 -6.9874 0.0000
# 3 23.7222 -6.4210 68.0560 0.0000 -9.6465 0.0000
# 4 0.0000 0.0000 0.0000 9.5159 0.0000 -1.6128
# 5 3.2251 -6.9874 -9.6465 0.0000 41.2921 0.0000
# 6 0.0000 0.0000 0.0000 -1.6128 0.0000 11.7580
#
#
#
# Elastic Compliance Matrix: (Units=1/GPa)
#
#
# Indices 1 2 3 4 5 6 
#
# 1 0.023104 -0.006055 -0.009335 0.000000 -0.005010 0.000000
# 2 -0.006055 0.031759 0.006139 0.000000 0.007281 0.000000
# 3 -0.009335 0.006139 0.019420 0.000000 0.006305 0.000000
# 4 0.000000 0.000000 0.000000 0.107589 0.000000 0.014757
# 5 -0.005010 0.007281 0.006305 0.000000 0.027314 0.000000
# 6 0.000000 0.000000 0.000000 0.014757 0.000000 0.087072
#
#
# Mechanical properties :
#
#
# Convention : Reuss Voigt Hill
#
# Bulk Modulus (GPa) = 17.92685 22.57473 20.25079
# Shear Modulus (GPa) = 14.99904 21.56889 18.28396
#
# Velocity S-wave (km/s) = 2.78725 3.34240 3.07737
# Velocity P-wave (km/s) = 4.43211 5.15637 4.80789
#
# Compressibility (1/GPa) = 0.05578224
#
# Stress axis : x y z
#
# Youngs Moduli (GPa) = 43.28181 31.48726 51.49201
#
# Poissons Ratio (x) = 0.19065 0.48067
# Poissons Ratio (y) = 0.26207 -0.31611
# Poissons Ratio (z) = 0.40403 -0.19330
#
# Static dielectric constant tensor:
#      x y z
#    x 3.687980 0.000000 -0.017440 
#    y 0.000000 3.156670 0.000000 
#    z -0.017440 0.000000 3.815480 
# 
# 
# High freq. dielectric constant tensor:
#      x y z
#    x 1.742680 0.000000 0.008660 
#    y 0.000000 1.700080 0.000000 
#    z 0.008660 0.000000 1.770070 
# 
# From -- ./inp_files/17352.got.cif
#   From: 2010.06.25/outbox.cif.g09.slc.cpg/sg15_9_cif.got.tgz:17352.got - 2010.06.28 07:06:18.
