data_PCOD8133795
_publ_section_title
;
Structure prediction by ZEFSAII (Michael W. Deem and Ramdas Pophale) SiO2 
 PCOD8133795
Probable space group: C 2/C
;
_chemical_formula_sum "Si O2"
_cell_formula_units_Z 60
_cell_length_a 24.454036
_cell_length_b 8.519579
_cell_length_c 11.451688
_cell_angle_alpha 90.000000
_cell_angle_beta 95.814751
_cell_angle_gamma 90.000000
_cell_volume 2373.546950
_symmetry_space_group_name_H-M "C 2/C"
_symmetry_group_IT_number 15
_symmetry_cell_setting 'monoclinic'
loop_
_space_group_symop_operation_xyz
x,y,z
-x,y,1/2-z
-x,-y,-z
x,-y,1/2+z
1/2+x,1/2+y,z
1/2-x,1/2+y,1/2-z
1/2-x,1/2-y,-z
1/2+x,1/2-y,1/2+z
loop_
_atom_site_type_symbol
_atom_site_label
_atom_site_fract_x
_atom_site_fract_y
_atom_site_fract_z
Si Si1 0.290423 0.776867 0.128471
Si Si2 0.894605 0.370658 0.277282
Si Si3 0.145522 0.440856 0.521906
Si Si4 0.500000 0.937964 0.750000
Si Si5 0.939883 0.759264 0.386004
Si Si6 0.295457 0.462065 0.251222
Si Si7 0.869177 0.745156 0.137551
Si Si8 0.600566 0.420867 0.580228
O O1 0.355663 0.800920 0.169907
O O2 0.275444 0.600294 0.160175
O O3 0.255453 0.909657 0.182750
O O4 0.298419 0.827703 0.990763
O O5 0.853627 0.473358 0.352540
O O6 0.921950 0.230978 0.357983
O O7 0.945409 0.458283 0.229281
O O8 0.092301 0.327070 0.516334
O O9 0.141102 0.572765 0.418959
O O10 0.502257 0.828662 0.630662
O O11 0.910715 0.732132 0.253734
O O12 0.945498 0.942151 0.419833
O O13 0.312165 0.313104 0.176147
O O14 0.343188 0.517787 0.349156
O O15 0.890208 0.876199 0.051653
#
# Coordination Sequence:
#
# PCOD8133795 Si02
#       8
#     8   8   8   4   8   8   8   8
#     4  11  21  37  57  86 121 157 198 248 293 352
#     4   9  21  38  57  81 118 160 200 244 300 351
#     4  10  19  34  57  83 115 153 193 242 295 344
#     4  10  20  38  60  88 120 154 200 254 298 350
#     4  10  21  38  61  91 119 155 203 248 297 355
#     4  10  22  37  61  90 119 161 204 237 296 359
#     4  10  20  40  62  87 125 160 193 248 297 351
#     4   9  20  40  61  86 120 159 199 244 295 355
#
# _framework density 25.278624000000001
#
# number of rings (size 3 to 8) (size 9 to 14) (size 15 to 20)
#    0.000    2.133    0.000    3.200    0.000    3.733 
#    0.000   25.333    0.000    0.000    0.000    0.000 
#    0.000    0.000    0.000    0.000    0.000    0.000 
#
# Total GULP energy -371655.895788 kJ/mol
# GULP energy per Si atom -12388.529860 kJ/mol
# Density = 2.522109 g / cm^3
# Si number density = 25.278624 Si / 1000 Ang^3
#
#
#
# Elastic Constant Matrix: (Units=GPa)
#
#
# Indices 1 2 3 4 5 6 
#
# 1 64.8731 31.5332 26.4606 0.0000 -42.3228 0.0000
# 2 31.5332 158.0471 33.2441 0.0000 -37.6761 0.0000
# 3 26.4606 33.2441 98.4973 0.0000 -24.2031 0.0000
# 4 0.0000 0.0000 0.0000 38.2496 0.0000 -40.5277
# 5 -42.3228 -37.6761 -24.2031 0.0000 52.4503 0.0000
# 6 0.0000 0.0000 0.0000 -40.5277 0.0000 -22.8064
#
#
#
# Elastic Compliance Matrix: (Units=1/GPa)
#
#
# Indices 1 2 3 4 5 6 
#
# 1 0.033143 0.000033 -0.002636 0.000000 0.025551 0.000000
# 2 0.000033 0.007806 -0.001420 0.000000 0.004978 0.000000
# 3 -0.002636 -0.001420 0.011918 0.000000 0.002352 0.000000
# 4 0.000000 0.000000 0.000000 0.009069 0.000000 -0.016115
# 5 0.025551 0.004978 0.002352 0.000000 0.044344 0.000000
# 6 0.000000 0.000000 0.000000 -0.016115 0.000000 -0.015210
#
#
# Mechanical properties :
#
#
# Convention : Reuss Voigt Hill
#
# Bulk Modulus (GPa) = 22.31151 55.98815 39.14983
# Shear Modulus (GPa) = 43.83720 28.92401 36.38060
#
# Velocity S-wave (km/s) = 4.16884 3.38628 3.79777
# Velocity P-wave (km/s) = 5.65842 6.12256 5.89506
#
# Compressibility (1/GPa) = 0.04481992
#
# Stress axis : x y z
#
# Youngs Moduli (GPa) = 30.17216 128.10328 83.90593
#
# Poissons Ratio (x) = -0.00420 0.22121
# Poissons Ratio (y) = -0.00099 0.11916
# Poissons Ratio (z) = 0.07955 0.18193
#
# Static dielectric constant tensor:
#      x y z
#    x 4.522090 0.000000 -0.371220 
#    y 0.000000 5.200040 0.000000 
#    z -0.371220 0.000000 4.786700 
# 
# 
# High freq. dielectric constant tensor:
#      x y z
#    x 1.989640 0.000000 -0.024980 
#    y 0.000000 2.034470 0.000000 
#    z -0.024980 0.000000 2.015930 
# 
# From -- ./inp_files/121982.got.cif
#   From: 2010.06.25/outbox.cif.g09.slc.cpg/sg15_61_cif.got.tgz:121982.got - 2010.06.28 07:06:18.
