data_PCOD8133762
_publ_section_title
;
Structure prediction by ZEFSAII (Michael W. Deem and Ramdas Pophale) SiO2 
 PCOD8133762
Probable space group: C 2/C
;
_chemical_formula_sum "Si O2"
_cell_formula_units_Z 56
_cell_length_a 8.724618
_cell_length_b 11.409472
_cell_length_c 27.772347
_cell_angle_alpha 90.000000
_cell_angle_beta 103.912740
_cell_angle_gamma 90.000000
_cell_volume 2683.447139
_symmetry_space_group_name_H-M "C 2/C"
_symmetry_group_IT_number 15
_symmetry_cell_setting 'monoclinic'
loop_
_space_group_symop_operation_xyz
x,y,z
-x,y,1/2-z
-x,-y,-z
x,-y,1/2+z
1/2+x,1/2+y,z
1/2-x,1/2+y,1/2-z
1/2-x,1/2-y,-z
1/2+x,1/2-y,1/2+z
loop_
_atom_site_type_symbol
_atom_site_label
_atom_site_fract_x
_atom_site_fract_y
_atom_site_fract_z
Si Si1 0.928532 0.480297 0.162707
Si Si2 0.156392 0.826499 0.173762
Si Si3 0.058907 0.993075 0.394280
Si Si4 0.887618 0.390628 0.893247
Si Si5 0.203474 0.176006 0.135833
Si Si6 0.362149 0.730497 0.553075
Si Si7 0.369606 0.187279 0.774492
O O1 0.799691 0.375859 0.151557
O O2 0.841487 0.600154 0.171414
O O3 0.005771 0.498884 0.115667
O O4 0.065287 0.444830 0.210926
O O5 0.128117 0.694476 0.154291
O O6 0.203341 0.823507 0.233932
O O7 0.002679 0.910961 0.155224
O O8 0.079003 0.904785 0.441243
O O9 0.221556 0.060956 0.397931
O O10 0.930941 0.092013 0.396543
O O11 0.986432 0.317694 0.940951
O O12 0.268964 0.250733 0.096287
O O13 0.137240 0.254658 0.173769
O O14 0.250000 0.750000 0.500000
O O15 0.500000 0.252785 0.750000
#
# Coordination Sequence:
#
# PCOD8133762 Si02
#       7
#     8   8   8   8   8   8   8
#     4   9  19  35  53  76 113 153 183 221 272 323
#     4   9  20  34  51  82 117 149 188 226 266 329
#     4  10  20  37  59  84 113 149 189 232 286 339
#     4  10  20  37  59  83 114 148 187 236 286 340
#     4  10  21  39  60  83 116 152 188 234 284 334
#     4  10  23  42  61  84 112 144 191 245 293 347
#     4  10  19  34  56  85 118 151 189 228 269 329
#
# _framework density 20.868682
#
# number of rings (size 3 to 8) (size 9 to 14) (size 15 to 20)
#    0.000    2.286    0.000    2.571    0.000    5.714 
#    0.000   18.571    0.000    0.000    0.000    0.000 
#    0.000    0.000    0.000    0.000    0.000    0.000 
#
# Total GULP energy -346866.714164 kJ/mol
# GULP energy per Si atom -12388.096934 kJ/mol
# Density = 2.082118 g / cm^3
# Si number density = 20.868682 Si / 1000 Ang^3
#
#
#
# Elastic Constant Matrix: (Units=GPa)
#
#
# Indices 1 2 3 4 5 6 
#
# 1 90.0634 35.3382 34.3353 0.0000 20.3294 0.0000
# 2 35.3382 79.6009 39.4253 0.0000 14.5743 0.0000
# 3 34.3353 39.4253 112.7891 0.0000 32.4727 0.0000
# 4 0.0000 0.0000 0.0000 21.1695 0.0000 7.9807
# 5 20.3294 14.5743 32.4727 0.0000 35.4108 0.0000
# 6 0.0000 0.0000 0.0000 7.9807 0.0000 33.3519
#
#
#
# Elastic Compliance Matrix: (Units=1/GPa)
#
#
# Indices 1 2 3 4 5 6 
#
# 1 0.014706 -0.004956 -0.001224 0.000000 -0.005281 0.000000
# 2 -0.004956 0.016955 -0.004386 0.000000 -0.000111 0.000000
# 3 -0.001224 -0.004386 0.013655 0.000000 -0.010014 0.000000
# 4 0.000000 0.000000 0.000000 0.051921 0.000000 -0.012424
# 5 -0.005281 -0.000111 -0.010014 0.000000 0.040500 0.000000
# 6 0.000000 0.000000 0.000000 -0.012424 0.000000 0.032956
#
#
# Mechanical properties :
#
#
# Convention : Reuss Voigt Hill
#
# Bulk Modulus (GPa) = 41.34843 55.62788 48.48815
# Shear Modulus (GPa) = 25.01390 29.54341 27.27866
#
# Velocity S-wave (km/s) = 3.46588 3.76664 3.61939
# Velocity P-wave (km/s) = 5.98942 6.75505 6.38372
#
# Compressibility (1/GPa) = 0.02418471
#
# Stress axis : x y z
#
# Youngs Moduli (GPa) = 67.99748 58.97820 73.23277
#
# Poissons Ratio (x) = 0.29227 0.08967
# Poissons Ratio (y) = 0.33696 0.32121
# Poissons Ratio (z) = 0.08326 0.25869
#
# Static dielectric constant tensor:
#      x y z
#    x 4.013390 0.000000 0.332530 
#    y 0.000000 3.927630 0.000000 
#    z 0.332530 0.000000 3.464650 
# 
# 
# High freq. dielectric constant tensor:
#      x y z
#    x 1.825290 0.000000 0.028470 
#    y 0.000000 1.823690 0.000000 
#    z 0.028470 0.000000 1.776940 
# 
# From -- ./inp_files/307224.got.cif
#   From: 2010.06.25/outbox.cif.g09.slc.cpg/sg15_154_cif.got.tgz:307224.got - 2010.06.28 07:06:18.
