data_PCOD8133082
_publ_section_title
;
Structure prediction by ZEFSAII (Michael W. Deem and Ramdas Pophale) SiO2 
 PCOD8133082
Probable space group: C 2/C
;
_chemical_formula_sum "Si O2"
_cell_formula_units_Z 44
_cell_length_a 21.800014
_cell_length_b 12.311096
_cell_length_c 9.027864
_cell_angle_alpha 90.000000
_cell_angle_beta 77.581940
_cell_angle_gamma 90.000000
_cell_volume 2366.231541
_symmetry_space_group_name_H-M "C 2/C"
_symmetry_group_IT_number 15
_symmetry_cell_setting 'monoclinic'
loop_
_space_group_symop_operation_xyz
x,y,z
-x,y,1/2-z
-x,-y,-z
x,-y,1/2+z
1/2+x,1/2+y,z
1/2-x,1/2+y,1/2-z
1/2-x,1/2-y,-z
1/2+x,1/2-y,1/2+z
loop_
_atom_site_type_symbol
_atom_site_label
_atom_site_fract_x
_atom_site_fract_y
_atom_site_fract_z
Si Si1 0.297945 0.272203 0.246804
Si Si2 0.500000 0.987129 0.750000
Si Si3 0.419406 0.096633 0.550819
Si Si4 0.214697 0.987333 0.404939
Si Si5 0.698291 0.949604 0.879219
Si Si6 0.334194 0.717418 0.055648
O O1 0.316955 0.382465 0.152541
O O2 0.317943 0.178339 0.120532
O O3 0.334909 0.258349 0.380273
O O4 0.224137 0.271887 0.327198
O O5 0.532705 0.910146 0.611475
O O6 0.450495 0.063365 0.690063
O O7 0.396181 0.221312 0.583502
O O8 0.361439 0.017899 0.538029
O O9 0.237489 0.967604 0.560541
O O10 0.281325 0.016006 0.295688
O O11 0.165340 0.087374 0.419675
#
# Coordination Sequence:
#
# PCOD8133082 Si02
#       6
#     8   4   8   8   8   8
#     4  10  19  32  49  85 116 151 172 202 255 352
#     4  10  24  36  58  78 104 130 206 232 276 312
#     4  11  20  39  55  82 102 146 175 242 273 307
#     4  11  19  33  49  85 117 151 172 202 253 357
#     4  11  20  31  56  77 123 143 175 211 272 319
#     4  10  19  33  54  75 117 146 171 217 271 314
#
# _framework density 18.594968000000001
#
# number of rings (size 3 to 8) (size 9 to 14) (size 15 to 20)
#    0.000    1.455    3.636    4.909    0.000    0.000 
#    0.000    0.000    0.000    0.000    0.000   21.636 
#    0.000    0.000    0.000    0.000    0.000    0.000 
#
# Total GULP energy -272721.499945 kJ/mol
# GULP energy per Si atom -12396.431816 kJ/mol
# Density = 1.855265 g / cm^3
# Si number density = 18.594968 Si / 1000 Ang^3
#
#
#
# Elastic Constant Matrix: (Units=GPa)
#
#
# Indices 1 2 3 4 5 6 
#
# 1 48.1385 33.4356 12.7459 0.0000 7.0311 0.0000
# 2 33.4356 151.0261 24.7432 0.0000 4.2527 0.0000
# 3 12.7459 24.7432 55.6673 0.0000 5.9370 0.0000
# 4 0.0000 0.0000 0.0000 24.0507 0.0000 5.1641
# 5 7.0311 4.2527 5.9370 0.0000 21.9853 0.0000
# 6 0.0000 0.0000 0.0000 5.1641 0.0000 29.7711
#
#
#
# Elastic Compliance Matrix: (Units=1/GPa)
#
#
# Indices 1 2 3 4 5 6 
#
# 1 0.026062 -0.005093 -0.003006 0.000000 -0.006538 0.000000
# 2 -0.005093 0.008143 -0.002532 0.000000 0.000737 0.000000
# 3 -0.003006 -0.002532 0.020205 0.000000 -0.004005 0.000000
# 4 0.000000 0.000000 0.000000 0.043187 0.000000 -0.007491
# 5 -0.006538 0.000737 -0.004005 0.000000 0.048515 0.000000
# 6 0.000000 0.000000 0.000000 -0.007491 0.000000 0.034889
#
#
# Mechanical properties :
#
#
# Convention : Reuss Voigt Hill
#
# Bulk Modulus (GPa) = 30.16861 44.07569 37.12215
# Shear Modulus (GPa) = 23.43983 27.42190 25.43087
#
# Velocity S-wave (km/s) = 3.55427 3.84434 3.70215
# Velocity P-wave (km/s) = 5.75353 6.59240 6.18720
#
# Compressibility (1/GPa) = 0.03314704
#
# Stress axis : x y z
#
# Youngs Moduli (GPa) = 38.37024 122.80476 49.49344
#
# Poissons Ratio (x) = 0.62547 0.14878
# Poissons Ratio (y) = 0.19543 0.12531
# Poissons Ratio (z) = 0.11535 0.31093
#
# Static dielectric constant tensor:
#      x y z
#    x 3.014110 0.000000 0.081650 
#    y 0.000000 3.564190 0.000000 
#    z 0.081650 0.000000 3.441620 
# 
# 
# High freq. dielectric constant tensor:
#      x y z
#    x 1.666000 0.000000 0.014760 
#    y 0.000000 1.726770 0.000000 
#    z 0.014760 0.000000 1.733810 
# 
# From -- ./inp_files/54338.got.cif
#   From: 2010.06.25/outbox.cif.g09.slc.cpg/sg15_28_cif.got.tgz:54338.got - 2010.06.28 07:06:18.
