data_PCOD8133748
_publ_section_title
;
Structure prediction by ZEFSAII (Michael W. Deem and Ramdas Pophale) SiO2 
 PCOD8133748
Probable space group: C 2/C
;
_chemical_formula_sum "Si O2"
_cell_formula_units_Z 64
_cell_length_a 17.170223
_cell_length_b 9.018048
_cell_length_c 20.276308
_cell_angle_alpha 90.000000
_cell_angle_beta 90.009875
_cell_angle_gamma 90.000000
_cell_volume 3139.621911
_symmetry_space_group_name_H-M "C 2/C"
_symmetry_group_IT_number 15
_symmetry_cell_setting 'monoclinic'
loop_
_space_group_symop_operation_xyz
x,y,z
-x,y,1/2-z
-x,-y,-z
x,-y,1/2+z
1/2+x,1/2+y,z
1/2-x,1/2+y,1/2-z
1/2-x,1/2-y,-z
1/2+x,1/2-y,1/2+z
loop_
_atom_site_type_symbol
_atom_site_label
_atom_site_fract_x
_atom_site_fract_y
_atom_site_fract_z
Si Si1 0.341377 0.595827 0.190081
Si Si2 0.672644 0.159803 0.574968
Si Si3 0.338463 0.078037 0.686829
Si Si4 0.672649 0.159916 0.424978
Si Si5 0.916028 0.055013 0.425614
Si Si6 0.083967 0.945097 0.425613
Si Si7 0.838463 0.421843 0.813248
Si Si8 0.841372 0.904289 0.309901
O O1 0.378946 0.760127 0.182056
O O2 0.350903 0.516581 0.120168
O O3 0.250723 0.607651 0.204170
O O4 0.380425 0.500015 0.249984
O O5 0.685782 0.103085 0.499967
O O6 0.749999 0.249921 0.598616
O O7 0.597014 0.267619 0.578070
O O8 0.652857 0.019447 0.620701
O O9 0.249280 0.107551 0.704225
O O10 0.347139 0.980368 0.620800
O O11 0.378102 0.999971 0.750052
O O12 0.597020 0.267739 0.421875
O O13 0.902805 0.997486 0.499990
O O14 0.850880 0.983655 0.379793
O O15 0.999992 0.000057 0.399852
O O16 0.878942 0.259995 0.817995
#
# Coordination Sequence:
#
# PCOD8133748 Si02
#       8
#     8   8   8   8   8   8   8   8
#     4  10  20  34  54  81 112 145 183 232 282 337
#     4  10  19  34  56  82 112 146 189 237 283 338
#     4  10  20  32  55  84 111 143 183 234 285 334
#     4  10  19  34  56  82 112 146 189 237 283 338
#     4  10  21  37  56  78 109 149 188 228 281 344
#     4  10  21  37  56  78 109 149 188 228 281 344
#     4  10  20  32  55  84 111 143 183 234 285 334
#     4  10  20  34  54  81 112 145 183 232 282 337
#
# _framework density 20.384622
#
# number of rings (size 3 to 8) (size 9 to 14) (size 15 to 20)
#    0.000    2.000    2.500    1.500    3.500    1.500 
#    0.000    3.750    0.000    6.000    0.000    0.000 
#    0.000    0.000    0.000    0.000    0.000    0.000 
#
# Total GULP energy -396573.638934 kJ/mol
# GULP energy per Si atom -12392.926217 kJ/mol
# Density = 2.033823 g / cm^3
# Si number density = 20.384622 Si / 1000 Ang^3
#
#
#
# Elastic Constant Matrix: (Units=GPa)
#
#
# Indices 1 2 3 4 5 6 
#
# 1 34.9005 15.4003 6.9603 0.0000 -0.0090 0.0000
# 2 15.4003 161.5147 81.0999 0.0000 -0.0681 0.0000
# 3 6.9603 81.0999 129.7075 0.0000 -0.0525 0.0000
# 4 0.0000 0.0000 0.0000 42.4997 0.0000 -0.0051
# 5 -0.0090 -0.0681 -0.0525 0.0000 7.0607 0.0000
# 6 0.0000 0.0000 0.0000 -0.0051 0.0000 22.8611
#
#
#
# Elastic Compliance Matrix: (Units=1/GPa)
#
#
# Indices 1 2 3 4 5 6 
#
# 1 0.029917 -0.002983 0.000260 0.000000 0.000011 0.000000
# 2 -0.002983 0.009322 -0.005669 0.000000 0.000044 0.000000
# 3 0.000260 -0.005669 0.011240 0.000000 0.000029 0.000000
# 4 0.000000 0.000000 0.000000 0.023530 0.000000 0.000005
# 5 0.000011 0.000044 0.000029 0.000000 0.141629 0.000000
# 6 0.000000 0.000000 0.000000 0.000005 0.000000 0.043742
#
#
# Mechanical properties :
#
#
# Convention : Reuss Voigt Hill
#
# Bulk Modulus (GPa) = 29.67730 59.22709 44.45220
# Shear Modulus (GPa) = 17.39757 29.32845 23.36301
#
# Velocity S-wave (km/s) = 2.92458 3.79721 3.38910
# Velocity P-wave (km/s) = 5.09848 6.95291 6.09661
#
# Compressibility (1/GPa) = 0.03369578
#
# Stress axis : x y z
#
# Youngs Moduli (GPa) = 33.42540 107.27124 88.96764
#
# Poissons Ratio (x) = 0.31999 -0.02311
# Poissons Ratio (y) = 0.09971 0.50432
# Poissons Ratio (z) = -0.00868 0.60808
#
# Static dielectric constant tensor:
#      x y z
#    x 3.280620 0.000000 -0.000210 
#    y 0.000000 4.048940 0.000000 
#    z -0.000210 0.000000 3.681200 
# 
# 
# High freq. dielectric constant tensor:
#      x y z
#    x 1.743290 0.000000 -0.000020 
#    y 0.000000 1.801020 0.000000 
#    z -0.000020 0.000000 1.808110 
# 
# From -- ./inp_files/251578.got.cif
#   From: 2010.06.25/outbox.cif.g09.slc.cpg/sg15_126_cif.got.tgz:251578.got - 2010.06.28 07:06:18.
