data_PCOD8133387
_publ_section_title
;
Structure prediction by ZEFSAII (Michael W. Deem and Ramdas Pophale) SiO2 
 PCOD8133387
Probable space group: C 2/C
;
_chemical_formula_sum "Si O2"
_cell_formula_units_Z 60
_cell_length_a 17.863828
_cell_length_b 28.357157
_cell_length_c 5.334493
_cell_angle_alpha 90.000000
_cell_angle_beta 95.376883
_cell_angle_gamma 90.000000
_cell_volume 2690.389688
_symmetry_space_group_name_H-M "C 2/C"
_symmetry_group_IT_number 15
_symmetry_cell_setting 'monoclinic'
loop_
_space_group_symop_operation_xyz
x,y,z
-x,y,1/2-z
-x,-y,-z
x,-y,1/2+z
1/2+x,1/2+y,z
1/2-x,1/2+y,1/2-z
1/2-x,1/2-y,-z
1/2+x,1/2-y,1/2+z
loop_
_atom_site_type_symbol
_atom_site_label
_atom_site_fract_x
_atom_site_fract_y
_atom_site_fract_z
Si Si1 0.590540 0.017906 0.651913
Si Si2 0.087196 0.143414 0.739762
Si Si3 0.386105 0.872097 0.341451
Si Si4 0.170821 0.121281 0.272871
Si Si5 0.317243 0.835822 0.798042
Si Si6 0.759511 0.978639 0.706257
Si Si7 0.500000 0.197760 0.750000
Si Si8 0.081181 0.252014 0.660423
O O1 0.591838 0.073802 0.662009
O O2 0.547878 0.999438 0.389733
O O3 0.671815 0.991919 0.681623
O O4 0.114210 0.119051 0.490819
O O5 0.104127 0.198732 0.716655
O O6 0.000000 0.133124 0.750000
O O7 0.127262 0.122653 0.996751
O O8 0.327869 0.867887 0.552410
O O9 0.457793 0.838378 0.428702
O O10 0.355570 0.857174 0.058218
O O11 0.226949 0.166346 0.314484
O O12 0.227106 0.077046 0.301309
O O13 0.349202 0.784386 0.730826
O O14 0.798341 0.001352 0.471418
O O15 0.434875 0.233324 0.631772
O O16 0.000000 0.265068 0.750000
#
# Coordination Sequence:
#
# PCOD8133387 Si02
#       8
#     8   8   8   8   8   8   4   8
#     4  10  19  33  54  83 122 164 208 255 316 371
#     4  11  27  44  69  90 132 170 212 269 326 416
#     4  11  21  37  60  96 130 174 219 268 316 365
#     4  12  24  42  66 103 126 166 218 271 336 371
#     4  11  22  37  65  95 135 161 217 284 308 382
#     4  10  19  35  62  90 123 163 203 256 317 400
#     4  10  22  38  66  90 132 178 232 258 296 390
#     4  10  22  41  64  93 128 185 223 249 326 378
#
# _framework density 22.301603
#
# number of rings (size 3 to 8) (size 9 to 14) (size 15 to 20)
#    0.000    1.333    1.333    6.000    3.733    1.067 
#    0.000    0.667    0.000    8.000    0.000    0.000 
#    0.000    0.000    0.000    0.000    0.000    0.000 
#
# Total GULP energy -371725.314982 kJ/mol
# GULP energy per Si atom -12390.843833 kJ/mol
# Density = 2.225084 g / cm^3
# Si number density = 22.301603 Si / 1000 Ang^3
#
#
#
# Elastic Constant Matrix: (Units=GPa)
#
#
# Indices 1 2 3 4 5 6 
#
# 1 75.9007 26.1409 29.4537 0.0000 -8.8811 0.0000
# 2 26.1409 84.5116 43.1639 0.0000 -1.9285 0.0000
# 3 29.4537 43.1639 178.7623 0.0000 -12.5514 0.0000
# 4 0.0000 0.0000 0.0000 28.2271 0.0000 -2.4338
# 5 -8.8811 -1.9285 -12.5514 0.0000 31.1486 0.0000
# 6 0.0000 0.0000 0.0000 -2.4338 0.0000 30.3557
#
#
#
# Elastic Compliance Matrix: (Units=1/GPa)
#
#
# Indices 1 2 3 4 5 6 
#
# 1 0.015505 -0.004036 -0.001325 0.000000 0.003637 0.000000
# 2 -0.004036 0.014555 -0.002950 0.000000 -0.001439 0.000000
# 3 -0.001325 -0.002950 0.006674 0.000000 0.002129 0.000000
# 4 0.000000 0.000000 0.000000 0.035674 0.000000 0.002860
# 5 0.003637 -0.001439 0.002129 0.000000 0.033910 0.000000
# 6 0.000000 0.000000 0.000000 0.002860 0.000000 0.033172
#
#
# Mechanical properties :
#
#
# Convention : Reuss Voigt Hill
#
# Bulk Modulus (GPa) = 49.72311 59.63240 54.67776
# Shear Modulus (GPa) = 30.70936 33.97402 32.34169
#
# Velocity S-wave (km/s) = 3.71482 3.90730 3.81227
# Velocity P-wave (km/s) = 6.38311 6.86681 6.62937
#
# Compressibility (1/GPa) = 0.02011137
#
# Stress axis : x y z
#
# Youngs Moduli (GPa) = 64.49579 68.70339 149.83098
#
# Poissons Ratio (x) = 0.27731 0.19848
# Poissons Ratio (y) = 0.26033 0.44207
# Poissons Ratio (z) = 0.08544 0.20271
#
# Static dielectric constant tensor:
#      x y z
#    x 3.947860 0.000000 -0.162500 
#    y 0.000000 3.821590 0.000000 
#    z -0.162500 0.000000 5.068210 
# 
# 
# High freq. dielectric constant tensor:
#      x y z
#    x 1.865710 0.000000 -0.009020 
#    y 0.000000 1.868420 0.000000 
#    z -0.009020 0.000000 1.904440 
# 
# From -- ./inp_files/11541.got.cif
#   From: 2010.06.25/outbox.cif.g09.slc.cpg/sg15_6_cif.got.tgz:11541.got - 2010.06.28 07:06:18.
