data_PCOD8133071
_publ_section_title
;
Structure prediction by ZEFSAII (Michael W. Deem and Ramdas Pophale) SiO2 
 PCOD8133071
Probable space group: C 2/C
;
_chemical_formula_sum "Si O2"
_cell_formula_units_Z 40
_cell_length_a 20.465698
_cell_length_b 15.024874
_cell_length_c 8.818150
_cell_angle_alpha 90.000000
_cell_angle_beta 124.398150
_cell_angle_gamma 90.000000
_cell_volume 2237.371878
_symmetry_space_group_name_H-M "C 2/C"
_symmetry_group_IT_number 15
_symmetry_cell_setting 'monoclinic'
loop_
_space_group_symop_operation_xyz
x,y,z
-x,y,1/2-z
-x,-y,-z
x,-y,1/2+z
1/2+x,1/2+y,z
1/2-x,1/2+y,1/2-z
1/2-x,1/2-y,-z
1/2+x,1/2-y,1/2+z
loop_
_atom_site_type_symbol
_atom_site_label
_atom_site_fract_x
_atom_site_fract_y
_atom_site_fract_z
Si Si1 0.122254 0.187910 0.111672
Si Si2 0.343391 0.641069 0.012148
Si Si3 0.187159 0.941077 0.468921
Si Si4 0.463015 0.404104 0.431192
Si Si5 0.771768 0.314083 0.392671
O O1 0.142559 0.194959 0.315813
O O2 0.141827 0.283801 0.057213
O O3 0.181332 0.111681 0.120919
O O4 0.030154 0.165113 0.964833
O O5 0.303643 0.545073 0.991663
O O6 0.428824 0.627255 0.047406
O O7 0.287132 0.697439 0.827643
O O8 0.105847 0.910917 0.281791
O O9 0.261361 0.911857 0.456468
O O10 0.500000 0.500000 0.500000
O O11 0.750000 0.250000 0.500000
#
# Coordination Sequence:
#
# PCOD8133071 Si02
#       5
#     8   8   8   8   8
#     4  11  19  29  47  70 110 141 176 210 256 318
#     4  11  19  31  50  74 101 139 181 214 259 320
#     4  10  19  32  49  72 105 141 178 212 260 315
#     4  11  19  29  47  78 110 139 170 210 260 317
#     4   9  21  35  45  67 107 145 171 214 266 315
#
# _framework density 17.878119000000002
#
# number of rings (size 3 to 8) (size 9 to 14) (size 15 to 20)
#    0.000    1.600    4.000    3.000    0.000    0.000 
#    0.000    0.000    0.000    0.000    0.000    0.000 
#    0.000  224.000    0.000    0.000    0.000    0.000 
#
# Total GULP energy -247792.290994 kJ/mol
# GULP energy per Si atom -12389.614550 kJ/mol
# Density = 1.783743 g / cm^3
# Si number density = 17.878119 Si / 1000 Ang^3
#
#
#
# Elastic Constant Matrix: (Units=GPa)
#
#
# Indices 1 2 3 4 5 6 
#
# 1 120.7663 53.8482 25.7621 0.0000 -7.8353 0.0000
# 2 53.8482 61.8181 25.6400 0.0000 7.8466 0.0000
# 3 25.7621 25.6400 83.9718 0.0000 -15.4578 0.0000
# 4 0.0000 0.0000 0.0000 26.6507 0.0000 1.3262
# 5 -7.8353 7.8466 -15.4578 0.0000 28.6429 0.0000
# 6 0.0000 0.0000 0.0000 1.3262 0.0000 45.3161
#
#
#
# Elastic Compliance Matrix: (Units=1/GPa)
#
#
# Indices 1 2 3 4 5 6 
#
# 1 0.015295 -0.015174 0.001639 0.000000 0.009226 0.000000
# 2 -0.015174 0.035945 -0.009878 0.000000 -0.019329 0.000000
# 3 0.001639 -0.009878 0.016658 0.000000 0.012144 0.000000
# 4 0.000000 0.000000 0.000000 0.037577 0.000000 -0.001100
# 5 0.009226 -0.019329 0.012144 0.000000 0.049285 0.000000
# 6 0.000000 0.000000 0.000000 -0.001100 0.000000 0.022099
#
#
# Mechanical properties :
#
#
# Convention : Reuss Voigt Hill
#
# Bulk Modulus (GPa) = 47.45818 53.00632 50.23225
# Shear Modulus (GPa) = 21.67220 30.87566 26.27393
#
# Velocity S-wave (km/s) = 3.48547 4.16024 3.83771
# Velocity P-wave (km/s) = 6.54225 7.26566 6.91342
#
# Compressibility (1/GPa) = 0.02107118
#
# Stress axis : x y z
#
# Youngs Moduli (GPa) = 65.37933 27.82034 60.03240
#
# Poissons Ratio (x) = 0.42215 -0.09839
# Poissons Ratio (y) = 0.99208 0.59301
# Poissons Ratio (z) = -0.10716 0.27481
#
# Static dielectric constant tensor:
#      x y z
#    x 3.982530 0.000000 -0.000050 
#    y 0.000000 3.233750 0.000000 
#    z -0.000050 0.000000 3.923330 
# 
# 
# High freq. dielectric constant tensor:
#      x y z
#    x 1.694010 0.000000 -0.038830 
#    y 0.000000 1.654610 0.000000 
#    z -0.038830 0.000000 1.691950 
# 
# From -- ./inp_files/38615.got.cif
#   From: 2010.06.25/outbox.cif.g09.slc.cpg/sg15_20_cif.got.tgz:38615.got - 2010.06.28 07:06:18.
