data_PCOD8133140
_publ_section_title
;
Structure prediction by ZEFSAII (Michael W. Deem and Ramdas Pophale) SiO2 
 PCOD8133140
Probable space group: C 2/C
;
_chemical_formula_sum "Si O2"
_cell_formula_units_Z 56
_cell_length_a 10.042858
_cell_length_b 27.202692
_cell_length_c 14.282577
_cell_angle_alpha 90.000000
_cell_angle_beta 45.564057
_cell_angle_gamma 90.000000
_cell_volume 2786.085523
_symmetry_space_group_name_H-M "C 2/C"
_symmetry_group_IT_number 15
_symmetry_cell_setting 'monoclinic'
loop_
_space_group_symop_operation_xyz
x,y,z
-x,y,1/2-z
-x,-y,-z
x,-y,1/2+z
1/2+x,1/2+y,z
1/2-x,1/2+y,1/2-z
1/2-x,1/2-y,-z
1/2+x,1/2-y,1/2+z
loop_
_atom_site_type_symbol
_atom_site_label
_atom_site_fract_x
_atom_site_fract_y
_atom_site_fract_z
Si Si1 0.436309 0.489252 0.425718
Si Si2 0.621774 0.816067 0.052544
Si Si3 0.441832 0.941547 0.932067
Si Si4 0.171992 0.537438 0.808927
Si Si5 0.500000 0.103339 0.750000
Si Si6 0.000000 0.068427 0.250000
Si Si7 0.981116 0.215920 0.151621
Si Si8 0.197231 0.642057 0.320481
O O1 0.500000 0.500000 0.500000
O O2 0.257953 0.452989 0.516825
O O3 0.606961 0.465356 0.283879
O O4 0.391978 0.537810 0.385422
O O5 0.592851 0.865047 0.124065
O O6 0.459247 0.774985 0.151287
O O7 0.822099 0.797444 0.993372
O O8 0.612405 0.827062 0.947731
O O9 0.527520 0.888729 0.855096
O O10 0.587323 0.983654 0.831761
O O11 0.422461 0.938073 0.054113
O O12 0.151271 0.569064 0.725138
O O13 0.157320 0.101086 0.219187
O O14 0.194823 0.182701 0.299205
O O15 0.000000 0.200135 0.250000
#
# Coordination Sequence:
#
# PCOD8133140 Si02
#       8
#     8   8   8   8   4   4   8   8
#     4  12  25  38  60  83 127 169 212 262 304 361
#     4  10  19  32  52  86 125 154 204 249 320 371
#     4  11  21  40  57  81 119 171 208 252 304 375
#     4  11  22  36  54  83 123 163 207 253 300 366
#     4  12  22  31  54  88 126 160 201 258 308 376
#     4  12  20  39  56  88 124 170 207 246 310 370
#     4   9  18  32  53  83 122 157 196 263 313 372
#     4  11  20  35  61  83 122 167 203 252 327 373
#
# _framework density 20.099885
#
# number of rings (size 3 to 8) (size 9 to 14) (size 15 to 20)
#    0.000    1.143    7.143    1.714    2.000    0.000 
#    0.000    0.000    0.000    0.000    0.000    1.000 
#   17.143    0.143    0.000    0.000    0.000    0.000 
#
# Total GULP energy -346968.277267 kJ/mol
# GULP energy per Si atom -12391.724188 kJ/mol
# Density = 2.005414 g / cm^3
# Si number density = 20.099885 Si / 1000 Ang^3
#
#
#
# Elastic Constant Matrix: (Units=GPa)
#
#
# Indices 1 2 3 4 5 6 
#
# 1 77.5914 44.6348 29.0839 0.0000 -18.2337 0.0000
# 2 44.6348 125.1172 49.1919 0.0000 -15.2995 0.0000
# 3 29.0839 49.1919 72.8101 0.0000 -19.7660 0.0000
# 4 0.0000 0.0000 0.0000 38.6512 0.0000 -15.9046
# 5 -18.2337 -15.2995 -19.7660 0.0000 32.8900 0.0000
# 6 0.0000 0.0000 0.0000 -15.9046 0.0000 26.8739
#
#
#
# Elastic Compliance Matrix: (Units=1/GPa)
#
#
# Indices 1 2 3 4 5 6 
#
# 1 0.017960 -0.004748 -0.002226 0.000000 0.006410 0.000000
# 2 -0.004748 0.012155 -0.006566 0.000000 -0.000924 0.000000
# 3 -0.002226 -0.006566 0.021385 0.000000 0.008563 0.000000
# 4 0.000000 0.000000 0.000000 0.034201 0.000000 0.020241
# 5 0.006410 -0.000924 0.008563 0.000000 0.038674 0.000000
# 6 0.000000 0.000000 0.000000 0.020241 0.000000 0.049190
#
#
# Mechanical properties :
#
#
# Convention : Reuss Voigt Hill
#
# Bulk Modulus (GPa) = 40.95240 57.92664 49.43952
# Shear Modulus (GPa) = 23.94794 29.85690 26.90242
#
# Velocity S-wave (km/s) = 3.45548 3.85830 3.66243
# Velocity P-wave (km/s) = 6.02819 6.98073 6.52188
#
# Compressibility (1/GPa) = 0.02441859
#
# Stress axis : x y z
#
# Youngs Moduli (GPa) = 55.67861 82.27023 46.76263
#
# Poissons Ratio (x) = 0.39063 0.10409
# Poissons Ratio (y) = 0.26437 0.30707
# Poissons Ratio (z) = 0.12394 0.54023
#
# Static dielectric constant tensor:
#      x y z
#    x 3.406740 0.000000 -0.219660 
#    y 0.000000 3.866300 0.000000 
#    z -0.219660 0.000000 3.995930 
# 
# 
# High freq. dielectric constant tensor:
#      x y z
#    x 1.736590 0.000000 -0.010220 
#    y 0.000000 1.782060 0.000000 
#    z -0.010220 0.000000 1.796580 
# 
# From -- ./inp_files/139496.got.cif
#   From: 2010.06.25/outbox.cif.g09.slc.cpg/sg15_70_cif.got.tgz:139496.got - 2010.06.28 07:06:18.
