data_PCOD8133800
_publ_section_title
;
Structure prediction by ZEFSAII (Michael W. Deem and Ramdas Pophale) SiO2 
 PCOD8133800
Probable space group: C 2/C
;
_chemical_formula_sum "Si O2"
_cell_formula_units_Z 44
_cell_length_a 27.790788
_cell_length_b 9.396111
_cell_length_c 22.709392
_cell_angle_alpha 90.000000
_cell_angle_beta 20.140267
_cell_angle_gamma 90.000000
_cell_volume 2041.814335
_symmetry_space_group_name_H-M "C 2/C"
_symmetry_group_IT_number 15
_symmetry_cell_setting 'monoclinic'
loop_
_space_group_symop_operation_xyz
x,y,z
-x,y,1/2-z
-x,-y,-z
x,-y,1/2+z
1/2+x,1/2+y,z
1/2-x,1/2+y,1/2-z
1/2-x,1/2-y,-z
1/2+x,1/2-y,1/2+z
loop_
_atom_site_type_symbol
_atom_site_label
_atom_site_fract_x
_atom_site_fract_y
_atom_site_fract_z
Si Si1 0.024072 0.759257 0.847622
Si Si2 0.246951 0.489748 0.906482
Si Si3 0.830822 0.051679 0.637134
Si Si4 0.947886 0.820003 0.121209
Si Si5 0.440116 0.983191 0.993370
Si Si6 0.500000 0.882141 0.250000
O O1 0.165392 0.844319 0.697962
O O2 0.014340 0.716370 0.790637
O O3 0.885621 0.854971 0.019370
O O4 0.032708 0.626432 0.883561
O O5 0.355446 0.621173 0.782902
O O6 0.154255 0.507160 0.955509
O O7 0.139125 0.481723 0.085294
O O8 0.871342 0.141970 0.648549
O O9 0.662781 0.023768 0.831048
O O10 0.900786 0.895412 0.554549
O O11 0.960166 0.653143 0.119092
#
# Coordination Sequence:
#
# PCOD8133800 Si02
#       6
#     8   8   8   8   8   4
#     4  10  20  35  59  86 115 150 193 236 276 332
#     4   9  20  38  56  80 112 147 192 238 276 331
#     4   9  18  33  54  83 116 146 182 227 278 343
#     4   9  18  34  55  81 115 148 180 229 287 341
#     4  10  19  34  57  84 115 150 179 224 292 340
#     4  10  20  38  62  80 108 156 198 238 280 322
#
# _framework density 21.549462999999999
#
# number of rings (size 3 to 8) (size 9 to 14) (size 15 to 20)
#    0.000    2.545    0.000    2.727    0.000    3.636 
#    0.000   18.182    0.000   18.545    0.000    0.000 
#    0.000    0.000    0.000    0.000    0.000    0.000 
#
# Total GULP energy -272584.078558 kJ/mol
# GULP energy per Si atom -12390.185389 kJ/mol
# Density = 2.150042 g / cm^3
# Si number density = 21.549463 Si / 1000 Ang^3
#
#
#
# Elastic Constant Matrix: (Units=GPa)
#
#
# Indices 1 2 3 4 5 6 
#
# 1 48.6506 17.4202 4.1344 -0.0005 20.2868 0.0002
# 2 17.4202 111.2385 56.7256 -0.0011 4.6974 0.0010
# 3 4.1344 56.7256 159.4848 -0.0008 25.6033 0.0008
# 4 -0.0005 -0.0011 -0.0008 33.0987 0.0004 0.8950
# 5 20.2868 4.6974 25.6033 0.0004 25.8460 -0.0003
# 6 0.0002 0.0010 0.0008 0.8950 -0.0003 31.0537
#
#
#
# Elastic Compliance Matrix: (Units=1/GPa)
#
#
# Indices 1 2 3 4 5 6 
#
# 1 0.037847 -0.008365 0.007752 0.000001 -0.035865 -0.000001
# 2 -0.008365 0.012939 -0.006019 0.000000 0.010177 0.000000
# 3 0.007752 -0.006019 0.010715 0.000000 -0.015605 0.000000
# 4 0.000001 0.000000 0.000000 0.030236 -0.000002 -0.000871
# 5 -0.035865 0.010177 -0.015605 -0.000002 0.080451 0.000001
# 6 -0.000001 0.000000 0.000000 -0.000871 0.000001 0.032227
#
#
# Mechanical properties :
#
#
# Convention : Reuss Voigt Hill
#
# Bulk Modulus (GPa) = 20.73133 52.88158 36.80645
# Shear Modulus (GPa) = 21.38942 34.07259 27.73100
#
# Velocity S-wave (km/s) = 3.15393 3.98066 3.59117
# Velocity P-wave (km/s) = 4.78584 6.76169 5.85768
#
# Compressibility (1/GPa) = 0.04823618
#
# Stress axis : x y z
#
# Youngs Moduli (GPa) = 26.42236 77.28283 93.32339
#
# Poissons Ratio (x) = 0.64651 -0.72344
# Poissons Ratio (y) = 0.22104 0.56174
# Poissons Ratio (z) = -0.20483 0.46519
#
# Static dielectric constant tensor:
#      x y z
#    x 3.486080 0.000000 0.146660 
#    y 0.000000 4.159570 0.000000 
#    z 0.146660 0.000000 4.942050 
# 
# 
# High freq. dielectric constant tensor:
#      x y z
#    x 1.812770 0.000000 -0.003990 
#    y 0.000000 1.843760 0.000000 
#    z -0.003990 0.000000 1.863460 
# 
# From -- ./inp_files/110101.got.cif
#   From: 2010.06.25/outbox.cif.g09.slc.cpg/sg15_56_cif.got.tgz:110101.got - 2010.06.28 07:06:18.
