data_PCOD8133712
_publ_section_title
;
Structure prediction by ZEFSAII (Michael W. Deem and Ramdas Pophale) SiO2 
 PCOD8133712
Probable space group: C 2/C
;
_chemical_formula_sum "Si O2"
_cell_formula_units_Z 64
_cell_length_a 7.696787
_cell_length_b 23.981391
_cell_length_c 23.795149
_cell_angle_alpha 90.000000
_cell_angle_beta 130.309852
_cell_angle_gamma 90.000000
_cell_volume 3349.227415
_symmetry_space_group_name_H-M "C 2/C"
_symmetry_group_IT_number 15
_symmetry_cell_setting 'monoclinic'
loop_
_space_group_symop_operation_xyz
x,y,z
-x,y,1/2-z
-x,-y,-z
x,-y,1/2+z
1/2+x,1/2+y,z
1/2-x,1/2+y,1/2-z
1/2-x,1/2-y,-z
1/2+x,1/2-y,1/2+z
loop_
_atom_site_type_symbol
_atom_site_label
_atom_site_fract_x
_atom_site_fract_y
_atom_site_fract_z
Si Si1 0.583800 0.315282 0.916900
Si Si2 0.297247 0.396432 0.923421
Si Si3 0.744188 0.113627 0.593244
Si Si4 0.433032 0.808659 0.091516
Si Si5 0.603563 0.896432 0.576579
Si Si6 0.371211 0.613628 0.906756
Si Si7 0.383648 0.004368 0.667550
Si Si8 0.286552 0.495632 0.167550
O O1 0.360133 0.347778 0.892386
O O2 0.506097 0.254624 0.878049
O O3 0.709411 0.347777 0.892386
O O4 0.757956 0.307624 0.003978
O O5 0.062494 0.380537 0.906247
O O6 0.275706 0.453526 0.884612
O O7 0.504346 0.405206 0.010004
O O8 0.663743 0.159771 0.621245
O O9 0.535668 0.094794 0.510004
O O10 0.946367 0.140283 0.598184
O O11 0.844086 0.059408 0.644579
O O12 0.321235 0.840229 0.121244
O O13 0.737256 0.953526 0.615388
O O14 0.265769 0.559408 0.855421
O O15 0.500000 0.987187 0.750000
O O16 0.567663 0.017849 0.658831
O O17 0.500000 0.512813 0.250000
#
# Coordination Sequence:
#
# PCOD8133712 Si02
#       8
#     8   8   8   8   8   8   8   8
#     4   9  18  32  57  76 110 140 175 220 266 309
#     4   9  20  34  53  82 109 139 177 220 267 318
#     4  10  19  34  55  80 110 141 174 220 269 315
#     4   9  18  34  51  84 106 138 179 220 262 315
#     4   9  20  34  53  82 109 139 177 220 267 318
#     4  10  19  34  55  80 110 141 174 220 269 315
#     4  11  22  35  52  81 111 142 177 219 266 323
#     4  11  22  35  52  81 111 142 177 219 266 323
#
# _framework density 19.108885000000001
#
# number of rings (size 3 to 8) (size 9 to 14) (size 15 to 20)
#    0.000    2.250    1.250    1.500    3.500    1.000 
#    0.000    5.000    0.000    1.500    0.000    0.000 
#    0.000    0.000    0.000    0.000    0.000    0.000 
#
# Total GULP energy -396845.256196 kJ/mol
# GULP energy per Si atom -12401.414256 kJ/mol
# Density = 1.906539 g / cm^3
# Si number density = 19.108885 Si / 1000 Ang^3
#
#
#
# Elastic Constant Matrix: (Units=GPa)
#
#
# Indices 1 2 3 4 5 6 
#
# 1 117.5574 64.1247 14.9294 0.0000 -0.9927 0.0000
# 2 64.1247 131.6156 15.5011 0.0000 -0.7483 0.0000
# 3 14.9294 15.5011 37.5982 0.0000 -0.2380 0.0000
# 4 0.0000 0.0000 0.0000 2.1674 0.0000 -0.4251
# 5 -0.9927 -0.7483 -0.2380 0.0000 19.0761 0.0000
# 6 0.0000 0.0000 0.0000 -0.4251 0.0000 29.7883
#
#
#
# Elastic Compliance Matrix: (Units=1/GPa)
#
#
# Indices 1 2 3 4 5 6 
#
# 1 0.011796 -0.005459 -0.002431 0.000000 0.000369 0.000000
# 2 -0.005459 0.010513 -0.002166 0.000000 0.000101 0.000000
# 3 -0.002431 -0.002166 0.028456 0.000000 0.000144 0.000000
# 4 0.000000 0.000000 0.000000 0.462667 0.000000 0.006602
# 5 0.000369 0.000101 0.000144 0.000000 0.052447 0.000000
# 6 0.000000 0.000000 0.000000 0.006602 0.000000 0.033664
#
#
# Mechanical properties :
#
#
# Convention : Reuss Voigt Hill
#
# Bulk Modulus (GPa) = 32.62271 52.87575 42.74923
# Shear Modulus (GPa) = 7.93811 23.02078 15.47945
#
# Velocity S-wave (km/s) = 2.04038 3.47467 2.84925
# Velocity P-wave (km/s) = 4.76025 6.62032 5.76578
#
# Compressibility (1/GPa) = 0.03065350
#
# Stress axis : x y z
#
# Youngs Moduli (GPa) = 84.77503 95.11911 35.14155
#
# Poissons Ratio (x) = 0.51923 0.08543
# Poissons Ratio (y) = 0.46276 0.07612
# Poissons Ratio (z) = 0.20609 0.20605
#
# Static dielectric constant tensor:
#      x y z
#    x 3.695420 0.000000 -0.008350 
#    y 0.000000 3.559890 0.000000 
#    z -0.008350 0.000000 3.153080 
# 
# 
# High freq. dielectric constant tensor:
#      x y z
#    x 1.761200 0.000000 -0.000860 
#    y 0.000000 1.733530 0.000000 
#    z -0.000860 0.000000 1.705440 
# 
# From -- ./inp_files/290013.got.cif
#   From: 2010.06.25/outbox.cif.g09.slc.cpg/sg15_146_cif.got.tgz:290013.got - 2010.06.28 07:06:18.
