data_PCOD8133734
_publ_section_title
;
Structure prediction by ZEFSAII (Michael W. Deem and Ramdas Pophale) SiO2 
 PCOD8133734
Probable space group: C 2/C
;
_chemical_formula_sum "Si O2"
_cell_formula_units_Z 56
_cell_length_a 11.806160
_cell_length_b 22.438358
_cell_length_c 12.360786
_cell_angle_alpha 90.000000
_cell_angle_beta 114.544081
_cell_angle_gamma 90.000000
_cell_volume 2978.628272
_symmetry_space_group_name_H-M "C 2/C"
_symmetry_group_IT_number 15
_symmetry_cell_setting 'monoclinic'
loop_
_space_group_symop_operation_xyz
x,y,z
-x,y,1/2-z
-x,-y,-z
x,-y,1/2+z
1/2+x,1/2+y,z
1/2-x,1/2+y,1/2-z
1/2-x,1/2-y,-z
1/2+x,1/2-y,1/2+z
loop_
_atom_site_type_symbol
_atom_site_label
_atom_site_fract_x
_atom_site_fract_y
_atom_site_fract_z
Si Si1 0.913884 0.568014 0.880491
Si Si2 0.792900 0.029804 0.850705
Si Si3 0.072043 0.857299 0.177752
Si Si4 0.285617 0.186842 0.894823
Si Si5 0.318123 0.962733 0.975785
Si Si6 0.357503 0.316964 0.946605
Si Si7 0.371654 0.415110 0.766107
O O1 0.847629 0.537091 0.751100
O O2 0.873532 0.635181 0.886099
O O3 0.869078 0.526888 0.960953
O O4 0.063005 0.572320 0.928841
O O5 0.861976 0.091024 0.860078
O O6 0.875919 0.976568 0.835038
O O7 0.783599 0.020735 0.974647
O O8 0.164674 0.809715 0.269595
O O9 0.000000 0.887596 0.250000
O O10 0.989044 0.823652 0.057673
O O11 0.354657 0.249238 0.904532
O O12 0.251912 0.173591 0.007675
O O13 0.248503 0.921344 0.859967
O O14 0.345942 0.361071 0.839320
O O15 0.500000 0.405674 0.750000
#
# Coordination Sequence:
#
# PCOD8133734 Si02
#       7
#     8   8   8   8   8   8   8
#     4   9  19  35  54  78 105 136 179 220 261 316
#     4  10  19  34  56  77 105 142 175 213 268 324
#     4   9  18  33  54  78 102 134 177 220 261 312
#     4   9  19  36  57  77 102 142 182 217 262 317
#     4  10  20  34  54  80 108 137 174 221 268 314
#     4  10  20  35  54  79 109 138 179 224 261 311
#     4  11  23  35  52  82 113 140 174 221 271 314
#
# _framework density 18.800599999999999
#
# number of rings (size 3 to 8) (size 9 to 14) (size 15 to 20)
#    0.000    2.286    0.000    2.571    0.000    5.714 
#    0.000    6.429    0.000    6.000    0.000    0.000 
#    0.000    0.000    0.000    0.000    0.000    0.000 
#
# Total GULP energy -347016.039385 kJ/mol
# GULP energy per Si atom -12393.429978 kJ/mol
# Density = 1.875781 g / cm^3
# Si number density = 18.800600 Si / 1000 Ang^3
#
#
#
# Elastic Constant Matrix: (Units=GPa)
#
#
# Indices 1 2 3 4 5 6 
#
# 1 80.0879 34.0568 39.7342 0.0000 2.1459 0.0000
# 2 34.0568 103.5992 49.7899 0.0000 -2.1319 0.0000
# 3 39.7342 49.7899 86.2534 0.0000 -8.5072 0.0000
# 4 0.0000 0.0000 0.0000 29.6487 0.0000 -1.8540
# 5 2.1459 -2.1319 -8.5072 0.0000 31.6224 0.0000
# 6 0.0000 0.0000 0.0000 -1.8540 0.0000 20.2140
#
#
#
# Elastic Compliance Matrix: (Units=1/GPa)
#
#
# Indices 1 2 3 4 5 6 
#
# 1 0.016923 -0.002398 -0.006719 0.000000 -0.003118 0.000000
# 2 -0.002398 0.013743 -0.006904 0.000000 -0.000768 0.000000
# 3 -0.006719 -0.006904 0.019183 0.000000 0.005151 0.000000
# 4 0.000000 0.000000 0.000000 0.033923 0.000000 0.003111
# 5 -0.003118 -0.000768 0.005151 0.000000 0.033169 0.000000
# 6 0.000000 0.000000 0.000000 0.003111 0.000000 0.049756
#
#
# Mechanical properties :
#
#
# Convention : Reuss Voigt Hill
#
# Bulk Modulus (GPa) = 56.16133 57.45581 56.80857
# Shear Modulus (GPa) = 24.42892 26.05433 25.24162
#
# Velocity S-wave (km/s) = 3.60859 3.72670 3.66812
# Velocity P-wave (km/s) = 6.87746 7.01033 6.94421
#
# Compressibility (1/GPa) = 0.01780585
#
# Stress axis : x y z
#
# Youngs Moduli (GPa) = 59.09047 72.76217 52.13046
#
# Poissons Ratio (x) = 0.17450 0.35027
# Poissons Ratio (y) = 0.14171 0.35993
# Poissons Ratio (z) = 0.39703 0.50238
#
# Static dielectric constant tensor:
#      x y z
#    x 3.513840 0.000000 0.139340 
#    y 0.000000 3.295200 0.000000 
#    z 0.139340 0.000000 3.638900 
# 
# 
# High freq. dielectric constant tensor:
#      x y z
#    x 1.728790 0.000000 0.004440 
#    y 0.000000 1.715500 0.000000 
#    z 0.004440 0.000000 1.739130 
# 
# From -- ./inp_files/89060.got.cif
#   From: 2010.06.25/outbox.cif.g09.slc.cpg/sg15_45_cif.got.tgz:89060.got - 2010.06.28 07:06:18.
