data_PCOD8133756
_publ_section_title
;
Structure prediction by ZEFSAII (Michael W. Deem and Ramdas Pophale) SiO2 
 PCOD8133756
Probable space group: C 2/C
;
_chemical_formula_sum "Si O2"
_cell_formula_units_Z 40
_cell_length_a 11.922618
_cell_length_b 20.372738
_cell_length_c 10.815687
_cell_angle_alpha 90.000000
_cell_angle_beta 45.151661
_cell_angle_gamma 90.000000
_cell_volume 1862.544574
_symmetry_space_group_name_H-M "C 2/C"
_symmetry_group_IT_number 15
_symmetry_cell_setting 'monoclinic'
loop_
_space_group_symop_operation_xyz
x,y,z
-x,y,1/2-z
-x,-y,-z
x,-y,1/2+z
1/2+x,1/2+y,z
1/2-x,1/2+y,1/2-z
1/2-x,1/2-y,-z
1/2+x,1/2-y,1/2+z
loop_
_atom_site_type_symbol
_atom_site_label
_atom_site_fract_x
_atom_site_fract_y
_atom_site_fract_z
Si Si1 0.389148 0.741786 0.582316
Si Si2 0.605173 0.158574 0.774137
Si Si3 0.301174 0.304400 0.557849
Si Si4 0.329375 0.028287 0.649271
Si Si5 0.189881 0.550958 0.101366
O O1 0.488290 0.785117 0.411508
O O2 0.268802 0.693025 0.602950
O O3 0.509709 0.698620 0.570961
O O4 0.288610 0.790651 0.745032
O O5 0.500000 0.122605 0.750000
O O6 0.653700 0.105887 0.838841
O O7 0.250000 0.250000 0.500000
O O8 0.258379 0.376523 0.548010
O O9 0.246272 0.019533 0.578784
O O10 0.500000 0.000000 0.500000
O O11 0.244921 0.990961 0.830886
O O12 0.000000 0.553455 0.250000
#
# Coordination Sequence:
#
# PCOD8133756 Si02
#       5
#     8   8   8   8   8
#     4  10  22  35  56  87 114 149 193 244 298 349
#     4  11  21  38  59  83 116 152 195 242 297 355
#     4  11  20  35  58  85 116 149 191 247 296 344
#     4  10  20  34  56  83 111 153 197 237 286 354
#     4  10  19  34  56  84 114 151 197 240 285 346
#
# _framework density 21.475995000000001
#
# number of rings (size 3 to 8) (size 9 to 14) (size 15 to 20)
#    0.000    1.600    0.000    9.000    0.000    0.000 
#    0.000    1.000    0.000    2.400    0.000    0.000 
#    0.000    0.000    0.000    0.000    0.000    0.000 
#
# Total GULP energy -247837.865521 kJ/mol
# GULP energy per Si atom -12391.893276 kJ/mol
# Density = 2.142712 g / cm^3
# Si number density = 21.475995 Si / 1000 Ang^3
#
#
#
# Elastic Constant Matrix: (Units=GPa)
#
#
# Indices 1 2 3 4 5 6 
#
# 1 115.3648 38.8545 45.0901 0.0000 19.6636 0.0000
# 2 38.8545 111.7722 38.5813 0.0000 8.8862 0.0000
# 3 45.0901 38.5813 69.8170 0.0000 6.0204 0.0000
# 4 0.0000 0.0000 0.0000 34.0966 0.0000 3.0521
# 5 19.6636 8.8862 6.0204 0.0000 43.4930 0.0000
# 6 0.0000 0.0000 0.0000 3.0521 0.0000 33.3516
#
#
#
# Elastic Compliance Matrix: (Units=1/GPa)
#
#
# Indices 1 2 3 4 5 6 
#
# 1 0.012678 -0.001681 -0.006877 0.000000 -0.004437 0.000000
# 2 -0.001681 0.011367 -0.005122 0.000000 -0.000853 0.000000
# 3 -0.006877 -0.005122 0.021493 0.000000 0.001180 0.000000
# 4 0.000000 0.000000 0.000000 0.029571 0.000000 -0.002706
# 5 -0.004437 -0.000853 0.001180 0.000000 0.025009 0.000000
# 6 0.000000 0.000000 0.000000 -0.002706 0.000000 0.030231
#
#
# Mechanical properties :
#
#
# Convention : Reuss Voigt Hill
#
# Bulk Modulus (GPa) = 55.00908 60.22287 57.61598
# Shear Modulus (GPa) = 30.53094 33.81679 32.17387
#
# Velocity S-wave (km/s) = 3.77454 3.97247 3.87477
# Velocity P-wave (km/s) = 6.68327 7.01024 6.84871
#
# Compressibility (1/GPa) = 0.01817882
#
# Stress axis : x y z
#
# Youngs Moduli (GPa) = 78.87590 87.97359 46.52654
#
# Poissons Ratio (x) = 0.14787 0.31994
# Poissons Ratio (y) = 0.13258 0.23833
# Poissons Ratio (z) = 0.54239 0.45063
#
# Static dielectric constant tensor:
#      x y z
#    x 4.532300 0.000000 0.347640 
#    y 0.000000 2.657540 0.000000 
#    z 0.347640 0.000000 4.166100 
# 
# 
# High freq. dielectric constant tensor:
#      x y z
#    x 1.843510 0.000000 0.016650 
#    y 0.000000 1.841830 0.000000 
#    z 0.016650 0.000000 1.827790 
# 
# From -- ./inp_files/30521.got.cif
#   From: 2010.06.25/outbox.cif.g09.slc.cpg/sg15_16_cif.got.tgz:30521.got - 2010.06.28 07:06:18.
