data_PCOD8133403
_publ_section_title
;
Structure prediction by ZEFSAII (Michael W. Deem and Ramdas Pophale) SiO2 
 PCOD8133403
Probable space group: C 2/C
;
_chemical_formula_sum "Si O2"
_cell_formula_units_Z 60
_cell_length_a 23.493985
_cell_length_b 14.584985
_cell_length_c 27.682494
_cell_angle_alpha 90.000000
_cell_angle_beta 18.700029
_cell_angle_gamma 90.000000
_cell_volume 3041.232710
_symmetry_space_group_name_H-M "C 2/C"
_symmetry_group_IT_number 15
_symmetry_cell_setting 'monoclinic'
loop_
_space_group_symop_operation_xyz
x,y,z
-x,y,1/2-z
-x,-y,-z
x,-y,1/2+z
1/2+x,1/2+y,z
1/2-x,1/2+y,1/2-z
1/2-x,1/2-y,-z
1/2+x,1/2-y,1/2+z
loop_
_atom_site_type_symbol
_atom_site_label
_atom_site_fract_x
_atom_site_fract_y
_atom_site_fract_z
Si Si1 0.782270 0.358609 0.256580
Si Si2 0.281283 0.186374 0.311671
Si Si3 0.530702 0.688777 0.425239
Si Si4 0.575645 0.001774 0.786392
Si Si5 0.000000 0.245318 0.250000
Si Si6 0.290134 0.873451 0.483089
Si Si7 0.110926 0.951351 0.535135
Si Si8 0.539139 0.639543 0.863890
O O1 0.647164 0.307036 0.400687
O O2 0.945057 0.288769 0.117882
O O3 0.854849 0.452023 0.220581
O O4 0.686751 0.388761 0.284270
O O5 0.200054 0.169467 0.323587
O O6 0.380376 0.283902 0.236503
O O7 0.130351 0.183373 0.473448
O O8 0.426231 0.107126 0.204537
O O9 0.516437 0.610787 0.395821
O O10 0.375102 0.034806 0.936865
O O11 0.701970 0.028869 0.640581
O O12 0.824147 0.181562 0.384451
O O13 0.954893 0.309495 0.332495
O O14 0.151958 0.898869 0.551767
O O15 0.012271 0.048145 0.624393
#
# Coordination Sequence:
#
# PCOD8133403 Si02
#       8
#     8   8   8   8   4   8   8   8
#     4   9  18  30  50  77 105 136 171 207 255 308
#     4   9  18  35  53  74 103 138 174 215 257 300
#     4   9  18  30  50  77 105 136 171 207 255 308
#     4  10  19  33  55  77 103 138 176 210 253 310
#     4  10  24  38  56  74 114 136 168 206 254 300
#     4  11  22  38  55  80 105 138 170 207 253 309
#     4  10  19  33  55  77 103 138 176 210 253 310
#     4   9  18  35  53  74 103 138 174 215 257 300
#
# _framework density 19.728843000000001
#
# number of rings (size 3 to 8) (size 9 to 14) (size 15 to 20)
#    0.000    2.400    1.333    0.800    3.733    3.200 
#    2.400    0.667    0.000    6.400    0.000    0.000 
#    0.000    0.000    0.000    0.000    0.000    0.000 
#
# Total GULP energy -371919.063048 kJ/mol
# GULP energy per Si atom -12397.302102 kJ/mol
# Density = 1.968394 g / cm^3
# Si number density = 19.728843 Si / 1000 Ang^3
#
#
#
# Elastic Constant Matrix: (Units=GPa)
#
#
# Indices 1 2 3 4 5 6 
#
# 1 46.8013 25.8673 19.5782 0.0263 -8.4661 0.0110
# 2 25.8673 80.1507 23.8472 -0.1240 -7.7299 -0.0238
# 3 19.5782 23.8472 55.2628 -0.1350 -5.4144 -0.0082
# 4 0.0263 -0.1240 -0.1350 39.5660 -0.0297 -7.5938
# 5 -8.4661 -7.7299 -5.4144 -0.0297 19.1986 -0.0017
# 6 0.0110 -0.0238 -0.0082 -7.5938 -0.0017 20.1295
#
#
#
# Elastic Compliance Matrix: (Units=1/GPa)
#
#
# Indices 1 2 3 4 5 6 
#
# 1 0.029378 -0.006679 -0.006706 -0.000067 0.008375 -0.000051
# 2 -0.006679 0.016159 -0.004379 0.000050 0.002326 0.000040
# 3 -0.006706 -0.004379 0.022521 0.000076 0.001631 0.000036
# 4 -0.000067 0.000050 0.000076 0.027248 0.000055 0.010279
# 5 0.008375 0.002326 0.001631 0.000055 0.057177 0.000025
# 6 -0.000051 0.000040 0.000036 0.010279 0.000025 0.053556
#
#
# Mechanical properties :
#
#
# Convention : Reuss Voigt Hill
#
# Bulk Modulus (GPa) = 30.73925 35.64445 33.19185
# Shear Modulus (GPa) = 19.80908 23.30698 21.55803
#
# Velocity S-wave (km/s) = 3.17214 3.44083 3.30921
# Velocity P-wave (km/s) = 5.38807 5.82170 5.60908
#
# Compressibility (1/GPa) = 0.03253170
#
# Stress axis : x y z
#
# Youngs Moduli (GPa) = 34.03857 61.88415 44.40373
#
# Poissons Ratio (x) = 0.41330 0.29776
# Poissons Ratio (y) = 0.22733 0.19444
# Poissons Ratio (z) = 0.22825 0.27099
#
# Static dielectric constant tensor:
#      x y z
#    x 3.322450 -0.000060 -0.050830 
#    y -0.000060 3.656830 0.000260 
#    z -0.050830 0.000260 3.533280 
# 
# 
# High freq. dielectric constant tensor:
#      x y z
#    x 1.742190 -0.000010 -0.007410 
#    y -0.000010 1.770620 0.000020 
#    z -0.007410 0.000020 1.754140 
# 
# From -- ./inp_files/302354.got.cif
#   From: 2010.06.25/outbox.cif.g09.slc.cpg/sg15_152_cif.got.tgz:302354.got - 2010.06.28 07:06:18.
