data_PCOD8133610
_publ_section_title
;
Structure prediction by ZEFSAII (Michael W. Deem and Ramdas Pophale) SiO2 
 PCOD8133610
Probable space group: C 2/C
;
_chemical_formula_sum "Si O2"
_cell_formula_units_Z 48
_cell_length_a 28.090736
_cell_length_b 21.242910
_cell_length_c 5.349827
_cell_angle_alpha 90.000000
_cell_angle_beta 118.437700
_cell_angle_gamma 90.000000
_cell_volume 2807.187595
_symmetry_space_group_name_H-M "C 2/C"
_symmetry_group_IT_number 15
_symmetry_cell_setting 'monoclinic'
loop_
_space_group_symop_operation_xyz
x,y,z
-x,y,1/2-z
-x,-y,-z
x,-y,1/2+z
1/2+x,1/2+y,z
1/2-x,1/2+y,1/2-z
1/2-x,1/2-y,-z
1/2+x,1/2-y,1/2+z
loop_
_atom_site_type_symbol
_atom_site_label
_atom_site_fract_x
_atom_site_fract_y
_atom_site_fract_z
Si Si1 0.866883 0.249668 0.128781
Si Si2 0.677020 0.713655 0.975797
Si Si3 0.711731 0.167288 0.321633
Si Si4 0.034371 0.338120 0.084107
Si Si5 0.060208 0.475827 0.042528
Si Si6 0.180105 0.472219 0.802844
O O1 0.856705 0.208143 0.351901
O O2 0.926102 0.279288 0.288062
O O3 0.861953 0.205819 0.866290
O O4 0.822536 0.306012 0.999926
O O5 0.724732 0.661332 0.091525
O O6 0.705080 0.783188 0.034902
O O7 0.686810 0.102003 0.349617
O O8 0.067418 0.403177 0.134405
O O9 0.000000 0.343461 0.250000
O O10 0.000000 0.325397 0.750000
O O11 0.031364 0.517389 0.194002
O O12 0.117385 0.508552 0.118979
O O13 0.208110 0.504734 0.114285
#
# Coordination Sequence:
#
# PCOD8133610 Si02
#       6
#     8   8   8   8   8   8
#     4  10  19  34  50  70  92 118 160 209 270 287
#     4   9  20  30  56  75  88 120 149 227 253 305
#     4   9  20  32  53  73  98 112 171 203 258 307
#     4  12  25  36  50  66  93 133 176 222 248 281
#     4  10  21  34  46  62  82 125 168 209 253 273
#     4  10  21  30  47  68  94 131 157 196 248 291
#
# _framework density 17.098963999999999
#
# number of rings (size 3 to 8) (size 9 to 14) (size 15 to 20)
#    1.000    1.000    0.000    4.500    7.000    2.000 
#    0.000    0.000    0.000    0.000    0.000    0.000 
#    0.000    0.000    0.000    0.000    0.000   58.333 
#
# Total GULP energy -297431.801508 kJ/mol
# GULP energy per Si atom -12392.991730 kJ/mol
# Density = 1.706005 g / cm^3
# Si number density = 17.098964 Si / 1000 Ang^3
#
#
#
# Elastic Constant Matrix: (Units=GPa)
#
#
# Indices 1 2 3 4 5 6 
#
# 1 68.9038 25.0436 48.0670 0.0000 -8.8481 0.0000
# 2 25.0436 30.0578 19.9829 0.0000 5.6167 0.0000
# 3 48.0670 19.9829 111.8050 0.0000 -22.7211 0.0000
# 4 0.0000 0.0000 0.0000 16.1186 0.0000 7.1346
# 5 -8.8481 5.6167 -22.7211 0.0000 36.0093 0.0000
# 6 0.0000 0.0000 0.0000 7.1346 0.0000 50.2486
#
#
#
# Elastic Compliance Matrix: (Units=1/GPa)
#
#
# Indices 1 2 3 4 5 6 
#
# 1 0.026963 -0.018549 -0.007275 0.000000 0.004928 0.000000
# 2 -0.018549 0.055309 -0.005265 0.000000 -0.016507 0.000000
# 3 -0.007275 -0.005265 0.014702 0.000000 0.008310 0.000000
# 4 0.000000 0.000000 0.000000 0.066201 0.000000 -0.009400
# 5 0.004928 -0.016507 0.008310 0.000000 0.036800 0.000000
# 6 0.000000 0.000000 0.000000 -0.009400 0.000000 0.021236
#
#
# Mechanical properties :
#
#
# Convention : Reuss Voigt Hill
#
# Bulk Modulus (GPa) = 28.74021 44.10595 36.42308
# Shear Modulus (GPa) = 16.94989 28.32017 22.63503
#
# Velocity S-wave (km/s) = 3.15188 4.07412 3.64231
# Velocity P-wave (km/s) = 5.48547 6.92689 6.24789
#
# Compressibility (1/GPa) = 0.03479446
#
# Stress axis : x y z
#
# Youngs Moduli (GPa) = 37.08834 18.08015 68.01954
#
# Poissons Ratio (x) = 0.33537 0.49484
# Poissons Ratio (y) = 0.68796 0.35815
# Poissons Ratio (z) = 0.26981 0.09520
#
# Static dielectric constant tensor:
#      x y z
#    x 3.104180 0.000000 -0.277000 
#    y 0.000000 2.740480 0.000000 
#    z -0.277000 0.000000 3.638190 
# 
# 
# High freq. dielectric constant tensor:
#      x y z
#    x 1.647190 0.000000 -0.023130 
#    y 0.000000 1.598010 0.000000 
#    z -0.023130 0.000000 1.682920 
# 
# From -- ./inp_files/17731.got.cif
#   From: 2010.06.25/outbox.cif.g09.slc.cpg/sg15_9_cif.got.tgz:17731.got - 2010.06.28 07:06:18.
