data_PCOD8133582
_publ_section_title
;
Structure prediction by ZEFSAII (Michael W. Deem and Ramdas Pophale) SiO2 
 PCOD8133582
Probable space group: C 2/C
;
_chemical_formula_sum "Si O2"
_cell_formula_units_Z 56
_cell_length_a 16.561617
_cell_length_b 5.705277
_cell_length_c 26.759486
_cell_angle_alpha 90.000000
_cell_angle_beta 100.488059
_cell_angle_gamma 90.000000
_cell_volume 2486.223272
_symmetry_space_group_name_H-M "C 2/C"
_symmetry_group_IT_number 15
_symmetry_cell_setting 'monoclinic'
loop_
_space_group_symop_operation_xyz
x,y,z
-x,y,1/2-z
-x,-y,-z
x,-y,1/2+z
1/2+x,1/2+y,z
1/2-x,1/2+y,1/2-z
1/2-x,1/2-y,-z
1/2+x,1/2-y,1/2+z
loop_
_atom_site_type_symbol
_atom_site_label
_atom_site_fract_x
_atom_site_fract_y
_atom_site_fract_z
Si Si1 0.579046 0.474567 0.223558
Si Si2 0.005105 0.867317 0.115143
Si Si3 0.259612 0.161455 0.945221
Si Si4 0.420344 0.085964 0.461461
Si Si5 0.881075 0.821086 0.552374
Si Si6 0.401599 0.031644 0.739313
Si Si7 0.138051 0.434977 0.872870
O O1 0.500000 0.479658 0.250000
O O2 0.560359 0.495637 0.162426
O O3 0.625887 0.221507 0.239022
O O4 0.628479 0.721982 0.238280
O O5 0.060179 0.684143 0.090841
O O6 0.930936 0.764050 0.139948
O O7 0.964257 0.031086 0.068693
O O8 0.227503 0.341028 0.899383
O O9 0.355170 0.121345 0.944265
O O10 0.202260 0.932182 0.935635
O O11 0.250000 0.250000 0.000000
O O12 0.373461 0.271325 0.492289
O O13 0.500000 0.000000 0.500000
O O14 0.896399 0.589195 0.585789
O O15 0.500000 0.031946 0.750000
O O16 0.358873 0.058919 0.680255
#
# Coordination Sequence:
#
# PCOD8133582 Si02
#       7
#     8   8   8   8   8   8   8
#     4  10  19  34  58  93 136 161 216 285 340 396
#     4  11  22  36  60 100 130 171 223 284 347 401
#     4  11  24  42  62  92 134 180 230 268 336 420
#     4  12  23  41  62  94 138 176 223 285 336 409
#     4  11  22  40  63  88 134 178 218 270 337 412
#     4  10  19  33  60  95 130 161 220 283 339 392
#     4  11  21  38  64  94 130 173 223 277 339 418
#
# _framework density 22.524125000000002
#
# number of rings (size 3 to 8) (size 9 to 14) (size 15 to 20)
#    0.000    1.143    5.714    3.429    2.000    0.000 
#    0.000    0.000    0.000    0.000    3.714    0.000 
#    0.000    0.000    0.000    0.000    0.000    0.000 
#
# Total GULP energy -346930.247071 kJ/mol
# GULP energy per Si atom -12390.365967 kJ/mol
# Density = 2.247286 g / cm^3
# Si number density = 22.524125 Si / 1000 Ang^3
#
#
#
# Elastic Constant Matrix: (Units=GPa)
#
#
# Indices 1 2 3 4 5 6 
#
# 1 82.4448 24.7816 37.7270 0.0000 17.6088 0.0000
# 2 24.7816 132.8924 44.6057 0.0000 8.5674 0.0000
# 3 37.7270 44.6057 156.4753 0.0000 18.6331 0.0000
# 4 0.0000 0.0000 0.0000 21.6123 0.0000 -2.3691
# 5 17.6088 8.5674 18.6331 0.0000 14.0865 0.0000
# 6 0.0000 0.0000 0.0000 -2.3691 0.0000 23.7173
#
#
#
# Elastic Compliance Matrix: (Units=1/GPa)
#
#
# Indices 1 2 3 4 5 6 
#
# 1 0.017259 -0.001509 -0.001509 0.000000 -0.018661 0.000000
# 2 -0.001509 0.008515 -0.001984 0.000000 -0.000668 0.000000
# 3 -0.001509 -0.001984 0.008252 0.000000 -0.007822 0.000000
# 4 0.000000 0.000000 0.000000 0.046782 0.000000 0.004673
# 5 -0.018661 -0.000668 -0.007822 0.000000 0.105070 0.000000
# 6 0.000000 0.000000 0.000000 0.004673 0.000000 0.042630
#
#
# Mechanical properties :
#
#
# Convention : Reuss Voigt Hill
#
# Bulk Modulus (GPa) = 41.62820 65.11566 53.37193
# Shear Modulus (GPa) = 20.28236 29.52976 24.90606
#
# Velocity S-wave (km/s) = 3.00404 3.62474 3.32889
# Velocity P-wave (km/s) = 5.52758 6.81839 6.20663
#
# Compressibility (1/GPa) = 0.02402218
#
# Stress axis : x y z
#
# Youngs Moduli (GPa) = 57.94066 117.43572 121.18825
#
# Poissons Ratio (x) = 0.17720 0.18287
# Poissons Ratio (y) = 0.08743 0.24044
# Poissons Ratio (z) = 0.08743 0.23299
#
# Static dielectric constant tensor:
#      x y z
#    x 3.730650 0.000000 0.177490 
#    y 0.000000 4.756540 0.000000 
#    z 0.177490 0.000000 4.137210 
# 
# 
# High freq. dielectric constant tensor:
#      x y z
#    x 1.833560 0.000000 0.012750 
#    y 0.000000 1.899020 0.000000 
#    z 0.012750 0.000000 1.896570 
# 
# From -- ./inp_files/314908.got.cif
#   From: 2010.06.25/outbox.cif.g09.slc.cpg/sg15_158_cif.got.tgz:314908.got - 2010.06.28 07:06:18.
