data_PCOD8133802
_publ_section_title
;
Structure prediction by ZEFSAII (Michael W. Deem and Ramdas Pophale) SiO2 
 PCOD8133802
Probable space group: C 2/C
;
_chemical_formula_sum "Si O2"
_cell_formula_units_Z 48
_cell_length_a 19.686781
_cell_length_b 11.431487
_cell_length_c 19.625690
_cell_angle_alpha 90.000000
_cell_angle_beta 144.555543
_cell_angle_gamma 90.000000
_cell_volume 2561.330199
_symmetry_space_group_name_H-M "C 2/C"
_symmetry_group_IT_number 15
_symmetry_cell_setting 'monoclinic'
loop_
_space_group_symop_operation_xyz
x,y,z
-x,y,1/2-z
-x,-y,-z
x,-y,1/2+z
1/2+x,1/2+y,z
1/2-x,1/2+y,1/2-z
1/2-x,1/2-y,-z
1/2+x,1/2-y,1/2+z
loop_
_atom_site_type_symbol
_atom_site_label
_atom_site_fract_x
_atom_site_fract_y
_atom_site_fract_z
Si Si1 0.976137 0.346653 0.931154
Si Si2 0.976971 0.490486 0.307093
Si Si3 0.095619 0.097083 0.588541
Si Si4 0.777678 0.399179 0.965546
Si Si5 0.746938 0.637666 0.587990
Si Si6 0.302027 0.019806 0.854084
O O1 0.969896 0.395972 0.849327
O O2 0.959937 0.207698 0.918018
O O3 0.872102 0.402352 0.890909
O O4 0.104171 0.374528 0.067176
O O5 0.858281 0.417220 0.217240
O O6 0.000000 0.538047 0.250000
O O7 0.080415 0.401904 0.413732
O O8 0.134821 0.127739 0.544211
O O9 0.202846 0.048635 0.719551
O O10 0.000000 0.000000 0.500000
O O11 0.727336 0.273533 0.903934
O O12 0.741836 0.494763 0.878857
O O13 0.724917 0.428802 0.997481
#
# Coordination Sequence:
#
# PCOD8133802 Si02
#       6
#     8   8   8   8   8   8
#     4  10  21  38  60  83 114 157 195 234 293 346
#     4   9  18  35  58  83 112 157 202 235 289 353
#     4  12  26  37  59  90 120 152 195 243 291 346
#     4   9  19  35  57  86 112 152 191 242 297 336
#     4  10  19  34  57  84 119 145 192 248 288 342
#     4  10  21  39  61  83 116 154 193 239 287 354
#
# _framework density 18.740262000000001
#
# number of rings (size 3 to 8) (size 9 to 14) (size 15 to 20)
#    0.000    2.000    3.333    0.000    2.333    1.333 
#    0.000    4.167    0.000    6.000    0.000    0.000 
#    0.000    0.000    0.000    0.000    0.000    0.000 
#
# Total GULP energy -297543.723969 kJ/mol
# GULP energy per Si atom -12397.655165 kJ/mol
# Density = 1.869761 g / cm^3
# Si number density = 18.740262 Si / 1000 Ang^3
#
#
#
# Elastic Constant Matrix: (Units=GPa)
#
#
# Indices 1 2 3 4 5 6 
#
# 1 97.7256 40.7200 43.5206 0.0000 -13.2162 0.0000
# 2 40.7200 105.1914 53.8238 0.0000 0.4363 0.0000
# 3 43.5206 53.8238 110.1791 0.0000 -8.8773 0.0000
# 4 0.0000 0.0000 0.0000 19.9175 0.0000 -4.6807
# 5 -13.2162 0.4363 -8.8773 0.0000 21.8572 0.0000
# 6 0.0000 0.0000 0.0000 -4.6807 0.0000 28.1642
#
#
#
# Elastic Compliance Matrix: (Units=1/GPa)
#
#
# Indices 1 2 3 4 5 6 
#
# 1 0.014275 -0.003972 -0.003098 0.000000 0.007453 0.000000
# 2 -0.003972 0.013955 -0.005649 0.000000 -0.004975 0.000000
# 3 -0.003098 -0.005649 0.013355 0.000000 0.003664 0.000000
# 4 0.000000 0.000000 0.000000 0.052248 0.000000 0.008683
# 5 0.007453 -0.004975 0.003664 0.000000 0.051845 0.000000
# 6 0.000000 0.000000 0.000000 0.008683 0.000000 0.036949
#
#
# Mechanical properties :
#
#
# Convention : Reuss Voigt Hill
#
# Bulk Modulus (GPa) = 61.93032 65.46945 63.69989
# Shear Modulus (GPa) = 23.42500 25.65656 24.54078
#
# Velocity S-wave (km/s) = 3.53934 3.70410 3.62266
# Velocity P-wave (km/s) = 7.05840 7.30101 7.18073
#
# Compressibility (1/GPa) = 0.01614718
#
# Stress axis : x y z
#
# Youngs Moduli (GPa) = 70.05170 71.65814 74.87990
#
# Poissons Ratio (x) = 0.28461 0.23198
# Poissons Ratio (y) = 0.27823 0.42301
# Poissons Ratio (z) = 0.21702 0.40481
#
# Static dielectric constant tensor:
#      x y z
#    x 3.799140 0.000000 -0.148580 
#    y 0.000000 3.162600 0.000000 
#    z -0.148580 0.000000 3.643180 
# 
# 
# High freq. dielectric constant tensor:
#      x y z
#    x 1.741800 0.000000 -0.016630 
#    y 0.000000 1.699310 0.000000 
#    z -0.016630 0.000000 1.725780 
# 
# From -- ./inp_files/103730.got.cif
#   From: 2010.06.25/outbox.cif.g09.slc.cpg/sg15_52_cif.got.tgz:103730.got - 2010.06.28 07:06:18.
