data_PCOD8133509
_publ_section_title
;
Structure prediction by ZEFSAII (Michael W. Deem and Ramdas Pophale) SiO2 
 PCOD8133509
Probable space group: C 2/C
;
_chemical_formula_sum "Si O2"
_cell_formula_units_Z 64
_cell_length_a 17.114598
_cell_length_b 11.218338
_cell_length_c 20.925986
_cell_angle_alpha 90.000000
_cell_angle_beta 55.519898
_cell_angle_gamma 90.000000
_cell_volume 3311.909714
_symmetry_space_group_name_H-M "C 2/C"
_symmetry_group_IT_number 15
_symmetry_cell_setting 'monoclinic'
loop_
_space_group_symop_operation_xyz
x,y,z
-x,y,1/2-z
-x,-y,-z
x,-y,1/2+z
1/2+x,1/2+y,z
1/2-x,1/2+y,1/2-z
1/2-x,1/2-y,-z
1/2+x,1/2-y,1/2+z
loop_
_atom_site_type_symbol
_atom_site_label
_atom_site_fract_x
_atom_site_fract_y
_atom_site_fract_z
Si Si1 0.914660 0.422019 0.612212
Si Si2 0.596365 0.154062 0.968236
Si Si3 0.428675 0.695767 0.233101
Si Si4 0.991831 0.450617 0.326215
Si Si5 0.737389 0.197654 0.389812
Si Si6 0.359743 0.562124 0.529591
Si Si7 0.704085 0.001932 0.010204
Si Si8 0.425614 0.610466 0.099711
O O1 0.915114 0.544598 0.573711
O O2 0.932166 0.460344 0.676735
O O3 0.817778 0.350378 0.647305
O O4 0.997069 0.332125 0.551078
O O5 0.612760 0.274393 0.921108
O O6 0.680034 0.122433 0.980767
O O7 0.500000 0.630374 0.250000
O O8 0.477671 0.813207 0.180907
O O9 0.340773 0.730847 0.317828
O O10 0.398144 0.614132 0.187394
O O11 0.000000 0.492426 0.250000
O O12 0.888175 0.464219 0.405841
O O13 0.695379 0.316271 0.438208
O O14 0.733408 0.101586 0.447707
O O15 0.295863 0.477245 0.512863
O O16 0.461807 0.590579 0.452806
O O17 0.372027 0.500855 0.592949
#
# Coordination Sequence:
#
# PCOD8133509 Si02
#       8
#     8   8   8   8   8   8   8   8
#     4   9  17  33  59  79 106 138 188 228 273 333
#     4   9  17  35  59  82 102 148 183 229 283 321
#     4  11  22  35  55  83 114 145 183 238 287 326
#     4  10  19  33  57  84 111 138 181 247 286 318
#     4  11  21  35  58  83 108 148 189 233 277 337
#     4  11  22  36  57  84 116 152 187 227 288 348
#     4  10  21  37  60  84 110 144 197 239 272 340
#     4  11  22  38  57  81 121 151 184 233 285 352
#
# _framework density 19.324199
#
# number of rings (size 3 to 8) (size 9 to 14) (size 15 to 20)
#    0.000    1.750    2.500    4.125    0.000    2.500 
#    0.000    0.000    0.000    0.750    0.000    0.000 
#    0.000    0.000    0.000    0.000    0.000    0.000 
#
# Total GULP energy -396603.631414 kJ/mol
# GULP energy per Si atom -12393.863482 kJ/mol
# Density = 1.928022 g / cm^3
# Si number density = 19.324199 Si / 1000 Ang^3
#
#
#
# Elastic Constant Matrix: (Units=GPa)
#
#
# Indices 1 2 3 4 5 6 
#
# 1 127.8911 17.0150 32.2380 0.0000 10.1456 0.0000
# 2 17.0150 26.3104 -1.0802 0.0000 3.0679 0.0000
# 3 32.2380 -1.0802 67.4001 0.0000 11.3658 0.0000
# 4 0.0000 0.0000 0.0000 17.3280 0.0000 4.9625
# 5 10.1456 3.0679 11.3658 0.0000 35.6081 0.0000
# 6 0.0000 0.0000 0.0000 4.9625 0.0000 21.0705
#
#
#
# Elastic Compliance Matrix: (Units=1/GPa)
#
#
# Indices 1 2 3 4 5 6 
#
# 1 0.009942 -0.006535 -0.004732 0.000000 -0.000759 0.000000
# 2 -0.006535 0.042788 0.004354 0.000000 -0.003214 0.000000
# 3 -0.004732 0.004354 0.017973 0.000000 -0.004764 0.000000
# 4 0.000000 0.000000 0.000000 0.061884 0.000000 -0.014575
# 5 -0.000759 -0.003214 -0.004764 0.000000 0.030097 0.000000
# 6 0.000000 0.000000 0.000000 -0.014575 0.000000 0.050892
#
#
# Mechanical properties :
#
#
# Convention : Reuss Voigt Hill
#
# Bulk Modulus (GPa) = 17.58225 35.32746 26.45485
# Shear Modulus (GPa) = 20.29539 26.36324 23.32932
#
# Velocity S-wave (km/s) = 3.24428 3.69760 3.47833
# Velocity P-wave (km/s) = 4.81167 6.04572 5.46365
#
# Compressibility (1/GPa) = 0.05687554
#
# Stress axis : x y z
#
# Youngs Moduli (GPa) = 100.58754 23.37130 55.63853
#
# Poissons Ratio (x) = 0.15273 0.26327
# Poissons Ratio (y) = 0.65734 -0.24222
# Poissons Ratio (z) = 0.47597 -0.10175
#
# Static dielectric constant tensor:
#      x y z
#    x 4.022720 0.000000 0.109340 
#    y 0.000000 3.326550 0.000000 
#    z 0.109340 0.000000 3.397950 
# 
# 
# High freq. dielectric constant tensor:
#      x y z
#    x 1.771300 0.000000 0.009160 
#    y 0.000000 1.725820 0.000000 
#    z 0.009160 0.000000 1.740770 
# 
# From -- ./inp_files/248617.got.cif
#   From: 2010.06.25/outbox.cif.g09.slc.cpg/sg15_125_cif.got.tgz:248617.got - 2010.06.28 07:06:18.
