data_PCOD8133039
_publ_section_title
;
Structure prediction by ZEFSAII (Michael W. Deem and Ramdas Pophale) SiO2 
 PCOD8133039
Probable space group: C 2/C
;
_chemical_formula_sum "Si O2"
_cell_formula_units_Z 52
_cell_length_a 28.752823
_cell_length_b 7.487113
_cell_length_c 21.902658
_cell_angle_alpha 90.000000
_cell_angle_beta 139.766284
_cell_angle_gamma 90.000000
_cell_volume 3045.521823
_symmetry_space_group_name_H-M "C 2/C"
_symmetry_group_IT_number 15
_symmetry_cell_setting 'monoclinic'
loop_
_space_group_symop_operation_xyz
x,y,z
-x,y,1/2-z
-x,-y,-z
x,-y,1/2+z
1/2+x,1/2+y,z
1/2-x,1/2+y,1/2-z
1/2-x,1/2-y,-z
1/2+x,1/2-y,1/2+z
loop_
_atom_site_type_symbol
_atom_site_label
_atom_site_fract_x
_atom_site_fract_y
_atom_site_fract_z
Si Si1 0.312018 0.987524 0.863899
Si Si2 0.901142 0.193717 0.889986
Si Si3 0.933858 0.545547 0.073468
Si Si4 0.476812 0.639116 0.846304
Si Si5 0.000000 0.316628 0.750000
Si Si6 0.978542 0.236004 0.394978
Si Si7 0.666010 0.665915 0.189056
O O1 0.306936 0.187828 0.832510
O O2 0.354134 0.866604 0.857280
O O3 0.234035 0.901990 0.797577
O O4 0.355022 0.986913 0.971638
O O5 0.911097 0.179990 0.826788
O O6 0.864062 0.009829 0.876115
O O7 0.979196 0.209885 0.999223
O O8 0.940913 0.560866 0.154538
O O9 0.954014 0.739455 0.064617
O O10 0.996461 0.412111 0.114263
O O11 0.456877 0.694363 0.756357
O O12 0.496055 0.430560 0.868173
O O13 0.893847 0.249587 0.325808
#
# Coordination Sequence:
#
# PCOD8133039 Si02
#       7
#     8   8   8   8   4   8   8
#     4  11  20  32  51  76 115 135 162 206 266 314
#     4  10  19  33  52  79 102 133 167 213 266 310
#     4   9  19  35  52  76 101 137 174 213 250 298
#     4   9  17  33  51  76 100 126 174 219 251 300
#     4   8  20  34  50  78  96 138 178 222 244 284
#     4  10  19  31  57  76 101 133 170 214 265 301
#     4  11  20  31  47  82 108 136 161 205 267 318
#
# _framework density 17.074248999999998
#
# number of rings (size 3 to 8) (size 9 to 14) (size 15 to 20)
#    0.923    1.231    1.538    4.615    0.000    3.077 
#    0.000    0.000    0.000    4.615    0.000    0.000 
#    0.000    0.000    0.000    0.000    0.000    0.000 
#
# Total GULP energy -322107.777308 kJ/mol
# GULP energy per Si atom -12388.760666 kJ/mol
# Density = 1.703539 g / cm^3
# Si number density = 17.074249 Si / 1000 Ang^3
#
#
#
# Elastic Constant Matrix: (Units=GPa)
#
#
# Indices 1 2 3 4 5 6 
#
# 1 67.0814 27.0073 57.4374 0.0000 -2.1109 0.0000
# 2 27.0073 75.9253 36.0668 -0.0001 -3.2488 -0.0001
# 3 57.4374 36.0668 103.3684 0.0000 4.0936 0.0000
# 4 0.0000 -0.0001 0.0000 27.5731 0.0000 1.0367
# 5 -2.1109 -3.2488 4.0936 0.0000 33.9515 0.0000
# 6 0.0000 -0.0001 0.0000 1.0367 0.0000 18.4993
#
#
#
# Elastic Compliance Matrix: (Units=1/GPa)
#
#
# Indices 1 2 3 4 5 6 
#
# 1 0.029454 -0.002988 -0.015459 0.000000 0.003409 0.000000
# 2 -0.002988 0.016254 -0.004085 0.000000 0.001862 0.000000
# 3 -0.015459 -0.004085 0.019837 0.000000 -0.003744 0.000000
# 4 0.000000 0.000000 0.000000 0.036344 0.000000 -0.002037
# 5 0.003409 0.001862 -0.003744 0.000000 0.030295 0.000000
# 6 0.000000 0.000000 0.000000 -0.002037 0.000000 0.054170
#
#
# Mechanical properties :
#
#
# Convention : Reuss Voigt Hill
#
# Bulk Modulus (GPa) = 48.82244 54.15533 51.48889
# Shear Modulus (GPa) = 20.98690 24.39569 22.69130
#
# Velocity S-wave (km/s) = 3.50973 3.78405 3.64947
# Velocity P-wave (km/s) = 6.71421 7.13291 6.92672
#
# Compressibility (1/GPa) = 0.02048238
#
# Stress axis : x y z
#
# Youngs Moduli (GPa) = 33.95159 61.52465 50.40988
#
# Poissons Ratio (x) = 0.18382 0.77927
# Poissons Ratio (y) = 0.10144 0.20591
# Poissons Ratio (z) = 0.52485 0.25131
#
# Static dielectric constant tensor:
#      x y z
#    x 2.884660 0.000000 0.115910 
#    y 0.000000 3.409710 0.000000 
#    z 0.115910 0.000000 3.093690 
# 
# 
# High freq. dielectric constant tensor:
#      x y z
#    x 1.622790 0.000000 0.009410 
#    y 0.000000 1.679930 0.000000 
#    z 0.009410 0.000000 1.637620 
# 
# From -- ./inp_files/258644.got.cif
#   From: 2010.06.25/outbox.cif.g09.slc.cpg/sg15_130_cif.got.tgz:258644.got - 2010.06.28 07:06:18.
