data_PCOD8133715
_publ_section_title
;
Structure prediction by ZEFSAII (Michael W. Deem and Ramdas Pophale) SiO2 
 PCOD8133715
Probable space group: C 2/C
;
_chemical_formula_sum "Si O2"
_cell_formula_units_Z 64
_cell_length_a 19.476076
_cell_length_b 22.506956
_cell_length_c 12.681061
_cell_angle_alpha 90.000000
_cell_angle_beta 37.385240
_cell_angle_gamma 90.000000
_cell_volume 3375.086875
_symmetry_space_group_name_H-M "C 2/C"
_symmetry_group_IT_number 15
_symmetry_cell_setting 'monoclinic'
loop_
_space_group_symop_operation_xyz
x,y,z
-x,y,1/2-z
-x,-y,-z
x,-y,1/2+z
1/2+x,1/2+y,z
1/2-x,1/2+y,1/2-z
1/2-x,1/2-y,-z
1/2+x,1/2-y,1/2+z
loop_
_atom_site_type_symbol
_atom_site_label
_atom_site_fract_x
_atom_site_fract_y
_atom_site_fract_z
Si Si1 0.613009 0.420003 0.756567
Si Si2 0.239463 0.331183 0.825950
Si Si3 0.643887 0.410394 0.472910
Si Si4 0.722384 0.988331 0.342021
Si Si5 0.712589 0.800205 0.260655
Si Si6 0.404762 0.171196 0.798749
Si Si7 0.447286 0.088639 0.012151
Si Si8 0.078410 0.614129 0.057336
O O1 0.642922 0.367146 0.803995
O O2 0.649206 0.408957 0.592044
O O3 0.677983 0.479159 0.715874
O O4 0.478257 0.426568 0.925582
O O5 0.246912 0.266203 0.765741
O O6 0.150940 0.362047 0.855816
O O7 0.198487 0.338715 0.996905
O O8 0.729457 0.460555 0.325635
O O9 0.683318 0.344892 0.386816
O O10 0.675130 0.933721 0.471193
O O11 0.613679 0.028391 0.447873
O O12 0.635446 0.790911 0.251062
O O13 0.635451 0.824278 0.449920
O O14 0.500000 0.207155 0.750000
O O15 0.460475 0.109081 0.688878
O O16 0.507526 0.082741 0.050630
O O17 0.000000 0.630891 0.250000
#
# Coordination Sequence:
#
# PCOD8133715 Si02
#       8
#     8   8   8   8   8   8   8   8
#     4  10  21  34  53  83 107 148 186 225 275 323
#     4  10  19  34  55  80 114 147 173 225 277 338
#     4  10  21  35  52  80 114 144 191 227 265 327
#     4  10  21  36  57  75 114 146 182 230 274 326
#     4  10  20  36  53  81 114 147 184 221 279 326
#     4   9  17  29  49  79 113 138 171 214 275 333
#     4   9  20  35  53  84 109 141 181 226 278 332
#     4  10  22  37  56  81 106 144 188 230 273 322
#
# _framework density 18.962474
#
# number of rings (size 3 to 8) (size 9 to 14) (size 15 to 20)
#    0.000    2.250    1.250    1.125    1.750    5.500 
#    2.250    0.625    0.000    0.000    6.500    0.000 
#    0.000    0.000    0.000    0.000    0.000    0.000 
#
# Total GULP energy -396506.084745 kJ/mol
# GULP energy per Si atom -12390.815148 kJ/mol
# Density = 1.891931 g / cm^3
# Si number density = 18.962474 Si / 1000 Ang^3
#
#
#
# Elastic Constant Matrix: (Units=GPa)
#
#
# Indices 1 2 3 4 5 6 
#
# 1 68.0583 32.3256 18.1910 -0.0001 -9.7734 0.0001
# 2 32.3256 115.3089 36.7136 -0.0001 -7.9716 0.0001
# 3 18.1910 36.7136 94.4319 0.0000 -3.1351 -0.0001
# 4 -0.0001 -0.0001 0.0000 18.4771 0.0000 -1.8393
# 5 -9.7734 -7.9716 -3.1351 0.0000 20.7945 0.0001
# 6 0.0001 0.0001 -0.0001 -1.8393 0.0001 19.0866
#
#
#
# Elastic Compliance Matrix: (Units=1/GPa)
#
#
# Indices 1 2 3 4 5 6 
#
# 1 0.018026 -0.004060 -0.001673 0.000000 0.006663 0.000000
# 2 -0.004060 0.011033 -0.003447 0.000000 0.001801 0.000000
# 3 -0.001673 -0.003447 0.012243 0.000000 -0.000262 0.000000
# 4 0.000000 0.000000 0.000000 0.054645 0.000000 0.005266
# 5 0.006663 0.001801 -0.000262 0.000000 0.051873 0.000000
# 6 0.000000 0.000000 0.000000 0.005266 0.000000 0.052900
#
#
# Mechanical properties :
#
#
# Convention : Reuss Voigt Hill
#
# Bulk Modulus (GPa) = 43.58908 50.25104 46.92006
# Shear Modulus (GPa) = 22.05289 24.37622 23.21455
#
# Velocity S-wave (km/s) = 3.41394 3.58927 3.50270
# Velocity P-wave (km/s) = 6.21103 6.61324 6.41529
#
# Compressibility (1/GPa) = 0.02294152
#
# Stress axis : x y z
#
# Youngs Moduli (GPa) = 55.47640 90.63934 81.67614
#
# Poissons Ratio (x) = 0.36800 0.13662
# Poissons Ratio (y) = 0.22524 0.28157
# Poissons Ratio (z) = 0.09279 0.31247
#
# Static dielectric constant tensor:
#      x y z
#    x 3.563690 0.000000 -0.231250 
#    y 0.000000 3.350060 0.000000 
#    z -0.231250 0.000000 3.393800 
# 
# 
# High freq. dielectric constant tensor:
#      x y z
#    x 1.738320 0.000000 -0.022200 
#    y 0.000000 1.725360 0.000000 
#    z -0.022200 0.000000 1.721810 
# 
# From -- ./inp_files/114264.got.cif
#   From: 2010.06.25/outbox.cif.g09.slc.cpg/sg15_58_cif.got.tgz:114264.got - 2010.06.28 07:06:18.
