data_PCOD8133583
_publ_section_title
;
Structure prediction by ZEFSAII (Michael W. Deem and Ramdas Pophale) SiO2 
 PCOD8133583
Probable space group: C 2/C
;
_chemical_formula_sum "Si O2"
_cell_formula_units_Z 48
_cell_length_a 14.535947
_cell_length_b 26.216332
_cell_length_c 11.112099
_cell_angle_alpha 90.000000
_cell_angle_beta 31.173770
_cell_angle_gamma 90.000000
_cell_volume 2191.973526
_symmetry_space_group_name_H-M "C 2/C"
_symmetry_group_IT_number 15
_symmetry_cell_setting 'monoclinic'
loop_
_space_group_symop_operation_xyz
x,y,z
-x,y,1/2-z
-x,-y,-z
x,-y,1/2+z
1/2+x,1/2+y,z
1/2-x,1/2+y,1/2-z
1/2-x,1/2-y,-z
1/2+x,1/2-y,1/2+z
loop_
_atom_site_type_symbol
_atom_site_label
_atom_site_fract_x
_atom_site_fract_y
_atom_site_fract_z
Si Si1 0.127559 0.908242 0.368650
Si Si2 0.348922 0.196079 0.253887
Si Si3 0.748327 0.694092 0.631971
Si Si4 0.589582 0.935434 0.262840
Si Si5 0.249373 0.407370 0.729095
Si Si6 0.807858 0.545720 0.446673
O O1 0.128173 0.851670 0.314070
O O2 0.240705 0.908742 0.365545
O O3 0.918488 0.920623 0.625165
O O4 0.203264 0.950136 0.189898
O O5 0.324776 0.253167 0.228702
O O6 0.230617 0.194122 0.507386
O O7 0.285874 0.153527 0.228939
O O8 0.552173 0.184036 0.051701
O O9 0.500000 0.904172 0.250000
O O10 0.425121 0.940588 0.540220
O O11 0.662484 0.987782 0.126468
O O12 0.297606 0.423969 0.538719
O O13 0.000000 0.572774 0.250000
#
# Coordination Sequence:
#
# PCOD8133583 Si02
#       6
#     8   8   8   8   8   8
#     4  12  24  42  67  96 132 168 217 269 334 384
#     4  10  19  33  60  98 136 163 201 255 331 393
#     4  10  19  34  59  99 135 164 198 262 326 398
#     4  11  27  46  64  88 129 175 229 270 317 382
#     4  12  23  41  66  97 130 174 212 266 329 394
#     4  11  22  42  65  91 129 168 210 273 330 386
#
# _framework density 21.898074000000001
#
# number of rings (size 3 to 8) (size 9 to 14) (size 15 to 20)
#    0.000    1.000    5.000    2.000    2.333    2.667 
#    6.000    0.000    0.000    1.000    0.000    0.000 
#    0.000    0.000    0.000    0.000    0.000    0.000 
#
# Total GULP energy -297501.426675 kJ/mol
# GULP energy per Si atom -12395.892778 kJ/mol
# Density = 2.184823 g / cm^3
# Si number density = 21.898074 Si / 1000 Ang^3
#
#
#
# Elastic Constant Matrix: (Units=GPa)
#
#
# Indices 1 2 3 4 5 6 
#
# 1 122.3459 21.0438 23.3139 0.0009 -22.9019 -0.0003
# 2 21.0438 117.5826 28.9130 -0.0005 1.2743 0.0002
# 3 23.3139 28.9130 53.5811 0.0016 -23.6117 -0.0007
# 4 0.0009 -0.0005 0.0016 19.1880 -0.0013 -6.7425
# 5 -22.9019 1.2743 -23.6117 -0.0013 37.6801 0.0003
# 6 -0.0003 0.0002 -0.0007 -6.7425 0.0003 21.9589
#
#
#
# Elastic Compliance Matrix: (Units=1/GPa)
#
#
# Indices 1 2 3 4 5 6 
#
# 1 0.009616 -0.001517 -0.001060 0.000000 0.005232 0.000000
# 2 -0.001517 0.010790 -0.007915 0.000001 -0.006247 0.000000
# 3 -0.001060 -0.007915 0.032092 -0.000001 0.019733 0.000000
# 4 0.000000 0.000001 -0.000001 0.058419 0.000001 0.017938
# 5 0.005232 -0.006247 0.019733 0.000001 0.042296 0.000000
# 6 0.000000 0.000000 0.000000 0.017938 0.000000 0.051047
#
#
# Mechanical properties :
#
#
# Convention : Reuss Voigt Hill
#
# Bulk Modulus (GPa) = 31.73301 48.89457 40.31379
# Shear Modulus (GPa) = 21.20904 30.44800 25.82852
#
# Velocity S-wave (km/s) = 3.11551 3.73291 3.43809
# Velocity P-wave (km/s) = 5.24066 6.39970 5.84896
#
# Compressibility (1/GPa) = 0.03151292
#
# Stress axis : x y z
#
# Youngs Moduli (GPa) = 103.99612 92.67676 31.16086
#
# Poissons Ratio (x) = 0.14059 0.03303
# Poissons Ratio (y) = 0.15776 0.24665
# Poissons Ratio (z) = 0.11023 0.73357
#
# Static dielectric constant tensor:
#      x y z
#    x 4.171410 -0.000010 -0.190410 
#    y -0.000010 3.902900 0.000000 
#    z -0.190410 0.000000 3.775150 
# 
# 
# High freq. dielectric constant tensor:
#      x y z
#    x 1.850400 0.000000 -0.031990 
#    y 0.000000 1.855040 0.000000 
#    z -0.031990 0.000000 1.842280 
# 
# From -- ./inp_files/101204.got.cif
#   From: 2010.06.25/outbox.cif.g09.slc.cpg/sg15_51_cif.got.tgz:101204.got - 2010.06.28 07:06:18.
