data_PCOD8133805
_publ_section_title
;
Structure prediction by ZEFSAII (Michael W. Deem and Ramdas Pophale) SiO2 
 PCOD8133805
Probable space group: C 2/C
;
_chemical_formula_sum "Si O2"
_cell_formula_units_Z 64
_cell_length_a 29.592723
_cell_length_b 9.126300
_cell_length_c 18.779743
_cell_angle_alpha 90.000000
_cell_angle_beta 37.991026
_cell_angle_gamma 90.000000
_cell_volume 3121.937578
_symmetry_space_group_name_H-M "C 2/C"
_symmetry_group_IT_number 15
_symmetry_cell_setting 'monoclinic'
loop_
_space_group_symop_operation_xyz
x,y,z
-x,y,1/2-z
-x,-y,-z
x,-y,1/2+z
1/2+x,1/2+y,z
1/2-x,1/2+y,1/2-z
1/2-x,1/2-y,-z
1/2+x,1/2-y,1/2+z
loop_
_atom_site_type_symbol
_atom_site_label
_atom_site_fract_x
_atom_site_fract_y
_atom_site_fract_z
Si Si1 0.845420 0.911168 0.511876
Si Si2 0.759139 0.065408 0.261933
Si Si3 0.989586 0.208865 0.497293
Si Si4 0.768295 0.825268 0.366690
Si Si5 0.996085 0.028680 0.884498
Si Si6 0.849314 0.268111 0.244758
Si Si7 0.133875 0.408997 0.818302
Si Si8 0.849346 0.957538 0.863500
O O1 0.805573 0.959744 0.632855
O O2 0.809897 0.758724 0.525965
O O3 0.931997 0.888493 0.420495
O O4 0.833611 0.041363 0.467783
O O5 0.784565 0.207993 0.274791
O O6 0.675305 0.087506 0.342622
O O7 0.765066 0.918075 0.298773
O O8 0.076837 0.216484 0.385138
O O9 0.970268 0.119187 0.591863
O O10 0.949556 0.366532 0.555984
O O11 0.963009 0.123285 0.458780
O O12 0.833488 0.710097 0.275763
O O13 0.789740 0.928668 0.405567
O O14 0.065787 0.005571 0.747255
O O15 0.854954 0.442445 0.240488
O O16 0.840157 0.200751 0.336119
#
# Coordination Sequence:
#
# PCOD8133805 Si02
#       8
#     8   8   8   8   8   8   8   8
#     4  11  20  34  61  88 108 149 200 234 283 346
#     4  10  21  36  56  84 120 148 197 244 283 342
#     4  10  19  34  57  85 116 147 189 242 287 331
#     4  10  21  37  56  84 118 146 190 243 288 338
#     4  10  19  34  57  87 115 146 193 240 284 339
#     4  10  21  37  55  85 119 150 191 239 290 342
#     4  11  19  32  57  87 112 151 191 240 286 337
#     4  10  21  38  57  82 117 154 187 236 289 351
#
# _framework density 20.500088999999999
#
# number of rings (size 3 to 8) (size 9 to 14) (size 15 to 20)
#    0.000    1.750    2.500    3.375    0.000    1.000 
#    0.000    2.500    0.000    7.500    6.500    0.000 
#    0.000    0.000    0.000    0.000    0.000    0.000 
#
# Total GULP energy -396557.205942 kJ/mol
# GULP energy per Si atom -12392.412686 kJ/mol
# Density = 2.045343 g / cm^3
# Si number density = 20.500089 Si / 1000 Ang^3
#
#
#
# Elastic Constant Matrix: (Units=GPa)
#
#
# Indices 1 2 3 4 5 6 
#
# 1 89.0486 26.0456 29.5142 0.0028 -1.5940 -0.0026
# 2 26.0456 97.7334 12.1832 0.0071 -6.7607 0.0022
# 3 29.5142 12.1832 35.2608 0.0085 9.1215 0.0022
# 4 0.0028 0.0071 0.0085 26.6229 -0.0005 -7.4603
# 5 -1.5940 -6.7607 9.1215 -0.0005 32.2505 0.0025
# 6 -0.0026 0.0022 0.0022 -7.4603 0.0025 21.7336
#
#
#
# Elastic Compliance Matrix: (Units=1/GPa)
#
#
# Indices 1 2 3 4 5 6 
#
# 1 0.016755 -0.002374 -0.014339 0.000005 0.004386 0.000005
# 2 -0.002374 0.011418 -0.002748 -0.000003 0.003053 -0.000002
# 3 -0.014339 -0.002748 0.044931 -0.000015 -0.013993 -0.000010
# 4 0.000005 -0.000003 -0.000015 0.041559 0.000003 0.014266
# 5 0.004386 0.003053 -0.013993 0.000003 0.035822 -0.000001
# 6 0.000005 -0.000002 -0.000010 0.014266 -0.000001 0.050909
#
#
# Mechanical properties :
#
#
# Convention : Reuss Voigt Hill
#
# Bulk Modulus (GPa) = 29.25421 39.72542 34.48982
# Shear Modulus (GPa) = 19.86407 26.40804 23.13605
#
# Velocity S-wave (km/s) = 3.11621 3.59303 3.36308
# Velocity P-wave (km/s) = 5.22005 6.05255 5.65165
#
# Compressibility (1/GPa) = 0.03418312
#
# Stress axis : x y z
#
# Youngs Moduli (GPa) = 59.68274 87.57771 22.25623
#
# Poissons Ratio (x) = 0.20794 0.31913
# Poissons Ratio (y) = 0.14171 0.06115
# Poissons Ratio (z) = 0.85578 0.24064
#
# Static dielectric constant tensor:
#      x y z
#    x 3.861620 -0.000030 -0.174780 
#    y -0.000030 3.749410 0.000030 
#    z -0.174780 0.000030 3.593980 
# 
# 
# High freq. dielectric constant tensor:
#      x y z
#    x 1.805550 0.000000 -0.009760 
#    y 0.000000 1.788330 0.000000 
#    z -0.009760 0.000000 1.788420 
# 
# From -- ./inp_files/224589.got.cif
#   From: 2010.06.25/outbox.cif.g09.slc.cpg/sg15_113_cif.got.tgz:224589.got - 2010.06.28 07:06:18.
