data_PCOD8133974
_publ_section_title
;
Structure prediction by ZEFSAII (Michael W. Deem and Ramdas Pophale) SiO2 
 PCOD8133974
Probable space group: C 2/C
;
_chemical_formula_sum "Si O2"
_cell_formula_units_Z 56
_cell_length_a 17.130433
_cell_length_b 8.089640
_cell_length_c 27.191440
_cell_angle_alpha 90.000000
_cell_angle_beta 131.192684
_cell_angle_gamma 90.000000
_cell_volume 2835.539334
_symmetry_space_group_name_H-M "C 2/C"
_symmetry_group_IT_number 15
_symmetry_cell_setting 'monoclinic'
loop_
_space_group_symop_operation_xyz
x,y,z
-x,y,1/2-z
-x,-y,-z
x,-y,1/2+z
1/2+x,1/2+y,z
1/2-x,1/2+y,1/2-z
1/2-x,1/2-y,-z
1/2+x,1/2-y,1/2+z
loop_
_atom_site_type_symbol
_atom_site_label
_atom_site_fract_x
_atom_site_fract_y
_atom_site_fract_z
Si Si1 0.811750 0.816316 0.882343
Si Si2 0.295367 0.986855 0.933941
Si Si3 0.909471 0.643657 0.182912
Si Si4 0.007477 0.173143 0.109345
Si Si5 0.354550 0.364374 0.464168
Si Si6 0.945577 0.993278 0.679704
Si Si7 0.156795 0.442626 0.437645
O O1 0.836452 0.651710 0.924190
O O2 0.688636 0.828618 0.821456
O O3 0.872639 0.796127 0.856118
O O4 0.846117 0.988374 0.922121
O O5 0.361116 0.822865 0.943972
O O6 0.175429 0.947369 0.872198
O O7 0.311243 0.029427 0.998186
O O8 0.868316 0.572120 0.115124
O O9 0.000000 0.541478 0.250000
O O10 0.963744 0.812524 0.189999
O O11 0.006713 0.056810 0.156114
O O12 0.947438 0.339354 0.098354
O O13 0.953722 0.092511 0.038894
O O14 0.255601 0.339126 0.459447
O O15 0.000000 0.907872 0.750000
#
# Coordination Sequence:
#
# PCOD8133974 Si02
#       7
#     8   8   8   8   8   8   8
#     4  10  23  35  59  86 119 148 183 243 299 329
#     4  10  19  38  59  84 117 150 199 235 282 351
#     4   9  21  40  57  82 113 153 199 236 281 355
#     4  11  20  37  55  89 117 139 193 242 283 344
#     4  10  19  36  58  89 117 152 185 235 283 349
#     4  10  20  36  62  80 111 157 197 233 283 347
#     4  10  19  34  63  85 110 156 196 239 280 341
#
# _framework density 19.749328999999999
#
# number of rings (size 3 to 8) (size 9 to 14) (size 15 to 20)
#    0.000    2.000    2.857    1.286    2.000    4.571 
#    2.571    4.286    0.000    0.000    0.000    0.000 
#    0.000    0.000    0.000    0.000    0.000    0.000 
#
# Total GULP energy -346959.513093 kJ/mol
# GULP energy per Si atom -12391.411182 kJ/mol
# Density = 1.970438 g / cm^3
# Si number density = 19.749329 Si / 1000 Ang^3
#
#
#
# Elastic Constant Matrix: (Units=GPa)
#
#
# Indices 1 2 3 4 5 6 
#
# 1 125.3993 25.6273 25.6144 0.0000 7.6471 0.0000
# 2 25.6273 75.6994 13.4607 0.0000 1.5014 0.0000
# 3 25.6144 13.4607 97.9532 0.0000 15.0247 0.0000
# 4 0.0000 0.0000 0.0000 10.5811 0.0000 2.3246
# 5 7.6471 1.5014 15.0247 0.0000 16.1096 0.0000
# 6 0.0000 0.0000 0.0000 2.3246 0.0000 11.2345
#
#
#
# Elastic Compliance Matrix: (Units=1/GPa)
#
#
# Indices 1 2 3 4 5 6 
#
# 1 0.009010 -0.002717 -0.001594 0.000000 -0.002538 0.000000
# 2 -0.002717 0.014364 -0.001466 0.000000 0.001318 0.000000
# 3 -0.001594 -0.001466 0.012475 0.000000 -0.010742 0.000000
# 4 0.000000 0.000000 0.000000 0.099009 0.000000 -0.020486
# 5 -0.002538 0.001318 -0.010742 0.000000 0.073175 0.000000
# 6 0.000000 0.000000 0.000000 -0.020486 0.000000 0.093251
#
#
# Mechanical properties :
#
#
# Convention : Reuss Voigt Hill
#
# Bulk Modulus (GPa) = 41.15673 47.60631 44.38152
# Shear Modulus (GPa) = 15.57952 23.20832 19.39392
#
# Velocity S-wave (km/s) = 2.81172 3.43176 3.13709
# Velocity P-wave (km/s) = 5.60587 6.31350 5.97018
#
# Compressibility (1/GPa) = 0.02429736
#
# Stress axis : x y z
#
# Youngs Moduli (GPa) = 110.98849 69.61706 80.16246
#
# Poissons Ratio (x) = 0.18912 0.12774
# Poissons Ratio (y) = 0.30151 0.11749
# Poissons Ratio (z) = 0.17686 0.10204
#
# Static dielectric constant tensor:
#      x y z
#    x 3.620140 0.000000 0.208670 
#    y 0.000000 3.508090 0.000000 
#    z 0.208670 0.000000 4.033660 
# 
# 
# High freq. dielectric constant tensor:
#      x y z
#    x 1.758630 0.000000 0.009570 
#    y 0.000000 1.766630 0.000000 
#    z 0.009570 0.000000 1.764440 
# 
# From -- ./inp_files/298189.got.cif
#   From: 2010.06.25/outbox.cif.g09.slc.cpg/sg15_150_cif.got.tgz:298189.got - 2010.06.28 07:06:18.
