data_PCOD8133901
_publ_section_title
;
Structure prediction by ZEFSAII (Michael W. Deem and Ramdas Pophale) SiO2 
 PCOD8133901
Probable space group: C 2/C
;
_chemical_formula_sum "Si O2"
_cell_formula_units_Z 36
_cell_length_a 15.625300
_cell_length_b 19.826500
_cell_length_c 9.356239
_cell_angle_alpha 90.000000
_cell_angle_beta 140.029444
_cell_angle_gamma 90.000000
_cell_volume 1861.988979
_symmetry_space_group_name_H-M "C 2/C"
_symmetry_group_IT_number 15
_symmetry_cell_setting 'monoclinic'
loop_
_space_group_symop_operation_xyz
x,y,z
-x,y,1/2-z
-x,-y,-z
x,-y,1/2+z
1/2+x,1/2+y,z
1/2-x,1/2+y,1/2-z
1/2-x,1/2-y,-z
1/2+x,1/2-y,1/2+z
loop_
_atom_site_type_symbol
_atom_site_label
_atom_site_fract_x
_atom_site_fract_y
_atom_site_fract_z
Si Si1 0.404271 0.973980 0.498019
Si Si2 0.351887 0.313322 0.996092
Si Si3 0.500000 0.511133 0.250000
Si Si4 0.652126 0.164161 0.487267
Si Si5 0.342132 0.565619 0.305091
O O1 0.330990 0.900362 0.382044
O O2 0.500000 0.000000 0.500000
O O3 0.300801 0.032306 0.400993
O O4 0.500000 0.959134 0.750000
O O5 0.500000 0.317563 0.250000
O O6 0.248601 0.347136 0.975444
O O7 0.308669 0.237113 0.896559
O O8 0.335836 0.354833 0.828287
O O9 0.418290 0.558074 0.253390
O O10 0.592384 0.465433 0.468205
O O11 0.500000 0.171659 0.250000
#
# Coordination Sequence:
#
# PCOD8133901 Si02
#       5
#     8   8   4   8   8
#     4  11  22  37  60  84 114 152 196 237 283 345
#     4  10  19  34  59  89 115 144 196 247 291 335
#     4  10  22  32  54  84 116 146 182 234 294 340
#     4   9  19  35  56  87 113 150 196 245 280 338
#     4  11  20  36  56  85 116 147 189 236 289 346
#
# _framework density 19.334164000000001
#
# number of rings (size 3 to 8) (size 9 to 14) (size 15 to 20)
#    0.000    1.778    1.111    5.333    3.111    0.000 
#    0.000    0.000    2.444    2.667    0.000    0.000 
#    0.000    0.000    0.000    0.000    0.000    0.000 
#
# Total GULP energy -223004.016638 kJ/mol
# GULP energy per Si atom -12389.112035 kJ/mol
# Density = 1.929016 g / cm^3
# Si number density = 19.334164 Si / 1000 Ang^3
#
#
#
# Elastic Constant Matrix: (Units=GPa)
#
#
# Indices 1 2 3 4 5 6 
#
# 1 155.3269 71.5541 27.8478 0.0000 1.3903 0.0000
# 2 71.5541 146.2821 17.7803 0.0000 -13.7060 0.0000
# 3 27.8478 17.7803 38.7024 0.0000 4.6516 0.0000
# 4 0.0000 0.0000 0.0000 15.4359 0.0000 5.1623
# 5 1.3903 -13.7060 4.6516 0.0000 34.9059 0.0000
# 6 0.0000 0.0000 0.0000 5.1623 0.0000 32.1523
#
#
#
# Elastic Compliance Matrix: (Units=1/GPa)
#
#
# Indices 1 2 3 4 5 6 
#
# 1 0.009125 -0.004036 -0.004550 0.000000 -0.001342 0.000000
# 2 -0.004036 0.009430 -0.001923 0.000000 0.004120 0.000000
# 3 -0.004550 -0.001923 0.030554 0.000000 -0.004646 0.000000
# 4 0.000000 0.000000 0.000000 0.068460 0.000000 -0.010992
# 5 -0.001342 0.004120 -0.004646 0.000000 0.030939 0.000000
# 6 0.000000 0.000000 0.000000 -0.010992 0.000000 0.032867
#
#
# Mechanical properties :
#
#
# Convention : Reuss Voigt Hill
#
# Bulk Modulus (GPa) = 35.59996 63.85288 49.72642
# Shear Modulus (GPa) = 23.61185 31.37412 27.49298
#
# Velocity S-wave (km/s) = 3.49843 4.03268 3.77502
# Velocity P-wave (km/s) = 5.89675 7.40142 6.69151
#
# Compressibility (1/GPa) = 0.02808992
#
# Stress axis : x y z
#
# Youngs Moduli (GPa) = 109.58625 106.04190 32.72870
#
# Poissons Ratio (x) = 0.42801 0.14893
# Poissons Ratio (y) = 0.44232 0.06295
# Poissons Ratio (z) = 0.49866 0.20395
#
# Static dielectric constant tensor:
#      x y z
#    x 3.575610 0.000000 0.328350 
#    y 0.000000 4.322530 0.000000 
#    z 0.328350 0.000000 3.321690 
# 
# 
# High freq. dielectric constant tensor:
#      x y z
#    x 1.764140 0.000000 0.030740 
#    y 0.000000 1.768760 0.000000 
#    z 0.030740 0.000000 1.716660 
# 
# From -- ./inp_files/30095.got.cif
#   From: 2010.06.25/outbox.cif.g09.slc.cpg/sg15_16_cif.got.tgz:30095.got - 2010.06.28 07:06:18.
