data_PCOD8133077
_publ_section_title
;
Structure prediction by ZEFSAII (Michael W. Deem and Ramdas Pophale) SiO2 
 PCOD8133077
Probable space group: C 2/C
;
_chemical_formula_sum "Si O2"
_cell_formula_units_Z 56
_cell_length_a 14.276163
_cell_length_b 15.867862
_cell_length_c 19.457982
_cell_angle_alpha 90.000000
_cell_angle_beta 41.104865
_cell_angle_gamma 90.000000
_cell_volume 2897.899530
_symmetry_space_group_name_H-M "C 2/C"
_symmetry_group_IT_number 15
_symmetry_cell_setting 'monoclinic'
loop_
_space_group_symop_operation_xyz
x,y,z
-x,y,1/2-z
-x,-y,-z
x,-y,1/2+z
1/2+x,1/2+y,z
1/2-x,1/2+y,1/2-z
1/2-x,1/2-y,-z
1/2+x,1/2-y,1/2+z
loop_
_atom_site_type_symbol
_atom_site_label
_atom_site_fract_x
_atom_site_fract_y
_atom_site_fract_z
Si Si1 0.448720 0.145697 0.079824
Si Si2 0.313321 0.734101 0.752030
Si Si3 0.534823 0.613949 0.574184
Si Si4 0.218652 0.137772 0.602505
Si Si5 0.554294 0.427407 0.608893
Si Si6 0.206301 0.957198 0.655944
Si Si7 0.479576 0.291044 0.551422
O O1 0.390847 0.180142 0.184890
O O2 0.362106 0.064277 0.100414
O O3 0.613008 0.125218 0.000714
O O4 0.424768 0.218139 0.035566
O O5 0.376871 0.653040 0.675912
O O6 0.327613 0.718124 0.826354
O O7 0.144022 0.747365 0.834110
O O8 0.642832 0.649810 0.571865
O O9 0.538716 0.512913 0.572845
O O10 0.587674 0.649038 0.471413
O O11 0.170016 0.056497 0.673724
O O12 0.689152 0.427289 0.585975
O O13 0.409604 0.413188 0.731614
O O14 0.578196 0.349117 0.544874
#
# Coordination Sequence:
#
# PCOD8133077 Si02
#       7
#     8   8   8   8   8   8   8
#     4  10  21  34  53  81 108 135 171 218 266 305
#     4  10  19  32  49  76 112 136 169 212 253 304
#     4  10  20  34  54  79 105 141 177 209 256 314
#     4  10  20  34  54  79 105 141 177 209 256 314
#     4  10  19  35  58  76 100 140 181 214 254 309
#     4  10  19  35  58  76 100 140 181 214 254 309
#     4  10  21  34  53  81 108 135 171 218 266 305
#
# _framework density 19.324341
#
# number of rings (size 3 to 8) (size 9 to 14) (size 15 to 20)
#    0.000    2.000    2.857    1.286    0.000    6.857 
#    0.000    0.000    0.000    0.000    0.000    0.000 
#    0.000    0.000    0.000    0.000    0.000    0.000 
#
# Total GULP energy -346969.951591 kJ/mol
# GULP energy per Si atom -12391.783985 kJ/mol
# Density = 1.928036 g / cm^3
# Si number density = 19.324341 Si / 1000 Ang^3
#
#
#
# Elastic Constant Matrix: (Units=GPa)
#
#
# Indices 1 2 3 4 5 6 
#
# 1 77.8070 30.4225 23.7797 -0.0001 0.4982 0.0000
# 2 30.4225 54.6644 4.5136 -0.0001 5.0096 0.0001
# 3 23.7797 4.5136 63.5625 -0.0003 -4.4600 0.0002
# 4 -0.0001 -0.0001 -0.0003 27.3720 0.0002 5.6206
# 5 0.4982 5.0096 -4.4600 0.0002 20.9653 -0.0001
# 6 0.0000 0.0001 0.0002 5.6206 -0.0001 35.3707
#
#
#
# Elastic Compliance Matrix: (Units=1/GPa)
#
#
# Indices 1 2 3 4 5 6 
#
# 1 0.018623 -0.009906 -0.006222 0.000000 0.000601 0.000000
# 2 -0.009906 0.024147 0.001627 0.000000 -0.005188 0.000000
# 3 -0.006222 0.001627 0.018199 0.000000 0.003631 0.000000
# 4 0.000000 0.000000 0.000000 0.037766 0.000000 -0.006001
# 5 0.000601 -0.005188 0.003631 0.000000 0.049696 0.000000
# 6 0.000000 0.000000 0.000000 -0.006001 0.000000 0.029226
#
#
# Mechanical properties :
#
#
# Convention : Reuss Voigt Hill
#
# Bulk Modulus (GPa) = 31.27988 34.82951 33.05470
# Shear Modulus (GPa) = 23.00817 25.89612 24.45215
#
# Velocity S-wave (km/s) = 3.45430 3.66468 3.56104
# Velocity P-wave (km/s) = 5.66846 5.99744 5.83527
#
# Compressibility (1/GPa) = 0.03196943
#
# Stress axis : x y z
#
# Youngs Moduli (GPa) = 53.69687 41.41232 54.94697
#
# Poissons Ratio (x) = 0.41022 0.34186
# Poissons Ratio (y) = 0.53190 -0.08940
# Poissons Ratio (z) = 0.33408 -0.06738
#
# Static dielectric constant tensor:
#      x y z
#    x 3.377930 0.000000 0.104480 
#    y 0.000000 3.534730 0.000000 
#    z 0.104480 0.000000 3.500840 
# 
# 
# High freq. dielectric constant tensor:
#      x y z
#    x 1.730690 0.000000 0.008320 
#    y 0.000000 1.745020 0.000000 
#    z 0.008320 0.000000 1.748080 
# 
# From -- ./inp_files/199433.got.cif
#   From: 2010.06.25/outbox.cif.g09.slc.cpg/sg15_100_cif.got.tgz:199433.got - 2010.06.28 07:06:18.
