data_PCOD8133484
_publ_section_title
;
Structure prediction by ZEFSAII (Michael W. Deem and Ramdas Pophale) SiO2 
 PCOD8133484
Probable space group: C 2/C
;
_chemical_formula_sum "Si O2"
_cell_formula_units_Z 52
_cell_length_a 26.472118
_cell_length_b 9.118979
_cell_length_c 15.181852
_cell_angle_alpha 90.000000
_cell_angle_beta 125.158343
_cell_angle_gamma 90.000000
_cell_volume 2996.272451
_symmetry_space_group_name_H-M "C 2/C"
_symmetry_group_IT_number 15
_symmetry_cell_setting 'monoclinic'
loop_
_space_group_symop_operation_xyz
x,y,z
-x,y,1/2-z
-x,-y,-z
x,-y,1/2+z
1/2+x,1/2+y,z
1/2-x,1/2+y,1/2-z
1/2-x,1/2-y,-z
1/2+x,1/2-y,1/2+z
loop_
_atom_site_type_symbol
_atom_site_label
_atom_site_fract_x
_atom_site_fract_y
_atom_site_fract_z
Si Si1 0.815262 0.680118 0.294515
Si Si2 0.880295 0.163938 0.707976
Si Si3 0.682424 0.357037 0.849881
Si Si4 0.500000 0.253546 0.250000
Si Si5 0.616991 0.145048 0.444850
Si Si6 0.673739 0.158467 0.000084
Si Si7 0.689901 0.161021 0.692030
O O1 0.866477 0.727829 0.275561
O O2 0.843369 0.714423 0.419377
O O3 0.753239 0.773858 0.216616
O O4 0.799546 0.507773 0.270416
O O5 0.954622 0.149969 0.767232
O O6 0.850958 0.237425 0.589960
O O7 0.853238 0.006441 0.701862
O O8 0.658877 0.287628 0.917383
O O9 0.667040 0.248263 0.754481
O O10 0.754792 0.389995 0.928391
O O11 0.542542 0.155353 0.358347
O O12 0.637336 0.177533 0.564990
O O13 0.635011 0.982396 0.433121
#
# Coordination Sequence:
#
# PCOD8133484 Si02
#       7
#     8   8   8   4   8   8   8
#     4  10  19  33  56  85 115 140 174 222 284 335
#     4  10  20  36  57  72 112 149 181 230 269 309
#     4  10  20  33  55  85 120 134 175 222 283 341
#     4   8  22  40  54  74 104 148 208 226 248 314
#     4   9  19  37  57  71 110 144 190 223 266 311
#     4   9  19  34  54  87 110 140 174 224 279 339
#     4  10  20  33  55  90 113 137 177 219 283 347
#
# _framework density 17.354896
#
# number of rings (size 3 to 8) (size 9 to 14) (size 15 to 20)
#    0.923    1.538    0.000    3.692    0.000    7.385 
#    0.000    4.615    0.000    0.000    0.000    0.000 
#    0.000    0.000    0.000    0.000    0.000    0.000 
#
# Total GULP energy -322251.636432 kJ/mol
# GULP energy per Si atom -12394.293709 kJ/mol
# Density = 1.731540 g / cm^3
# Si number density = 17.354896 Si / 1000 Ang^3
#
#
#
# Elastic Constant Matrix: (Units=GPa)
#
#
# Indices 1 2 3 4 5 6 
#
# 1 94.8493 52.0508 46.6664 0.0000 -7.7676 0.0000
# 2 52.0508 107.2125 43.4544 0.0000 -8.0930 0.0000
# 3 46.6664 43.4544 86.3420 0.0000 -9.1979 0.0000
# 4 0.0000 0.0000 0.0000 25.3382 0.0000 -7.4920
# 5 -7.7676 -8.0930 -9.1979 0.0000 23.8049 0.0000
# 6 0.0000 0.0000 0.0000 -7.4920 0.0000 18.0996
#
#
#
# Elastic Compliance Matrix: (Units=1/GPa)
#
#
# Indices 1 2 3 4 5 6 
#
# 1 0.016681 -0.005534 -0.006102 0.000000 0.001204 0.000000
# 2 -0.005534 0.013626 -0.003719 0.000000 0.001390 0.000000
# 3 -0.006102 -0.003719 0.017109 0.000000 0.003355 0.000000
# 4 0.000000 0.000000 0.000000 0.044970 0.000000 0.018615
# 5 0.001204 0.001390 0.003355 0.000000 0.044170 0.000000
# 6 0.000000 0.000000 0.000000 0.018615 0.000000 0.062955
#
#
# Mechanical properties :
#
#
# Convention : Reuss Voigt Hill
#
# Bulk Modulus (GPa) = 59.85911 63.63855 61.74883
# Shear Modulus (GPa) = 21.20529 23.19736 22.20132
#
# Velocity S-wave (km/s) = 3.49931 3.65998 3.58055
# Velocity P-wave (km/s) = 7.13393 7.38980 7.26299
#
# Compressibility (1/GPa) = 0.01670590
#
# Stress axis : x y z
#
# Youngs Moduli (GPa) = 59.94825 73.38782 58.44900
#
# Poissons Ratio (x) = 0.40615 0.35667
# Poissons Ratio (y) = 0.33177 0.21735
# Poissons Ratio (z) = 0.36582 0.27290
#
# Static dielectric constant tensor:
#      x y z
#    x 3.153460 0.000000 -0.225190 
#    y 0.000000 3.180720 0.000000 
#    z -0.225190 0.000000 3.146350 
# 
# 
# High freq. dielectric constant tensor:
#      x y z
#    x 1.657060 0.000000 -0.022810 
#    y 0.000000 1.672110 0.000000 
#    z -0.022810 0.000000 1.662600 
# 
# From -- ./inp_files/176719.got.cif
#   From: 2010.06.25/outbox.cif.g09.slc.cpg/sg15_89_cif.got.tgz:176719.got - 2010.06.28 07:06:18.
