data_PCOD8133596
_publ_section_title
;
Structure prediction by ZEFSAII (Michael W. Deem and Ramdas Pophale) SiO2 
 PCOD8133596
Probable space group: C 2/C
;
_chemical_formula_sum "Si O2"
_cell_formula_units_Z 48
_cell_length_a 23.450457
_cell_length_b 12.516497
_cell_length_c 19.391876
_cell_angle_alpha 90.000000
_cell_angle_beta 22.751923
_cell_angle_gamma 90.000000
_cell_volume 2201.279437
_symmetry_space_group_name_H-M "C 2/C"
_symmetry_group_IT_number 15
_symmetry_cell_setting 'monoclinic'
loop_
_space_group_symop_operation_xyz
x,y,z
-x,y,1/2-z
-x,-y,-z
x,-y,1/2+z
1/2+x,1/2+y,z
1/2-x,1/2+y,1/2-z
1/2-x,1/2-y,-z
1/2+x,1/2-y,1/2+z
loop_
_atom_site_type_symbol
_atom_site_label
_atom_site_fract_x
_atom_site_fract_y
_atom_site_fract_z
Si Si1 0.285741 0.996493 0.786156
Si Si2 0.000000 0.734548 0.250000
Si Si3 0.513420 0.353146 0.094727
Si Si4 0.065486 0.626578 0.986359
Si Si5 0.703735 0.930246 0.469671
Si Si6 0.787347 0.604714 0.924992
Si Si7 0.500000 0.737421 0.250000
O O1 0.407822 0.907896 0.631146
O O2 0.305237 0.095098 0.711521
O O3 0.317383 0.025612 0.829677
O O4 0.123325 0.950034 0.957780
O O5 0.014587 0.815508 0.171604
O O6 0.853783 0.658894 0.411357
O O7 0.350098 0.397316 0.264842
O O8 0.559807 0.254658 0.994995
O O9 0.085419 0.568831 0.039034
O O10 0.722224 0.041622 0.490640
O O11 0.924467 0.687655 0.775739
O O12 0.634123 0.663099 0.074871
#
# Coordination Sequence:
#
# PCOD8133596 Si02
#       7
#     8   4   8   8   8   8   4
#     4  11  23  42  62  86 129 169 209 256 319 370
#     4  10  19  33  62  98 124 156 188 262 328 372
#     4  11  21  38  63  97 122 159 210 257 313 383
#     4  10  23  41  58  91 127 170 204 257 318 379
#     4  11  21  37  66  91 126 156 207 265 318 367
#     4  11  21  41  61  92 119 166 208 266 304 376
#     4  10  23  39  60  90 122 158 220 250 316 362
#
# _framework density 21.805499999999999
#
# number of rings (size 3 to 8) (size 9 to 14) (size 15 to 20)
#    0.000    1.333    0.000    8.000    0.000    0.667 
#   15.000    0.000    0.000    0.000    0.000    0.000 
#    0.000    0.000    0.000    0.000    0.000    0.000 
#
# Total GULP energy -297466.177717 kJ/mol
# GULP energy per Si atom -12394.424072 kJ/mol
# Density = 2.175587 g / cm^3
# Si number density = 21.805500 Si / 1000 Ang^3
#
#
#
# Elastic Constant Matrix: (Units=GPa)
#
#
# Indices 1 2 3 4 5 6 
#
# 1 47.2994 22.9825 27.4255 -0.0002 4.1918 0.0000
# 2 22.9825 73.2871 43.8462 -0.0003 -1.5788 0.0001
# 3 27.4255 43.8462 137.0649 -0.0003 -11.9128 0.0001
# 4 -0.0002 -0.0003 -0.0003 45.1268 0.0005 1.2011
# 5 4.1918 -1.5788 -11.9128 0.0005 31.5841 -0.0004
# 6 0.0000 0.0001 0.0001 1.2011 -0.0004 26.0809
#
#
#
# Elastic Compliance Matrix: (Units=1/GPa)
#
#
# Indices 1 2 3 4 5 6 
#
# 1 0.026877 -0.006244 -0.003844 0.000000 -0.005329 0.000000
# 2 -0.006244 0.018372 -0.004628 0.000000 0.000002 0.000000
# 3 -0.003844 -0.004628 0.009894 0.000000 0.004010 0.000000
# 4 0.000000 0.000000 0.000000 0.022187 0.000000 -0.001022
# 5 -0.005329 0.000002 0.004010 0.000000 0.033881 0.000001
# 6 0.000000 0.000000 0.000000 -0.001022 0.000001 0.038389
#
#
# Mechanical properties :
#
#
# Convention : Reuss Voigt Hill
#
# Bulk Modulus (GPa) = 38.89178 49.57332 44.23255
# Shear Modulus (GPa) = 26.65248 31.45150 29.05199
#
# Velocity S-wave (km/s) = 3.49991 3.80197 3.65406
# Velocity P-wave (km/s) = 5.84867 6.48513 6.17511
#
# Compressibility (1/GPa) = 0.02571237
#
# Stress axis : x y z
#
# Youngs Moduli (GPa) = 37.20717 54.43212 101.07370
#
# Poissons Ratio (x) = 0.33985 0.38849
# Poissons Ratio (y) = 0.23231 0.46772
# Poissons Ratio (z) = 0.14301 0.25188
#
# Static dielectric constant tensor:
#      x y z
#    x 3.735370 0.000000 -0.161660 
#    y 0.000000 3.942050 0.000000 
#    z -0.161660 0.000000 4.108490 
# 
# 
# High freq. dielectric constant tensor:
#      x y z
#    x 1.838590 0.000000 -0.015440 
#    y 0.000000 1.854520 0.000000 
#    z -0.015440 0.000000 1.864390 
# 
# From -- ./inp_files/69874.got.cif
#   From: 2010.06.25/outbox.cif.g09.slc.cpg/sg15_35_cif.got.tgz:69874.got - 2010.06.28 07:06:18.
