data_PCOD8133957
_publ_section_title
;
Structure prediction by ZEFSAII (Michael W. Deem and Ramdas Pophale) SiO2 
 PCOD8133957
Probable space group: C 2/C
;
_chemical_formula_sum "Si O2"
_cell_formula_units_Z 32
_cell_length_a 8.528942
_cell_length_b 34.027957
_cell_length_c 5.151010
_cell_angle_alpha 90.000000
_cell_angle_beta 92.608651
_cell_angle_gamma 90.000000
_cell_volume 1493.389662
_symmetry_space_group_name_H-M "C 2/C"
_symmetry_group_IT_number 15
_symmetry_cell_setting 'monoclinic'
loop_
_space_group_symop_operation_xyz
x,y,z
-x,y,1/2-z
-x,-y,-z
x,-y,1/2+z
1/2+x,1/2+y,z
1/2-x,1/2+y,1/2-z
1/2-x,1/2-y,-z
1/2+x,1/2-y,1/2+z
loop_
_atom_site_type_symbol
_atom_site_label
_atom_site_fract_x
_atom_site_fract_y
_atom_site_fract_z
Si Si1 0.822850 0.105635 0.245128
Si Si2 0.184260 0.357409 0.236614
Si Si3 0.325944 0.516279 0.422627
Si Si4 0.815749 0.771237 0.255276
O O1 0.721103 0.128042 0.450602
O O2 0.826759 0.060282 0.322083
O O3 0.000000 0.122303 0.250000
O O4 0.746495 0.111789 0.956497
O O5 0.268679 0.316255 0.279645
O O6 0.000000 0.351823 0.250000
O O7 0.500000 0.500000 0.500000
O O8 0.239537 0.510411 0.693795
O O9 0.750000 0.750000 0.500000
O O10 0.000000 0.767581 0.250000
O O11 0.750000 0.750000 0.000000
#
# Coordination Sequence:
#
# PCOD8133957 Si02
#       4
#     8   8   8   8
#     4  12  23  40  70 100 129 170 231 290 328 397
#     4  12  27  45  64  97 143 182 220 272 350 402
#     4  10  19  34  61  99 125 160 222 282 338 390
#     4  12  25  46  73 102 136 177 227 274 332 404
#
# _framework density 21.427762000000001
#
# number of rings (size 3 to 8) (size 9 to 14) (size 15 to 20)
#    0.000    0.500    2.500    8.250    3.500    0.000 
#    0.000    0.000    0.000   15.000    0.000    0.000 
#    0.000    0.000    0.000    0.000    0.000    0.000 
#
# Total GULP energy -198352.637790 kJ/mol
# GULP energy per Si atom -12397.039862 kJ/mol
# Density = 2.137899 g / cm^3
# Si number density = 21.427762 Si / 1000 Ang^3
#
#
#
# Elastic Constant Matrix: (Units=GPa)
#
#
# Indices 1 2 3 4 5 6 
#
# 1 150.2452 29.1079 43.8743 0.0000 -1.6888 0.0000
# 2 29.1079 130.0843 43.8707 0.0000 -1.1332 0.0000
# 3 43.8743 43.8707 168.1098 0.0000 -11.8404 0.0000
# 4 0.0000 0.0000 0.0000 31.7622 0.0000 -4.3264
# 5 -1.6888 -1.1332 -11.8404 0.0000 39.4297 0.0000
# 6 0.0000 0.0000 0.0000 -4.3264 0.0000 20.6825
#
#
#
# Elastic Compliance Matrix: (Units=1/GPa)
#
#
# Indices 1 2 3 4 5 6 
#
# 1 0.007346 -0.001090 -0.001648 0.000000 -0.000211 0.000000
# 2 -0.001090 0.008598 -0.001987 0.000000 -0.000396 0.000000
# 3 -0.001648 -0.001987 0.007037 0.000000 0.001985 0.000000
# 4 0.000000 0.000000 0.000000 0.032407 0.000000 0.006779
# 5 -0.000211 -0.000396 0.001985 0.000000 0.025937 0.000000
# 6 0.000000 0.000000 0.000000 0.006779 0.000000 0.049768
#
#
# Mechanical properties :
#
#
# Convention : Reuss Voigt Hill
#
# Bulk Modulus (GPa) = 73.90357 75.79391 74.84874
# Shear Modulus (GPa) = 34.47010 40.48064 37.47537
#
# Velocity S-wave (km/s) = 4.01517 4.35117 4.18654
# Velocity P-wave (km/s) = 7.48732 7.79052 7.64042
#
# Compressibility (1/GPa) = 0.01353115
#
# Stress axis : x y z
#
# Youngs Moduli (GPa) = 136.13439 116.30707 142.10742
#
# Poissons Ratio (x) = 0.12676 0.23414
# Poissons Ratio (y) = 0.14837 0.28240
# Poissons Ratio (z) = 0.22429 0.23113
#
# Static dielectric constant tensor:
#      x y z
#    x 4.124060 0.000000 -0.593960 
#    y 0.000000 3.234560 0.000000 
#    z -0.593960 0.000000 4.549890 
# 
# 
# High freq. dielectric constant tensor:
#      x y z
#    x 1.826490 0.000000 -0.014930 
#    y 0.000000 1.852790 0.000000 
#    z -0.014930 0.000000 1.875870 
# 
# From -- ./inp_files/2695.got.cif
#   From: 2010.06.25/outbox.cif.g09.slc.cpg/sg15_2_cif.got.tgz:2695.got - 2010.06.28 07:06:18.
