data_PCOD8133961
_publ_section_title
;
Structure prediction by ZEFSAII (Michael W. Deem and Ramdas Pophale) SiO2 
 PCOD8133961
Probable space group: C 2/C
;
_chemical_formula_sum "Si O2"
_cell_formula_units_Z 60
_cell_length_a 24.707611
_cell_length_b 16.993915
_cell_length_c 8.698423
_cell_angle_alpha 90.000000
_cell_angle_beta 56.108578
_cell_angle_gamma 90.000000
_cell_volume 3031.746782
_symmetry_space_group_name_H-M "C 2/C"
_symmetry_group_IT_number 15
_symmetry_cell_setting 'monoclinic'
loop_
_space_group_symop_operation_xyz
x,y,z
-x,y,1/2-z
-x,-y,-z
x,-y,1/2+z
1/2+x,1/2+y,z
1/2-x,1/2+y,1/2-z
1/2-x,1/2-y,-z
1/2+x,1/2-y,1/2+z
loop_
_atom_site_type_symbol
_atom_site_label
_atom_site_fract_x
_atom_site_fract_y
_atom_site_fract_z
Si Si1 0.295952 0.409813 0.750043
Si Si2 0.034486 0.430733 0.537871
Si Si3 0.678537 0.073843 0.855464
Si Si4 0.755606 0.041263 0.012966
Si Si5 0.000000 0.994187 0.250000
Si Si6 0.549135 0.221641 0.808564
Si Si7 0.435959 0.608080 0.116463
Si Si8 0.306429 0.188060 0.923981
O O1 0.298738 0.403718 0.558207
O O2 0.359807 0.367339 0.716137
O O3 0.301865 0.496709 0.817685
O O4 0.224471 0.378245 0.915760
O O5 0.106305 0.461599 0.466324
O O6 0.036676 0.348868 0.445006
O O7 0.000000 0.411604 0.750000
O O8 0.000000 0.500000 0.500000
O O9 0.680943 0.158005 0.768944
O O10 0.723617 0.014322 0.691475
O O11 0.701710 0.086540 0.995577
O O12 0.960903 0.937065 0.426048
O O13 0.949082 0.051026 0.241488
O O14 0.500000 0.205922 0.750000
O O15 0.531006 0.306554 0.911853
O O16 0.623941 0.219440 0.623975
O O17 0.250000 0.250000 0.000000
#
# Coordination Sequence:
#
# PCOD8133961 Si02
#       8
#     8   8   8   8   4   8   8   8
#     4  10  19  34  62  84 119 153 199 252 300 366
#     4  11  23  38  62  89 122 164 208 248 301 365
#     4   9  19  34  57  81 119 149 196 247 297 354
#     4   9  18  33  54  88 112 145 191 250 305 347
#     4  10  24  38  66  90 122 164 206 258 310 378
#     4  11  24  41  62  90 128 165 206 255 312 371
#     4  11  21  41  61  91 123 160 211 252 313 367
#     4  10  20  38  58  82 115 164 196 244 304 357
#
# _framework density 19.790571
#
# number of rings (size 3 to 8) (size 9 to 14) (size 15 to 20)
#    0.000    1.867    2.000    2.000    0.933    5.333 
#    0.000    2.000    0.000    0.000    0.000    0.000 
#    0.000    0.000    0.000    0.000    0.000    0.000 
#
# Total GULP energy -371706.140975 kJ/mol
# GULP energy per Si atom -12390.204699 kJ/mol
# Density = 1.974553 g / cm^3
# Si number density = 19.790571 Si / 1000 Ang^3
#
#
#
# Elastic Constant Matrix: (Units=GPa)
#
#
# Indices 1 2 3 4 5 6 
#
# 1 148.6817 27.5571 51.3362 0.0000 11.3674 0.0000
# 2 27.5571 80.0483 25.2066 0.0000 5.7518 0.0000
# 3 51.3362 25.2066 83.1683 0.0000 10.2074 0.0000
# 4 0.0000 0.0000 0.0000 18.3122 0.0000 -2.7310
# 5 11.3674 5.7518 10.2074 0.0000 38.6312 0.0000
# 6 0.0000 0.0000 0.0000 -2.7310 0.0000 28.3326
#
#
#
# Elastic Compliance Matrix: (Units=1/GPa)
#
#
# Indices 1 2 3 4 5 6 
#
# 1 0.008739 -0.001408 -0.004834 0.000000 -0.001084 0.000000
# 2 -0.001408 0.014074 -0.003297 0.000000 -0.000810 0.000000
# 3 -0.004834 -0.003297 0.016301 0.000000 -0.002394 0.000000
# 4 0.000000 0.000000 0.000000 0.055405 0.000000 0.005340
# 5 -0.001084 -0.000810 -0.002394 0.000000 0.026958 0.000000
# 6 0.000000 0.000000 0.000000 0.005340 0.000000 0.035810
#
#
# Mechanical properties :
#
#
# Convention : Reuss Voigt Hill
#
# Bulk Modulus (GPa) = 49.91330 57.78868 53.85099
# Shear Modulus (GPa) = 27.31610 30.90843 29.11227
#
# Velocity S-wave (km/s) = 3.71921 3.95622 3.83954
# Velocity P-wave (km/s) = 6.61203 7.08042 6.85023
#
# Compressibility (1/GPa) = 0.02003474
#
# Stress axis : x y z
#
# Youngs Moduli (GPa) = 114.43182 71.05516 61.34689
#
# Poissons Ratio (x) = 0.10006 0.29656
# Poissons Ratio (y) = 0.16114 0.20225
# Poissons Ratio (z) = 0.55319 0.23425
#
# Static dielectric constant tensor:
#      x y z
#    x 3.975990 0.000000 -0.026430 
#    y 0.000000 3.184690 0.000000 
#    z -0.026430 0.000000 3.865850 
# 
# 
# High freq. dielectric constant tensor:
#      x y z
#    x 1.789000 0.000000 0.002660 
#    y 0.000000 1.760420 0.000000 
#    z 0.002660 0.000000 1.761650 
# 
# From -- ./inp_files/56560.got.cif
#   From: 2010.06.25/outbox.cif.g09.slc.cpg/sg15_29_cif.got.tgz:56560.got - 2010.06.28 07:06:18.
