data_PCOD8133888
_publ_section_title
;
Structure prediction by ZEFSAII (Michael W. Deem and Ramdas Pophale) SiO2 
 PCOD8133888
Probable space group: C 2/C
;
_chemical_formula_sum "Si O2"
_cell_formula_units_Z 60
_cell_length_a 5.511545
_cell_length_b 30.183118
_cell_length_c 17.805106
_cell_angle_alpha 90.000000
_cell_angle_beta 71.254821
_cell_angle_gamma 90.000000
_cell_volume 2804.867567
_symmetry_space_group_name_H-M "C 2/C"
_symmetry_group_IT_number 15
_symmetry_cell_setting 'monoclinic'
loop_
_space_group_symop_operation_xyz
x,y,z
-x,y,1/2-z
-x,-y,-z
x,-y,1/2+z
1/2+x,1/2+y,z
1/2-x,1/2+y,1/2-z
1/2-x,1/2-y,-z
1/2+x,1/2-y,1/2+z
loop_
_atom_site_type_symbol
_atom_site_label
_atom_site_fract_x
_atom_site_fract_y
_atom_site_fract_z
Si Si1 0.000000 0.653512 0.750000
Si Si2 0.784709 0.672509 0.623206
Si Si3 0.579596 0.953068 0.656121
Si Si4 0.280818 0.181752 0.032935
Si Si5 0.661587 0.414294 0.587770
Si Si6 0.539850 0.590456 0.825896
Si Si7 0.504954 0.733515 0.937390
Si Si8 0.802316 0.968082 0.057328
O O1 0.923803 0.685393 0.687658
O O2 0.783986 0.621690 0.803948
O O3 0.703679 0.621906 0.640949
O O4 0.555182 0.708859 0.635862
O O5 0.944373 0.671750 0.530664
O O6 0.500000 0.958907 0.750000
O O7 0.352342 0.926188 0.637319
O O8 0.864708 0.930499 0.625346
O O9 0.578897 0.001679 0.616149
O O10 0.159826 0.139186 0.085655
O O11 0.303934 0.223899 0.088496
O O12 0.106912 0.195008 0.980669
O O13 0.788690 0.433464 0.497752
O O14 0.500000 0.565270 0.750000
O O15 0.545560 0.555563 0.891328
O O16 0.250000 0.750000 0.000000
O O17 0.000000 0.000000 0.000000
#
# Coordination Sequence:
#
# PCOD8133888 Si02
#       8
#     4   8   8   8   8   8   8   8
#     4  10  20  34  52  90 118 178 198 252 316 414
#     4  10  19  34  59  86 134 161 211 255 327 389
#     4  11  26  46  67  95 131 177 221 276 334 399
#     4  10  21  36  62  96 125 159 218 270 321 382
#     4  11  24  43  71  97 130 174 224 275 331 389
#     4  10  22  38  59  91 133 174 208 260 335 406
#     4   9  19  34  59  95 123 161 202 271 326 382
#     4  10  23  40  63  97 129 163 223 274 329 383
#
# _framework density 21.391385
#
# number of rings (size 3 to 8) (size 9 to 14) (size 15 to 20)
#    0.000    1.867    0.000    3.200    8.400    2.133 
#    4.800    0.000    0.000    7.200   13.867    0.000 
#    0.000    0.000    0.000    0.000    0.000    0.000 
#
# Total GULP energy -371668.367483 kJ/mol
# GULP energy per Si atom -12388.945583 kJ/mol
# Density = 2.134270 g / cm^3
# Si number density = 21.391385 Si / 1000 Ang^3
#
#
#
# Elastic Constant Matrix: (Units=GPa)
#
#
# Indices 1 2 3 4 5 6 
#
# 1 105.3450 29.8072 32.5807 0.0000 19.5509 0.0000
# 2 29.8072 107.3962 46.1379 0.0000 20.4639 0.0000
# 3 32.5807 46.1379 108.8954 0.0000 22.1677 0.0000
# 4 0.0000 0.0000 0.0000 12.2435 0.0000 -4.6690
# 5 19.5509 20.4639 22.1677 0.0000 38.7972 0.0000
# 6 0.0000 0.0000 0.0000 -4.6690 0.0000 5.0426
#
#
#
# Elastic Compliance Matrix: (Units=1/GPa)
#
#
# Indices 1 2 3 4 5 6 
#
# 1 0.011227 -0.001576 -0.001934 0.000000 -0.003721 0.000000
# 2 -0.001576 0.012088 -0.003976 0.000000 -0.003310 0.000000
# 3 -0.001934 -0.003976 0.012245 0.000000 -0.003925 0.000000
# 4 0.000000 0.000000 0.000000 0.126254 0.000000 0.116900
# 5 -0.003721 -0.003310 -0.003925 0.000000 0.031639 0.000000
# 6 0.000000 0.000000 0.000000 0.116900 0.000000 0.306550
#
#
# Mechanical properties :
#
#
# Convention : Reuss Voigt Hill
#
# Bulk Modulus (GPa) = 48.57165 59.85426 54.21295
# Shear Modulus (GPa) = 9.58153 25.42404 17.50278
#
# Velocity S-wave (km/s) = 2.11870 3.45123 2.86355
# Velocity P-wave (km/s) = 5.36103 6.62741 6.02757
#
# Compressibility (1/GPa) = 0.02058814
#
# Stress axis : x y z
#
# Youngs Moduli (GPa) = 89.06832 82.72978 81.66398
#
# Poissons Ratio (x) = 0.13040 0.15792
# Poissons Ratio (y) = 0.14039 0.32470
# Poissons Ratio (z) = 0.17223 0.32894
#
# Static dielectric constant tensor:
#      x y z
#    x 4.130520 0.000000 0.346460 
#    y 0.000000 4.314690 0.000000 
#    z 0.346460 0.000000 4.057680 
# 
# 
# High freq. dielectric constant tensor:
#      x y z
#    x 1.854240 0.000000 0.012380 
#    y 0.000000 1.836460 0.000000 
#    z 0.012380 0.000000 1.821280 
# 
# From -- ./inp_files/186713.got.cif
#   From: 2010.06.25/outbox.cif.g09.slc.cpg/sg15_94_cif.got.tgz:186713.got - 2010.06.28 07:06:18.
