data_PCOD8133472
_publ_section_title
;
Structure prediction by ZEFSAII (Michael W. Deem and Ramdas Pophale) SiO2 
 PCOD8133472
Probable space group: C 2/C
;
_chemical_formula_sum "Si O2"
_cell_formula_units_Z 56
_cell_length_a 9.728447
_cell_length_b 24.435183
_cell_length_c 14.803091
_cell_angle_alpha 90.000000
_cell_angle_beta 125.838179
_cell_angle_gamma 90.000000
_cell_volume 2852.710415
_symmetry_space_group_name_H-M "C 2/C"
_symmetry_group_IT_number 15
_symmetry_cell_setting 'monoclinic'
loop_
_space_group_symop_operation_xyz
x,y,z
-x,y,1/2-z
-x,-y,-z
x,-y,1/2+z
1/2+x,1/2+y,z
1/2-x,1/2+y,1/2-z
1/2-x,1/2-y,-z
1/2+x,1/2-y,1/2+z
loop_
_atom_site_type_symbol
_atom_site_label
_atom_site_fract_x
_atom_site_fract_y
_atom_site_fract_z
Si Si1 0.241487 0.853913 0.389759
Si Si2 0.886284 0.673178 0.487558
Si Si3 0.586574 0.658387 0.640458
Si Si4 0.875590 0.037359 0.894081
Si Si5 0.645748 0.947727 0.463626
Si Si6 0.736296 0.026245 0.647686
Si Si7 0.825797 0.261381 0.135609
O O1 0.430253 0.834024 0.490280
O O2 0.216710 0.842414 0.274346
O O3 0.212362 0.919396 0.388468
O O4 0.101813 0.823389 0.397925
O O5 0.833695 0.616946 0.514032
O O6 0.882953 0.724453 0.555439
O O7 0.737872 0.698375 0.365707
O O8 0.561425 0.599638 0.584318
O O9 0.667181 0.700100 0.601616
O O10 0.850274 0.015599 0.781225
O O11 0.701929 0.036921 0.884375
O O12 0.000000 0.000000 0.000000
O O13 0.455148 0.968142 0.393350
O O14 0.757220 0.976450 0.585531
O O15 0.000000 0.274825 0.250000
#
# Coordination Sequence:
#
# PCOD8133472 Si02
#       7
#     8   8   8   8   8   8   8
#     4   9  18  34  57  82 110 146 191 243 283 344
#     4  10  21  36  58  83 111 149 198 240 294 340
#     4  10  19  33  56  82 111 149 193 237 286 341
#     4  11  21  33  54  86 118 153 189 238 295 349
#     4  10  19  37  58  83 113 157 194 236 297 348
#     4   9  20  35  57  85 116 147 198 238 283 359
#     4  11  21  37  57  84 111 147 200 247 282 350
#
# _framework density 19.630454
#
# number of rings (size 3 to 8) (size 9 to 14) (size 15 to 20)
#    0.000    2.000    2.857    1.286    0.000    2.286 
#    2.571    0.000    0.000    0.000    7.429    0.000 
#    0.000    0.000    0.000    0.000    0.000    0.000 
#
# Total GULP energy -346874.648846 kJ/mol
# GULP energy per Si atom -12388.380316 kJ/mol
# Density = 1.958577 g / cm^3
# Si number density = 19.630454 Si / 1000 Ang^3
#
#
#
# Elastic Constant Matrix: (Units=GPa)
#
#
# Indices 1 2 3 4 5 6 
#
# 1 89.7909 17.4057 17.8077 0.0000 6.3848 0.0000
# 2 17.4057 65.3591 29.1427 0.0000 10.2876 0.0000
# 3 17.8077 29.1427 59.3450 0.0000 4.1930 0.0000
# 4 0.0000 0.0000 0.0000 27.0629 0.0000 4.8160
# 5 6.3848 10.2876 4.1930 0.0000 22.6416 0.0000
# 6 0.0000 0.0000 0.0000 4.8160 0.0000 26.6924
#
#
#
# Elastic Compliance Matrix: (Units=1/GPa)
#
#
# Indices 1 2 3 4 5 6 
#
# 1 0.012148 -0.001714 -0.002652 0.000000 -0.002156 0.000000
# 2 -0.001714 0.021067 -0.009311 0.000000 -0.007365 0.000000
# 3 -0.002652 -0.009311 0.022157 0.000000 0.000875 0.000000
# 4 0.000000 0.000000 0.000000 0.038177 0.000000 -0.006888
# 5 -0.002156 -0.007365 0.000875 0.000000 0.047959 0.000000
# 6 0.000000 0.000000 0.000000 -0.006888 0.000000 0.038707
#
#
# Mechanical properties :
#
#
# Convention : Reuss Voigt Hill
#
# Bulk Modulus (GPa) = 35.68848 38.13413 36.91131
# Shear Modulus (GPa) = 23.05135 25.28863 24.16999
#
# Velocity S-wave (km/s) = 3.43047 3.59309 3.51272
# Velocity P-wave (km/s) = 5.82327 6.05656 5.94106
#
# Compressibility (1/GPa) = 0.02802024
#
# Stress axis : x y z
#
# Youngs Moduli (GPa) = 82.31581 47.46689 45.13280
#
# Poissons Ratio (x) = 0.08134 0.11967
# Poissons Ratio (y) = 0.14105 0.42023
# Poissons Ratio (z) = 0.21826 0.44197
#
# Static dielectric constant tensor:
#      x y z
#    x 3.686530 0.000000 0.035900 
#    y 0.000000 3.543480 0.000000 
#    z 0.035900 0.000000 3.676810 
# 
# 
# High freq. dielectric constant tensor:
#      x y z
#    x 1.784440 0.000000 0.005870 
#    y 0.000000 1.750550 0.000000 
#    z 0.005870 0.000000 1.740240 
# 
# From -- ./inp_files/138545.got.cif
#   From: 2010.06.25/outbox.cif.g09.slc.cpg/sg15_70_cif.got.tgz:138545.got - 2010.06.28 07:06:18.
