data_PCOD8133443
_publ_section_title
;
Structure prediction by ZEFSAII (Michael W. Deem and Ramdas Pophale) SiO2 
 PCOD8133443
Probable space group: C 2/C
;
_chemical_formula_sum "Si O2"
_cell_formula_units_Z 64
_cell_length_a 10.665975
_cell_length_b 19.438713
_cell_length_c 16.768089
_cell_angle_alpha 90.000000
_cell_angle_beta 88.846789
_cell_angle_gamma 90.000000
_cell_volume 3475.871121
_symmetry_space_group_name_H-M "C 2/C"
_symmetry_group_IT_number 15
_symmetry_cell_setting 'monoclinic'
loop_
_space_group_symop_operation_xyz
x,y,z
-x,y,1/2-z
-x,-y,-z
x,-y,1/2+z
1/2+x,1/2+y,z
1/2-x,1/2+y,1/2-z
1/2-x,1/2-y,-z
1/2+x,1/2-y,1/2+z
loop_
_atom_site_type_symbol
_atom_site_label
_atom_site_fract_x
_atom_site_fract_y
_atom_site_fract_z
Si Si1 0.978064 0.720323 0.837647
Si Si2 0.435950 0.096229 0.946436
Si Si3 0.875441 0.864209 0.796938
Si Si4 0.812996 0.641305 0.344225
Si Si5 0.244085 0.272322 0.409871
Si Si6 0.225795 0.593268 0.986013
Si Si7 0.240779 0.451189 0.922196
Si Si8 0.997435 0.522347 0.336978
O O1 0.108712 0.744000 0.874100
O O2 0.000000 0.687616 0.750000
O O3 0.913009 0.663317 0.893288
O O4 0.888818 0.786590 0.829435
O O5 0.573151 0.092642 0.985055
O O6 0.415669 0.026503 0.895740
O O7 0.328673 0.099456 0.014797
O O8 0.762203 0.870580 0.736109
O O9 0.851826 0.912240 0.874501
O O10 0.000000 0.889129 0.750000
O O11 0.839451 0.723833 0.357423
O O12 0.736253 0.615709 0.424447
O O13 0.941860 0.599564 0.335315
O O14 0.250000 0.250000 0.500000
O O15 0.273696 0.354075 0.414984
O O16 0.289986 0.519895 0.966444
O O17 0.141150 0.477041 0.859413
O O18 0.000000 0.488534 0.250000
#
# Coordination Sequence:
#
# PCOD8133443 Si02
#       8
#     8   8   8   8   8   8   8   8
#     4  10  19  36  53  80 112 148 185 223 266 325
#     4  10  19  33  55  84 116 134 175 232 288 329
#     4  11  23  37  54  76 109 151 193 220 261 331
#     4  11  17  34  55  79 110 140 186 225 268 325
#     4   9  18  31  58  80 102 146 188 228 258 316
#     4   9  18  33  56  85 110 137 181 231 277 326
#     4  11  20  35  55  84 116 140 174 233 282 329
#     4  11  19  31  56  90 111 138 173 229 295 329
#
# _framework density 18.412649999999999
#
# number of rings (size 3 to 8) (size 9 to 14) (size 15 to 20)
#    0.000    1.750    6.250    1.125    0.000    0.500 
#    0.000    0.625    0.000    0.750    0.000    0.000 
#    0.000    0.000    0.000    0.000    0.000    0.000 
#
# Total GULP energy -396514.789133 kJ/mol
# GULP energy per Si atom -12391.087160 kJ/mol
# Density = 1.837074 g / cm^3
# Si number density = 18.412650 Si / 1000 Ang^3
#
#
#
# Elastic Constant Matrix: (Units=GPa)
#
#
# Indices 1 2 3 4 5 6 
#
# 1 29.0489 21.7944 19.7054 0.0000 -7.1264 0.0000
# 2 21.7944 110.2758 39.7321 0.0000 -14.4923 0.0000
# 3 19.7054 39.7321 108.7644 0.0000 -3.4422 0.0000
# 4 0.0000 0.0000 0.0000 32.8968 0.0000 -2.5575
# 5 -7.1264 -14.4923 -3.4422 0.0000 35.9337 0.0000
# 6 0.0000 0.0000 0.0000 -2.5575 0.0000 23.2568
#
#
#
# Elastic Compliance Matrix: (Units=1/GPa)
#
#
# Indices 1 2 3 4 5 6 
#
# 1 0.044126 -0.005921 -0.005647 0.000000 0.005822 0.000000
# 2 -0.005921 0.011799 -0.003134 0.000000 0.003284 0.000000
# 3 -0.005647 -0.003134 0.011321 0.000000 -0.001299 0.000000
# 4 0.000000 0.000000 0.000000 0.030660 0.000000 0.003372
# 5 0.005822 0.003284 -0.001299 0.000000 0.030184 0.000000
# 6 0.000000 0.000000 0.000000 0.003372 0.000000 0.043369
#
#
# Mechanical properties :
#
#
# Convention : Reuss Voigt Hill
#
# Bulk Modulus (GPa) = 26.42540 45.61699 36.02119
# Shear Modulus (GPa) = 23.42170 29.54127 26.48148
#
# Velocity S-wave (km/s) = 3.57044 4.00984 3.79650
# Velocity P-wave (km/s) = 5.60181 6.80199 6.23087
#
# Compressibility (1/GPa) = 0.03784238
#
# Stress axis : x y z
#
# Youngs Moduli (GPa) = 22.66220 84.75303 88.33202
#
# Poissons Ratio (x) = 0.50183 0.49884
# Poissons Ratio (y) = 0.13418 0.27679
# Poissons Ratio (z) = 0.12798 0.26558
#
# Static dielectric constant tensor:
#      x y z
#    x 2.924600 0.000000 0.098010 
#    y 0.000000 3.836090 0.000000 
#    z 0.098010 0.000000 3.711590 
# 
# 
# High freq. dielectric constant tensor:
#      x y z
#    x 1.655270 0.000000 0.016260 
#    y 0.000000 1.721160 0.000000 
#    z 0.016260 0.000000 1.733430 
# 
# From -- ./inp_files/199970.got.cif
#   From: 2010.06.25/outbox.cif.g09.slc.cpg/sg15_100_cif.got.tgz:199970.got - 2010.06.28 07:06:18.
