data_PCOD8133696
_publ_section_title
;
Structure prediction by ZEFSAII (Michael W. Deem and Ramdas Pophale) SiO2 
 PCOD8133696
Probable space group: C 2/C
;
_chemical_formula_sum "Si O2"
_cell_formula_units_Z 56
_cell_length_a 15.198948
_cell_length_b 8.220770
_cell_length_c 23.612837
_cell_angle_alpha 90.000000
_cell_angle_beta 68.566694
_cell_angle_gamma 90.000000
_cell_volume 2746.318438
_symmetry_space_group_name_H-M "C 2/C"
_symmetry_group_IT_number 15
_symmetry_cell_setting 'monoclinic'
loop_
_space_group_symop_operation_xyz
x,y,z
-x,y,1/2-z
-x,-y,-z
x,-y,1/2+z
1/2+x,1/2+y,z
1/2-x,1/2+y,1/2-z
1/2-x,1/2-y,-z
1/2+x,1/2-y,1/2+z
loop_
_atom_site_type_symbol
_atom_site_label
_atom_site_fract_x
_atom_site_fract_y
_atom_site_fract_z
Si Si1 0.571298 0.851731 0.477192
Si Si2 0.235826 0.380649 0.151063
Si Si3 0.596766 0.402417 0.879990
Si Si4 0.992064 0.772662 0.395264
Si Si5 0.179288 0.431413 0.878447
Si Si6 0.093346 0.367164 0.693644
Si Si7 0.736333 0.195600 0.782181
O O1 0.543708 0.720941 0.435191
O O2 0.577797 0.753932 0.534482
O O3 0.500000 0.000000 0.500000
O O4 0.667788 0.938145 0.432381
O O5 0.314813 0.507822 0.110116
O O6 0.249148 0.208644 0.115710
O O7 0.133028 0.456461 0.164336
O O8 0.253922 0.338833 0.212737
O O9 0.521641 0.539459 0.880072
O O10 0.641479 0.303379 0.816071
O O11 0.929194 0.738622 0.355546
O O12 0.081322 0.653043 0.381400
O O13 0.223920 0.519475 0.813731
O O14 0.170523 0.281136 0.714851
O O15 0.000000 0.403991 0.750000
#
# Coordination Sequence:
#
# PCOD8133696 Si02
#       7
#     8   8   8   8   8   8   8
#     4   9  18  33  57  82 108 143 187 229 269 326
#     4  10  19  34  55  76 107 150 184 218 275 345
#     4   9  18  33  57  82 107 149 187 216 269 340
#     4  10  19  35  57  84 112 139 182 237 275 316
#     4   9  18  35  55  76 106 149 189 219 269 347
#     4  11  22  35  54  83 111 140 183 238 284 322
#     4  10  19  35  56  79 108 148 186 221 277 348
#
# _framework density 20.390934999999999
#
# number of rings (size 3 to 8) (size 9 to 14) (size 15 to 20)
#    0.000    2.286    0.000    4.714    0.000    0.000 
#    0.000   13.571    0.000    0.000    0.000    0.000 
#    0.000    0.000    0.000    0.000    0.000    0.000 
#
# Total GULP energy -346949.817853 kJ/mol
# GULP energy per Si atom -12391.064923 kJ/mol
# Density = 2.034452 g / cm^3
# Si number density = 20.390935 Si / 1000 Ang^3
#
#
#
# Elastic Constant Matrix: (Units=GPa)
#
#
# Indices 1 2 3 4 5 6 
#
# 1 72.4308 43.6327 38.4802 0.0000 -1.9246 0.0000
# 2 43.6327 134.8075 29.4977 0.0000 -11.1802 0.0000
# 3 38.4802 29.4977 77.1793 0.0000 -10.0611 0.0000
# 4 0.0000 0.0000 0.0000 37.5846 0.0000 -9.8985
# 5 -1.9246 -11.1802 -10.0611 0.0000 15.0669 0.0000
# 6 0.0000 0.0000 0.0000 -9.8985 0.0000 19.5151
#
#
#
# Elastic Compliance Matrix: (Units=1/GPa)
#
#
# Indices 1 2 3 4 5 6 
#
# 1 0.022353 -0.005713 -0.010014 0.000000 -0.008071 0.000000
# 2 -0.005713 0.009820 -0.000055 0.000000 0.006521 0.000000
# 3 -0.010014 -0.000055 0.019495 0.000000 0.011699 0.000000
# 4 0.000000 0.000000 0.000000 0.030709 0.000000 0.015576
# 5 -0.008071 0.006521 0.011699 0.000000 0.077990 0.000000
# 6 0.000000 0.000000 0.000000 0.015576 0.000000 0.059143
#
#
# Mechanical properties :
#
#
# Convention : Reuss Voigt Hill
#
# Bulk Modulus (GPa) = 49.73680 56.40432 53.07056
# Shear Modulus (GPa) = 19.39669 25.95376 22.67523
#
# Velocity S-wave (km/s) = 3.08757 3.57152 3.33832
# Velocity P-wave (km/s) = 6.09552 6.68799 6.39861
#
# Compressibility (1/GPa) = 0.02010584
#
# Stress axis : x y z
#
# Youngs Moduli (GPa) = 44.73580 101.83385 51.29436
#
# Poissons Ratio (x) = 0.58181 0.51364
# Poissons Ratio (y) = 0.25559 0.00280
# Poissons Ratio (z) = 0.44796 0.00556
#
# Static dielectric constant tensor:
#      x y z
#    x 3.278940 0.000000 -0.383940 
#    y 0.000000 4.230980 0.000000 
#    z -0.383940 0.000000 4.110920 
# 
# 
# High freq. dielectric constant tensor:
#      x y z
#    x 1.739670 0.000000 -0.032030 
#    y 0.000000 1.825050 0.000000 
#    z -0.032030 0.000000 1.802910 
# 
# From -- ./inp_files/294767.got.cif
#   From: 2010.06.25/outbox.cif.g09.slc.cpg/sg15_148_cif.got.tgz:294767.got - 2010.06.28 07:06:18.
