data_PCOD8133324
_publ_section_title
;
Structure prediction by ZEFSAII (Michael W. Deem and Ramdas Pophale) SiO2 
 PCOD8133324
Probable space group: C 2/C
;
_chemical_formula_sum "Si O2"
_cell_formula_units_Z 60
_cell_length_a 14.632276
_cell_length_b 32.817820
_cell_length_c 8.991624
_cell_angle_alpha 90.000000
_cell_angle_beta 43.857256
_cell_angle_gamma 90.000000
_cell_volume 2991.629467
_symmetry_space_group_name_H-M "C 2/C"
_symmetry_group_IT_number 15
_symmetry_cell_setting 'monoclinic'
loop_
_space_group_symop_operation_xyz
x,y,z
-x,y,1/2-z
-x,-y,-z
x,-y,1/2+z
1/2+x,1/2+y,z
1/2-x,1/2+y,1/2-z
1/2-x,1/2-y,-z
1/2+x,1/2-y,1/2+z
loop_
_atom_site_type_symbol
_atom_site_label
_atom_site_fract_x
_atom_site_fract_y
_atom_site_fract_z
Si Si1 0.390100 0.427933 0.669071
Si Si2 0.704334 0.659794 0.226515
Si Si3 0.258382 0.842949 0.314836
Si Si4 0.026694 0.214032 0.043922
Si Si5 0.181922 0.483488 0.786893
Si Si6 0.026682 0.694138 0.543744
Si Si7 0.682903 0.567438 0.902651
Si Si8 0.500000 0.001245 0.250000
O O1 0.358977 0.382674 0.648141
O O2 0.315448 0.457877 0.642838
O O3 0.544852 0.437774 0.477430
O O4 0.339579 0.434125 0.895019
O O5 0.600834 0.695276 0.388458
O O6 0.729538 0.659202 0.022289
O O7 0.841730 0.668567 0.149369
O O8 0.153751 0.813580 0.355231
O O9 0.404590 0.827190 0.103639
O O10 0.245179 0.889670 0.277681
O O11 0.046841 0.259841 0.961440
O O12 0.000000 0.214099 0.250000
O O13 0.216717 0.531493 0.756568
O O14 0.105283 0.472467 0.723493
O O15 0.082688 0.472862 0.039183
O O16 0.000000 0.694765 0.750000
#
# Coordination Sequence:
#
# PCOD8133324 Si02
#       8
#     8   8   8   8   8   8   8   4
#     4  10  19  33  53  75 102 139 184 224 265 317
#     4   9  16  26  39  62  94 131 175 219 254 308
#     4   9  16  26  39  62  94 131 175 219 254 308
#     4   9  14  24  38  54  91 130 176 216 254 304
#     4  11  21  40  56  80 103 143 176 228 264 334
#     4   9  16  22  35  60  85 132 178 214 256 308
#     4  10  19  33  53  75 102 139 184 224 265 317
#     4  10  24  38  56  78 108 134 176 216 288 314
#
# _framework density 20.055959000000001
#
# number of rings (size 3 to 8) (size 9 to 14) (size 15 to 20)
#    0.000    2.400    2.667    1.200    0.000    5.333 
#    2.400    0.000    0.000    0.000    0.000    0.000 
#    0.000    0.000    0.000   19.200    0.000    8.667 
#
# Total GULP energy -371885.966644 kJ/mol
# GULP energy per Si atom -12396.198888 kJ/mol
# Density = 2.001031 g / cm^3
# Si number density = 20.055959 Si / 1000 Ang^3
#
#
#
# Elastic Constant Matrix: (Units=GPa)
#
#
# Indices 1 2 3 4 5 6 
#
# 1 125.5141 51.6737 39.9018 0.0000 -42.8001 0.0000
# 2 51.6737 119.7385 25.1809 0.0000 -24.7735 0.0000
# 3 39.9018 25.1809 45.7565 0.0000 -26.4697 0.0000
# 4 0.0000 0.0000 0.0000 15.6964 0.0000 -11.4323
# 5 -42.8001 -24.7735 -26.4697 0.0000 39.6498 0.0000
# 6 0.0000 0.0000 0.0000 -11.4323 0.0000 27.5918
#
#
#
# Elastic Compliance Matrix: (Units=1/GPa)
#
#
# Indices 1 2 3 4 5 6 
#
# 1 0.014242 -0.003006 -0.004820 0.000000 0.010277 0.000000
# 2 -0.003006 0.010477 -0.002011 0.000000 0.001958 0.000000
# 3 -0.004820 -0.002011 0.038168 0.000000 0.019021 0.000000
# 4 0.000000 0.000000 0.000000 0.091244 0.000000 0.037806
# 5 0.010277 0.001958 0.019021 0.000000 0.050237 0.000000
# 6 0.000000 0.000000 0.000000 0.037806 0.000000 0.051907
#
#
# Mechanical properties :
#
#
# Convention : Reuss Voigt Hill
#
# Bulk Modulus (GPa) = 23.14129 58.28021 40.71075
# Shear Modulus (GPa) = 17.22036 28.20445 22.71240
#
# Velocity S-wave (km/s) = 2.93339 3.75412 3.36884
# Velocity P-wave (km/s) = 4.79963 6.92193 5.95607
#
# Compressibility (1/GPa) = 0.04321279
#
# Stress axis : x y z
#
# Youngs Moduli (GPa) = 70.21690 95.44703 26.19962
#
# Poissons Ratio (x) = 0.28692 0.12627
# Poissons Ratio (y) = 0.21108 0.05270
# Poissons Ratio (z) = 0.33842 0.19198
#
# Static dielectric constant tensor:
#      x y z
#    x 3.628700 0.000000 -0.521360 
#    y 0.000000 3.668880 0.000000 
#    z -0.521360 0.000000 3.262870 
# 
# 
# High freq. dielectric constant tensor:
#      x y z
#    x 1.767170 0.000000 -0.052360 
#    y 0.000000 1.779480 0.000000 
#    z -0.052360 0.000000 1.741650 
# 
# From -- ./inp_files/108278.got.cif
#   From: 2010.06.25/outbox.cif.g09.slc.cpg/sg15_55_cif.got.tgz:108278.got - 2010.06.28 07:06:18.
