data_PCOD8133276
_publ_section_title
;
Structure prediction by ZEFSAII (Michael W. Deem and Ramdas Pophale) SiO2 
 PCOD8133276
Probable space group: C 2/C
;
_chemical_formula_sum "Si O2"
_cell_formula_units_Z 64
_cell_length_a 10.128644
_cell_length_b 23.849410
_cell_length_c 15.119506
_cell_angle_alpha 90.000000
_cell_angle_beta 71.089940
_cell_angle_gamma 90.000000
_cell_volume 3455.180619
_symmetry_space_group_name_H-M "C 2/C"
_symmetry_group_IT_number 15
_symmetry_cell_setting 'monoclinic'
loop_
_space_group_symop_operation_xyz
x,y,z
-x,y,1/2-z
-x,-y,-z
x,-y,1/2+z
1/2+x,1/2+y,z
1/2-x,1/2+y,1/2-z
1/2-x,1/2-y,-z
1/2+x,1/2-y,1/2+z
loop_
_atom_site_type_symbol
_atom_site_label
_atom_site_fract_x
_atom_site_fract_y
_atom_site_fract_z
Si Si1 0.173208 0.460446 0.537422
Si Si2 0.831971 0.752400 0.365043
Si Si3 0.353412 0.744066 0.662045
Si Si4 0.648323 0.855415 0.170575
Si Si5 0.365626 0.156258 0.038591
Si Si6 0.188298 0.338579 0.496985
Si Si7 0.339253 0.040504 0.111275
Si Si8 0.834902 0.518369 0.788018
O O1 0.246259 0.401096 0.499212
O O2 0.224059 0.503871 0.453450
O O3 0.229899 0.482065 0.618759
O O4 0.006183 0.458755 0.574763
O O5 0.828349 0.730871 0.265400
O O6 0.761202 0.701377 0.433904
O O7 0.742586 0.810023 0.394450
O O8 0.981644 0.767906 0.375882
O O9 0.266962 0.687346 0.673871
O O10 0.302442 0.786347 0.594548
O O11 0.500000 0.841320 0.250000
O O12 0.702993 0.916183 0.191104
O O13 0.639217 0.850889 0.066053
O O14 0.523909 0.156319 0.033891
O O15 0.288431 0.104360 0.104839
O O16 0.276284 0.011262 0.212522
O O17 0.000000 0.513880 0.750000
#
# Coordination Sequence:
#
# PCOD8133276 Si02
#       8
#     8   8   8   8   8   8   8   8
#     4   9  16  27  45  72  98 125 156 196 246 293
#     4   9  19  35  47  74  95 130 167 204 238 288
#     4  10  21  33  51  68 100 130 167 202 243 282
#     4  11  21  33  51  75  99 128 164 201 243 298
#     4  10  19  33  49  75 102 128 161 199 249 294
#     4   9  18  30  54  71 101 126 159 203 245 290
#     4   9  17  27  44  70 103 127 152 195 247 295
#     4   9  18  28  44  72 102 127 155 196 247 297
#
# _framework density 18.52291
#
# number of rings (size 3 to 8) (size 9 to 14) (size 15 to 20)
#    0.000    2.500    1.250    1.125    8.750    0.000 
#    0.000    0.000    0.000    0.750    0.000    0.000 
#    0.000    0.000    0.000    0.000    0.000    0.000 
#
# Total GULP energy -396452.596751 kJ/mol
# GULP energy per Si atom -12389.143648 kJ/mol
# Density = 1.848075 g / cm^3
# Si number density = 18.522910 Si / 1000 Ang^3
#
#
#
# Elastic Constant Matrix: (Units=GPa)
#
#
# Indices 1 2 3 4 5 6 
#
# 1 12.6705 25.3768 14.8300 0.0000 4.4438 0.0000
# 2 25.3768 141.1436 59.8481 0.0000 2.6332 0.0000
# 3 14.8300 59.8481 126.8226 0.0000 19.7528 0.0000
# 4 0.0000 0.0000 0.0000 37.5582 0.0000 -1.5487
# 5 4.4438 2.6332 19.7528 0.0000 19.4475 0.0000
# 6 0.0000 0.0000 0.0000 -1.5487 0.0000 17.8518
#
#
#
# Elastic Compliance Matrix: (Units=1/GPa)
#
#
# Indices 1 2 3 4 5 6 
#
# 1 0.137091 -0.023955 -0.000419 0.000000 -0.027657 0.000000
# 2 -0.023955 0.013263 -0.004788 0.000000 0.008541 0.000000
# 3 -0.000419 -0.004788 0.011971 0.000000 -0.011415 0.000000
# 4 0.000000 0.000000 0.000000 0.026721 0.000000 0.002318
# 5 -0.027657 0.008541 -0.011415 0.000000 0.068178 0.000000
# 6 0.000000 0.000000 0.000000 0.002318 0.000000 0.056218
#
#
# Mechanical properties :
#
#
# Convention : Reuss Voigt Hill
#
# Bulk Modulus (GPa) = 9.61518 53.41627 31.51573
# Shear Modulus (GPa) = 12.30218 27.01028 19.65623
#
# Velocity S-wave (km/s) = 2.57993 3.82279 3.26112
# Velocity P-wave (km/s) = 3.75192 6.95597 5.58849
#
# Compressibility (1/GPa) = 0.10400221
#
# Stress axis : x y z
#
# Youngs Moduli (GPa) = 7.29444 75.39940 83.53264
#
# Poissons Ratio (x) = 1.80616 0.03499
# Poissons Ratio (y) = 0.17474 0.39994
# Poissons Ratio (z) = 0.00306 0.36100
#
# Static dielectric constant tensor:
#      x y z
#    x 2.849140 0.000000 0.149360 
#    y 0.000000 3.807620 0.000000 
#    z 0.149360 0.000000 3.691500 
# 
# 
# High freq. dielectric constant tensor:
#      x y z
#    x 1.650130 0.000000 0.019170 
#    y 0.000000 1.732520 0.000000 
#    z 0.019170 0.000000 1.731540 
# 
# From -- ./inp_files/147862.got.cif
#   From: 2010.06.25/outbox.cif.g09.slc.cpg/sg15_74_cif.got.tgz:147862.got - 2010.06.28 07:06:18.
