data_PCOD8133566
_publ_section_title
;
Structure prediction by ZEFSAII (Michael W. Deem and Ramdas Pophale) SiO2 
 PCOD8133566
Probable space group: C 2/C
;
_chemical_formula_sum "Si O2"
_cell_formula_units_Z 60
_cell_length_a 26.314063
_cell_length_b 19.528307
_cell_length_c 11.805522
_cell_angle_alpha 90.000000
_cell_angle_beta 152.999456
_cell_angle_gamma 90.000000
_cell_volume 2754.181497
_symmetry_space_group_name_H-M "C 2/C"
_symmetry_group_IT_number 15
_symmetry_cell_setting 'monoclinic'
loop_
_space_group_symop_operation_xyz
x,y,z
-x,y,1/2-z
-x,-y,-z
x,-y,1/2+z
1/2+x,1/2+y,z
1/2-x,1/2+y,1/2-z
1/2-x,1/2-y,-z
1/2+x,1/2-y,1/2+z
loop_
_atom_site_type_symbol
_atom_site_label
_atom_site_fract_x
_atom_site_fract_y
_atom_site_fract_z
Si Si1 0.632020 0.621533 0.703352
Si Si2 0.032054 0.577991 0.060060
Si Si3 0.841846 0.341301 0.505098
Si Si4 0.261040 0.044804 0.146080
Si Si5 0.910361 0.144795 0.366517
Si Si6 0.000000 0.227428 0.750000
Si Si7 0.391906 0.517291 0.462182
Si Si8 0.197378 0.610740 0.826881
O O1 0.722323 0.673702 0.828101
O O2 0.515049 0.661072 0.491807
O O3 0.616396 0.562361 0.579949
O O4 0.669995 0.589348 0.897639
O O5 0.097563 0.597913 0.305418
O O6 0.118610 0.584417 0.125738
O O7 0.000000 0.500000 0.000000
O O8 0.916093 0.621015 0.822622
O O9 0.915261 0.272518 0.657053
O O10 0.829630 0.364444 0.352312
O O11 0.266942 0.968863 0.103663
O O12 0.221201 0.040765 0.196546
O O13 0.923613 0.183357 0.512531
O O14 0.904434 0.062955 0.375124
O O15 0.793086 0.160462 0.069897
O O16 0.500000 0.531558 0.750000
#
# Coordination Sequence:
#
# PCOD8133566 Si02
#       8
#     8   8   8   8   8   4   8   8
#     4  11  22  38  62 100 126 170 212 278 345 398
#     4   9  20  37  61  94 129 162 215 267 332 393
#     4  11  23  41  67  88 129 175 223 264 329 403
#     4  10  19  33  59  95 132 162 203 262 337 406
#     4  12  25  39  64  96 131 172 225 276 330 393
#     4  12  26  48  64  92 128 194 232 270 328 398
#     4  12  20  35  61  96 140 166 206 275 351 395
#     4  11  20  38  62  95 124 169 215 268 330 390
#
# _framework density 21.785056999999998
#
# number of rings (size 3 to 8) (size 9 to 14) (size 15 to 20)
#    0.000    1.067    6.000    1.200    0.000    1.067 
#    0.000    0.667    0.000    0.000    0.000    0.000 
#    0.000    0.000    0.000    0.000    0.000    0.000 
#
# Total GULP energy -371823.734753 kJ/mol
# GULP energy per Si atom -12394.124492 kJ/mol
# Density = 2.173547 g / cm^3
# Si number density = 21.785057 Si / 1000 Ang^3
#
#
#
# Elastic Constant Matrix: (Units=GPa)
#
#
# Indices 1 2 3 4 5 6 
#
# 1 116.1894 15.0606 49.5070 0.0000 37.1046 0.0000
# 2 15.0606 44.1576 23.6819 0.0000 1.7827 0.0000
# 3 49.5070 23.6819 120.8608 0.0000 27.7470 0.0000
# 4 0.0000 0.0000 0.0000 15.8704 0.0000 -0.3918
# 5 37.1046 1.7827 27.7470 0.0000 39.9552 0.0000
# 6 0.0000 0.0000 0.0000 -0.3918 0.0000 21.7450
#
#
#
# Elastic Compliance Matrix: (Units=1/GPa)
#
#
# Indices 1 2 3 4 5 6 
#
# 1 0.013426 -0.002801 -0.002519 0.000000 -0.010594 0.000000
# 2 -0.002801 0.026147 -0.005122 0.000000 0.004991 0.000000
# 3 -0.002519 -0.005122 0.011563 0.000000 -0.005463 0.000000
# 4 0.000000 0.000000 0.000000 0.063039 0.000000 0.001136
# 5 -0.010594 0.004991 -0.005463 0.000000 0.038437 0.000000
# 6 0.000000 0.000000 0.000000 0.001136 0.000000 0.046008
#
#
# Mechanical properties :
#
#
# Convention : Reuss Voigt Hill
#
# Bulk Modulus (GPa) = 33.05384 50.85632 41.95508
# Shear Modulus (GPa) = 21.77822 28.37800 25.07811
#
# Velocity S-wave (km/s) = 3.16521 3.61312 3.39656
# Velocity P-wave (km/s) = 5.34451 6.38760 5.88919
#
# Compressibility (1/GPa) = 0.03025367
#
# Stress axis : x y z
#
# Youngs Moduli (GPa) = 74.48235 38.24560 86.47974
#
# Poissons Ratio (x) = 0.10711 0.21781
# Poissons Ratio (y) = 0.20860 0.44294
# Poissons Ratio (z) = 0.18759 0.19589
#
# Static dielectric constant tensor:
#      x y z
#    x 4.229190 0.000000 0.504300 
#    y 0.000000 3.673730 0.000000 
#    z 0.504300 0.000000 4.259480 
# 
# 
# High freq. dielectric constant tensor:
#      x y z
#    x 1.860870 0.000000 0.023200 
#    y 0.000000 1.812850 0.000000 
#    z 0.023200 0.000000 1.862800 
# 
# From -- ./inp_files/124017.got.cif
#   From: 2010.06.25/outbox.cif.g09.slc.cpg/sg15_63_cif.got.tgz:124017.got - 2010.06.28 07:06:18.
