data_PCOD8133224
_publ_section_title
;
Structure prediction by ZEFSAII (Michael W. Deem and Ramdas Pophale) SiO2 
 PCOD8133224
Probable space group: C 2/C
;
_chemical_formula_sum "Si O2"
_cell_formula_units_Z 60
_cell_length_a 15.058021
_cell_length_b 17.907598
_cell_length_c 22.522876
_cell_angle_alpha 90.000000
_cell_angle_beta 32.197681
_cell_angle_gamma 90.000000
_cell_volume 3236.141868
_symmetry_space_group_name_H-M "C 2/C"
_symmetry_group_IT_number 15
_symmetry_cell_setting 'monoclinic'
loop_
_space_group_symop_operation_xyz
x,y,z
-x,y,1/2-z
-x,-y,-z
x,-y,1/2+z
1/2+x,1/2+y,z
1/2-x,1/2+y,1/2-z
1/2-x,1/2-y,-z
1/2+x,1/2-y,1/2+z
loop_
_atom_site_type_symbol
_atom_site_label
_atom_site_fract_x
_atom_site_fract_y
_atom_site_fract_z
Si Si1 0.702293 0.831381 0.596645
Si Si2 0.318671 0.266040 0.869908
Si Si3 0.425735 0.515613 0.107128
Si Si4 0.587302 0.661570 0.068851
Si Si5 0.629451 0.887290 0.758499
Si Si6 0.500000 0.695819 0.750000
Si Si7 0.548679 0.359860 0.345672
Si Si8 0.758775 0.273985 0.714977
O O1 0.744477 0.853076 0.640623
O O2 0.564230 0.892512 0.651483
O O3 0.629320 0.747778 0.640635
O O4 0.863116 0.831504 0.465108
O O5 0.500000 0.235430 0.750000
O O6 0.334315 0.334215 0.908667
O O7 0.225286 0.294629 0.863634
O O8 0.224410 0.193350 0.946977
O O9 0.534887 0.578791 0.078816
O O10 0.227841 0.536358 0.217739
O O11 0.434175 0.444314 0.143957
O O12 0.500000 0.500000 0.000000
O O13 0.429823 0.717201 0.155445
O O14 0.623188 0.831871 0.817906
O O15 0.419150 0.644997 0.743803
O O16 0.682849 0.310226 0.304979
#
# Coordination Sequence:
#
# PCOD8133224 Si02
#       8
#     8   8   8   8   8   4   8   8
#     4  10  19  38  61  80 117 148 189 239 284 336
#     4   9  18  35  59  81 108 146 198 229 276 328
#     4  11  21  36  58  84 117 151 187 234 294 342
#     4   9  20  38  53  82 117 144 189 239 280 336
#     4   9  19  37  54  82 112 149 187 227 284 341
#     4  10  22  36  54  90 114 150 190 242 286 336
#     4  12  22  36  60  90 115 150 191 238 291 345
#     4  10  19  32  57  84 104 146 193 230 275 331
#
# _framework density 18.540597000000002
#
# number of rings (size 3 to 8) (size 9 to 14) (size 15 to 20)
#    0.000    2.133    4.000    1.200    1.867    0.000 
#    6.000    5.333    2.933    0.800    0.000    0.000 
#    0.000    0.000    0.000    0.000    0.000    0.000 
#
# Total GULP energy -371763.376463 kJ/mol
# GULP energy per Si atom -12392.112549 kJ/mol
# Density = 1.849840 g / cm^3
# Si number density = 18.540597 Si / 1000 Ang^3
#
#
#
# Elastic Constant Matrix: (Units=GPa)
#
#
# Indices 1 2 3 4 5 6 
#
# 1 128.5268 60.0351 43.5580 0.0023 22.0086 -0.0012
# 2 60.0351 124.2028 44.3128 0.0048 4.1676 -0.0029
# 3 43.5580 44.3128 83.6572 0.0088 5.0441 -0.0064
# 4 0.0023 0.0048 0.0088 16.4154 -0.0032 0.0166
# 5 22.0086 4.1676 5.0441 -0.0032 23.8235 0.0019
# 6 -0.0012 -0.0029 -0.0064 0.0166 0.0019 27.5231
#
#
#
# Elastic Compliance Matrix: (Units=1/GPa)
#
#
# Indices 1 2 3 4 5 6 
#
# 1 0.012955 -0.004600 -0.003683 0.000000 -0.010384 0.000000
# 2 -0.004600 0.011570 -0.003918 0.000000 0.003055 0.000000
# 3 -0.003683 -0.003918 0.015903 -0.000007 0.000721 0.000003
# 4 0.000000 0.000000 -0.000007 0.060918 0.000010 -0.000037
# 5 -0.010384 0.003055 0.000721 0.000010 0.050881 -0.000004
# 6 0.000000 0.000000 0.000003 -0.000037 -0.000004 0.036333
#
#
# Mechanical properties :
#
#
# Convention : Reuss Voigt Hill
#
# Bulk Modulus (GPa) = 62.39348 70.24428 66.31888
# Shear Modulus (GPa) = 22.90384 26.11781 24.51083
#
# Velocity S-wave (km/s) = 3.51855 3.75731 3.63989
# Velocity P-wave (km/s) = 7.08747 7.53606 7.31521
#
# Compressibility (1/GPa) = 0.01602732
#
# Stress axis : x y z
#
# Youngs Moduli (GPa) = 77.18883 86.43082 62.88148
#
# Poissons Ratio (x) = 0.39755 0.23159
# Poissons Ratio (y) = 0.35504 0.24636
# Poissons Ratio (z) = 0.28428 0.33862
#
# Static dielectric constant tensor:
#      x y z
#    x 3.874320 0.000000 0.111840 
#    y 0.000000 3.161640 0.000010 
#    z 0.111840 0.000010 3.364850 
# 
# 
# High freq. dielectric constant tensor:
#      x y z
#    x 1.739710 0.000000 0.009930 
#    y 0.000000 1.685120 0.000000 
#    z 0.009930 0.000000 1.713690 
# 
# From -- ./inp_files/244901.got.cif
#   From: 2010.06.25/outbox.cif.g09.slc.cpg/sg15_123_cif.got.tgz:244901.got - 2010.06.28 07:06:18.
