data_PCOD8133414
_publ_section_title
;
Structure prediction by ZEFSAII (Michael W. Deem and Ramdas Pophale) SiO2 
 PCOD8133414
Probable space group: C 2/C
;
_chemical_formula_sum "Si O2"
_cell_formula_units_Z 56
_cell_length_a 8.414932
_cell_length_b 29.404536
_cell_length_c 15.320989
_cell_angle_alpha 90.000000
_cell_angle_beta 127.777039
_cell_angle_gamma 90.000000
_cell_volume 2996.394465
_symmetry_space_group_name_H-M "C 2/C"
_symmetry_group_IT_number 15
_symmetry_cell_setting 'monoclinic'
loop_
_space_group_symop_operation_xyz
x,y,z
-x,y,1/2-z
-x,-y,-z
x,-y,1/2+z
1/2+x,1/2+y,z
1/2-x,1/2+y,1/2-z
1/2-x,1/2-y,-z
1/2+x,1/2-y,1/2+z
loop_
_atom_site_type_symbol
_atom_site_label
_atom_site_fract_x
_atom_site_fract_y
_atom_site_fract_z
Si Si1 0.500000 0.522874 0.250000
Si Si2 0.218587 0.275709 0.855314
Si Si3 0.894020 0.433962 0.854767
Si Si4 0.093564 0.308028 0.997625
Si Si5 0.751670 0.402843 0.411414
Si Si6 0.500000 0.991265 0.250000
Si Si7 0.783655 0.159953 0.219406
Si Si8 0.361086 0.555432 0.808940
O O1 0.307337 0.553018 0.161401
O O2 0.536040 0.492918 0.176337
O O3 0.198022 0.302835 0.938621
O O4 0.314193 0.308264 0.814159
O O5 0.000000 0.257754 0.750000
O O6 0.370565 0.234077 0.924845
O O7 0.967302 0.475229 0.819428
O O8 0.834874 0.385895 0.788201
O O9 0.068731 0.428429 0.982012
O O10 0.855169 0.315803 0.901483
O O11 0.202812 0.349808 0.081709
O O12 0.740777 0.424199 0.312027
O O13 0.543037 0.410561 0.396905
O O14 0.309304 0.956312 0.176247
O O15 0.000000 0.149572 0.250000
#
# Coordination Sequence:
#
# PCOD8133414 Si02
#       8
#     4   8   8   8   8   4   8   8
#     4   8  16  32  50  72 100 134 174 206 266 318
#     4   9  19  34  57  82 112 134 181 224 262 317
#     4  10  19  33  55  79 104 143 175 223 271 314
#     4   9  19  35  56  85 101 146 183 216 268 321
#     4   9  19  34  57  74 106 139 184 215 268 325
#     4  10  22  34  54  76 114 134 182 228 270 320
#     4  10  20  34  55  82 114 140 176 223 268 321
#     4   9  20  36  51  78 103 141 178 224 263 325
#
# _framework density 18.689129000000001
#
# number of rings (size 3 to 8) (size 9 to 14) (size 15 to 20)
#    0.000    2.857    0.714    0.000    7.000    6.286 
#    0.000    4.286    1.571    0.000    0.000    0.000 
#    0.000    0.000    0.000    0.000    0.000    0.000 
#
# Total GULP energy -346866.788398 kJ/mol
# GULP energy per Si atom -12388.099586 kJ/mol
# Density = 1.864659 g / cm^3
# Si number density = 18.689129 Si / 1000 Ang^3
#
#
#
# Elastic Constant Matrix: (Units=GPa)
#
#
# Indices 1 2 3 4 5 6 
#
# 1 103.3244 39.0133 41.1038 0.0000 20.7417 0.0000
# 2 39.0133 95.5591 50.7702 0.0000 7.1523 0.0000
# 3 41.1038 50.7702 91.6126 0.0000 17.0777 0.0000
# 4 0.0000 0.0000 0.0000 28.4430 0.0000 6.3423
# 5 20.7417 7.1523 17.0777 0.0000 25.1557 0.0000
# 6 0.0000 0.0000 0.0000 6.3423 0.0000 15.3760
#
#
#
# Elastic Compliance Matrix: (Units=1/GPa)
#
#
# Indices 1 2 3 4 5 6 
#
# 1 0.013797 -0.003617 -0.002584 0.000000 -0.008593 0.000000
# 2 -0.003617 0.015833 -0.007864 0.000000 0.003819 0.000000
# 3 -0.002584 -0.007864 0.017882 0.000000 -0.007773 0.000000
# 4 0.000000 0.000000 0.000000 0.038719 0.000000 -0.015971
# 5 -0.008593 0.003819 -0.007773 0.000000 0.051029 0.000000
# 6 0.000000 0.000000 0.000000 -0.015971 0.000000 0.071624
#
#
# Mechanical properties :
#
#
# Convention : Reuss Voigt Hill
#
# Bulk Modulus (GPa) = 51.59104 61.36339 56.47721
# Shear Modulus (GPa) = 20.53598 24.43553 22.48575
#
# Velocity S-wave (km/s) = 3.31844 3.61982 3.47240
# Velocity P-wave (km/s) = 6.50750 7.09759 6.80894
#
# Compressibility (1/GPa) = 0.01938321
#
# Stress axis : x y z
#
# Youngs Moduli (GPa) = 72.48013 63.15726 55.92240
#
# Poissons Ratio (x) = 0.22842 0.14450
# Poissons Ratio (y) = 0.26214 0.43976
# Poissons Ratio (z) = 0.18729 0.49666
#
# Static dielectric constant tensor:
#      x y z
#    x 3.481490 0.000000 0.337690 
#    y 0.000000 3.615830 0.000000 
#    z 0.337690 0.000000 3.313680 
# 
# 
# High freq. dielectric constant tensor:
#      x y z
#    x 1.710070 0.000000 0.026970 
#    y 0.000000 1.733150 0.000000 
#    z 0.026970 0.000000 1.712070 
# 
# From -- ./inp_files/139613.got.cif
#   From: 2010.06.25/outbox.cif.g09.slc.cpg/sg15_70_cif.got.tgz:139613.got - 2010.06.28 07:06:18.
