data_PCOD8133892
_publ_section_title
;
Structure prediction by ZEFSAII (Michael W. Deem and Ramdas Pophale) SiO2 
 PCOD8133892
Probable space group: C 2/C
;
_chemical_formula_sum "Si O2"
_cell_formula_units_Z 56
_cell_length_a 9.371667
_cell_length_b 21.034711
_cell_length_c 18.496732
_cell_angle_alpha 90.000000
_cell_angle_beta 50.355949
_cell_angle_gamma 90.000000
_cell_volume 2807.708821
_symmetry_space_group_name_H-M "C 2/C"
_symmetry_group_IT_number 15
_symmetry_cell_setting 'monoclinic'
loop_
_space_group_symop_operation_xyz
x,y,z
-x,y,1/2-z
-x,-y,-z
x,-y,1/2+z
1/2+x,1/2+y,z
1/2-x,1/2+y,1/2-z
1/2-x,1/2-y,-z
1/2+x,1/2-y,1/2+z
loop_
_atom_site_type_symbol
_atom_site_label
_atom_site_fract_x
_atom_site_fract_y
_atom_site_fract_z
Si Si1 0.155701 0.868994 0.969010
Si Si2 0.286382 0.484770 0.456691
Si Si3 0.046981 0.240901 0.033310
Si Si4 0.485400 0.169876 0.083073
Si Si5 0.107357 0.475045 0.871816
Si Si6 0.637491 0.432074 0.830625
Si Si7 0.368874 0.298449 0.729634
O O1 0.125082 0.917192 0.046342
O O2 0.322037 0.822323 0.937284
O O3 0.229221 0.908909 0.875759
O O4 0.978103 0.825037 0.005337
O O5 0.225377 0.484425 0.392053
O O6 0.446916 0.535391 0.415987
O O7 0.103555 0.502565 0.564343
O O8 0.900720 0.240766 0.146198
O O9 0.250000 0.250000 0.000000
O O10 0.997897 0.301706 0.001952
O O11 0.417798 0.097709 0.094196
O O12 0.341798 0.210442 0.177361
O O13 0.217844 0.477457 0.759649
O O14 0.582785 0.372654 0.798198
O O15 0.500000 0.271486 0.750000
#
# Coordination Sequence:
#
# PCOD8133892 Si02
#       7
#     8   8   8   8   8   8   8
#     4  10  23  37  59  92 121 156 200 254 311 361
#     4  10  19  35  56  87 121 154 189 249 307 367
#     4  11  22  36  61  84 117 157 199 250 306 358
#     4  10  20  39  61  88 121 149 208 260 299 360
#     4   9  20  34  62  89 117 156 207 247 304 360
#     4  10  19  34  59  87 116 154 200 252 297 361
#     4  10  19  34  60  90 109 148 203 255 298 352
#
# _framework density 19.945088999999999
#
# number of rings (size 3 to 8) (size 9 to 14) (size 15 to 20)
#    0.000    2.000    1.429    3.000    2.000    9.143 
#    0.000    0.000   15.714    3.429    0.000    0.000 
#    0.000    0.000    0.000    0.000    0.000    0.000 
#
# Total GULP energy -346999.752787 kJ/mol
# GULP energy per Si atom -12392.848314 kJ/mol
# Density = 1.989969 g / cm^3
# Si number density = 19.945089 Si / 1000 Ang^3
#
#
#
# Elastic Constant Matrix: (Units=GPa)
#
#
# Indices 1 2 3 4 5 6 
#
# 1 132.0333 45.6177 51.6604 0.0000 0.4578 0.0000
# 2 45.6177 56.1892 46.7551 0.0000 4.9951 0.0000
# 3 51.6604 46.7551 128.4668 0.0000 -2.5974 0.0000
# 4 0.0000 0.0000 0.0000 30.2579 0.0000 9.0634
# 5 0.4578 4.9951 -2.5974 0.0000 30.7883 0.0000
# 6 0.0000 0.0000 0.0000 9.0634 0.0000 43.8748
#
#
#
# Elastic Compliance Matrix: (Units=1/GPa)
#
#
# Indices 1 2 3 4 5 6 
#
# 1 0.010790 -0.007527 -0.001581 0.000000 0.000927 0.000000
# 2 -0.007527 0.031549 -0.008571 0.000000 -0.005730 0.000000
# 3 -0.001581 -0.008571 0.011588 0.000000 0.002392 0.000000
# 4 0.000000 0.000000 0.000000 0.035229 0.000000 -0.007277
# 5 0.000927 -0.005730 0.002392 0.000000 0.033597 0.000000
# 6 0.000000 0.000000 0.000000 -0.007277 0.000000 0.024295
#
#
# Mechanical properties :
#
#
# Convention : Reuss Voigt Hill
#
# Bulk Modulus (GPa) = 53.85374 67.19508 60.52441
# Shear Modulus (GPa) = 26.51170 32.49460 29.50315
#
# Velocity S-wave (km/s) = 3.64982 4.04072 3.85023
# Velocity P-wave (km/s) = 6.69487 7.45205 7.08358
#
# Compressibility (1/GPa) = 0.01856881
#
# Stress axis : x y z
#
# Youngs Moduli (GPa) = 92.68157 31.69642 86.29860
#
# Poissons Ratio (x) = 0.23857 0.13642
# Poissons Ratio (y) = 0.69759 0.73970
# Poissons Ratio (z) = 0.14651 0.27168
#
# Static dielectric constant tensor:
#      x y z
#    x 3.786100 0.000000 0.024720 
#    y 0.000000 3.445700 0.000000 
#    z 0.024720 0.000000 3.855960 
# 
# 
# High freq. dielectric constant tensor:
#      x y z
#    x 1.789990 0.000000 0.004010 
#    y 0.000000 1.741770 0.000000 
#    z 0.004010 0.000000 1.772500 
# 
# From -- ./inp_files/193179.got.cif
#   From: 2010.06.25/outbox.cif.g09.slc.cpg/sg15_97_cif.got.tgz:193179.got - 2010.06.28 07:06:18.
