data_PCOD8133168
_publ_section_title
;
Structure prediction by ZEFSAII (Michael W. Deem and Ramdas Pophale) SiO2 
 PCOD8133168
Probable space group: C 2/C
;
_chemical_formula_sum "Si O2"
_cell_formula_units_Z 56
_cell_length_a 18.455076
_cell_length_b 33.021021
_cell_length_c 5.049093
_cell_angle_alpha 90.000000
_cell_angle_beta 66.190199
_cell_angle_gamma 90.000000
_cell_volume 2815.067951
_symmetry_space_group_name_H-M "C 2/C"
_symmetry_group_IT_number 15
_symmetry_cell_setting 'monoclinic'
loop_
_space_group_symop_operation_xyz
x,y,z
-x,y,1/2-z
-x,-y,-z
x,-y,1/2+z
1/2+x,1/2+y,z
1/2-x,1/2+y,1/2-z
1/2-x,1/2-y,-z
1/2+x,1/2-y,1/2+z
loop_
_atom_site_type_symbol
_atom_site_label
_atom_site_fract_x
_atom_site_fract_y
_atom_site_fract_z
Si Si1 0.203467 0.160218 0.656591
Si Si2 0.362640 0.525527 0.667819
Si Si3 0.359201 0.886742 0.895517
Si Si4 0.087257 0.657486 0.673497
Si Si5 0.742177 0.204456 0.417340
Si Si6 0.177113 0.474749 0.421433
Si Si7 0.947822 0.108551 0.571789
O O1 0.266581 0.124628 0.509449
O O2 0.215907 0.196830 0.428034
O O3 0.115936 0.142563 0.757091
O O4 0.214347 0.175762 0.937654
O O5 0.387571 0.492323 0.413981
O O6 0.269836 0.534808 0.795075
O O7 0.406875 0.567067 0.541399
O O8 0.397997 0.879451 0.551881
O O9 0.404357 0.858946 0.041630
O O10 0.370067 0.933496 0.954898
O O11 0.149167 0.693757 0.531293
O O12 0.000000 0.675500 0.750000
O O13 0.750000 0.250000 0.500000
O O14 0.152690 0.508505 0.671525
O O15 0.000000 0.100080 0.750000
O O16 0.000000 0.124661 0.250000
#
# Coordination Sequence:
#
# PCOD8133168 Si02
#       7
#     8   8   8   8   8   8   8
#     4  10  21  39  58  84 114 148 199 230 279 350
#     4  10  21  35  52  76 110 151 200 254 296 332
#     4  10  19  36  60  80 111 153 187 236 282 333
#     4  10  21  36  60  90 116 142 185 231 281 338
#     4  10  21  39  66  90 115 149 182 230 284 344
#     4  10  19  32  54  81 108 143 196 245 287 333
#     4  12  24  37  55  79 118 161 200 247 292 338
#
# _framework density 19.892949999999999
#
# number of rings (size 3 to 8) (size 9 to 14) (size 15 to 20)
#    0.000    1.714    1.429    3.429    0.000    1.714 
#    0.000    2.143    0.000   10.286    0.000    0.000 
#    0.000    0.000    0.000    0.000    0.000    0.000 
#
# Total GULP energy -347331.540141 kJ/mol
# GULP energy per Si atom -12404.697862 kJ/mol
# Density = 1.984767 g / cm^3
# Si number density = 19.892950 Si / 1000 Ang^3
#
#
#
# Elastic Constant Matrix: (Units=GPa)
#
#
# Indices 1 2 3 4 5 6 
#
# 1 75.2867 26.2516 29.6382 0.0000 -5.7875 0.0000
# 2 26.2516 82.2829 18.2134 0.0000 -19.7833 0.0000
# 3 29.6382 18.2134 89.7648 0.0000 7.1155 0.0000
# 4 0.0000 0.0000 0.0000 24.0226 0.0000 3.0144
# 5 -5.7875 -19.7833 7.1155 0.0000 28.4720 0.0000
# 6 0.0000 0.0000 0.0000 3.0144 0.0000 11.8261
#
#
#
# Elastic Compliance Matrix: (Units=1/GPa)
#
#
# Indices 1 2 3 4 5 6 
#
# 1 0.016676 -0.003752 -0.004904 0.000000 0.002008 0.000000
# 2 -0.003752 0.016859 -0.003112 0.000000 0.011729 0.000000
# 3 -0.004904 -0.003112 0.013917 0.000000 -0.006637 0.000000
# 4 0.000000 0.000000 0.000000 0.043003 0.000000 -0.010961
# 5 0.002008 0.011729 -0.006637 0.000000 0.045339 0.000000
# 6 0.000000 0.000000 0.000000 -0.010961 0.000000 0.087352
#
#
# Mechanical properties :
#
#
# Convention : Reuss Voigt Hill
#
# Bulk Modulus (GPa) = 41.81183 43.94899 42.88041
# Shear Modulus (GPa) = 19.63457 24.41290 22.02373
#
# Velocity S-wave (km/s) = 3.14508 3.50696 3.33094
# Velocity P-wave (km/s) = 5.85259 6.20798 6.03290
#
# Compressibility (1/GPa) = 0.02391668
#
# Stress axis : x y z
#
# Youngs Moduli (GPa) = 59.96748 59.31529 71.85556
#
# Poissons Ratio (x) = 0.22255 0.35237
# Poissons Ratio (y) = 0.22499 0.22359
# Poissons Ratio (z) = 0.29407 0.18457
#
# Static dielectric constant tensor:
#      x y z
#    x 3.575390 0.000000 0.099440 
#    y 0.000000 3.310240 0.000000 
#    z 0.099440 0.000000 3.837200 
# 
# 
# High freq. dielectric constant tensor:
#      x y z
#    x 1.770320 0.000000 0.014050 
#    y 0.000000 1.756250 0.000000 
#    z 0.014050 0.000000 1.788010 
# 
# From -- ./inp_files/11969.got.cif
#   From: 2010.06.25/outbox.cif.g09.slc.cpg/sg15_6_cif.got.tgz:11969.got - 2010.06.28 07:06:18.
