data_PCOD8133259
_publ_section_title
;
Structure prediction by ZEFSAII (Michael W. Deem and Ramdas Pophale) SiO2 
 PCOD8133259
Probable space group: C 2/C
;
_chemical_formula_sum "Si O2"
_cell_formula_units_Z 56
_cell_length_a 22.991335
_cell_length_b 18.625977
_cell_length_c 7.990249
_cell_angle_alpha 90.000000
_cell_angle_beta 114.309310
_cell_angle_gamma 90.000000
_cell_volume 3118.331494
_symmetry_space_group_name_H-M "C 2/C"
_symmetry_group_IT_number 15
_symmetry_cell_setting 'monoclinic'
loop_
_space_group_symop_operation_xyz
x,y,z
-x,y,1/2-z
-x,-y,-z
x,-y,1/2+z
1/2+x,1/2+y,z
1/2-x,1/2+y,1/2-z
1/2-x,1/2-y,-z
1/2+x,1/2-y,1/2+z
loop_
_atom_site_type_symbol
_atom_site_label
_atom_site_fract_x
_atom_site_fract_y
_atom_site_fract_z
Si Si1 0.253252 0.348331 0.334183
Si Si2 0.686550 0.807894 0.569290
Si Si3 0.070244 0.785803 0.285795
Si Si4 0.569305 0.724138 0.391224
Si Si5 0.617629 0.421460 0.974158
Si Si6 0.191571 0.695804 0.445952
Si Si7 0.567892 0.444550 0.266350
O O1 0.275596 0.266184 0.362349
O O2 0.218866 0.361908 0.473555
O O3 0.310830 0.404054 0.379908
O O4 0.207383 0.359371 0.116780
O O5 0.617523 0.788885 0.405940
O O6 0.682174 0.842859 0.751903
O O7 0.126139 0.735798 0.424191
O O8 0.081170 0.866924 0.369137
O O9 0.000000 0.756175 0.250000
O O10 0.075387 0.788720 0.094379
O O11 0.500000 0.748263 0.250000
O O12 0.590562 0.647248 0.335400
O O13 0.569287 0.435700 0.069365
O O14 0.620234 0.494479 0.870377
O O15 0.250000 0.750000 0.500000
O O16 0.500000 0.473585 0.250000
#
# Coordination Sequence:
#
# PCOD8133259 Si02
#       7
#     8   8   8   8   8   8   8
#     4   9  17  31  47  65  88 116 161 200 238 287
#     4   8  16  29  43  68  85 115 155 188 242 287
#     4   9  19  30  44  70  94 128 168 192 240 286
#     4   9  17  28  44  63  95 122 157 197 230 285
#     4  10  20  33  43  66  91 124 172 201 234 275
#     4   9  16  30  48  65  92 121 159 201 239 288
#     4  10  19  33  45  62  93 129 169 204 228 272
#
# _framework density 17.958321000000002
#
# number of rings (size 3 to 8) (size 9 to 14) (size 15 to 20)
#    0.000    2.857    0.000    3.429    2.000    2.286 
#   10.286    0.000    0.000    0.000    0.000    0.000 
#    0.000    0.000    0.000   11.571    0.857    0.143 
#
# Total GULP energy -346880.913116 kJ/mol
# GULP energy per Si atom -12388.604040 kJ/mol
# Density = 1.791745 g / cm^3
# Si number density = 17.958321 Si / 1000 Ang^3
#
#
#
# Elastic Constant Matrix: (Units=GPa)
#
#
# Indices 1 2 3 4 5 6 
#
# 1 90.9044 21.4428 29.3005 0.0000 9.6468 0.0000
# 2 21.4428 22.6014 19.1130 0.0000 2.9431 0.0000
# 3 29.3005 19.1130 82.1767 0.0000 8.3491 0.0000
# 4 0.0000 0.0000 0.0000 17.7625 0.0000 6.1975
# 5 9.6468 2.9431 8.3491 0.0000 33.6106 0.0000
# 6 0.0000 0.0000 0.0000 6.1975 0.0000 11.2469
#
#
#
# Elastic Compliance Matrix: (Units=1/GPa)
#
#
# Indices 1 2 3 4 5 6 
#
# 1 0.014788 -0.011769 -0.002266 0.000000 -0.002651 0.000000
# 2 -0.011769 0.064536 -0.010857 0.000000 0.000424 0.000000
# 3 -0.002266 -0.010857 0.015737 0.000000 -0.002308 0.000000
# 4 0.000000 0.000000 0.000000 0.069699 0.000000 -0.038407
# 5 -0.002651 0.000424 -0.002308 0.000000 0.031050 0.000000
# 6 0.000000 0.000000 0.000000 -0.038407 0.000000 0.110077
#
#
# Mechanical properties :
#
#
# Convention : Reuss Voigt Hill
#
# Bulk Modulus (GPa) = 22.08601 37.26613 29.67607
# Shear Modulus (GPa) = 13.48568 20.91240 17.19904
#
# Velocity S-wave (km/s) = 2.74331 3.41617 3.09806
# Velocity P-wave (km/s) = 4.72858 6.02966 5.41832
#
# Compressibility (1/GPa) = 0.04527753
#
# Stress axis : x y z
#
# Youngs Moduli (GPa) = 67.62062 15.49513 63.54588
#
# Poissons Ratio (x) = 0.18235 0.14402
# Poissons Ratio (y) = 0.79580 0.68992
# Poissons Ratio (z) = 0.15325 0.16823
#
# Static dielectric constant tensor:
#      x y z
#    x 4.894440 0.000000 0.275390 
#    y 0.000000 2.919250 0.000000 
#    z 0.275390 0.000000 3.121890 
# 
# 
# High freq. dielectric constant tensor:
#      x y z
#    x 1.698940 0.000000 -0.006310 
#    y 0.000000 1.622860 0.000000 
#    z -0.006310 0.000000 1.693760 
# 
# From -- ./inp_files/62547.got.cif
#   From: 2010.06.25/outbox.cif.g09.slc.cpg/sg15_32_cif.got.tgz:62547.got - 2010.06.28 07:06:18.
