data_PCOD8133366
_publ_section_title
;
Structure prediction by ZEFSAII (Michael W. Deem and Ramdas Pophale) SiO2 
 PCOD8133366
Probable space group: C 2/C
;
_chemical_formula_sum "Si O2"
_cell_formula_units_Z 64
_cell_length_a 12.519417
_cell_length_b 27.850566
_cell_length_c 9.867034
_cell_angle_alpha 90.000000
_cell_angle_beta 97.625715
_cell_angle_gamma 90.000000
_cell_volume 3409.940539
_symmetry_space_group_name_H-M "C 2/C"
_symmetry_group_IT_number 15
_symmetry_cell_setting 'monoclinic'
loop_
_space_group_symop_operation_xyz
x,y,z
-x,y,1/2-z
-x,-y,-z
x,-y,1/2+z
1/2+x,1/2+y,z
1/2-x,1/2+y,1/2-z
1/2-x,1/2-y,-z
1/2+x,1/2-y,1/2+z
loop_
_atom_site_type_symbol
_atom_site_label
_atom_site_fract_x
_atom_site_fract_y
_atom_site_fract_z
Si Si1 0.627332 0.600503 0.528031
Si Si2 0.619917 0.857064 0.728743
Si Si3 0.263986 0.300176 0.929821
Si Si4 0.876291 0.236471 0.188076
Si Si5 0.877034 0.969000 0.249246
Si Si6 0.889330 0.889136 0.034579
Si Si7 0.191591 0.928258 0.754878
Si Si8 0.223122 0.680486 0.979521
O O1 0.642609 0.548689 0.600377
O O2 0.516274 0.622798 0.567993
O O3 0.624813 0.595888 0.365430
O O4 0.731200 0.632803 0.584334
O O5 0.500000 0.871902 0.750000
O O6 0.651912 0.822816 0.860718
O O7 0.689097 0.906013 0.736322
O O8 0.637311 0.829712 0.587174
O O9 0.328121 0.291345 0.805037
O O10 0.250000 0.250000 0.000000
O O11 0.326027 0.338691 0.034448
O O12 0.836078 0.290588 0.151118
O O13 0.000000 0.237352 0.250000
O O14 0.833887 0.206821 0.050010
O O15 0.848364 0.924714 0.145388
O O16 0.000000 0.986303 0.250000
O O17 0.799335 0.014696 0.216255
O O18 0.873664 0.916971 0.891383
#
# Coordination Sequence:
#
# PCOD8133366 Si02
#       8
#     8   8   8   8   8   8   8   8
#     4  10  19  33  54  78 114 141 174 224 284 335
#     4   9  20  38  56  77 108 146 187 231 276 323
#     4  10  22  35  53  81 108 145 185 224 278 328
#     4  10  20  35  56  78 104 144 190 229 272 327
#     4  10  20  32  53  87 115 140 172 230 295 335
#     4  10  20  34  53  82 114 145 178 227 279 340
#     4  10  19  34  58  80 105 146 186 222 278 347
#     4   9  20  35  54  80 106 143 188 232 271 331
#
# _framework density 18.768656
#
# number of rings (size 3 to 8) (size 9 to 14) (size 15 to 20)
#    0.000    2.250    0.000    3.375    3.500    2.000 
#    2.250    0.000    0.000   12.750    0.000    0.000 
#    0.000    0.000    0.000    0.000    0.000    0.000 
#
# Total GULP energy -396542.613716 kJ/mol
# GULP energy per Si atom -12391.956679 kJ/mol
# Density = 1.872594 g / cm^3
# Si number density = 18.768656 Si / 1000 Ang^3
#
#
#
# Elastic Constant Matrix: (Units=GPa)
#
#
# Indices 1 2 3 4 5 6 
#
# 1 97.8359 44.2111 20.6783 0.0000 3.7306 0.0000
# 2 44.2111 119.0331 25.6765 0.0000 -4.2619 0.0000
# 3 20.6783 25.6765 49.7508 0.0000 5.0301 0.0000
# 4 0.0000 0.0000 0.0000 31.0666 0.0000 -6.3232
# 5 3.7306 -4.2619 5.0301 0.0000 12.8166 0.0000
# 6 0.0000 0.0000 0.0000 -6.3232 0.0000 0.3145
#
#
#
# Elastic Compliance Matrix: (Units=1/GPa)
#
#
# Indices 1 2 3 4 5 6 
#
# 1 0.012923 -0.004367 -0.002698 0.000000 -0.004155 0.000000
# 2 -0.004367 0.011283 -0.004703 0.000000 0.006869 0.000000
# 3 -0.002698 -0.004703 0.024708 0.000000 -0.010476 0.000000
# 4 0.000000 0.000000 0.000000 -0.010408 0.000000 -0.209284
# 5 -0.004155 0.006869 -0.010476 0.000000 0.085628 0.000000
# 6 0.000000 0.000000 0.000000 -0.209284 0.000000 -1.028233
#
#
# Mechanical properties :
#
#
# Convention : Reuss Voigt Hill
#
# Bulk Modulus (GPa) = 39.40143 49.75019 44.57581
# Shear Modulus (GPa) = -5.73326 20.57646 7.42160
#
# Velocity S-wave (km/s) = -1.74967 3.31466 1.99069
# Velocity P-wave (km/s) = 4.11789 6.41981 5.39310
#
# Compressibility (1/GPa) = 0.02537979
#
# Stress axis : x y z
#
# Youngs Moduli (GPa) = 77.38098 88.62658 40.47333
#
# Poissons Ratio (x) = 0.38701 0.10918
# Poissons Ratio (y) = 0.33790 0.19034
# Poissons Ratio (z) = 0.20874 0.41679
#
# Static dielectric constant tensor:
#      x y z
#    x 0.939300 0.000000 -0.657620 
#    y 0.000000 3.513720 0.000000 
#    z -0.657620 0.000000 3.123930 
# 
# 
# High freq. dielectric constant tensor:
#      x y z
#    x 1.699130 0.000000 -0.003020 
#    y 0.000000 1.734460 0.000000 
#    z -0.003020 0.000000 1.730630 
# 
# From -- ./inp_files/35692.got.cif
#   From: 2010.06.25/outbox.cif.g09.slc.cpg/sg15_18_cif.got.tgz:35692.got - 2010.06.28 07:06:18.
