data_PCOD8133188
_publ_section_title
;
Structure prediction by ZEFSAII (Michael W. Deem and Ramdas Pophale) SiO2 
 PCOD8133188
Probable space group: C 2/C
;
_chemical_formula_sum "Si O2"
_cell_formula_units_Z 64
_cell_length_a 22.741253
_cell_length_b 10.713250
_cell_length_c 15.802702
_cell_angle_alpha 90.000000
_cell_angle_beta 115.959982
_cell_angle_gamma 90.000000
_cell_volume 3461.584840
_symmetry_space_group_name_H-M "C 2/C"
_symmetry_group_IT_number 15
_symmetry_cell_setting 'monoclinic'
loop_
_space_group_symop_operation_xyz
x,y,z
-x,y,1/2-z
-x,-y,-z
x,-y,1/2+z
1/2+x,1/2+y,z
1/2-x,1/2+y,1/2-z
1/2-x,1/2-y,-z
1/2+x,1/2-y,1/2+z
loop_
_atom_site_type_symbol
_atom_site_label
_atom_site_fract_x
_atom_site_fract_y
_atom_site_fract_z
Si Si1 0.671328 0.885744 0.425695
Si Si2 0.736963 0.771062 0.617989
Si Si3 0.167151 0.025518 0.337117
Si Si4 0.647224 0.306110 0.205343
Si Si5 0.935579 0.815308 0.661325
Si Si6 0.680908 0.613685 0.006769
Si Si7 0.431092 0.442649 0.482274
Si Si8 0.673033 0.162169 0.378895
O O1 0.683961 0.850791 0.531461
O O2 0.738267 0.852436 0.416275
O O3 0.611883 0.801376 0.356804
O O4 0.649556 0.028256 0.398155
O O5 0.798827 0.854095 0.679642
O O6 0.707335 0.734787 0.687370
O O7 0.091843 0.060889 0.308578
O O8 0.175455 0.920531 0.274524
O O9 0.201242 0.986787 0.447473
O O10 0.588117 0.352525 0.108694
O O11 0.633095 0.198092 0.267045
O O12 0.944453 0.850965 0.568918
O O13 0.000000 0.774084 0.750000
O O14 0.654306 0.736580 0.939950
O O15 0.625204 0.549244 0.032782
O O16 0.748779 0.654549 0.094739
O O17 0.500000 0.500000 0.500000
#
# Coordination Sequence:
#
# PCOD8133188 Si02
#       8
#     8   8   8   8   8   8   8   8
#     4  10  19  36  57  78 112 155 193 227 283 360
#     4  10  19  32  55  82 114 151 185 234 291 342
#     4   9  19  34  54  83 113 147 191 228 285 343
#     4  11  22  33  55  90 117 144 187 248 290 330
#     4  10  20  38  58  76 106 157 199 230 275 344
#     4   9  19  37  59  83 115 154 186 232 290 353
#     4  11  22  38  61  84 117 150 196 251 286 333
#     4  10  20  36  59  89 119 146 191 233 296 357
#
# _framework density 18.48864
#
# number of rings (size 3 to 8) (size 9 to 14) (size 15 to 20)
#    0.000    2.000    2.500    1.500    3.500    0.000 
#    0.000    1.250    0.000    1.500    0.000    0.000 
#    0.000    0.000    0.000    0.000    0.000    0.000 
#
# Total GULP energy -396464.264113 kJ/mol
# GULP energy per Si atom -12389.508254 kJ/mol
# Density = 1.844656 g / cm^3
# Si number density = 18.488640 Si / 1000 Ang^3
#
#
#
# Elastic Constant Matrix: (Units=GPa)
#
#
# Indices 1 2 3 4 5 6 
#
# 1 70.7140 36.2162 40.3438 0.0000 0.1993 0.0000
# 2 36.2162 101.0656 40.4648 0.0000 -7.3306 0.0000
# 3 40.3438 40.4648 111.4354 0.0000 0.0884 0.0000
# 4 0.0000 0.0000 0.0000 31.8847 0.0000 -4.3488
# 5 0.1993 -7.3306 0.0884 0.0000 24.2562 0.0000
# 6 0.0000 0.0000 0.0000 -4.3488 0.0000 22.7010
#
#
#
# Elastic Compliance Matrix: (Units=1/GPa)
#
#
# Indices 1 2 3 4 5 6 
#
# 1 0.019781 -0.005082 -0.005315 0.000000 -0.001679 0.000000
# 2 -0.005082 0.013191 -0.002953 0.000000 0.004039 0.000000
# 3 -0.005315 -0.002953 0.011971 0.000000 -0.000892 0.000000
# 4 0.000000 0.000000 0.000000 0.032204 0.000000 0.006169
# 5 -0.001679 0.004039 -0.000892 0.000000 0.042464 0.000000
# 6 0.000000 0.000000 0.000000 0.006169 0.000000 0.045233
#
#
# Mechanical properties :
#
#
# Convention : Reuss Voigt Hill
#
# Bulk Modulus (GPa) = 54.81588 57.47383 56.14486
# Shear Modulus (GPa) = 25.30027 26.84776 26.07401
#
# Velocity S-wave (km/s) = 3.70323 3.81481 3.75943
# Velocity P-wave (km/s) = 6.92806 7.11036 7.01980
#
# Compressibility (1/GPa) = 0.01824289
#
# Stress axis : x y z
#
# Youngs Moduli (GPa) = 50.55286 75.80829 83.53502
#
# Poissons Ratio (x) = 0.38529 0.44396
# Poissons Ratio (y) = 0.25693 0.24670
# Poissons Ratio (z) = 0.26867 0.22388
#
# Static dielectric constant tensor:
#      x y z
#    x 3.220890 0.000000 -0.079930 
#    y 0.000000 3.558270 0.000000 
#    z -0.079930 0.000000 3.519840 
# 
# 
# High freq. dielectric constant tensor:
#      x y z
#    x 1.688090 0.000000 -0.005150 
#    y 0.000000 1.722220 0.000000 
#    z -0.005150 0.000000 1.717930 
# 
# From -- ./inp_files/167658.got.cif
#   From: 2010.06.25/outbox.cif.g09.slc.cpg/sg15_84_cif.got.tgz:167658.got - 2010.06.28 07:06:18.
