data_PCOD8133547
_publ_section_title
;
Structure prediction by ZEFSAII (Michael W. Deem and Ramdas Pophale) SiO2 
 PCOD8133547
Probable space group: C 2/C
;
_chemical_formula_sum "Si O2"
_cell_formula_units_Z 40
_cell_length_a 10.236776
_cell_length_b 20.276671
_cell_length_c 22.388117
_cell_angle_alpha 90.000000
_cell_angle_beta 155.292641
_cell_angle_gamma 90.000000
_cell_volume 1942.391769
_symmetry_space_group_name_H-M "C 2/C"
_symmetry_group_IT_number 15
_symmetry_cell_setting 'monoclinic'
loop_
_space_group_symop_operation_xyz
x,y,z
-x,y,1/2-z
-x,-y,-z
x,-y,1/2+z
1/2+x,1/2+y,z
1/2-x,1/2+y,1/2-z
1/2-x,1/2-y,-z
1/2+x,1/2-y,1/2+z
loop_
_atom_site_type_symbol
_atom_site_label
_atom_site_fract_x
_atom_site_fract_y
_atom_site_fract_z
Si Si1 0.814138 0.325950 0.348418
Si Si2 0.357930 0.991591 0.252242
Si Si3 0.708453 0.344482 0.169536
Si Si4 0.649459 0.685617 0.085825
Si Si5 0.810808 0.920910 0.521119
O O1 0.500000 0.350711 0.250000
O O2 0.735939 0.312416 0.246341
O O3 0.939368 0.258334 0.428442
O O4 0.075836 0.382870 0.468359
O O5 0.500000 0.021449 0.250000
O O6 0.184523 0.923198 0.166285
O O7 0.630105 0.980563 0.413200
O O8 0.110718 0.044999 0.176514
O O9 0.000000 0.322181 0.250000
O O10 0.396964 0.318837 0.005438
O O11 0.407326 0.633491 0.012585
O O12 0.000000 0.667473 0.250000
#
# Coordination Sequence:
#
# PCOD8133547 Si02
#       5
#     8   8   8   8   8
#     4  10  23  41  62  87 125 165 200 247 302 361
#     4  10  19  33  58  91 123 148 194 259 300 349
#     4  10  20  39  61  91 123 153 198 258 303 341
#     4  11  22  36  64  92 123 155 204 252 303 362
#     4  11  21  36  58  91 120 159 198 249 308 353
#
# _framework density 20.593167000000001
#
# number of rings (size 3 to 8) (size 9 to 14) (size 15 to 20)
#    0.000    1.600    6.000    1.800    2.800    3.200 
#    0.000    4.000    0.000    0.000    0.000    0.000 
#    0.000    0.000    0.000    0.000    0.000    0.000 
#
# Total GULP energy -247922.432563 kJ/mol
# GULP energy per Si atom -12396.121628 kJ/mol
# Density = 2.054630 g / cm^3
# Si number density = 20.593167 Si / 1000 Ang^3
#
#
#
# Elastic Constant Matrix: (Units=GPa)
#
#
# Indices 1 2 3 4 5 6 
#
# 1 76.6638 19.7780 20.9471 0.0233 8.9672 -0.0014
# 2 19.7780 74.6321 33.9081 0.0139 12.9566 -0.0041
# 3 20.9471 33.9081 93.0681 -0.0116 8.6567 0.0189
# 4 0.0233 0.0139 -0.0116 36.1433 -0.0109 4.0849
# 5 8.9672 12.9566 8.6567 -0.0109 27.4920 0.0003
# 6 -0.0014 -0.0041 0.0189 4.0849 0.0003 18.7391
#
#
#
# Elastic Compliance Matrix: (Units=1/GPa)
#
#
# Indices 1 2 3 4 5 6 
#
# 1 0.014589 -0.002379 -0.002141 -0.000011 -0.002963 0.000005
# 2 -0.002379 0.017430 -0.005278 -0.000010 -0.005777 0.000011
# 3 -0.002141 -0.005278 0.013241 0.000009 -0.000984 -0.000017
# 4 -0.000011 -0.000010 0.000009 0.028367 0.000017 -0.006184
# 5 -0.002963 -0.005777 -0.000984 0.000017 0.040373 -0.000005
# 6 0.000005 0.000011 -0.000017 -0.006184 -0.000005 0.054712
#
#
# Mechanical properties :
#
#
# Convention : Reuss Voigt Hill
#
# Bulk Modulus (GPa) = 38.96387 43.73673 41.35030
# Shear Modulus (GPa) = 25.39829 27.79024 26.59427
#
# Velocity S-wave (km/s) = 3.51570 3.67752 3.59752
# Velocity P-wave (km/s) = 5.95332 6.27031 6.11387
#
# Compressibility (1/GPa) = 0.02566480
#
# Stress axis : x y z
#
# Youngs Moduli (GPa) = 68.54290 57.37146 75.52220
#
# Poissons Ratio (x) = 0.13649 0.16172
# Poissons Ratio (y) = 0.16306 0.39859
# Poissons Ratio (z) = 0.14677 0.30279
#
# Static dielectric constant tensor:
#      x y z
#    x 3.557870 -0.000020 0.098790 
#    y -0.000020 3.636310 -0.000120 
#    z 0.098790 -0.000120 3.805220 
# 
# 
# High freq. dielectric constant tensor:
#      x y z
#    x 1.766410 0.000000 0.009920 
#    y 0.000000 1.800780 -0.000010 
#    z 0.009920 -0.000010 1.814640 
# 
# From -- ./inp_files/30369.got.cif
#   From: 2010.06.25/outbox.cif.g09.slc.cpg/sg15_16_cif.got.tgz:30369.got - 2010.06.28 07:06:18.
