data_PCOD8133015
_publ_section_title
;
Structure prediction by ZEFSAII (Michael W. Deem and Ramdas Pophale) SiO2 
 PCOD8133015
Probable space group: C 2/C
;
_chemical_formula_sum "Si O2"
_cell_formula_units_Z 64
_cell_length_a 20.601420
_cell_length_b 12.518755
_cell_length_c 23.219465
_cell_angle_alpha 90.000000
_cell_angle_beta 36.618606
_cell_angle_gamma 90.000000
_cell_volume 3571.991612
_symmetry_space_group_name_H-M "C 2/C"
_symmetry_group_IT_number 15
_symmetry_cell_setting 'monoclinic'
loop_
_space_group_symop_operation_xyz
x,y,z
-x,y,1/2-z
-x,-y,-z
x,-y,1/2+z
1/2+x,1/2+y,z
1/2-x,1/2+y,1/2-z
1/2-x,1/2-y,-z
1/2+x,1/2-y,1/2+z
loop_
_atom_site_type_symbol
_atom_site_label
_atom_site_fract_x
_atom_site_fract_y
_atom_site_fract_z
Si Si1 0.735139 0.565743 0.797539
Si Si2 0.224165 0.872013 0.882442
Si Si3 0.875466 0.754219 0.355251
Si Si4 0.908429 0.040475 0.774010
Si Si5 0.880732 0.271171 0.137133
Si Si6 0.040811 0.179319 0.591615
Si Si7 0.409508 0.233078 0.087493
Si Si8 0.800227 0.099703 0.268127
O O1 0.766696 0.485111 0.827174
O O2 0.839460 0.614410 0.689676
O O3 0.655234 0.657077 0.878462
O O4 0.672574 0.495270 0.795346
O O5 0.307441 0.837871 0.873162
O O6 0.207889 0.781491 0.844241
O O7 0.107520 0.887116 0.996225
O O8 0.837556 0.870609 0.358554
O O9 0.874133 0.755848 0.426568
O O10 0.000000 0.736671 0.250000
O O11 0.000000 0.989667 0.750000
O O12 0.967193 0.097079 0.678424
O O13 0.830293 0.944172 0.809963
O O14 0.881535 0.195759 0.193102
O O15 0.000040 0.283976 0.026001
O O16 0.964420 0.264188 0.611896
O O17 0.326309 0.134258 0.143598
#
# Coordination Sequence:
#
# PCOD8133015 Si02
#       8
#     8   8   8   8   8   8   8   8
#     4  10  20  31  52  77 106 135 180 207 263 323
#     4  10  19  31  54  76 107 143 169 215 264 311
#     4   9  19  31  52  75 112 137 165 214 262 317
#     4   9  18  32  53  77  99 132 178 214 255 312
#     4   9  21  33  50  79 108 136 172 224 259 315
#     4   9  18  31  52  80 108 130 171 216 259 323
#     4  10  20  34  51  82 107 137 171 217 276 302
#     4  10  19  31  57  72 106 138 168 225 256 313
#
# _framework density 17.917175
#
# number of rings (size 3 to 8) (size 9 to 14) (size 15 to 20)
#    0.000    2.750    1.250    1.125   10.500    2.000 
#    0.000    0.000    5.500    3.750    0.000    0.000 
#    0.000    0.000    0.000    0.000    0.000    0.000 
#
# Total GULP energy -396511.534569 kJ/mol
# GULP energy per Si atom -12390.985455 kJ/mol
# Density = 1.787640 g / cm^3
# Si number density = 17.917175 Si / 1000 Ang^3
#
#
#
# Elastic Constant Matrix: (Units=GPa)
#
#
# Indices 1 2 3 4 5 6 
#
# 1 115.1073 55.5156 32.6671 0.0000 3.8550 0.0000
# 2 55.5156 77.3138 29.2888 0.0000 4.4328 0.0000
# 3 32.6671 29.2888 87.9916 0.0000 7.8127 0.0000
# 4 0.0000 0.0000 0.0000 16.5111 0.0000 4.1870
# 5 3.8550 4.4328 7.8127 0.0000 17.9469 0.0000
# 6 0.0000 0.0000 0.0000 4.1870 0.0000 34.0226
#
#
#
# Elastic Compliance Matrix: (Units=1/GPa)
#
#
# Indices 1 2 3 4 5 6 
#
# 1 0.013609 -0.008998 -0.002076 0.000000 0.000203 0.000000
# 2 -0.008998 0.020792 -0.003429 0.000000 -0.001710 0.000000
# 3 -0.002076 -0.003429 0.013691 0.000000 -0.004667 0.000000
# 4 0.000000 0.000000 0.000000 0.062516 0.000000 -0.007694
# 5 0.000203 -0.001710 -0.004667 0.000000 0.058131 0.000000
# 6 0.000000 0.000000 0.000000 -0.007694 0.000000 0.030339
#
#
# Mechanical properties :
#
#
# Convention : Reuss Voigt Hill
#
# Bulk Modulus (GPa) = 52.38676 57.26174 54.82425
# Shear Modulus (GPa) = 21.32703 24.55887 22.94295
#
# Velocity S-wave (km/s) = 3.45383 3.70630 3.58229
# Velocity P-wave (km/s) = 6.72362 7.09535 6.91199
#
# Compressibility (1/GPa) = 0.01908879
#
# Stress axis : x y z
#
# Youngs Moduli (GPa) = 73.47952 48.09561 73.04114
#
# Poissons Ratio (x) = 0.43274 0.15160
# Poissons Ratio (y) = 0.66113 0.25043
# Poissons Ratio (z) = 0.15251 0.16490
#
# Static dielectric constant tensor:
#      x y z
#    x 3.446670 0.000000 0.188480 
#    y 0.000000 3.277190 0.000000 
#    z 0.188480 0.000000 3.341730 
# 
# 
# High freq. dielectric constant tensor:
#      x y z
#    x 1.680420 0.000000 0.006310 
#    y 0.000000 1.668920 0.000000 
#    z 0.006310 0.000000 1.696500 
# 
# From -- ./inp_files/279879.got.cif
#   From: 2010.06.25/outbox.cif.g09.slc.cpg/sg15_140_cif.got.tgz:279879.got - 2010.06.28 07:06:18.
