data_PCOD8133150
_publ_section_title
;
Structure prediction by ZEFSAII (Michael W. Deem and Ramdas Pophale) SiO2 
 PCOD8133150
Probable space group: C 2/C
;
_chemical_formula_sum "Si O2"
_cell_formula_units_Z 40
_cell_length_a 18.828448
_cell_length_b 20.056812
_cell_length_c 5.293804
_cell_angle_alpha 90.000000
_cell_angle_beta 83.153820
_cell_angle_gamma 90.000000
_cell_volume 1984.890555
_symmetry_space_group_name_H-M "C 2/C"
_symmetry_group_IT_number 15
_symmetry_cell_setting 'monoclinic'
loop_
_space_group_symop_operation_xyz
x,y,z
-x,y,1/2-z
-x,-y,-z
x,-y,1/2+z
1/2+x,1/2+y,z
1/2-x,1/2+y,1/2-z
1/2-x,1/2-y,-z
1/2+x,1/2-y,1/2+z
loop_
_atom_site_type_symbol
_atom_site_label
_atom_site_fract_x
_atom_site_fract_y
_atom_site_fract_z
Si Si1 0.045541 0.168647 0.480592
Si Si2 0.789500 0.325820 0.703923
Si Si3 0.836540 0.723619 0.684210
Si Si4 0.263315 0.469422 0.886543
Si Si5 0.420332 0.524807 0.915146
O O1 0.096770 0.229916 0.403047
O O2 0.091843 0.101896 0.510643
O O3 0.000000 0.155237 0.250000
O O4 0.000000 0.185708 0.750000
O O5 0.845942 0.314115 0.449497
O O6 0.736359 0.264196 0.754791
O O7 0.744369 0.391515 0.661910
O O8 0.830871 0.329651 0.955296
O O9 0.226912 0.509155 0.666624
O O10 0.347002 0.488372 0.856603
O O11 0.459516 0.519518 0.621864
#
# Coordination Sequence:
#
# PCOD8133150 Si02
#       5
#     8   8   8   8   8
#     4  12  25  39  56  80 116 159 200 233 267 328
#     4  10  20  35  58  80 107 147 186 239 294 334
#     4  10  21  37  55  79 108 144 196 241 283 328
#     4  10  19  32  53  80 112 143 175 223 287 339
#     4  10  21  35  52  73 109 153 193 228 267 316
#
# _framework density 20.152245000000001
#
# number of rings (size 3 to 8) (size 9 to 14) (size 15 to 20)
#    0.000    1.600    0.000    6.000    0.000   12.000 
#    0.000    0.000    0.000    0.000    0.000    0.000 
#    0.000   56.000    0.000    0.000    0.000    0.000 
#
# Total GULP energy -247897.345176 kJ/mol
# GULP energy per Si atom -12394.867259 kJ/mol
# Density = 2.010638 g / cm^3
# Si number density = 20.152245 Si / 1000 Ang^3
#
#
#
# Elastic Constant Matrix: (Units=GPa)
#
#
# Indices 1 2 3 4 5 6 
#
# 1 53.1110 45.4438 43.4810 0.0000 -6.5186 0.0000
# 2 45.4438 91.8434 68.2457 0.0000 4.3116 0.0000
# 3 43.4810 68.2457 225.6556 0.0000 5.4192 0.0000
# 4 0.0000 0.0000 0.0000 34.5387 0.0000 -2.1255
# 5 -6.5186 4.3116 5.4192 0.0000 24.4358 0.0000
# 6 0.0000 0.0000 0.0000 -2.1255 0.0000 22.8715
#
#
#
# Elastic Compliance Matrix: (Units=1/GPa)
#
#
# Indices 1 2 3 4 5 6 
#
# 1 0.037168 -0.017363 -0.002234 0.000000 0.013474 0.000000
# 2 -0.017363 0.022213 -0.003184 0.000000 -0.007845 0.000000
# 3 -0.002234 -0.003184 0.005857 0.000000 -0.001333 0.000000
# 4 0.000000 0.000000 0.000000 0.029120 0.000000 0.002706
# 5 0.013474 -0.007845 -0.001333 0.000000 0.046198 0.000000
# 6 0.000000 0.000000 0.000000 0.002706 0.000000 0.043974
#
#
# Mechanical properties :
#
#
# Convention : Reuss Voigt Hill
#
# Bulk Modulus (GPa) = 50.82364 76.10565 63.46464
# Shear Modulus (GPa) = 21.12824 30.59850 25.86337
#
# Velocity S-wave (km/s) = 3.24146 3.90085 3.58634
# Velocity P-wave (km/s) = 6.26770 7.62471 6.97926
#
# Compressibility (1/GPa) = 0.01967588
#
# Stress axis : x y z
#
# Youngs Moduli (GPa) = 26.90516 45.01793 170.73510
#
# Poissons Ratio (x) = 0.78163 0.38146
# Poissons Ratio (y) = 0.46715 0.54363
# Poissons Ratio (z) = 0.06011 0.14334
#
# Static dielectric constant tensor:
#      x y z
#    x 3.225500 0.000000 -0.068100 
#    y 0.000000 3.396450 0.000000 
#    z -0.068100 0.000000 5.201430 
# 
# 
# High freq. dielectric constant tensor:
#      x y z
#    x 1.737230 0.000000 -0.001700 
#    y 0.000000 1.762750 0.000000 
#    z -0.001700 0.000000 1.847260 
# 
# From -- ./inp_files/9857.got.cif
#   From: 2010.06.25/outbox.cif.g09.slc.cpg/sg15_5_cif.got.tgz:9857.got - 2010.06.28 07:06:18.
