data_PCOD8133785
_publ_section_title
;
Structure prediction by ZEFSAII (Michael W. Deem and Ramdas Pophale) SiO2 
 PCOD8133785
Probable space group: C 2/C
;
_chemical_formula_sum "Si O2"
_cell_formula_units_Z 48
_cell_length_a 12.090775
_cell_length_b 22.955767
_cell_length_c 12.837169
_cell_angle_alpha 90.000000
_cell_angle_beta 48.228355
_cell_angle_gamma 90.000000
_cell_volume 2657.302178
_symmetry_space_group_name_H-M "C 2/C"
_symmetry_group_IT_number 15
_symmetry_cell_setting 'monoclinic'
loop_
_space_group_symop_operation_xyz
x,y,z
-x,y,1/2-z
-x,-y,-z
x,-y,1/2+z
1/2+x,1/2+y,z
1/2-x,1/2+y,1/2-z
1/2-x,1/2-y,-z
1/2+x,1/2-y,1/2+z
loop_
_atom_site_type_symbol
_atom_site_label
_atom_site_fract_x
_atom_site_fract_y
_atom_site_fract_z
Si Si1 0.406749 0.200577 0.202665
Si Si2 0.333409 0.472060 0.877290
Si Si3 0.339775 0.040475 0.809337
Si Si4 0.379234 0.926165 0.660415
Si Si5 0.300447 0.782508 0.072112
Si Si6 0.289588 0.913166 0.121348
O O1 0.500000 0.204177 0.250000
O O2 0.340010 0.136407 0.233180
O O3 0.270273 0.246298 0.287706
O O4 0.519598 0.215961 0.036690
O O5 0.500000 0.451165 0.750000
O O6 0.223785 0.435600 0.873785
O O7 0.323248 0.541072 0.859462
O O8 0.288171 0.456809 0.023532
O O9 0.500000 0.061748 0.750000
O O10 0.287825 0.082416 0.748006
O O11 0.349905 0.973658 0.766950
O O12 0.548693 0.931238 0.519791
O O13 0.241153 0.848861 0.114863
O O14 0.250000 0.750000 0.000000
#
# Coordination Sequence:
#
# PCOD8133785 Si02
#       6
#     8   8   8   8   8   8
#     4   9  18  33  54  78 105 136 175 220 267 316
#     4  11  23  35  51  84 115 137 178 234 277 314
#     4  11  18  34  60  77 106 148 185 218 265 329
#     4  10  19  34  57  80 105 146 188 213 265 339
#     4   9  19  33  52  78 108 137 172 221 266 313
#     4  10  20  35  56  83 109 145 187 216 266 338
#
# _framework density 18.063434000000001
#
# number of rings (size 3 to 8) (size 9 to 14) (size 15 to 20)
#    0.000    2.000    3.333    1.500    4.667    4.667 
#    3.000    0.000    0.000    2.000    0.000    0.000 
#    0.000    0.000    0.000    0.000    0.000    0.000 
#
# Total GULP energy -297547.359573 kJ/mol
# GULP energy per Si atom -12397.806649 kJ/mol
# Density = 1.802232 g / cm^3
# Si number density = 18.063434 Si / 1000 Ang^3
#
#
#
# Elastic Constant Matrix: (Units=GPa)
#
#
# Indices 1 2 3 4 5 6 
#
# 1 37.6710 20.5640 19.1920 0.0000 4.8766 0.0000
# 2 20.5640 95.4535 27.6919 0.0000 -7.1981 0.0000
# 3 19.1920 27.6919 112.0274 0.0000 -3.0447 0.0000
# 4 0.0000 0.0000 0.0000 27.1032 0.0000 -0.3664
# 5 4.8766 -7.1981 -3.0447 0.0000 22.6301 0.0000
# 6 0.0000 0.0000 0.0000 -0.3664 0.0000 22.0721
#
#
#
# Elastic Compliance Matrix: (Units=1/GPa)
#
#
# Indices 1 2 3 4 5 6 
#
# 1 0.033765 -0.006757 -0.004386 0.000000 -0.010015 0.000000
# 2 -0.006757 0.012877 -0.001882 0.000000 0.005299 0.000000
# 3 -0.004386 -0.001882 0.010190 0.000000 0.001718 0.000000
# 4 0.000000 0.000000 0.000000 0.036904 0.000000 0.000613
# 5 -0.010015 0.005299 0.001718 0.000000 0.048264 0.000000
# 6 0.000000 0.000000 0.000000 0.000613 0.000000 0.045316
#
#
# Mechanical properties :
#
#
# Convention : Reuss Voigt Hill
#
# Bulk Modulus (GPa) = 32.48601 42.22752 37.35676
# Shear Modulus (GPa) = 22.35862 26.20803 24.28332
#
# Velocity S-wave (km/s) = 3.52203 3.81319 3.67050
# Velocity P-wave (km/s) = 5.87904 6.54334 6.22006
#
# Compressibility (1/GPa) = 0.03078248
#
# Stress axis : x y z
#
# Youngs Moduli (GPa) = 29.61614 77.65527 98.13888
#
# Poissons Ratio (x) = 0.52471 0.43048
# Poissons Ratio (y) = 0.20011 0.18466
# Poissons Ratio (z) = 0.12991 0.14611
#
# Static dielectric constant tensor:
#      x y z
#    x 3.145800 0.000000 -0.179120 
#    y 0.000000 3.395680 0.000000 
#    z -0.179120 0.000000 3.971560 
# 
# 
# High freq. dielectric constant tensor:
#      x y z
#    x 1.665730 0.000000 -0.005340 
#    y 0.000000 1.692130 0.000000 
#    z -0.005340 0.000000 1.710970 
# 
# From -- ./inp_files/88350.got.cif
#   From: 2010.06.25/outbox.cif.g09.slc.cpg/sg15_45_cif.got.tgz:88350.got - 2010.06.28 07:06:18.
