data_PCOD8133052
_publ_section_title
;
Structure prediction by ZEFSAII (Michael W. Deem and Ramdas Pophale) SiO2 
 PCOD8133052
Probable space group: C 2/C
;
_chemical_formula_sum "Si O2"
_cell_formula_units_Z 56
_cell_length_a 18.675293
_cell_length_b 17.576891
_cell_length_c 13.759710
_cell_angle_alpha 90.000000
_cell_angle_beta 42.541591
_cell_angle_gamma 90.000000
_cell_volume 3053.837331
_symmetry_space_group_name_H-M "C 2/C"
_symmetry_group_IT_number 15
_symmetry_cell_setting 'monoclinic'
loop_
_space_group_symop_operation_xyz
x,y,z
-x,y,1/2-z
-x,-y,-z
x,-y,1/2+z
1/2+x,1/2+y,z
1/2-x,1/2+y,1/2-z
1/2-x,1/2-y,-z
1/2+x,1/2-y,1/2+z
loop_
_atom_site_type_symbol
_atom_site_label
_atom_site_fract_x
_atom_site_fract_y
_atom_site_fract_z
Si Si1 0.880889 0.862399 0.258113
Si Si2 0.750000 0.750000 0.261072
Si Si3 0.689125 0.964205 0.450607
Si Si4 0.810875 0.464205 0.828856
Si Si5 0.880889 0.862399 0.480109
Si Si6 0.620161 0.113987 0.834214
Si Si7 0.879839 0.613987 0.074537
O O1 0.834807 0.793369 0.242202
O O2 0.811414 0.938994 0.314788
O O3 0.879493 0.834768 0.370507
O O4 1.000000 0.881144 0.104280
O O5 0.665193 0.706631 0.411816
O O6 0.684747 0.807800 0.258111
O O7 0.815253 0.692200 0.127605
O O8 0.617916 0.913660 0.449040
O O9 0.650056 0.950044 0.599944
O O10 0.679102 0.052735 0.434294
O O11 0.820898 0.552735 0.792497
O O12 0.882084 0.413660 0.684872
O O13 0.688586 0.438994 0.937616
O O14 0.500000 0.125373 0.918826
#
# Coordination Sequence:
#
# PCOD8133052 Si02
#       7
#     8   8   8   8   8   8   8
#     4   9  17  30  49  72  97 125 157 197 245 289
#     4  10  19  32  45  68 100 130 158 194 234 284
#     4   9  18  33  52  73  96 123 160 202 239 279
#     4   9  18  33  52  73  96 123 160 202 239 279
#     4   9  17  30  49  72  97 125 157 197 245 289
#     4  10  20  33  50  73  98 125 160 198 237 285
#     4  10  20  33  50  73  98 125 160 198 237 285
#
# _framework density 18.337584
#
# number of rings (size 3 to 8) (size 9 to 14) (size 15 to 20)
#    0.000    2.571    0.000    3.000    0.000    3.429 
#    0.000   13.571    0.000    0.000    0.000    0.000 
#    0.000    0.000    0.000    0.000    0.000    0.000 
#
# Total GULP energy -347149.236275 kJ/mol
# GULP energy per Si atom -12398.187010 kJ/mol
# Density = 1.829585 g / cm^3
# Si number density = 18.337584 Si / 1000 Ang^3
#
#
#
# Elastic Constant Matrix: (Units=GPa)
#
#
# Indices 1 2 3 4 5 6 
#
# 1 58.9280 29.3683 24.4310 0.0000 -19.4290 0.0000
# 2 29.3683 119.0260 33.4294 0.0000 -21.3456 0.0000
# 3 24.4310 33.4294 67.0234 0.0000 -23.1217 0.0000
# 4 0.0000 0.0000 0.0000 23.2321 0.0000 -1.2541
# 5 -19.4290 -21.3456 -23.1217 0.0000 38.5063 0.0000
# 6 0.0000 0.0000 0.0000 -1.2541 0.0000 22.9935
#
#
#
# Elastic Compliance Matrix: (Units=1/GPa)
#
#
# Indices 1 2 3 4 5 6 
#
# 1 0.022634 -0.003114 -0.004229 0.000000 0.007155 0.000000
# 2 -0.003114 0.010509 -0.003328 0.000000 0.002256 0.000000
# 3 -0.004229 -0.003328 0.021125 0.000000 0.008706 0.000000
# 4 0.000000 0.000000 0.000000 0.043171 0.000000 0.002355
# 5 0.007155 0.002256 0.008706 0.000000 0.036058 0.000000
# 6 0.000000 0.000000 0.000000 0.002355 0.000000 0.043619
#
#
# Mechanical properties :
#
#
# Convention : Reuss Voigt Hill
#
# Bulk Modulus (GPa) = 30.37116 46.60384 38.48750
# Shear Modulus (GPa) = 23.87382 27.46297 25.66839
#
# Velocity S-wave (km/s) = 3.61211 3.87412 3.74541
# Velocity P-wave (km/s) = 5.83049 6.74399 6.30381
#
# Compressibility (1/GPa) = 0.03292597
#
# Stress axis : x y z
#
# Youngs Moduli (GPa) = 44.18121 95.15468 47.33667
#
# Poissons Ratio (x) = 0.29629 0.20019
# Poissons Ratio (y) = 0.13757 0.15756
# Poissons Ratio (z) = 0.18685 0.31671
#
# Static dielectric constant tensor:
#      x y z
#    x 3.337250 0.000000 -0.128950 
#    y 0.000000 3.349780 0.000000 
#    z -0.128950 0.000000 3.361790 
# 
# 
# High freq. dielectric constant tensor:
#      x y z
#    x 1.698670 0.000000 -0.015170 
#    y 0.000000 1.703140 0.000000 
#    z -0.015170 0.000000 1.701550 
# 
# From -- ./inp_files/168443.got.cif
#   From: 2010.06.25/outbox.cif.g09.slc.cpg/sg15_85_cif.got.tgz:168443.got - 2010.06.28 07:06:18.
