data_PCOD8133285
_publ_section_title
;
Structure prediction by ZEFSAII (Michael W. Deem and Ramdas Pophale) SiO2 
 PCOD8133285
Probable space group: C 2/C
;
_chemical_formula_sum "Si O2"
_cell_formula_units_Z 48
_cell_length_a 4.952634
_cell_length_b 17.757312
_cell_length_c 30.673275
_cell_angle_alpha 90.000000
_cell_angle_beta 108.824733
_cell_angle_gamma 90.000000
_cell_volume 2553.282344
_symmetry_space_group_name_H-M "C 2/C"
_symmetry_group_IT_number 15
_symmetry_cell_setting 'monoclinic'
loop_
_space_group_symop_operation_xyz
x,y,z
-x,y,1/2-z
-x,-y,-z
x,-y,1/2+z
1/2+x,1/2+y,z
1/2-x,1/2+y,1/2-z
1/2-x,1/2-y,-z
1/2+x,1/2-y,1/2+z
loop_
_atom_site_type_symbol
_atom_site_label
_atom_site_fract_x
_atom_site_fract_y
_atom_site_fract_z
Si Si1 0.849159 0.764887 0.698118
Si Si2 0.864655 0.623289 0.650782
Si Si3 0.055564 0.474121 0.051380
Si Si4 0.763341 0.812371 0.858104
Si Si5 0.168044 0.021452 0.107720
Si Si6 0.759890 0.167494 0.598409
O O1 0.885254 0.673364 0.695843
O O2 0.519353 0.787743 0.682755
O O3 0.000000 0.792291 0.750000
O O4 0.980532 0.806764 0.662957
O O5 0.792816 0.534370 0.652286
O O6 0.598762 0.658696 0.609446
O O7 0.159249 0.631824 0.639642
O O8 0.327826 0.515391 0.086913
O O9 0.099319 0.382462 0.053166
O O10 0.787307 0.496758 0.066874
O O11 0.000000 0.500000 0.000000
O O12 0.736063 0.895383 0.875322
O O13 0.817305 0.756440 0.902663
#
# Coordination Sequence:
#
# PCOD8133285 Si02
#       6
#     8   8   8   8   8   8
#     4  10  19  33  51  72  96 126 160 198 240 287
#     4   8  16  30  49  67  90 125 162 189 226 290
#     4  10  19  33  51  73  99 130 168 210 245 284
#     4  10  19  33  52  73  99 130 162 198 247 303
#     4  10  19  33  52  73  97 130 166 200 245 297
#     4   8  16  30  48  68  94 129 161 189 236 297
#
# _framework density 18.799329
#
# number of rings (size 3 to 8) (size 9 to 14) (size 15 to 20)
#    0.000    2.667    0.000    2.000    0.000    0.000 
#    0.000    3.333    0.000    0.000    0.000    0.000 
#    0.000    0.000    0.000    0.000    0.000    0.000 
#
# Total GULP energy -297336.433680 kJ/mol
# GULP energy per Si atom -12389.018070 kJ/mol
# Density = 1.875654 g / cm^3
# Si number density = 18.799329 Si / 1000 Ang^3
#
#
#
# Elastic Constant Matrix: (Units=GPa)
#
#
# Indices 1 2 3 4 5 6 
#
# 1 71.4604 4.9304 0.9233 0.0000 -2.2515 0.0000
# 2 4.9304 138.9054 22.4494 0.0000 1.5105 0.0000
# 3 0.9233 22.4494 41.1278 0.0000 0.8063 0.0000
# 4 0.0000 0.0000 0.0000 15.2372 0.0000 -0.5483
# 5 -2.2515 1.5105 0.8063 0.0000 18.9042 0.0000
# 6 0.0000 0.0000 0.0000 -0.5483 0.0000 23.0825
#
#
#
# Elastic Compliance Matrix: (Units=1/GPa)
#
#
# Indices 1 2 3 4 5 6 
#
# 1 0.014084 -0.000507 -0.000073 0.000000 0.001721 0.000000
# 2 -0.000507 0.007918 -0.004300 0.000000 -0.000510 0.000000
# 3 -0.000073 -0.004300 0.026679 0.000000 -0.000803 0.000000
# 4 0.000000 0.000000 0.000000 0.065685 0.000000 0.001560
# 5 0.001721 -0.000510 -0.000803 0.000000 0.053178 0.000000
# 6 0.000000 0.000000 0.000000 0.001560 0.000000 0.043360
#
#
# Mechanical properties :
#
#
# Convention : Reuss Voigt Hill
#
# Bulk Modulus (GPa) = 25.69390 34.23332 29.96361
# Shear Modulus (GPa) = 21.40059 26.32413 23.86236
#
# Velocity S-wave (km/s) = 3.37763 3.74608 3.56662
# Velocity P-wave (km/s) = 5.37665 6.07949 5.73884
#
# Compressibility (1/GPa) = 0.03891974
#
# Stress axis : x y z
#
# Youngs Moduli (GPa) = 71.00302 126.29928 37.48233
#
# Poissons Ratio (x) = 0.06400 0.00275
# Poissons Ratio (y) = 0.03598 0.16119
# Poissons Ratio (z) = 0.00521 0.54315
#
# Static dielectric constant tensor:
#      x y z
#    x 3.615370 0.000000 -0.031470 
#    y 0.000000 3.581780 0.000000 
#    z -0.031470 0.000000 2.957570 
# 
# 
# High freq. dielectric constant tensor:
#      x y z
#    x 1.757090 0.000000 -0.005770 
#    y 0.000000 1.730760 0.000000 
#    z -0.005770 0.000000 1.669090 
# 
# From -- ./inp_files/260645.got.cif
#   From: 2010.06.25/outbox.cif.g09.slc.cpg/sg15_131_cif.got.tgz:260645.got - 2010.06.28 07:06:18.
