data_PCOD8133307
_publ_section_title
;
Structure prediction by ZEFSAII (Michael W. Deem and Ramdas Pophale) SiO2 
 PCOD8133307
Probable space group: C 2/C
;
_chemical_formula_sum "Si O2"
_cell_formula_units_Z 48
_cell_length_a 22.501928
_cell_length_b 16.529445
_cell_length_c 17.317145
_cell_angle_alpha 90.000000
_cell_angle_beta 158.315055
_cell_angle_gamma 90.000000
_cell_volume 2379.971749
_symmetry_space_group_name_H-M "C 2/C"
_symmetry_group_IT_number 15
_symmetry_cell_setting 'monoclinic'
loop_
_space_group_symop_operation_xyz
x,y,z
-x,y,1/2-z
-x,-y,-z
x,-y,1/2+z
1/2+x,1/2+y,z
1/2-x,1/2+y,1/2-z
1/2-x,1/2-y,-z
1/2+x,1/2-y,1/2+z
loop_
_atom_site_type_symbol
_atom_site_label
_atom_site_fract_x
_atom_site_fract_y
_atom_site_fract_z
Si Si1 0.964597 0.207254 0.398760
Si Si2 0.819271 0.653410 0.545529
Si Si3 0.175362 0.538341 0.447156
Si Si4 0.649617 0.512420 0.982573
Si Si5 0.253894 0.338278 0.372307
Si Si6 0.533731 0.427243 0.098849
O O1 0.917596 0.300503 0.364893
O O2 0.099850 0.202811 0.496717
O O3 0.019011 0.159070 0.540212
O O4 0.795571 0.170133 0.165420
O O5 0.828098 0.557542 0.565490
O O6 0.740489 0.688936 0.530082
O O7 0.000000 0.686973 0.750000
O O8 0.238998 0.566987 0.439330
O O9 0.286048 0.566889 0.651199
O O10 0.000000 0.575578 0.250000
O O11 0.500000 0.479079 0.750000
O O12 0.592086 0.569119 0.982571
O O13 0.741227 0.435090 0.130634
O O14 0.500000 0.500000 0.000000
#
# Coordination Sequence:
#
# PCOD8133307 Si02
#       6
#     8   8   8   8   8   8
#     4  12  22  34  53  79 115 154 185 230 273 328
#     4  10  19  33  52  77 114 155 187 214 263 341
#     4   9  18  34  56  83 108 143 191 234 273 329
#     4   9  18  36  59  80 111 152 187 220 274 345
#     4  11  21  33  49  76 113 151 185 216 274 338
#     4  11  19  36  58  81 112 149 191 231 282 326
#
# _framework density 20.168306000000001
#
# number of rings (size 3 to 8) (size 9 to 14) (size 15 to 20)
#    0.000    1.667    3.333    4.000    0.000    0.667 
#    0.000    4.167    0.000    0.000    0.000   15.167 
#    0.000    0.000    0.000    0.000    0.000    0.000 
#
# Total GULP energy -297466.560055 kJ/mol
# GULP energy per Si atom -12394.440002 kJ/mol
# Density = 2.012240 g / cm^3
# Si number density = 20.168306 Si / 1000 Ang^3
#
#
#
# Elastic Constant Matrix: (Units=GPa)
#
#
# Indices 1 2 3 4 5 6 
#
# 1 153.5673 40.0781 81.7068 -0.0081 18.1680 -0.0050
# 2 40.0781 49.2788 30.9012 -0.0195 -4.2554 -0.0129
# 3 81.7068 30.9012 122.3592 -0.0077 14.4034 -0.0057
# 4 -0.0081 -0.0195 -0.0077 28.9422 -0.0118 -6.8624
# 5 18.1680 -4.2554 14.4034 -0.0118 32.9318 -0.0085
# 6 -0.0050 -0.0129 -0.0057 -6.8624 -0.0085 23.9960
#
#
#
# Elastic Compliance Matrix: (Units=1/GPa)
#
#
# Indices 1 2 3 4 5 6 
#
# 1 0.011786 -0.006450 -0.005670 -0.000006 -0.004856 -0.000006
# 2 -0.006450 0.028858 -0.004047 0.000026 0.009057 0.000024
# 3 -0.005670 -0.004047 0.013362 -0.000003 -0.003239 -0.000002
# 4 -0.000006 0.000026 -0.000003 0.037065 0.000024 0.010600
# 5 -0.004856 0.009057 -0.003239 0.000024 0.035632 0.000022
# 6 -0.000006 0.000024 -0.000002 0.010600 0.000022 0.044705
#
#
# Mechanical properties :
#
#
# Convention : Reuss Voigt Hill
#
# Bulk Modulus (GPa) = 46.14060 70.06417 58.10239
# Shear Modulus (GPa) = 23.70040 28.67528 26.18784
#
# Velocity S-wave (km/s) = 3.43174 3.77477 3.60733
# Velocity P-wave (km/s) = 6.21529 7.33578 6.79866
#
# Compressibility (1/GPa) = 0.02167289
#
# Stress axis : x y z
#
# Youngs Moduli (GPa) = 84.84451 34.65215 74.83714
#
# Poissons Ratio (x) = 0.22349 0.42433
# Poissons Ratio (y) = 0.54721 0.30290
# Poissons Ratio (z) = 0.48107 0.14025
#
# Static dielectric constant tensor:
#      x y z
#    x 4.134050 0.000000 0.319110 
#    y 0.000000 3.443580 0.000000 
#    z 0.319110 0.000000 3.631630 
# 
# 
# High freq. dielectric constant tensor:
#      x y z
#    x 1.804360 0.000000 0.021410 
#    y 0.000000 1.750220 0.000000 
#    z 0.021410 0.000000 1.764720 
# 
# From -- ./inp_files/219983.got.cif
#   From: 2010.06.25/outbox.cif.g09.slc.cpg/sg15_110_cif.got.tgz:219983.got - 2010.06.28 07:06:18.
