data_PCOD8133131
_publ_section_title
;
Structure prediction by ZEFSAII (Michael W. Deem and Ramdas Pophale) SiO2 
 PCOD8133131
Probable space group: C 2/C
;
_chemical_formula_sum "Si O2"
_cell_formula_units_Z 64
_cell_length_a 17.973348
_cell_length_b 11.791890
_cell_length_c 21.665200
_cell_angle_alpha 90.000000
_cell_angle_beta 52.604050
_cell_angle_gamma 90.000000
_cell_volume 3647.924173
_symmetry_space_group_name_H-M "C 2/C"
_symmetry_group_IT_number 15
_symmetry_cell_setting 'monoclinic'
loop_
_space_group_symop_operation_xyz
x,y,z
-x,y,1/2-z
-x,-y,-z
x,-y,1/2+z
1/2+x,1/2+y,z
1/2-x,1/2+y,1/2-z
1/2-x,1/2-y,-z
1/2+x,1/2-y,1/2+z
loop_
_atom_site_type_symbol
_atom_site_label
_atom_site_fract_x
_atom_site_fract_y
_atom_site_fract_z
Si Si1 0.628097 0.447749 0.929442
Si Si2 0.479701 0.844286 0.630648
Si Si3 0.165422 0.612494 0.193985
Si Si4 0.450344 0.688491 0.529872
Si Si5 0.085855 0.817087 0.167414
Si Si6 0.860162 0.758773 0.950149
Si Si7 0.382837 0.022533 0.900563
Si Si8 0.327617 0.499112 0.455451
O O1 0.726271 0.415633 0.848119
O O2 0.598955 0.573035 0.919538
O O3 0.551968 0.350426 0.952157
O O4 0.634997 0.447316 0.999784
O O5 0.388094 0.887084 0.713943
O O6 0.452926 0.787933 0.579368
O O7 0.541027 0.751569 0.634371
O O8 0.544063 0.956209 0.592632
O O9 0.155488 0.737666 0.170960
O O10 0.118700 0.522908 0.169279
O O11 0.390399 0.746153 0.506287
O O12 0.150666 0.917554 0.111835
O O13 0.000000 0.867197 0.250000
O O14 0.909435 0.656852 0.887052
O O15 0.883551 0.884126 0.912495
O O16 0.750000 0.750000 0.000000
O O17 0.283374 0.011884 0.984201
#
# Coordination Sequence:
#
# PCOD8133131 Si02
#       8
#     8   8   8   8   8   8   8   8
#     4   9  18  32  53  80 101 136 180 207 267 317
#     4  10  19  32  52  79 110 134 169 217 272 308
#     4   9  19  33  53  77 107 139 170 214 261 319
#     4  10  19  32  56  77 104 138 171 227 261 309
#     4   9  17  29  49  79 108 133 169 219 267 302
#     4   9  19  35  52  76 103 134 181 217 258 310
#     4   9  18  31  53  76 104 140 175 215 251 316
#     4   9  16  30  54  77 102 137 177 219 254 305
#
# _framework density 17.544224
#
# number of rings (size 3 to 8) (size 9 to 14) (size 15 to 20)
#    0.000    2.750    1.250    1.875    1.750    2.000 
#    0.000    2.500   11.000    0.000    0.000    0.000 
#    0.000    0.000    0.000    0.000    0.000    0.000 
#
# Total GULP energy -396556.091894 kJ/mol
# GULP energy per Si atom -12392.377872 kJ/mol
# Density = 1.750429 g / cm^3
# Si number density = 17.544224 Si / 1000 Ang^3
#
#
#
# Elastic Constant Matrix: (Units=GPa)
#
#
# Indices 1 2 3 4 5 6 
#
# 1 93.8917 34.4493 32.4810 0.0000 -11.0723 0.0000
# 2 34.4493 100.8336 53.7042 0.0000 -2.1113 0.0000
# 3 32.4810 53.7042 64.9660 0.0000 -10.5604 0.0000
# 4 0.0000 0.0000 0.0000 13.2466 0.0000 -7.5075
# 5 -11.0723 -2.1113 -10.5604 0.0000 20.2342 0.0000
# 6 0.0000 0.0000 0.0000 -7.5075 0.0000 19.6019
#
#
#
# Elastic Compliance Matrix: (Units=1/GPa)
#
#
# Indices 1 2 3 4 5 6 
#
# 1 0.013493 -0.002413 -0.003925 0.000000 0.005083 0.000000
# 2 -0.002413 0.018925 -0.015660 0.000000 -0.007519 0.000000
# 3 -0.003925 -0.015660 0.032438 0.000000 0.013148 0.000000
# 4 0.000000 0.000000 0.000000 0.096421 0.000000 0.036929
# 5 0.005083 -0.007519 0.013148 0.000000 0.058280 0.000000
# 6 0.000000 0.000000 0.000000 0.036929 0.000000 0.065160
#
#
# Mechanical properties :
#
#
# Convention : Reuss Voigt Hill
#
# Bulk Modulus (GPa) = 47.94013 55.66225 51.80119
# Shear Modulus (GPa) = 14.89577 19.88699 17.39138
#
# Velocity S-wave (km/s) = 2.91699 3.37045 3.15189
# Velocity P-wave (km/s) = 6.22332 6.85145 6.54492
#
# Compressibility (1/GPa) = 0.02085935
#
# Stress axis : x y z
#
# Youngs Moduli (GPa) = 74.11125 52.84069 30.82819
#
# Poissons Ratio (x) = 0.12749 0.12101
# Poissons Ratio (y) = 0.17882 0.48277
# Poissons Ratio (z) = 0.29092 0.82749
#
# Static dielectric constant tensor:
#      x y z
#    x 3.246200 0.000000 -0.139290 
#    y 0.000000 3.607080 0.000000 
#    z -0.139290 0.000000 2.997320 
# 
# 
# High freq. dielectric constant tensor:
#      x y z
#    x 1.671950 0.000000 -0.016000 
#    y 0.000000 1.683280 0.000000 
#    z -0.016000 0.000000 1.646980 
# 
# From -- ./inp_files/210285.got.cif
#   From: 2010.06.25/outbox.cif.g09.slc.cpg/sg15_106_cif.got.tgz:210285.got - 2010.06.28 07:06:18.
