data_PCOD8133838
_publ_section_title
;
Structure prediction by ZEFSAII (Michael W. Deem and Ramdas Pophale) SiO2 
 PCOD8133838
Probable space group: C 2/C
;
_chemical_formula_sum "Si O2"
_cell_formula_units_Z 40
_cell_length_a 14.367823
_cell_length_b 8.537519
_cell_length_c 18.888487
_cell_angle_alpha 90.000000
_cell_angle_beta 122.084683
_cell_angle_gamma 90.000000
_cell_volume 1963.082505
_symmetry_space_group_name_H-M "C 2/C"
_symmetry_group_IT_number 15
_symmetry_cell_setting 'monoclinic'
loop_
_space_group_symop_operation_xyz
x,y,z
-x,y,1/2-z
-x,-y,-z
x,-y,1/2+z
1/2+x,1/2+y,z
1/2-x,1/2+y,1/2-z
1/2-x,1/2-y,-z
1/2+x,1/2-y,1/2+z
loop_
_atom_site_type_symbol
_atom_site_label
_atom_site_fract_x
_atom_site_fract_y
_atom_site_fract_z
Si Si1 0.599969 0.928292 0.994696
Si Si2 0.988521 0.562325 0.828802
Si Si3 0.189138 0.400825 0.647317
Si Si4 0.434736 0.406677 0.792461
Si Si5 0.525663 0.367305 0.066295
O O1 0.597835 0.004133 0.915035
O O2 0.583880 0.741779 0.978689
O O3 0.703373 0.978316 0.085480
O O4 0.500000 0.000000 0.000000
O O5 0.883879 0.469863 0.817858
O O6 0.981476 0.746015 0.843486
O O7 0.000000 0.528841 0.750000
O O8 0.308231 0.368979 0.725606
O O9 0.134057 0.239175 0.596024
O O10 0.500000 0.456681 0.750000
O O11 0.452958 0.552401 0.850401
O O12 0.500000 0.500000 0.000000
#
# Coordination Sequence:
#
# PCOD8133838 Si02
#       5
#     8   8   8   8   8
#     4   8  17  34  56  77 107 145 178 217 271 328
#     4   9  18  35  56  80 109 142 179 220 273 332
#     4  10  20  37  58  79 110 150 180 219 277 329
#     4  11  22  36  54  83 113 143 185 229 266 319
#     4  10  19  34  58  83 109 140 181 231 273 322
#
# _framework density 20.376118000000002
#
# number of rings (size 3 to 8) (size 9 to 14) (size 15 to 20)
#    0.000    2.800    0.000    4.800    0.000    3.200 
#    0.000   12.000    0.000    0.000    0.000    1.400 
#    0.000    0.000    0.000    0.000    0.000    0.000 
#
# Total GULP energy -247769.687633 kJ/mol
# GULP energy per Si atom -12388.484382 kJ/mol
# Density = 2.032974 g / cm^3
# Si number density = 20.376118 Si / 1000 Ang^3
#
#
#
# Elastic Constant Matrix: (Units=GPa)
#
#
# Indices 1 2 3 4 5 6 
#
# 1 52.7791 25.7495 33.7164 0.0000 -6.5034 0.0000
# 2 25.7495 156.7222 82.1647 0.0000 -3.5709 0.0000
# 3 33.7164 82.1647 119.5568 0.0000 -20.2331 0.0000
# 4 0.0000 0.0000 0.0000 47.9925 0.0000 -6.6330
# 5 -6.5034 -3.5709 -20.2331 0.0000 18.5809 0.0000
# 6 0.0000 0.0000 0.0000 -6.6330 0.0000 10.9658
#
#
#
# Elastic Compliance Matrix: (Units=1/GPa)
#
#
# Indices 1 2 3 4 5 6 
#
# 1 0.023189 -0.000777 -0.005710 0.000000 0.001750 0.000000
# 2 -0.000777 0.010755 -0.008420 0.000000 -0.007374 0.000000
# 3 -0.005710 -0.008420 0.018571 0.000000 0.016606 0.000000
# 4 0.000000 0.000000 0.000000 0.022737 0.000000 0.013753
# 5 0.001750 -0.007374 0.016606 0.000000 0.071097 0.000000
# 6 0.000000 0.000000 0.000000 0.013753 0.000000 0.099512
#
#
# Mechanical properties :
#
#
# Convention : Reuss Voigt Hill
#
# Bulk Modulus (GPa) = 44.04850 68.03549 56.04199
# Shear Modulus (GPa) = 17.65283 28.00302 22.82792
#
# Velocity S-wave (km/s) = 2.94657 3.71118 3.35076
# Velocity P-wave (km/s) = 5.76550 7.19904 6.52178
#
# Compressibility (1/GPa) = 0.02270225
#
# Stress axis : x y z
#
# Youngs Moduli (GPa) = 43.12421 92.98346 53.84663
#
# Poissons Ratio (x) = 0.07221 0.30745
# Poissons Ratio (y) = 0.03349 0.45338
# Poissons Ratio (z) = 0.24623 0.78291
#
# Static dielectric constant tensor:
#      x y z
#    x 3.262900 0.000000 -0.053840 
#    y 0.000000 3.965620 0.000000 
#    z -0.053840 0.000000 4.710500 
# 
# 
# High freq. dielectric constant tensor:
#      x y z
#    x 1.743310 0.000000 -0.011850 
#    y 0.000000 1.811510 0.000000 
#    z -0.011850 0.000000 1.817670 
# 
# From -- ./inp_files/242108.got.cif
#   From: 2010.06.25/outbox.cif.g09.slc.cpg/sg15_122_cif.got.tgz:242108.got - 2010.06.28 07:06:18.
