data_PCOD8133423
_publ_section_title
;
Structure prediction by ZEFSAII (Michael W. Deem and Ramdas Pophale) SiO2 
 PCOD8133423
Probable space group: C 2/C
;
_chemical_formula_sum "Si O2"
_cell_formula_units_Z 44
_cell_length_a 14.852835
_cell_length_b 17.302646
_cell_length_c 9.241766
_cell_angle_alpha 90.000000
_cell_angle_beta 71.477288
_cell_angle_gamma 90.000000
_cell_volume 2252.038398
_symmetry_space_group_name_H-M "C 2/C"
_symmetry_group_IT_number 15
_symmetry_cell_setting 'monoclinic'
loop_
_space_group_symop_operation_xyz
x,y,z
-x,y,1/2-z
-x,-y,-z
x,-y,1/2+z
1/2+x,1/2+y,z
1/2-x,1/2+y,1/2-z
1/2-x,1/2-y,-z
1/2+x,1/2-y,1/2+z
loop_
_atom_site_type_symbol
_atom_site_label
_atom_site_fract_x
_atom_site_fract_y
_atom_site_fract_z
Si Si1 0.601466 0.530554 0.657785
Si Si2 0.500000 0.826486 0.750000
Si Si3 0.849523 0.440002 0.777228
Si Si4 0.145112 0.096211 0.334421
Si Si5 0.848910 0.258027 0.036291
Si Si6 0.303947 0.081235 0.630579
O O1 0.500000 0.569264 0.750000
O O2 0.616290 0.537197 0.478576
O O3 0.598548 0.440005 0.712672
O O4 0.688927 0.572930 0.695808
O O5 0.435969 0.884722 0.684819
O O6 0.565480 0.772022 0.618808
O O7 0.757300 0.402671 0.751497
O O8 0.859184 0.527802 0.716917
O O9 0.841618 0.441568 0.953717
O O10 0.117958 0.184185 0.386756
O O11 0.833841 0.330772 0.150865
O O12 0.750000 0.250000 0.000000
#
# Coordination Sequence:
#
# PCOD8133423 Si02
#       6
#     8   4   8   8   8   8
#     4  10  19  33  55  81 101 144 178 216 262 328
#     4  10  20  32  58  78 104 140 186 206 270 314
#     4   9  18  34  53  79 100 141 174 216 254 327
#     4  10  20  35  54  76 113 135 177 223 266 309
#     4  11  19  35  52  83 106 139 173 230 257 314
#     4   9  19  34  56  75 109 134 179 217 267 300
#
# _framework density 19.537855
#
# number of rings (size 3 to 8) (size 9 to 14) (size 15 to 20)
#    0.000    2.182    5.455    0.545    1.273    2.909 
#    0.000    0.000    6.000   10.909    0.000    0.000 
#    0.000    0.000    0.000    0.000    0.000    0.000 
#
# Total GULP energy -272568.284716 kJ/mol
# GULP energy per Si atom -12389.467487 kJ/mol
# Density = 1.949339 g / cm^3
# Si number density = 19.537855 Si / 1000 Ang^3
#
#
#
# Elastic Constant Matrix: (Units=GPa)
#
#
# Indices 1 2 3 4 5 6 
#
# 1 81.6824 30.7415 25.6473 0.0000 -29.4536 0.0000
# 2 30.7415 168.8970 53.0697 0.0000 -3.5872 0.0000
# 3 25.6473 53.0697 42.3125 0.0000 -7.8658 0.0000
# 4 0.0000 0.0000 0.0000 43.4437 0.0000 -0.8876
# 5 -29.4536 -3.5872 -7.8658 0.0000 27.2934 0.0000
# 6 0.0000 0.0000 0.0000 -0.8876 0.0000 26.1727
#
#
#
# Elastic Compliance Matrix: (Units=1/GPa)
#
#
# Indices 1 2 3 4 5 6 
#
# 1 0.023620 -0.001072 -0.008728 0.000000 0.022833 0.000000
# 2 -0.001072 0.009968 -0.012494 0.000000 -0.003447 0.000000
# 3 -0.008728 -0.012494 0.044946 0.000000 0.001892 0.000000
# 4 0.000000 0.000000 0.000000 0.023034 0.000000 0.000781
# 5 0.022833 -0.003447 0.001892 0.000000 0.061371 0.000000
# 6 0.000000 0.000000 0.000000 0.000781 0.000000 0.038234
#
#
# Mechanical properties :
#
#
# Convention : Reuss Voigt Hill
#
# Bulk Modulus (GPa) = 29.45785 56.86766 43.16276
# Shear Modulus (GPa) = 19.44948 31.61084 25.53016
#
# Velocity S-wave (km/s) = 3.15854 4.02671 3.61876
# Velocity P-wave (km/s) = 5.33028 7.12663 6.29288
#
# Compressibility (1/GPa) = 0.03394681
#
# Stress axis : x y z
#
# Youngs Moduli (GPa) = 42.33788 100.31754 22.24890
#
# Poissons Ratio (x) = 0.10751 0.19419
# Poissons Ratio (y) = 0.04537 0.27797
# Poissons Ratio (z) = 0.36953 1.25335
#
# Static dielectric constant tensor:
#      x y z
#    x 3.774950 0.000000 -0.242900 
#    y 0.000000 3.851670 0.000000 
#    z -0.242900 0.000000 3.341660 
# 
# 
# High freq. dielectric constant tensor:
#      x y z
#    x 1.763640 0.000000 -0.027700 
#    y 0.000000 1.757710 0.000000 
#    z -0.027700 0.000000 1.727310 
# 
# From -- ./inp_files/39160.got.cif
#   From: 2010.06.25/outbox.cif.g09.slc.cpg/sg15_20_cif.got.tgz:39160.got - 2010.06.28 07:06:18.
