data_PCOD8133647
_publ_section_title
;
Structure prediction by ZEFSAII (Michael W. Deem and Ramdas Pophale) SiO2 
 PCOD8133647
Probable space group: C 2/C
;
_chemical_formula_sum "Si O2"
_cell_formula_units_Z 48
_cell_length_a 22.645876
_cell_length_b 21.859034
_cell_length_c 14.224067
_cell_angle_alpha 90.000000
_cell_angle_beta 21.266009
_cell_angle_gamma 90.000000
_cell_volume 2553.815761
_symmetry_space_group_name_H-M "C 2/C"
_symmetry_group_IT_number 15
_symmetry_cell_setting 'monoclinic'
loop_
_space_group_symop_operation_xyz
x,y,z
-x,y,1/2-z
-x,-y,-z
x,-y,1/2+z
1/2+x,1/2+y,z
1/2-x,1/2+y,1/2-z
1/2-x,1/2-y,-z
1/2+x,1/2-y,1/2+z
loop_
_atom_site_type_symbol
_atom_site_label
_atom_site_fract_x
_atom_site_fract_y
_atom_site_fract_z
Si Si1 0.674944 0.479273 0.274106
Si Si2 0.796090 0.502705 0.403241
Si Si3 0.371575 0.717678 0.250206
Si Si4 0.384843 0.797564 0.512433
Si Si5 0.127331 0.568131 0.394380
Si Si6 0.971018 0.901534 0.692390
O O1 0.500000 0.500000 0.500000
O O2 0.754506 0.536201 0.207666
O O3 0.645391 0.421554 0.387502
O O4 0.786302 0.462403 0.018500
O O5 0.807991 0.554894 0.306688
O O6 0.635901 0.461542 0.628039
O O7 0.947010 0.457113 0.175169
O O8 0.250000 0.750000 0.500000
O O9 0.295297 0.723663 0.257913
O O10 0.380502 0.645383 0.258163
O O11 0.547378 0.748844 0.010645
O O12 0.370724 0.860095 0.590601
O O13 0.500000 0.805549 0.250000
O O14 0.000000 0.868535 0.750000
#
# Coordination Sequence:
#
# PCOD8133647 Si02
#       6
#     8   8   8   8   8   8
#     4  10  20  33  52  77 113 144 184 233 284 333
#     4  10  21  33  53  83 109 155 185 222 294 340
#     4  10  20  33  54  81 108 148 187 237 288 331
#     4  10  19  34  53  79 110 145 189 236 286 334
#     4  11  20  35  55  80 118 150 188 232 282 354
#     4  11  19  34  53  82 115 141 187 238 284 342
#
# _framework density 18.795404999999999
#
# number of rings (size 3 to 8) (size 9 to 14) (size 15 to 20)
#    0.000    1.667    1.667    7.000    0.000    0.000 
#    0.000    0.000    0.000    1.000    0.000    2.333 
#    0.000    0.000    0.000    0.000    0.000    0.000 
#
# Total GULP energy -297430.232746 kJ/mol
# GULP energy per Si atom -12392.926364 kJ/mol
# Density = 1.875263 g / cm^3
# Si number density = 18.795405 Si / 1000 Ang^3
#
#
#
# Elastic Constant Matrix: (Units=GPa)
#
#
# Indices 1 2 3 4 5 6 
#
# 1 133.2565 47.4569 48.3884 -0.0114 -5.1301 0.0018
# 2 47.4569 89.6802 29.9295 -0.0035 4.2472 0.0017
# 3 48.3884 29.9295 65.2242 -0.0112 13.8370 0.0094
# 4 -0.0114 -0.0035 -0.0112 24.7250 0.0113 -5.0374
# 5 -5.1301 4.2472 13.8370 0.0113 36.9557 -0.0016
# 6 0.0018 0.0017 0.0094 -5.0374 -0.0016 36.9740
#
#
#
# Elastic Compliance Matrix: (Units=1/GPa)
#
#
# Indices 1 2 3 4 5 6 
#
# 1 0.012106 -0.003880 -0.008312 -0.000001 0.005239 0.000002
# 2 -0.003880 0.014434 -0.003561 -0.000001 -0.000864 0.000000
# 3 -0.008312 -0.003561 0.025300 0.000011 -0.010217 -0.000005
# 4 -0.000001 -0.000001 0.000011 0.041600 -0.000017 0.005668
# 5 0.005239 -0.000864 -0.010217 -0.000017 0.031712 0.000001
# 6 0.000002 0.000000 -0.000005 0.005668 0.000001 0.027818
#
#
# Mechanical properties :
#
#
# Convention : Reuss Voigt Hill
#
# Bulk Modulus (GPa) = 49.18203 59.96782 54.57492
# Shear Modulus (GPa) = 26.14328 30.55668 28.34998
#
# Velocity S-wave (km/s) = 3.73358 4.03644 3.88796
# Velocity P-wave (km/s) = 6.69403 7.32793 7.01814
#
# Compressibility (1/GPa) = 0.02033263
#
# Stress axis : x y z
#
# Youngs Moduli (GPa) = 82.60186 69.28311 39.52581
#
# Poissons Ratio (x) = 0.26885 0.32854
# Poissons Ratio (y) = 0.32053 0.14075
# Poissons Ratio (z) = 0.68660 0.24672
#
# Static dielectric constant tensor:
#      x y z
#    x 4.175850 0.000270 0.110880 
#    y 0.000270 3.545560 0.000510 
#    z 0.110880 0.000510 4.013010 
# 
# 
# High freq. dielectric constant tensor:
#      x y z
#    x 1.746910 0.000000 -0.019160 
#    y 0.000000 1.710460 0.000000 
#    z -0.019160 0.000000 1.705870 
# 
# From -- ./inp_files/79114.got.cif
#   From: 2010.06.25/outbox.cif.g09.slc.cpg/sg15_40_cif.got.tgz:79114.got - 2010.06.28 07:06:18.
