data_PCOD8133563
_publ_section_title
;
Structure prediction by ZEFSAII (Michael W. Deem and Ramdas Pophale) SiO2 
 PCOD8133563
Probable space group: C 2/C
;
_chemical_formula_sum "Si O2"
_cell_formula_units_Z 48
_cell_length_a 6.985648
_cell_length_b 18.638245
_cell_length_c 15.223861
_cell_angle_alpha 90.000000
_cell_angle_beta 77.910646
_cell_angle_gamma 90.000000
_cell_volume 1938.190246
_symmetry_space_group_name_H-M "C 2/C"
_symmetry_group_IT_number 15
_symmetry_cell_setting 'monoclinic'
loop_
_space_group_symop_operation_xyz
x,y,z
-x,y,1/2-z
-x,-y,-z
x,-y,1/2+z
1/2+x,1/2+y,z
1/2-x,1/2+y,1/2-z
1/2-x,1/2-y,-z
1/2+x,1/2-y,1/2+z
loop_
_atom_site_type_symbol
_atom_site_label
_atom_site_fract_x
_atom_site_fract_y
_atom_site_fract_z
Si Si1 0.462667 0.800629 0.529969
Si Si2 0.702541 0.988303 0.808211
Si Si3 0.555653 0.514895 0.388053
Si Si4 0.129498 0.176862 0.408735
Si Si5 0.685732 0.821895 0.782734
Si Si6 0.392069 0.947568 0.444031
O O1 0.663141 0.816166 0.562582
O O2 0.473291 0.729065 0.470268
O O3 0.295554 0.786733 0.621593
O O4 0.409013 0.865582 0.470758
O O5 0.818905 0.005795 0.709587
O O6 0.644120 0.905103 0.808946
O O7 0.832850 0.003240 0.883718
O O8 0.506360 0.036510 0.840128
O O9 0.560435 0.596050 0.420778
O O10 0.658063 0.466970 0.455343
O O11 0.135441 0.192794 0.301970
O O12 0.500000 0.789079 0.750000
O O13 0.500000 0.000000 0.500000
#
# Coordination Sequence:
#
# PCOD8133563 Si02
#       6
#     8   8   8   8   8   8
#     4  10  19  33  59  93 124 162 208 263 320 373
#     4  10  20  36  63  86 118 164 219 252 308 378
#     4  10  21  38  63  87 119 169 216 258 307 387
#     4   9  18  35  59  86 122 168 213 254 306 383
#     4   9  16  33  60  86 117 169 213 256 310 383
#     4  12  20  35  61  94 127 160 201 267 327 376
#
# _framework density 24.765370999999998
#
# number of rings (size 3 to 8) (size 9 to 14) (size 15 to 20)
#    0.000    2.000    3.333    2.500    0.000    0.667 
#    0.000    0.833   33.000    2.000    0.000    0.000 
#    0.000    0.000    0.000    0.000    0.000    0.000 
#
# Total GULP energy -297342.440106 kJ/mol
# GULP energy per Si atom -12389.268338 kJ/mol
# Density = 2.470900 g / cm^3
# Si number density = 24.765371 Si / 1000 Ang^3
#
#
#
# Elastic Constant Matrix: (Units=GPa)
#
#
# Indices 1 2 3 4 5 6 
#
# 1 76.4252 36.6239 34.9178 0.0000 16.4038 0.0000
# 2 36.6239 105.6825 80.9321 0.0000 -11.1365 0.0000
# 3 34.9178 80.9321 139.5550 0.0000 -18.6368 0.0000
# 4 0.0000 0.0000 0.0000 34.2909 0.0000 -0.9835
# 5 16.4038 -11.1365 -18.6368 0.0000 54.7510 0.0000
# 6 0.0000 0.0000 0.0000 -0.9835 0.0000 31.4371
#
#
#
# Elastic Compliance Matrix: (Units=1/GPa)
#
#
# Indices 1 2 3 4 5 6 
#
# 1 0.018329 -0.005150 -0.002590 0.000000 -0.007421 0.000000
# 2 -0.005150 0.018470 -0.009130 0.000000 0.002192 0.000000
# 3 -0.002590 -0.009130 0.013581 0.000000 0.003542 0.000000
# 4 0.000000 0.000000 0.000000 0.029188 0.000000 0.000913
# 5 -0.007421 0.002192 0.003542 0.000000 0.022139 0.000000
# 6 0.000000 0.000000 0.000000 0.000913 0.000000 0.031838
#
#
# Mechanical properties :
#
#
# Convention : Reuss Voigt Hill
#
# Bulk Modulus (GPa) = 60.09768 69.62337 64.86053
# Shear Modulus (GPa) = 28.92966 35.37506 32.15236
#
# Velocity S-wave (km/s) = 3.42153 3.78353 3.60707
# Velocity P-wave (km/s) = 6.31891 6.87466 6.60264
#
# Compressibility (1/GPa) = 0.01663958
#
# Stress axis : x y z
#
# Youngs Moduli (GPa) = 54.55841 54.14282 73.63007
#
# Poissons Ratio (x) = 0.27884 0.19073
# Poissons Ratio (y) = 0.28098 0.67223
# Poissons Ratio (z) = 0.14133 0.49431
#
# Static dielectric constant tensor:
#      x y z
#    x 5.105800 0.000000 -0.270720 
#    y 0.000000 3.980400 0.000000 
#    z -0.270720 0.000000 5.540610 
# 
# 
# High freq. dielectric constant tensor:
#      x y z
#    x 2.011800 0.000000 -0.002630 
#    y 0.000000 1.921950 0.000000 
#    z -0.002630 0.000000 2.030310 
# 
# From -- ./inp_files/135461.got.cif
#   From: 2010.06.25/outbox.cif.g09.slc.cpg/sg15_68_cif.got.tgz:135461.got - 2010.06.28 07:06:18.
