data_PCOD8133660
_publ_section_title
;
Structure prediction by ZEFSAII (Michael W. Deem and Ramdas Pophale) SiO2 
 PCOD8133660
Probable space group: C 2/C
;
_chemical_formula_sum "Si O2"
_cell_formula_units_Z 56
_cell_length_a 12.215602
_cell_length_b 19.640910
_cell_length_c 21.973180
_cell_angle_alpha 90.000000
_cell_angle_beta 144.426833
_cell_angle_gamma 90.000000
_cell_volume 3066.901983
_symmetry_space_group_name_H-M "C 2/C"
_symmetry_group_IT_number 15
_symmetry_cell_setting 'monoclinic'
loop_
_space_group_symop_operation_xyz
x,y,z
-x,y,1/2-z
-x,-y,-z
x,-y,1/2+z
1/2+x,1/2+y,z
1/2-x,1/2+y,1/2-z
1/2-x,1/2-y,-z
1/2+x,1/2-y,1/2+z
loop_
_atom_site_type_symbol
_atom_site_label
_atom_site_fract_x
_atom_site_fract_y
_atom_site_fract_z
Si Si1 0.079885 0.406778 0.982408
Si Si2 0.722782 0.667830 0.279291
Si Si3 0.841606 0.788137 0.097801
Si Si4 0.755680 0.261205 0.314088
Si Si5 0.161312 0.550782 0.017892
Si Si6 0.500000 0.224207 0.750000
Si Si7 0.376605 0.817029 0.068395
Si Si8 0.000000 0.065196 0.250000
O O1 0.935935 0.356744 0.883383
O O2 0.011058 0.421868 0.019611
O O3 0.277032 0.366710 0.072663
O O4 0.104654 0.479961 0.958788
O O5 0.694395 0.689691 0.196357
O O6 0.672553 0.730405 0.301989
O O7 0.579256 0.608284 0.229395
O O8 0.773921 0.748444 0.127964
O O9 0.067420 0.790202 0.196356
O O10 0.750000 0.750000 0.000000
O O11 0.928665 0.312019 0.380842
O O12 0.329731 0.526028 0.140159
O O13 0.218740 0.612005 0.997583
O O14 0.583798 0.177123 0.841541
O O15 0.250000 0.750000 0.000000
#
# Coordination Sequence:
#
# PCOD8133660 Si02
#       8
#     8   8   8   8   8   4   8   4
#     4  10  19  34  54  75 112 146 178 230 273 325
#     4   9  16  34  51  80 108 137 175 227 275 328
#     4  11  21  35  53  76 111 143 184 230 266 324
#     4  10  21  32  54  82 107 141 186 217 282 322
#     4  10  20  34  54  80 111 147 183 225 286 324
#     4   9  20  30  58  84 110 135 180 238 279 330
#     4  11  20  35  58  85 111 142 185 236 279 324
#     4   9  18  32  52  82 110 135 182 224 283 326
#
# _framework density 18.259468999999999
#
# number of rings (size 3 to 8) (size 9 to 14) (size 15 to 20)
#    0.000    2.000    2.857    3.429    0.000    1.143 
#    2.571    0.000    3.143    0.000    0.000    6.000 
#    0.000    0.000    0.000    0.000    0.000    0.000 
#
# Total GULP energy -346913.645995 kJ/mol
# GULP energy per Si atom -12389.773071 kJ/mol
# Density = 1.821791 g / cm^3
# Si number density = 18.259469 Si / 1000 Ang^3
#
#
#
# Elastic Constant Matrix: (Units=GPa)
#
#
# Indices 1 2 3 4 5 6 
#
# 1 72.1554 26.1513 36.5791 0.0005 -1.1978 -0.0001
# 2 26.1513 100.8644 40.6686 0.0005 -7.7454 0.0000
# 3 36.5791 40.6686 102.7076 0.0019 -2.2485 0.0000
# 4 0.0005 0.0005 0.0019 19.4641 0.0005 -1.7905
# 5 -1.1978 -7.7454 -2.2485 0.0005 34.6837 -0.0001
# 6 -0.0001 0.0000 0.0000 -1.7905 -0.0001 20.7104
#
#
#
# Elastic Compliance Matrix: (Units=1/GPa)
#
#
# Indices 1 2 3 4 5 6 
#
# 1 0.017387 -0.002416 -0.005242 0.000000 -0.000279 0.000000
# 2 -0.002416 0.012325 -0.003967 0.000000 0.002412 0.000000
# 3 -0.005242 -0.003967 0.013170 -0.000001 -0.000213 0.000000
# 4 0.000000 0.000000 -0.000001 0.051789 -0.000001 0.004477
# 5 -0.000279 0.002412 -0.000213 -0.000001 0.029347 0.000000
# 6 0.000000 0.000000 0.000000 0.004477 0.000000 0.048672
#
#
# Mechanical properties :
#
#
# Convention : Reuss Voigt Hill
#
# Bulk Modulus (GPa) = 50.93690 53.61393 52.27541
# Shear Modulus (GPa) = 24.69328 26.46020 25.57674
#
# Velocity S-wave (km/s) = 3.68143 3.81086 3.74670
# Velocity P-wave (km/s) = 6.78434 6.98495 6.88538
#
# Compressibility (1/GPa) = 0.01963213
#
# Stress axis : x y z
#
# Youngs Moduli (GPa) = 57.51311 81.13279 75.93302
#
# Poissons Ratio (x) = 0.19601 0.39804
# Poissons Ratio (y) = 0.13895 0.30124
# Poissons Ratio (z) = 0.30148 0.32187
#
# Static dielectric constant tensor:
#      x y z
#    x 3.417130 0.000000 0.125410 
#    y 0.000000 3.269360 0.000000 
#    z 0.125410 0.000000 3.716620 
# 
# 
# High freq. dielectric constant tensor:
#      x y z
#    x 1.696830 0.000000 0.017450 
#    y 0.000000 1.682590 0.000000 
#    z 0.017450 0.000000 1.711040 
# 
# From -- ./inp_files/240311.got.cif
#   From: 2010.06.25/outbox.cif.g09.slc.cpg/sg15_121_cif.got.tgz:240311.got - 2010.06.28 07:06:18.
