data_PCOD8133036
_publ_section_title
;
Structure prediction by ZEFSAII (Michael W. Deem and Ramdas Pophale) SiO2 
 PCOD8133036
Probable space group: C 2/C
;
_chemical_formula_sum "Si O2"
_cell_formula_units_Z 52
_cell_length_a 15.099921
_cell_length_b 27.182185
_cell_length_c 8.875162
_cell_angle_alpha 90.000000
_cell_angle_beta 138.430856
_cell_angle_gamma 90.000000
_cell_volume 2417.083036
_symmetry_space_group_name_H-M "C 2/C"
_symmetry_group_IT_number 15
_symmetry_cell_setting 'monoclinic'
loop_
_space_group_symop_operation_xyz
x,y,z
-x,y,1/2-z
-x,-y,-z
x,-y,1/2+z
1/2+x,1/2+y,z
1/2-x,1/2+y,1/2-z
1/2-x,1/2-y,-z
1/2+x,1/2-y,1/2+z
loop_
_atom_site_type_symbol
_atom_site_label
_atom_site_fract_x
_atom_site_fract_y
_atom_site_fract_z
Si Si1 0.462508 0.792782 0.527366
Si Si2 0.414908 0.964119 0.997609
Si Si3 0.731020 0.358102 0.302131
Si Si4 0.318995 0.463889 0.277901
Si Si5 0.041002 0.818299 0.475768
Si Si6 0.000000 0.988055 0.250000
Si Si7 0.310290 0.138868 0.248056
O O1 0.500000 0.792941 0.750000
O O2 0.323528 0.821500 0.324415
O O3 0.443144 0.737407 0.444114
O O4 0.576006 0.820408 0.573980
O O5 0.366038 0.915617 0.848921
O O6 0.285174 0.993135 0.890303
O O7 0.500000 0.947838 0.250000
O O8 0.500000 0.000000 0.000000
O O9 0.755825 0.413521 0.274852
O O10 0.576517 0.343989 0.079024
O O11 0.771996 0.355929 0.526853
O O12 0.406831 0.454145 0.237682
O O13 0.412019 0.476796 0.535296
O O14 0.178571 0.848394 0.678732
O O15 0.000000 0.817321 0.250000
#
# Coordination Sequence:
#
# PCOD8133036 Si02
#       7
#     8   8   8   8   8   4   8
#     4   9  17  32  51  83 118 152 192 244 296 348
#     4  12  25  42  62  88 122 160 202 245 296 364
#     4  10  19  31  56  84 117 150 195 245 299 348
#     4  11  23  39  59  87 117 157 195 245 297 355
#     4   9  18  30  52  84 117 148 194 249 296 342
#     4  10  24  38  60  82 122 150 196 244 298 350
#     4  10  20  33  56  83 115 155 195 242 298 351
#
# _framework density 21.513535000000001
#
# number of rings (size 3 to 8) (size 9 to 14) (size 15 to 20)
#    0.000    1.846    0.000    4.615    7.538    4.923 
#    0.000    0.000    0.000    0.923    4.000    0.000 
#    0.000    0.000    0.000    0.000    0.000    0.000 
#
# Total GULP energy -322406.507800 kJ/mol
# GULP energy per Si atom -12400.250300 kJ/mol
# Density = 2.146457 g / cm^3
# Si number density = 21.513535 Si / 1000 Ang^3
#
#
#
# Elastic Constant Matrix: (Units=GPa)
#
#
# Indices 1 2 3 4 5 6 
#
# 1 69.3611 32.7827 49.3359 0.0000 29.9015 0.0000
# 2 32.7827 141.8400 30.5281 0.0000 24.1257 0.0000
# 3 49.3359 30.5281 70.1380 0.0000 28.9784 0.0000
# 4 0.0000 0.0000 0.0000 -4.1797 0.0000 32.7095
# 5 29.9015 24.1257 28.9784 0.0000 34.6517 0.0000
# 6 0.0000 0.0000 0.0000 32.7095 0.0000 23.9927
#
#
#
# Elastic Compliance Matrix: (Units=1/GPa)
#
#
# Indices 1 2 3 4 5 6 
#
# 1 0.032980 -0.001741 -0.017087 0.000000 -0.012957 0.000000
# 2 -0.001741 0.008241 -0.000936 0.000000 -0.003453 0.000000
# 3 -0.017087 -0.000936 0.031052 0.000000 -0.010572 0.000000
# 4 0.000000 0.000000 0.000000 -0.020503 0.000000 0.027952
# 5 -0.012957 -0.003453 -0.010572 0.000000 0.051284 0.000000
# 6 0.000000 0.000000 0.000000 0.027952 0.000000 0.003572
#
#
# Mechanical properties :
#
#
# Convention : Reuss Voigt Hill
#
# Bulk Modulus (GPa) = 30.53883 56.29249 43.41566
# Shear Modulus (GPa) = 31.83295 22.13910 26.98602
#
# Velocity S-wave (km/s) = 3.85082 3.21140 3.54556
# Velocity P-wave (km/s) = 5.83076 6.32248 6.08159
#
# Compressibility (1/GPa) = 0.03274520
#
# Stress axis : x y z
#
# Youngs Moduli (GPa) = 30.32141 121.33991 32.20380
#
# Poissons Ratio (x) = 0.21124 0.55028
# Poissons Ratio (y) = 0.05279 0.03014
# Poissons Ratio (z) = 0.51811 0.11356
#
# Static dielectric constant tensor:
#      x y z
#    x 3.972650 0.000000 0.538840 
#    y 0.000000 3.956610 0.000000 
#    z 0.538840 0.000000 3.800850 
# 
# 
# High freq. dielectric constant tensor:
#      x y z
#    x 1.828230 0.000000 0.040200 
#    y 0.000000 1.855320 0.000000 
#    z 0.040200 0.000000 1.824520 
# 
# From -- ./inp_files/44921.got.cif
#   From: 2010.06.25/outbox.cif.g09.slc.cpg/sg15_23_cif.got.tgz:44921.got - 2010.06.28 07:06:18.
