data_PCOD8133623
_publ_section_title
;
Structure prediction by ZEFSAII (Michael W. Deem and Ramdas Pophale) SiO2 
 PCOD8133623
Probable space group: C 2/C
;
_chemical_formula_sum "Si O2"
_cell_formula_units_Z 48
_cell_length_a 12.188631
_cell_length_b 29.647015
_cell_length_c 10.207711
_cell_angle_alpha 90.000000
_cell_angle_beta 50.771154
_cell_angle_gamma 90.000000
_cell_volume 2857.303972
_symmetry_space_group_name_H-M "C 2/C"
_symmetry_group_IT_number 15
_symmetry_cell_setting 'monoclinic'
loop_
_space_group_symop_operation_xyz
x,y,z
-x,y,1/2-z
-x,-y,-z
x,-y,1/2+z
1/2+x,1/2+y,z
1/2-x,1/2+y,1/2-z
1/2-x,1/2-y,-z
1/2+x,1/2-y,1/2+z
loop_
_atom_site_type_symbol
_atom_site_label
_atom_site_fract_x
_atom_site_fract_y
_atom_site_fract_z
Si Si1 0.674483 0.713698 0.742739
Si Si2 0.650648 0.610212 0.472533
Si Si3 0.600032 0.949790 0.792320
Si Si4 0.418084 0.946012 0.185317
Si Si5 0.175625 0.887715 0.258115
Si Si6 0.368531 0.288377 0.532218
O O1 0.730031 0.663685 0.733829
O O2 0.645454 0.719541 0.611401
O O3 0.534200 0.719824 0.936663
O O4 0.786585 0.753333 0.689003
O O5 0.749275 0.575883 0.317561
O O6 0.483986 0.603334 0.570843
O O7 0.684463 0.600603 0.598530
O O8 0.686711 0.661029 0.398084
O O9 0.500000 0.932132 0.750000
O O10 0.630011 0.002683 0.754317
O O11 0.522805 0.939603 0.985595
O O12 0.500000 0.927185 0.250000
O O13 0.274923 0.918639 0.270937
#
# Coordination Sequence:
#
# PCOD8133623 Si02
#       6
#     8   8   8   8   8   8
#     4   8  14  24  39  63  99 125 153 193 243 289
#     4   9  17  30  50  73  99 128 167 204 246 294
#     4  10  19  34  52  73  96 129 172 209 245 292
#     4  10  21  34  50  72 101 130 165 209 251 294
#     4   9  17  31  49  71 100 134 161 203 251 291
#     4   8  14  24  38  67  97 123 153 197 242 284
#
# _framework density 16.799053000000001
#
# number of rings (size 3 to 8) (size 9 to 14) (size 15 to 20)
#    0.000    3.000    1.667    2.000    0.000    2.000 
#    3.000    0.833    0.000    0.000    0.000   10.500 
#    0.000    0.000    0.000    0.000    0.000    0.000 
#
# Total GULP energy -297417.595611 kJ/mol
# GULP energy per Si atom -12392.399817 kJ/mol
# Density = 1.676082 g / cm^3
# Si number density = 16.799053 Si / 1000 Ang^3
#
#
#
# Elastic Constant Matrix: (Units=GPa)
#
#
# Indices 1 2 3 4 5 6 
#
# 1 86.5209 50.3022 36.6734 0.0000 -9.5140 0.0000
# 2 50.3022 97.8516 57.8687 0.0000 -22.5506 0.0000
# 3 36.6734 57.8687 74.2655 0.0000 -16.6801 0.0000
# 4 0.0000 0.0000 0.0000 29.4802 0.0000 -11.0739
# 5 -9.5140 -22.5506 -16.6801 0.0000 23.2742 0.0000
# 6 0.0000 0.0000 0.0000 -11.0739 0.0000 21.0466
#
#
#
# Elastic Compliance Matrix: (Units=1/GPa)
#
#
# Indices 1 2 3 4 5 6 
#
# 1 0.016930 -0.007429 -0.003139 0.000000 -0.002527 0.000000
# 2 -0.007429 0.024056 -0.012542 0.000000 0.011283 0.000000
# 3 -0.003139 -0.012542 0.025947 0.000000 0.005161 0.000000
# 4 0.000000 0.000000 0.000000 0.042277 0.000000 0.022244
# 5 -0.002527 0.011283 0.005161 0.000000 0.056563 0.000000
# 6 0.000000 0.000000 0.000000 0.022244 0.000000 0.059218
#
#
# Mechanical properties :
#
#
# Convention : Reuss Voigt Hill
#
# Bulk Modulus (GPa) = 48.27921 60.92517 54.60219
# Shear Modulus (GPa) = 17.97813 22.34644 20.16229
#
# Velocity S-wave (km/s) = 3.27492 3.65118 3.46815
# Velocity P-wave (km/s) = 6.56519 7.35667 6.97217
#
# Compressibility (1/GPa) = 0.02071285
#
# Stress axis : x y z
#
# Youngs Moduli (GPa) = 59.06793 41.56953 38.53961
#
# Poissons Ratio (x) = 0.30882 0.12097
# Poissons Ratio (y) = 0.43882 0.48337
# Poissons Ratio (z) = 0.18541 0.52137
#
# Static dielectric constant tensor:
#      x y z
#    x 2.950060 0.000000 -0.337620 
#    y 0.000000 3.244150 0.000000 
#    z -0.337620 0.000000 3.213040 
# 
# 
# High freq. dielectric constant tensor:
#      x y z
#    x 1.611470 0.000000 -0.027160 
#    y 0.000000 1.650440 0.000000 
#    z -0.027160 0.000000 1.635590 
# 
# From -- ./inp_files/44653.got.cif
#   From: 2010.06.25/outbox.cif.g09.slc.cpg/sg15_23_cif.got.tgz:44653.got - 2010.06.28 07:06:18.
