data_PCOD8133874
_publ_section_title
;
Structure prediction by ZEFSAII (Michael W. Deem and Ramdas Pophale) SiO2 
 PCOD8133874
Probable space group: C 2/C
;
_chemical_formula_sum "Si O2"
_cell_formula_units_Z 56
_cell_length_a 18.966072
_cell_length_b 19.099405
_cell_length_c 18.026323
_cell_angle_alpha 90.000000
_cell_angle_beta 151.673253
_cell_angle_gamma 90.000000
_cell_volume 3098.416894
_symmetry_space_group_name_H-M "C 2/C"
_symmetry_group_IT_number 15
_symmetry_cell_setting 'monoclinic'
loop_
_space_group_symop_operation_xyz
x,y,z
-x,y,1/2-z
-x,-y,-z
x,-y,1/2+z
1/2+x,1/2+y,z
1/2-x,1/2+y,1/2-z
1/2-x,1/2-y,-z
1/2+x,1/2-y,1/2+z
loop_
_atom_site_type_symbol
_atom_site_label
_atom_site_fract_x
_atom_site_fract_y
_atom_site_fract_z
Si Si1 0.142555 0.774165 0.837644
Si Si2 0.585779 0.666532 0.565023
Si Si3 0.296129 0.575175 0.115517
Si Si4 0.898481 0.560416 0.438328
Si Si5 0.410164 0.802517 0.357570
Si Si6 0.384327 0.445702 0.926889
Si Si7 0.115817 0.056109 0.461624
O O1 0.207598 0.843754 0.858830
O O2 0.112744 0.711849 0.751760
O O3 0.000000 0.801211 0.750000
O O4 0.250000 0.750000 0.000000
O O5 0.496526 0.736993 0.469402
O O6 0.748915 0.686591 0.746993
O O7 0.485576 0.623779 0.531832
O O8 0.612634 0.622438 0.514127
O O9 0.162205 0.537766 0.036180
O O10 0.450118 0.539298 0.280754
O O11 0.274945 0.571466 0.006791
O O12 0.755424 0.573455 0.253958
O O13 0.000000 0.500000 0.500000
O O14 0.996034 0.629170 0.538134
O O15 0.500000 0.500000 0.000000
O O16 0.324502 0.483701 0.945808
#
# Coordination Sequence:
#
# PCOD8133874 Si02
#       7
#     8   8   8   8   8   8   8
#     4  12  21  33  51  79 116 155 186 224 274 337
#     4  11  20  36  54  80 113 149 193 232 282 334
#     4  11  19  35  55  82 113 149 195 227 276 347
#     4  12  24  37  54  81 116 152 195 242 286 342
#     4  12  23  34  53  80 113 155 193 235 279 337
#     4  10  19  37  56  76 111 149 193 240 284 332
#     4  10  19  34  59  80 111 153 191 231 282 335
#
# _framework density 18.073746
#
# number of rings (size 3 to 8) (size 9 to 14) (size 15 to 20)
#    0.000    0.857    5.714    6.000    0.000    0.000 
#    0.000    3.571    0.000    0.000    0.000    1.000 
#    0.000    0.000    0.000    0.000    0.000    0.000 
#
# Total GULP energy -346960.563783 kJ/mol
# GULP energy per Si atom -12391.448707 kJ/mol
# Density = 1.803261 g / cm^3
# Si number density = 18.073746 Si / 1000 Ang^3
#
#
#
# Elastic Constant Matrix: (Units=GPa)
#
#
# Indices 1 2 3 4 5 6 
#
# 1 86.4429 62.2488 33.1380 -0.0008 12.9098 -0.0003
# 2 62.2488 118.4274 52.4019 0.0001 1.6579 -0.0001
# 3 33.1380 52.4019 106.8575 -0.0021 11.0032 -0.0015
# 4 -0.0008 0.0001 -0.0021 38.0057 -0.0013 -1.2252
# 5 12.9098 1.6579 11.0032 -0.0013 28.7433 -0.0008
# 6 -0.0003 -0.0001 -0.0015 -1.2252 -0.0008 29.2163
#
#
#
# Elastic Compliance Matrix: (Units=1/GPa)
#
#
# Indices 1 2 3 4 5 6 
#
# 1 0.020552 -0.010537 -0.000331 0.000000 -0.008496 0.000000
# 2 -0.010537 0.016246 -0.005299 0.000000 0.005824 0.000000
# 3 -0.000331 -0.005299 0.012506 0.000001 -0.004333 0.000001
# 4 0.000000 0.000000 0.000001 0.026347 0.000001 0.001105
# 5 -0.008496 0.005824 -0.004333 0.000001 0.039929 0.000001
# 6 0.000000 0.000000 0.000001 0.001105 0.000001 0.034274
#
#
# Mechanical properties :
#
#
# Convention : Reuss Voigt Hill
#
# Bulk Modulus (GPa) = 58.93098 67.47836 63.20467
# Shear Modulus (GPa) = 26.61763 30.12233 28.36998
#
# Velocity S-wave (km/s) = 3.84177 4.08687 3.96622
# Velocity P-wave (km/s) = 7.23572 7.72568 7.48471
#
# Compressibility (1/GPa) = 0.01696900
#
# Stress axis : x y z
#
# Youngs Moduli (GPa) = 48.65631 61.55448 79.96426
#
# Poissons Ratio (x) = 0.64862 0.02649
# Poissons Ratio (y) = 0.51271 0.42371
# Poissons Ratio (z) = 0.01612 0.32616
#
# Static dielectric constant tensor:
#      x y z
#    x 3.753860 0.000010 0.000410 
#    y 0.000010 3.850210 -0.000010 
#    z 0.000410 -0.000010 3.591460 
# 
# 
# High freq. dielectric constant tensor:
#      x y z
#    x 1.669690 0.000000 0.017640 
#    y 0.000000 1.691250 0.000000 
#    z 0.017640 0.000000 1.708260 
# 
# From -- ./inp_files/211894.got.cif
#   From: 2010.06.25/outbox.cif.g09.slc.cpg/sg15_106_cif.got.tgz:211894.got - 2010.06.28 07:06:18.
