data_PCOD8133499
_publ_section_title
;
Structure prediction by ZEFSAII (Michael W. Deem and Ramdas Pophale) SiO2 
 PCOD8133499
Probable space group: C 2/C
;
_chemical_formula_sum "Si O2"
_cell_formula_units_Z 32
_cell_length_a 14.962177
_cell_length_b 9.552796
_cell_length_c 12.460684
_cell_angle_alpha 90.000000
_cell_angle_beta 90.740693
_cell_angle_gamma 90.000000
_cell_volume 1780.864527
_symmetry_space_group_name_H-M "C 2/C"
_symmetry_group_IT_number 15
_symmetry_cell_setting 'monoclinic'
loop_
_space_group_symop_operation_xyz
x,y,z
-x,y,1/2-z
-x,-y,-z
x,-y,1/2+z
1/2+x,1/2+y,z
1/2-x,1/2+y,1/2-z
1/2-x,1/2-y,-z
1/2+x,1/2-y,1/2+z
loop_
_atom_site_type_symbol
_atom_site_label
_atom_site_fract_x
_atom_site_fract_y
_atom_site_fract_z
Si Si1 0.809730 0.752811 0.350667
Si Si2 0.527500 0.848497 0.538707
Si Si3 0.639575 0.363410 0.934110
Si Si4 0.581101 0.643273 0.830275
O O1 0.889276 0.640064 0.375995
O O2 0.712822 0.679949 0.345561
O O3 0.812283 0.868719 0.447369
O O4 0.829299 0.823535 0.236128
O O5 0.559807 0.752326 0.438213
O O6 0.443582 0.775479 0.595926
O O7 0.500000 0.000000 0.500000
O O8 0.598560 0.512958 0.907765
O O9 0.500000 0.603818 0.750000
#
# Coordination Sequence:
#
# PCOD8133499 Si02
#       4
#     8   8   8   8
#     4   8  19  35  55  72 106 138 166 213 263 296
#     4   9  18  33  53  74 105 133 168 215 258 295
#     4   9  18  36  55  72 104 140 169 214 254 312
#     4  10  19  33  57  77 100 140 178 208 256 312
#
# _framework density 17.968800999999999
#
# number of rings (size 3 to 8) (size 9 to 14) (size 15 to 20)
#    1.500    1.500    0.000    0.750    0.000    2.000 
#    0.000    7.500    0.000    0.000    0.000    0.000 
#    0.000    0.000    0.000    0.000    0.000    0.000 
#
# Total GULP energy -198223.504784 kJ/mol
# GULP energy per Si atom -12388.969049 kJ/mol
# Density = 1.792790 g / cm^3
# Si number density = 17.968801 Si / 1000 Ang^3
#
#
#
# Elastic Constant Matrix: (Units=GPa)
#
#
# Indices 1 2 3 4 5 6 
#
# 1 66.4994 39.8263 40.1520 0.0000 -33.3739 0.0000
# 2 39.8263 133.7233 57.6935 0.0000 -10.7356 0.0000
# 3 40.1520 57.6935 59.9285 0.0000 -24.4699 0.0000
# 4 0.0000 0.0000 0.0000 23.6892 0.0000 -2.3302
# 5 -33.3739 -10.7356 -24.4699 0.0000 36.6747 0.0000
# 6 0.0000 0.0000 0.0000 -2.3302 0.0000 14.4737
#
#
#
# Elastic Compliance Matrix: (Units=1/GPa)
#
#
# Indices 1 2 3 4 5 6 
#
# 1 0.036252 -0.004697 -0.009427 0.000000 0.025325 0.000000
# 2 -0.004697 0.014493 -0.014870 0.000000 -0.009953 0.000000
# 3 -0.009427 -0.014870 0.044035 0.000000 0.016449 0.000000
# 4 0.000000 0.000000 0.000000 0.042893 0.000000 0.006906
# 5 0.025325 -0.009953 0.016449 0.000000 0.058374 0.000000
# 6 0.000000 0.000000 0.000000 0.006906 0.000000 0.070203
#
#
# Mechanical properties :
#
#
# Convention : Reuss Voigt Hill
#
# Bulk Modulus (GPa) = 27.17909 59.49943 43.33926
# Shear Modulus (GPa) = 14.85881 23.13280 18.99580
#
# Velocity S-wave (km/s) = 2.87875 3.59191 3.25492
# Velocity P-wave (km/s) = 5.11939 7.09838 6.18850
#
# Compressibility (1/GPa) = 0.03679299
#
# Stress axis : x y z
#
# Youngs Moduli (GPa) = 27.58472 68.99678 22.70939
#
# Poissons Ratio (x) = 0.32405 0.21408
# Poissons Ratio (y) = 0.12955 0.33769
# Poissons Ratio (z) = 0.26004 1.02599
#
# Static dielectric constant tensor:
#      x y z
#    x 3.301750 0.000000 -0.359280 
#    y 0.000000 2.900180 0.000000 
#    z -0.359280 0.000000 3.183250 
# 
# 
# High freq. dielectric constant tensor:
#      x y z
#    x 1.691430 0.000000 -0.035730 
#    y 0.000000 1.668770 0.000000 
#    z -0.035730 0.000000 1.676710 
# 
# From -- ./inp_files/121031.got.cif
#   From: 2010.06.25/outbox.cif.g09.slc.cpg/sg15_61_cif.got.tgz:121031.got - 2010.06.28 07:06:18.
