data_PCOD8133846
_publ_section_title
;
Structure prediction by ZEFSAII (Michael W. Deem and Ramdas Pophale) SiO2 
 PCOD8133846
Probable space group: C 2/C
;
_chemical_formula_sum "Si O2"
_cell_formula_units_Z 32
_cell_length_a 7.881029
_cell_length_b 35.078140
_cell_length_c 5.225985
_cell_angle_alpha 90.000000
_cell_angle_beta 85.223460
_cell_angle_gamma 90.000000
_cell_volume 1439.715658
_symmetry_space_group_name_H-M "C 2/C"
_symmetry_group_IT_number 15
_symmetry_cell_setting 'monoclinic'
loop_
_space_group_symop_operation_xyz
x,y,z
-x,y,1/2-z
-x,-y,-z
x,-y,1/2+z
1/2+x,1/2+y,z
1/2-x,1/2+y,1/2-z
1/2-x,1/2-y,-z
1/2+x,1/2-y,1/2+z
loop_
_atom_site_type_symbol
_atom_site_label
_atom_site_fract_x
_atom_site_fract_y
_atom_site_fract_z
Si Si1 0.309931 0.484612 0.081406
Si Si2 0.798213 0.357249 0.773618
Si Si3 0.197737 0.272632 0.752264
Si Si4 0.297351 0.902377 0.277416
O O1 0.218006 0.510212 0.316548
O O2 0.304438 0.441780 0.186454
O O3 0.500000 0.500000 0.000000
O O4 0.718005 0.314719 0.770183
O O5 0.736114 0.377971 0.526359
O O6 0.000000 0.354959 0.750000
O O7 0.735273 0.380254 0.031327
O O8 0.250000 0.250000 0.500000
O O9 0.000000 0.278487 0.750000
O O10 0.250000 0.250000 0.000000
O O11 0.500000 0.909866 0.250000
#
# Coordination Sequence:
#
# PCOD8133846 Si02
#       4
#     8   8   8   8
#     4  10  21  36  55  75 110 149 191 230 306 363
#     4   9  19  35  58  88 114 154 195 245 310 353
#     4  11  22  39  66  92 131 169 211 261 315 382
#     4  10  19  34  58  84 111 143 201 254 291 352
#
# _framework density 22.226611999999999
#
# number of rings (size 3 to 8) (size 9 to 14) (size 15 to 20)
#    0.000    2.000    0.000    3.750    0.000    5.000 
#    0.000    0.000   55.000    0.000    0.000    0.000 
#    0.000    0.000    0.000    0.000    0.000    0.000 
#
# Total GULP energy -198268.870092 kJ/mol
# GULP energy per Si atom -12391.804381 kJ/mol
# Density = 2.217602 g / cm^3
# Si number density = 22.226612 Si / 1000 Ang^3
#
#
#
# Elastic Constant Matrix: (Units=GPa)
#
#
# Indices 1 2 3 4 5 6 
#
# 1 35.0183 25.1304 18.2469 0.0000 4.5963 0.0000
# 2 25.1304 226.5187 121.9787 0.0000 1.5254 0.0000
# 3 18.2469 121.9787 257.4256 0.0000 27.7404 0.0000
# 4 0.0000 0.0000 0.0000 52.7047 0.0000 -0.4391
# 5 4.5963 1.5254 27.7404 0.0000 19.9523 0.0000
# 6 0.0000 0.0000 0.0000 -0.4391 0.0000 28.5230
#
#
#
# Elastic Compliance Matrix: (Units=1/GPa)
#
#
# Indices 1 2 3 4 5 6 
#
# 1 0.032013 -0.003641 0.000260 0.000000 -0.007458 0.000000
# 2 -0.003641 0.006635 -0.003436 0.000000 0.005109 0.000000
# 3 0.000260 -0.003436 0.006437 0.000000 -0.008747 0.000000
# 4 0.000000 0.000000 0.000000 0.018976 0.000000 0.000292
# 5 -0.007458 0.005109 -0.008747 0.000000 0.063608 0.000000
# 6 0.000000 0.000000 0.000000 0.000292 0.000000 0.035064
#
#
# Mechanical properties :
#
#
# Convention : Reuss Voigt Hill
#
# Bulk Modulus (GPa) = 31.79713 94.40825 63.10269
# Shear Modulus (GPa) = 26.75935 43.80978 35.28456
#
# Velocity S-wave (km/s) = 3.47354 4.44447 3.98866
# Velocity P-wave (km/s) = 5.51582 8.30092 7.04732
#
# Compressibility (1/GPa) = 0.03144938
#
# Stress axis : x y z
#
# Youngs Moduli (GPa) = 31.23723 150.72550 155.35300
#
# Poissons Ratio (x) = 0.54884 -0.04037
# Poissons Ratio (y) = 0.11374 0.53382
# Poissons Ratio (z) = -0.00812 0.51792
#
# Static dielectric constant tensor:
#      x y z
#    x 3.194610 0.000000 -0.925350 
#    y 0.000000 4.428550 0.000000 
#    z -0.925350 0.000000 1.371230 
# 
# 
# High freq. dielectric constant tensor:
#      x y z
#    x 1.835630 0.000000 0.011000 
#    y 0.000000 1.890210 0.000000 
#    z 0.011000 0.000000 1.906630 
# 
# From -- ./inp_files/2368.got.cif
#   From: 2010.06.25/outbox.cif.g09.slc.cpg/sg15_2_cif.got.tgz:2368.got - 2010.06.28 07:06:18.
