data_PCOD8133853
_publ_section_title
;
Structure prediction by ZEFSAII (Michael W. Deem and Ramdas Pophale) SiO2 
 PCOD8133853
Probable space group: C 2/C
;
_chemical_formula_sum "Si O2"
_cell_formula_units_Z 60
_cell_length_a 8.218431
_cell_length_b 22.204107
_cell_length_c 17.630818
_cell_angle_alpha 90.000000
_cell_angle_beta 91.627376
_cell_angle_gamma 90.000000
_cell_volume 3216.025498
_symmetry_space_group_name_H-M "C 2/C"
_symmetry_group_IT_number 15
_symmetry_cell_setting 'monoclinic'
loop_
_space_group_symop_operation_xyz
x,y,z
-x,y,1/2-z
-x,-y,-z
x,-y,1/2+z
1/2+x,1/2+y,z
1/2-x,1/2+y,1/2-z
1/2-x,1/2-y,-z
1/2+x,1/2-y,1/2+z
loop_
_atom_site_type_symbol
_atom_site_label
_atom_site_fract_x
_atom_site_fract_y
_atom_site_fract_z
Si Si1 0.182543 0.192115 0.961495
Si Si2 0.724068 0.047780 0.377520
Si Si3 0.500000 0.096159 0.250000
Si Si4 0.942125 0.191024 0.834194
Si Si5 0.330897 0.179420 0.367511
Si Si6 0.027807 0.121796 0.433379
Si Si7 0.473124 0.116472 0.005276
Si Si8 0.283244 0.582585 0.925708
O O1 0.113351 0.204338 0.877433
O O2 0.250000 0.250000 0.000000
O O3 0.320455 0.141600 0.956937
O O4 0.035706 0.173945 0.013645
O O5 0.630914 0.055215 0.296347
O O6 0.593650 0.062741 0.442024
O O7 0.882056 0.090972 0.384627
O O8 0.793549 0.980601 0.382722
O O9 0.401925 0.139757 0.302365
O O10 0.828953 0.250370 0.842831
O O11 0.850528 0.133636 0.869500
O O12 0.000000 0.177474 0.750000
O O13 0.148680 0.154891 0.377064
O O14 0.439696 0.169240 0.444488
O O15 0.120423 0.076419 0.492705
O O16 0.594648 0.092988 0.942859
#
# Coordination Sequence:
#
# PCOD8133853 Si02
#       8
#     8   8   4   8   8   8   8   8
#     4  10  19  34  58  87 113 147 195 240 290 340
#     4  10  20  40  58  86 118 148 196 238 295 342
#     4  10  22  38  58  78 114 158 186 238 284 350
#     4  11  23  38  55  82 126 161 181 237 302 357
#     4  10  19  37  59  85 112 146 197 236 295 337
#     4   9  21  34  62  88 106 146 197 252 282 333
#     4   9  19  35  63  88 106 148 196 250 281 334
#     4  10  21  38  60  86 117 150 195 236 296 349
#
# _framework density 18.656568
#
# number of rings (size 3 to 8) (size 9 to 14) (size 15 to 20)
#    0.000    2.133    2.000    0.800    1.867    2.133 
#    4.800    0.000    0.000    0.000    0.000    0.000 
#    0.000    0.000    0.000    0.000    0.000    0.000 
#
# Total GULP energy -371896.721686 kJ/mol
# GULP energy per Si atom -12396.557390 kJ/mol
# Density = 1.861411 g / cm^3
# Si number density = 18.656568 Si / 1000 Ang^3
#
#
#
# Elastic Constant Matrix: (Units=GPa)
#
#
# Indices 1 2 3 4 5 6 
#
# 1 112.7071 30.1510 51.5977 0.0000 -1.6861 0.0000
# 2 30.1510 98.7533 39.5288 0.0000 5.9258 0.0000
# 3 51.5977 39.5288 100.5985 0.0000 9.8208 0.0000
# 4 0.0000 0.0000 0.0000 21.1586 0.0000 4.1317
# 5 -1.6861 5.9258 9.8208 0.0000 29.9020 0.0000
# 6 0.0000 0.0000 0.0000 4.1317 0.0000 10.2439
#
#
#
# Elastic Compliance Matrix: (Units=1/GPa)
#
#
# Indices 1 2 3 4 5 6 
#
# 1 0.011992 -0.001495 -0.005846 0.000000 0.002892 0.000000
# 2 -0.001495 0.012224 -0.003917 0.000000 -0.001220 0.000000
# 3 -0.005846 -0.003917 0.014913 0.000000 -0.004451 0.000000
# 4 0.000000 0.000000 0.000000 0.051303 0.000000 -0.020692
# 5 0.002892 -0.001220 -0.004451 0.000000 0.035309 0.000000
# 6 0.000000 0.000000 0.000000 -0.020692 0.000000 0.105964
#
#
# Mechanical properties :
#
#
# Convention : Reuss Voigt Hill
#
# Bulk Modulus (GPa) = 60.19572 61.62377 60.90975
# Shear Modulus (GPa) = 19.24865 24.97966 22.11415
#
# Velocity S-wave (km/s) = 3.21555 3.66310 3.44659
# Velocity P-wave (km/s) = 6.79128 7.14096 6.96832
#
# Compressibility (1/GPa) = 0.01661248
#
# Stress axis : x y z
#
# Youngs Moduli (GPa) = 83.38937 81.80680 67.05746
#
# Poissons Ratio (x) = 0.12230 0.39200
# Poissons Ratio (y) = 0.12467 0.26268
# Poissons Ratio (z) = 0.48747 0.32046
#
# Static dielectric constant tensor:
#      x y z
#    x 2.493880 0.000000 -1.246990 
#    y 0.000000 3.469850 0.000000 
#    z -1.246990 0.000000 1.745140 
# 
# 
# High freq. dielectric constant tensor:
#      x y z
#    x 1.735190 0.000000 0.002340 
#    y 0.000000 1.719990 0.000000 
#    z 0.002340 0.000000 1.710340 
# 
# From -- ./inp_files/192217.got.cif
#   From: 2010.06.25/outbox.cif.g09.slc.cpg/sg15_97_cif.got.tgz:192217.got - 2010.06.28 07:06:18.
