data_PCOD8133694
_publ_section_title
;
Structure prediction by ZEFSAII (Michael W. Deem and Ramdas Pophale) SiO2 
 PCOD8133694
Probable space group: C 2/C
;
_chemical_formula_sum "Si O2"
_cell_formula_units_Z 56
_cell_length_a 8.204352
_cell_length_b 21.500580
_cell_length_c 18.367734
_cell_angle_alpha 90.000000
_cell_angle_beta 84.885930
_cell_angle_gamma 90.000000
_cell_volume 3227.139617
_symmetry_space_group_name_H-M "C 2/C"
_symmetry_group_IT_number 15
_symmetry_cell_setting 'monoclinic'
loop_
_space_group_symop_operation_xyz
x,y,z
-x,y,1/2-z
-x,-y,-z
x,-y,1/2+z
1/2+x,1/2+y,z
1/2-x,1/2+y,1/2-z
1/2-x,1/2-y,-z
1/2+x,1/2-y,1/2+z
loop_
_atom_site_type_symbol
_atom_site_label
_atom_site_fract_x
_atom_site_fract_y
_atom_site_fract_z
Si Si1 0.446259 0.253473 0.054989
Si Si2 0.404349 0.799952 0.411886
Si Si3 0.412606 0.829786 0.828122
Si Si4 0.838441 0.427131 0.462955
Si Si5 0.553838 0.696966 0.326246
Si Si6 0.647310 0.066159 0.057732
Si Si7 0.994286 0.124094 0.025194
O O1 0.253293 0.256760 0.072276
O O2 0.505310 0.223433 0.127030
O O3 0.518234 0.321903 0.035336
O O4 0.498220 0.207958 0.986005
O O5 0.366144 0.872911 0.401200
O O6 0.500152 0.768999 0.341101
O O7 0.500000 0.844784 0.750000
O O8 0.245034 0.798441 0.814521
O O9 0.392152 0.895874 0.868251
O O10 0.836350 0.493276 0.422856
O O11 0.661746 0.415917 0.509062
O O12 0.994072 0.424005 0.510384
O O13 0.500000 0.670931 0.250000
O O14 0.492919 0.652163 0.393769
O O15 0.826416 0.085670 0.019323
#
# Coordination Sequence:
#
# PCOD8133694 Si02
#       7
#     8   8   8   8   8   8   8
#     4   9  17  31  52  78  99 134 163 214 269 295
#     4   9  17  31  53  74 104 130 172 212 253 315
#     4  11  22  33  52  75 111 135 171 223 259 324
#     4  10  19  34  55  76 106 136 173 223 252 305
#     4  10  21  32  51  81 103 141 169 211 281 313
#     4  10  21  33  52  81 102 138 181 207 264 306
#     4   9  20  34  56  79 108 134 174 227 254 318
#
# _framework density 17.352829
#
# number of rings (size 3 to 8) (size 9 to 14) (size 15 to 20)
#    0.000    2.286    1.429    2.143    4.000    1.714 
#    0.000    0.714    0.000    0.000    0.000    1.000 
#    0.000    0.000    0.000    0.000    0.000    0.000 
#
# Total GULP energy -346870.356931 kJ/mol
# GULP energy per Si atom -12388.227033 kJ/mol
# Density = 1.731333 g / cm^3
# Si number density = 17.352829 Si / 1000 Ang^3
#
#
#
# Elastic Constant Matrix: (Units=GPa)
#
#
# Indices 1 2 3 4 5 6 
#
# 1 111.2508 49.2690 36.7561 0.0000 -5.7659 0.0000
# 2 49.2690 121.8321 42.8509 0.0000 -6.7930 0.0000
# 3 36.7561 42.8509 83.4439 0.0000 -2.7429 0.0000
# 4 0.0000 0.0000 0.0000 14.1056 0.0000 -1.5469
# 5 -5.7659 -6.7930 -2.7429 0.0000 24.4075 0.0000
# 6 0.0000 0.0000 0.0000 -1.5469 0.0000 28.2755
#
#
#
# Elastic Compliance Matrix: (Units=1/GPa)
#
#
# Indices 1 2 3 4 5 6 
#
# 1 0.011702 -0.003486 -0.003318 0.000000 0.001421 0.000000
# 2 -0.003486 0.011177 -0.004144 0.000000 0.001821 0.000000
# 3 -0.003318 -0.004144 0.015568 0.000000 -0.000188 0.000000
# 4 0.000000 0.000000 0.000000 0.071322 0.000000 0.003902
# 5 0.001421 0.001821 -0.000188 0.000000 0.041793 0.000000
# 6 0.000000 0.000000 0.000000 0.003902 0.000000 0.035580
#
#
# Mechanical properties :
#
#
# Convention : Reuss Voigt Hill
#
# Bulk Modulus (GPa) = 60.42101 63.80874 62.11488
# Shear Modulus (GPa) = 23.30412 25.86779 24.58596
#
# Velocity S-wave (km/s) = 3.66861 3.86514 3.76816
# Velocity P-wave (km/s) = 7.26909 7.53461 7.40304
#
# Compressibility (1/GPa) = 0.01655053
#
# Stress axis : x y z
#
# Youngs Moduli (GPa) = 85.45200 89.46918 64.23628
#
# Poissons Ratio (x) = 0.31192 0.21312
# Poissons Ratio (y) = 0.29791 0.26621
# Poissons Ratio (z) = 0.28351 0.37078
#
# Static dielectric constant tensor:
#      x y z
#    x 3.466460 0.000000 -0.086010 
#    y 0.000000 3.346280 0.000000 
#    z -0.086010 0.000000 2.826050 
# 
# 
# High freq. dielectric constant tensor:
#      x y z
#    x 1.689490 0.000000 -0.001780 
#    y 0.000000 1.668480 0.000000 
#    z -0.001780 0.000000 1.636670 
# 
# From -- ./inp_files/136435.got.cif
#   From: 2010.06.25/outbox.cif.g09.slc.cpg/sg15_69_cif.got.tgz:136435.got - 2010.06.28 07:06:18.
