data_PCOD8133573
_publ_section_title
;
Structure prediction by ZEFSAII (Michael W. Deem and Ramdas Pophale) SiO2 
 PCOD8133573
Probable space group: C 2/C
;
_chemical_formula_sum "Si O2"
_cell_formula_units_Z 60
_cell_length_a 22.110753
_cell_length_b 22.187362
_cell_length_c 9.332816
_cell_angle_alpha 90.000000
_cell_angle_beta 37.402608
_cell_angle_gamma 90.000000
_cell_volume 2781.027434
_symmetry_space_group_name_H-M "C 2/C"
_symmetry_group_IT_number 15
_symmetry_cell_setting 'monoclinic'
loop_
_space_group_symop_operation_xyz
x,y,z
-x,y,1/2-z
-x,-y,-z
x,-y,1/2+z
1/2+x,1/2+y,z
1/2-x,1/2+y,1/2-z
1/2-x,1/2-y,-z
1/2+x,1/2-y,1/2+z
loop_
_atom_site_type_symbol
_atom_site_label
_atom_site_fract_x
_atom_site_fract_y
_atom_site_fract_z
Si Si1 0.764907 0.326009 0.843270
Si Si2 0.443742 0.880631 0.638464
Si Si3 0.140482 0.621206 0.888786
Si Si4 0.196992 0.805296 0.291737
Si Si5 0.500000 0.636876 0.250000
Si Si6 0.089768 0.507894 0.475969
Si Si7 0.706894 0.444264 0.820922
Si Si8 0.906862 0.032022 0.246622
O O1 0.881373 0.344951 0.637064
O O2 0.768128 0.263608 0.750015
O O3 0.695970 0.374337 0.889809
O O4 0.719442 0.322050 0.086488
O O5 0.552450 0.849306 0.456953
O O6 0.453331 0.951327 0.573789
O O7 0.386456 0.879997 0.894305
O O8 0.244561 0.656847 0.693397
O O9 0.147170 0.552884 0.817528
O O10 0.080383 0.818294 0.528449
O O11 0.444380 0.594542 0.241282
O O12 0.175313 0.544657 0.396598
O O13 0.000000 0.490460 0.750000
O O14 0.674721 0.452495 0.718617
O O15 0.641637 0.488092 0.044204
O O16 0.000000 0.000000 0.000000
#
# Coordination Sequence:
#
# PCOD8133573 Si02
#       8
#     8   8   8   8   4   8   8   8
#     4   9  21  44  66  89 129 175 226 268 333 401
#     4   9  19  35  56  88 119 157 203 261 313 387
#     4  10  19  33  60  86 119 156 213 254 312 386
#     4  10  22  42  67  90 126 182 223 274 327 393
#     4  12  24  42  68 100 136 172 224 282 340 390
#     4  11  22  33  57  91 130 161 195 256 332 392
#     4  11  25  41  68  99 136 172 221 278 340 408
#     4  12  24  43  69 103 135 177 222 283 347 403
#
# _framework density 21.574760000000001
#
# number of rings (size 3 to 8) (size 9 to 14) (size 15 to 20)
#    0.000    1.600    2.667    2.000    5.600    1.067 
#    7.200    0.667    2.933    0.000    0.000    0.000 
#    0.000    0.000    0.000    0.000    0.000    0.000 
#
# Total GULP energy -371758.023054 kJ/mol
# GULP energy per Si atom -12391.934102 kJ/mol
# Density = 2.152565 g / cm^3
# Si number density = 21.574760 Si / 1000 Ang^3
#
#
#
# Elastic Constant Matrix: (Units=GPa)
#
#
# Indices 1 2 3 4 5 6 
#
# 1 114.1244 39.7539 28.9877 0.0000 -6.2682 0.0000
# 2 39.7539 105.8538 39.8604 0.0000 -11.7769 0.0000
# 3 28.9877 39.8604 82.2109 0.0000 -18.9625 0.0000
# 4 0.0000 0.0000 0.0000 26.2010 0.0000 -5.6380
# 5 -6.2682 -11.7769 -18.9625 0.0000 26.5995 0.0000
# 6 0.0000 0.0000 0.0000 -5.6380 0.0000 32.3751
#
#
#
# Elastic Compliance Matrix: (Units=1/GPa)
#
#
# Indices 1 2 3 4 5 6 
#
# 1 0.010394 -0.003104 -0.002288 0.000000 -0.000556 0.000000
# 2 -0.003104 0.012524 -0.004629 0.000000 0.001514 0.000000
# 3 -0.002288 -0.004629 0.017495 0.000000 0.009883 0.000000
# 4 0.000000 0.000000 0.000000 0.039652 0.000000 0.006905
# 5 -0.000556 0.001514 0.009883 0.000000 0.045179 0.000000
# 6 0.000000 0.000000 0.000000 0.006905 0.000000 0.032090
#
#
# Mechanical properties :
#
#
# Convention : Reuss Voigt Hill
#
# Bulk Modulus (GPa) = 49.08951 57.71035 53.39993
# Shear Modulus (GPa) = 27.14921 29.94093 28.54507
#
# Velocity S-wave (km/s) = 3.55121 3.72933 3.64136
# Velocity P-wave (km/s) = 6.29424 6.73431 6.51799
#
# Compressibility (1/GPa) = 0.02037095
#
# Stress axis : x y z
#
# Youngs Moduli (GPa) = 96.20714 79.84626 57.16040
#
# Poissons Ratio (x) = 0.24782 0.13081
# Poissons Ratio (y) = 0.29860 0.26458
# Poissons Ratio (z) = 0.22016 0.36959
#
# Static dielectric constant tensor:
#      x y z
#    x 4.163970 0.000000 -0.234590 
#    y 0.000000 4.016200 0.000000 
#    z -0.234590 0.000000 3.984990 
# 
# 
# High freq. dielectric constant tensor:
#      x y z
#    x 1.859140 0.000000 -0.016770 
#    y 0.000000 1.837860 0.000000 
#    z -0.016770 0.000000 1.834850 
# 
# From -- ./inp_files/58726.got.cif
#   From: 2010.06.25/outbox.cif.g09.slc.cpg/sg15_30_cif.got.tgz:58726.got - 2010.06.28 07:06:18.
