data_PCOD8133237
_publ_section_title
;
Structure prediction by ZEFSAII (Michael W. Deem and Ramdas Pophale) SiO2 
 PCOD8133237
Probable space group: C 2/C
;
_chemical_formula_sum "Si O2"
_cell_formula_units_Z 32
_cell_length_a 11.807613
_cell_length_b 19.194760
_cell_length_c 9.518341
_cell_angle_alpha 90.000000
_cell_angle_beta 50.527674
_cell_angle_gamma 90.000000
_cell_volume 1665.271096
_symmetry_space_group_name_H-M "C 2/C"
_symmetry_group_IT_number 15
_symmetry_cell_setting 'monoclinic'
loop_
_space_group_symop_operation_xyz
x,y,z
-x,y,1/2-z
-x,-y,-z
x,-y,1/2+z
1/2+x,1/2+y,z
1/2-x,1/2+y,1/2-z
1/2-x,1/2-y,-z
1/2+x,1/2-y,1/2+z
loop_
_atom_site_type_symbol
_atom_site_label
_atom_site_fract_x
_atom_site_fract_y
_atom_site_fract_z
Si Si1 0.641461 0.311933 0.047066
Si Si2 0.966942 0.890949 0.616104
Si Si3 0.225900 0.977632 0.301171
Si Si4 0.149492 0.564480 0.066907
O O1 0.500000 0.297612 0.250000
O O2 0.750000 0.250000 0.000000
O O3 0.597492 0.322971 0.916476
O O4 0.715166 0.383718 0.030862
O O5 0.000000 0.868269 0.750000
O O6 0.114397 0.914558 0.418852
O O7 0.855753 0.956092 0.703647
O O8 0.309418 0.995791 0.378137
O O9 0.356920 0.954617 0.092247
O O10 0.000000 0.596888 0.250000
#
# Coordination Sequence:
#
# PCOD8133237 Si02
#       4
#     8   8   8   8
#     4  11  23  40  61  82 113 162 207 238 285 353
#     4  10  19  35  61  88 118 151 196 246 295 349
#     4  10  19  32  58  91 120 150 189 238 305 350
#     4  11  21  35  57  90 124 150 190 245 291 353
#
# _framework density 19.216090000000001
#
# number of rings (size 3 to 8) (size 9 to 14) (size 15 to 20)
#    0.000    1.500    5.000    1.500    0.000    0.000 
#    0.000    1.250    0.000    0.000    0.000    0.000 
#    0.000    0.000    0.000    0.000    0.000    0.000 
#
# Total GULP energy -198288.620674 kJ/mol
# GULP energy per Si atom -12393.038792 kJ/mol
# Density = 1.917235 g / cm^3
# Si number density = 19.216090 Si / 1000 Ang^3
#
#
#
# Elastic Constant Matrix: (Units=GPa)
#
#
# Indices 1 2 3 4 5 6 
#
# 1 89.7524 39.9080 51.5979 0.0000 14.7680 0.0000
# 2 39.9080 63.3471 41.8684 0.0000 12.8721 0.0000
# 3 51.5979 41.8684 160.9330 0.0000 2.8067 0.0000
# 4 0.0000 0.0000 0.0000 12.8087 0.0000 0.4871
# 5 14.7680 12.8721 2.8067 0.0000 45.5022 0.0000
# 6 0.0000 0.0000 0.0000 0.4871 0.0000 39.0362
#
#
#
# Elastic Compliance Matrix: (Units=1/GPa)
#
#
# Indices 1 2 3 4 5 6 
#
# 1 0.017114 -0.007922 -0.003372 0.000000 -0.003105 0.000000
# 2 -0.007922 0.023988 -0.003631 0.000000 -0.003991 0.000000
# 3 -0.003372 -0.003631 0.008211 0.000000 0.001615 0.000000
# 4 0.000000 0.000000 0.000000 0.078109 0.000000 -0.000975
# 5 -0.003105 -0.003991 0.001615 0.000000 0.024014 0.000000
# 6 0.000000 0.000000 0.000000 -0.000975 0.000000 0.025629
#
#
# Mechanical properties :
#
#
# Convention : Reuss Voigt Hill
#
# Bulk Modulus (GPa) = 51.37967 64.53123 57.95545
# Shear Modulus (GPa) = 23.42993 31.51328 27.47160
#
# Velocity S-wave (km/s) = 3.49562 4.05401 3.78513
# Velocity P-wave (km/s) = 6.56417 7.45440 7.02341
#
# Compressibility (1/GPa) = 0.01946295
#
# Stress axis : x y z
#
# Youngs Moduli (GPa) = 58.43327 41.68825 121.78278
#
# Poissons Ratio (x) = 0.33025 0.41063
# Poissons Ratio (y) = 0.46290 0.44221
# Poissons Ratio (z) = 0.19703 0.15138
#
# Static dielectric constant tensor:
#      x y z
#    x 3.762750 0.000000 0.275370 
#    y 0.000000 3.247280 0.000000 
#    z 0.275370 0.000000 3.927230 
# 
# 
# High freq. dielectric constant tensor:
#      x y z
#    x 1.747830 0.000000 0.001820 
#    y 0.000000 1.705320 0.000000 
#    z 0.001820 0.000000 1.762800 
# 
# From -- ./inp_files/28597.got.cif
#   From: 2010.06.25/outbox.cif.g09.slc.cpg/sg15_15_cif.got.tgz:28597.got - 2010.06.28 07:06:18.
