data_PCOD8133687
_publ_section_title
;
Structure prediction by ZEFSAII (Michael W. Deem and Ramdas Pophale) SiO2 
 PCOD8133687
Probable space group: C 2/C
;
_chemical_formula_sum "Si O2"
_cell_formula_units_Z 64
_cell_length_a 12.397700
_cell_length_b 27.530561
_cell_length_c 9.650598
_cell_angle_alpha 90.000000
_cell_angle_beta 85.347804
_cell_angle_gamma 90.000000
_cell_volume 3283.047926
_symmetry_space_group_name_H-M "C 2/C"
_symmetry_group_IT_number 15
_symmetry_cell_setting 'monoclinic'
loop_
_space_group_symop_operation_xyz
x,y,z
-x,y,1/2-z
-x,-y,-z
x,-y,1/2+z
1/2+x,1/2+y,z
1/2-x,1/2+y,1/2-z
1/2-x,1/2-y,-z
1/2+x,1/2-y,1/2+z
loop_
_atom_site_type_symbol
_atom_site_label
_atom_site_fract_x
_atom_site_fract_y
_atom_site_fract_z
Si Si1 0.880890 0.866137 0.286516
Si Si2 0.374393 0.738998 0.296331
Si Si3 0.215182 0.804041 0.965355
Si Si4 0.316401 0.930643 0.229683
Si Si5 0.126992 0.609195 0.487841
Si Si6 0.125217 0.463081 0.762139
Si Si7 0.277170 0.312651 0.059610
Si Si8 0.610059 0.114268 0.043232
O O1 0.869468 0.828981 0.418633
O O2 0.801343 0.912007 0.306529
O O3 0.861669 0.840598 0.143038
O O4 0.000000 0.887090 0.250000
O O5 0.500000 0.751543 0.250000
O O6 0.335443 0.700320 0.183675
O O7 0.353415 0.720445 0.455469
O O8 0.302205 0.787894 0.314809
O O9 0.323516 0.836169 0.960572
O O10 0.250000 0.750000 0.000000
O O11 0.369930 0.901449 0.349642
O O12 0.306798 0.987793 0.262728
O O13 0.394319 0.918161 0.094812
O O14 0.155082 0.558347 0.409808
O O15 0.211620 0.653056 0.458666
O O16 0.015978 0.628345 0.428090
O O17 0.160310 0.420728 0.654043
O O18 0.000000 0.476449 0.750000
#
# Coordination Sequence:
#
# PCOD8133687 Si02
#       8
#     8   8   8   8   8   8   8   8
#     4  10  21  40  59  81 115 151 193 240 284 338
#     4  11  23  38  58  80 113 150 196 239 285 338
#     4  11  22  38  56  86 115 153 196 235 287 341
#     4  10  20  33  58  83 112 147 190 227 286 349
#     4  10  20  34  56  82 117 148 179 231 285 343
#     4  10  19  34  54  85 116 147 178 229 294 346
#     4  10  22  38  56  84 110 150 194 236 284 343
#     4  10  21  34  55  84 119 148 185 233 287 343
#
# _framework density 19.494078999999999
#
# number of rings (size 3 to 8) (size 9 to 14) (size 15 to 20)
#    0.000    1.750    1.250    3.375    1.750    2.000 
#    0.000    0.625    0.000   15.000    0.000    0.000 
#    0.000    0.000    0.000    0.000    0.000    0.000 
#
# Total GULP energy -396485.554334 kJ/mol
# GULP energy per Si atom -12390.173573 kJ/mol
# Density = 1.944971 g / cm^3
# Si number density = 19.494079 Si / 1000 Ang^3
#
#
#
# Elastic Constant Matrix: (Units=GPa)
#
#
# Indices 1 2 3 4 5 6 
#
# 1 82.0628 34.8500 22.4347 0.0000 -4.0826 0.0000
# 2 34.8500 104.5871 18.2293 0.0000 -1.0363 0.0000
# 3 22.4347 18.2293 80.9261 0.0000 2.4423 0.0000
# 4 0.0000 0.0000 0.0000 31.6919 0.0000 2.1497
# 5 -4.0826 -1.0363 2.4423 0.0000 27.4303 0.0000
# 6 0.0000 0.0000 0.0000 2.1497 0.0000 20.6693
#
#
#
# Elastic Compliance Matrix: (Units=1/GPa)
#
#
# Indices 1 2 3 4 5 6 
#
# 1 0.015075 -0.004433 -0.003252 0.000000 0.002366 0.000000
# 2 -0.004433 0.011265 -0.001305 0.000000 -0.000118 0.000000
# 3 -0.003252 -0.001305 0.013605 0.000000 -0.001745 0.000000
# 4 0.000000 0.000000 0.000000 0.031778 0.000000 -0.003305
# 5 0.002366 -0.000118 -0.001745 0.000000 0.036959 0.000000
# 6 0.000000 0.000000 0.000000 -0.003305 0.000000 0.048725
#
#
# Mechanical properties :
#
#
# Convention : Reuss Voigt Hill
#
# Bulk Modulus (GPa) = 45.52693 46.51156 46.01925
# Shear Modulus (GPa) = 27.36599 28.76242 28.06420
#
# Velocity S-wave (km/s) = 3.75081 3.84532 3.79836
# Velocity P-wave (km/s) = 6.49331 6.60503 6.54941
#
# Compressibility (1/GPa) = 0.02196502
#
# Stress axis : x y z
#
# Youngs Moduli (GPa) = 66.33446 88.77183 73.50183
#
# Poissons Ratio (x) = 0.39352 0.23903
# Poissons Ratio (y) = 0.29406 0.09592
# Poissons Ratio (z) = 0.21572 0.11585
#
# Static dielectric constant tensor:
#      x y z
#    x 3.363790 0.000000 0.018420 
#    y 0.000000 3.528210 0.000000 
#    z 0.018420 0.000000 3.730570 
# 
# 
# High freq. dielectric constant tensor:
#      x y z
#    x 1.736210 0.000000 0.005470 
#    y 0.000000 1.755270 0.000000 
#    z 0.005470 0.000000 1.775960 
# 
# From -- ./inp_files/35663.got.cif
#   From: 2010.06.25/outbox.cif.g09.slc.cpg/sg15_18_cif.got.tgz:35663.got - 2010.06.28 07:06:18.
