data_PCOD8133209
_publ_section_title
;
Structure prediction by ZEFSAII (Michael W. Deem and Ramdas Pophale) SiO2 
 PCOD8133209
Probable space group: C 2/C
;
_chemical_formula_sum "Si O2"
_cell_formula_units_Z 60
_cell_length_a 19.713357
_cell_length_b 18.224521
_cell_length_c 8.752355
_cell_angle_alpha 90.000000
_cell_angle_beta 69.783846
_cell_angle_gamma 90.000000
_cell_volume 2950.717358
_symmetry_space_group_name_H-M "C 2/C"
_symmetry_group_IT_number 15
_symmetry_cell_setting 'monoclinic'
loop_
_space_group_symop_operation_xyz
x,y,z
-x,y,1/2-z
-x,-y,-z
x,-y,1/2+z
1/2+x,1/2+y,z
1/2-x,1/2+y,1/2-z
1/2-x,1/2-y,-z
1/2+x,1/2-y,1/2+z
loop_
_atom_site_type_symbol
_atom_site_label
_atom_site_fract_x
_atom_site_fract_y
_atom_site_fract_z
Si Si1 0.425499 0.825833 0.582064
Si Si2 0.963000 0.784111 0.444300
Si Si3 0.311725 0.430702 0.404521
Si Si4 0.000000 0.558898 0.250000
Si Si5 0.330110 0.737105 0.880059
Si Si6 0.878016 0.444539 0.427504
Si Si7 0.956677 0.056620 0.933002
Si Si8 0.278718 0.993284 0.771048
O O1 0.486077 0.765650 0.489900
O O2 0.460223 0.889748 0.659257
O O3 0.355280 0.786968 0.716397
O O4 0.408092 0.862279 0.430715
O O5 0.884131 0.747099 0.480328
O O6 0.952342 0.865246 0.525528
O O7 0.000000 0.785346 0.250000
O O8 0.335694 0.349446 0.335977
O O9 0.378268 0.472071 0.437913
O O10 0.246856 0.434787 0.579430
O O11 0.288894 0.471403 0.266385
O O12 0.939954 0.506689 0.375170
O O13 0.250000 0.750000 0.000000
O O14 0.830904 0.452127 0.616961
O O15 0.826363 0.444419 0.319719
O O16 0.000000 0.074419 0.750000
O O17 0.000000 0.000000 0.000000
#
# Coordination Sequence:
#
# PCOD8133209 Si02
#       8
#     8   8   8   4   8   8   8   8
#     4  11  20  37  59  85 119 151 197 256 294 356
#     4   8  17  33  53  81 111 148 187 236 295 341
#     4  10  21  37  58  89 118 160 200 247 304 357
#     4  12  22  38  62  92 116 154 200 252 304 358
#     4  10  19  32  56  83 115 154 202 235 292 364
#     4  11  23  38  60  89 119 156 205 243 307 364
#     4  10  19  34  61  88 113 147 200 248 293 355
#     4  10  22  38  58  87 126 157 199 254 299 359
#
# _framework density 20.334039000000001
#
# number of rings (size 3 to 8) (size 9 to 14) (size 15 to 20)
#    0.000    1.867    3.333    2.800    1.867    0.000 
#    0.000    0.667    1.467    1.600    0.000    0.000 
#    0.000    0.000    0.000    0.000    0.000    0.000 
#
# Total GULP energy -371677.736600 kJ/mol
# GULP energy per Si atom -12389.257887 kJ/mol
# Density = 2.028776 g / cm^3
# Si number density = 20.334039 Si / 1000 Ang^3
#
#
#
# Elastic Constant Matrix: (Units=GPa)
#
#
# Indices 1 2 3 4 5 6 
#
# 1 145.6540 55.7327 26.4564 0.0000 4.1959 0.0000
# 2 55.7327 100.9938 20.8324 0.0000 12.7602 0.0000
# 3 26.4564 20.8324 41.6412 0.0000 1.8697 0.0000
# 4 0.0000 0.0000 0.0000 24.8076 0.0000 -7.3832
# 5 4.1959 12.7602 1.8697 0.0000 35.5855 0.0000
# 6 0.0000 0.0000 0.0000 -7.3832 0.0000 26.7805
#
#
#
# Elastic Compliance Matrix: (Units=1/GPa)
#
#
# Indices 1 2 3 4 5 6 
#
# 1 0.009198 -0.004406 -0.003671 0.000000 0.000688 0.000000
# 2 -0.004406 0.013653 -0.003844 0.000000 -0.004174 0.000000
# 3 -0.003671 -0.003844 0.028255 0.000000 0.000327 0.000000
# 4 0.000000 0.000000 0.000000 0.043913 0.000000 0.012107
# 5 0.000688 -0.004174 0.000327 0.000000 0.029500 0.000000
# 6 0.000000 0.000000 0.000000 0.012107 0.000000 0.040678
#
#
# Mechanical properties :
#
#
# Convention : Reuss Voigt Hill
#
# Bulk Modulus (GPa) = 36.67594 54.92578 45.80086
# Shear Modulus (GPa) = 25.23624 29.78590 27.51107
#
# Velocity S-wave (km/s) = 3.52672 3.83146 3.68225
# Velocity P-wave (km/s) = 5.88724 6.82963 6.37587
#
# Compressibility (1/GPa) = 0.02726583
#
# Stress axis : x y z
#
# Youngs Moduli (GPa) = 108.71520 73.24291 35.39165
#
# Poissons Ratio (x) = 0.32269 0.12992
# Poissons Ratio (y) = 0.47898 0.13604
# Poissons Ratio (z) = 0.39908 0.28154
#
# Static dielectric constant tensor:
#      x y z
#    x 4.337580 0.000000 -0.093940 
#    y 0.000000 4.076730 0.000000 
#    z -0.093940 0.000000 3.388590 
# 
# 
# High freq. dielectric constant tensor:
#      x y z
#    x 1.815620 0.000000 -0.015770 
#    y 0.000000 1.790030 0.000000 
#    z -0.015770 0.000000 1.757140 
# 
# From -- ./inp_files/56543.got.cif
#   From: 2010.06.25/outbox.cif.g09.slc.cpg/sg15_29_cif.got.tgz:56543.got - 2010.06.28 07:06:18.
