data_PCOD8133197
_publ_section_title
;
Structure prediction by ZEFSAII (Michael W. Deem and Ramdas Pophale) SiO2 
 PCOD8133197
Probable space group: C 2/C
;
_chemical_formula_sum "Si O2"
_cell_formula_units_Z 52
_cell_length_a 26.644655
_cell_length_b 8.305921
_cell_length_c 16.264386
_cell_angle_alpha 90.000000
_cell_angle_beta 131.929778
_cell_angle_gamma 90.000000
_cell_volume 2677.858960
_symmetry_space_group_name_H-M "C 2/C"
_symmetry_group_IT_number 15
_symmetry_cell_setting 'monoclinic'
loop_
_space_group_symop_operation_xyz
x,y,z
-x,y,1/2-z
-x,-y,-z
x,-y,1/2+z
1/2+x,1/2+y,z
1/2-x,1/2+y,1/2-z
1/2-x,1/2-y,-z
1/2+x,1/2-y,1/2+z
loop_
_atom_site_type_symbol
_atom_site_label
_atom_site_fract_x
_atom_site_fract_y
_atom_site_fract_z
Si Si1 0.106403 0.324135 0.278269
Si Si2 0.858830 0.069367 0.066799
Si Si3 0.204527 0.700325 0.128950
Si Si4 0.000000 0.475340 0.750000
Si Si5 0.832214 0.388136 0.325407
Si Si6 0.777644 0.502335 0.002350
Si Si7 0.381424 0.770009 0.548401
O O1 0.102330 0.142822 0.311143
O O2 0.037816 0.415756 0.224451
O O3 0.117889 0.343819 0.194299
O O4 0.172827 0.384424 0.396292
O O5 0.787719 0.986983 0.013059
O O6 0.901159 0.915567 0.083546
O O7 0.851401 0.196208 0.982831
O O8 0.170543 0.582139 0.160441
O O9 0.256751 0.822137 0.227831
O O10 0.241938 0.579589 0.106318
O O11 0.947117 0.371109 0.641966
O O12 0.865134 0.293341 0.435833
O O13 0.816229 0.671789 0.030829
#
# Coordination Sequence:
#
# PCOD8133197 Si02
#       7
#     8   8   8   4   8   8   8
#     4  10  20  37  65  78 118 157 200 228 288 337
#     4  11  18  37  61  88 114 155 188 239 290 366
#     4  10  19  32  55  87 132 138 184 225 307 357
#     4  10  24  46  54  80 108 166 210 240 268 346
#     4  11  20  35  56  93 117 157 175 250 289 347
#     4   9  17  35  56  87 115 154 180 233 288 362
#     4  10  23  35  58  83 121 148 200 240 290 333
#
# _framework density 19.418499000000001
#
# number of rings (size 3 to 8) (size 9 to 14) (size 15 to 20)
#    0.000    1.846    3.077    3.231    0.000    1.231 
#    2.769    0.000    0.000    2.769    0.000    0.000 
#    0.000    0.000    0.000    0.000    0.000    0.000 
#
# Total GULP energy -322244.805267 kJ/mol
# GULP energy per Si atom -12394.030972 kJ/mol
# Density = 1.937430 g / cm^3
# Si number density = 19.418499 Si / 1000 Ang^3
#
#
#
# Elastic Constant Matrix: (Units=GPa)
#
#
# Indices 1 2 3 4 5 6 
#
# 1 81.3906 42.3731 35.0552 0.0000 -8.0830 0.0000
# 2 42.3731 132.4465 32.4296 0.0000 -7.9331 0.0000
# 3 35.0552 32.4296 64.6669 0.0000 -15.4259 0.0000
# 4 0.0000 0.0000 0.0000 28.2801 0.0000 -5.1850
# 5 -8.0830 -7.9331 -15.4259 0.0000 26.9986 0.0000
# 6 0.0000 0.0000 0.0000 -5.1850 0.0000 10.3712
#
#
#
# Elastic Compliance Matrix: (Units=1/GPa)
#
#
# Indices 1 2 3 4 5 6 
#
# 1 0.017516 -0.003738 -0.007678 0.000000 -0.000241 0.000000
# 2 -0.003738 0.009405 -0.002660 0.000000 0.000124 0.000000
# 3 -0.007678 -0.002660 0.023417 0.000000 0.010299 0.000000
# 4 0.000000 0.000000 0.000000 0.038929 0.000000 0.019462
# 5 -0.000241 0.000124 0.010299 0.000000 0.042888 0.000000
# 6 0.000000 0.000000 0.000000 0.019462 0.000000 0.106151
#
#
# Mechanical properties :
#
#
# Convention : Reuss Voigt Hill
#
# Bulk Modulus (GPa) = 45.07656 55.35776 50.21716
# Shear Modulus (GPa) = 18.25795 24.37305 21.31550
#
# Velocity S-wave (km/s) = 3.06965 3.54665 3.31674
# Velocity P-wave (km/s) = 5.98559 6.73359 6.37058
#
# Compressibility (1/GPa) = 0.02218448
#
# Stress axis : x y z
#
# Youngs Moduli (GPa) = 57.09223 106.32630 42.70417
#
# Poissons Ratio (x) = 0.39747 0.32788
# Poissons Ratio (y) = 0.21342 0.11361
# Poissons Ratio (z) = 0.43835 0.28287
#
# Static dielectric constant tensor:
#      x y z
#    x 3.475590 0.000000 -0.201840 
#    y 0.000000 3.753670 0.000000 
#    z -0.201840 0.000000 3.565060 
# 
# 
# High freq. dielectric constant tensor:
#      x y z
#    x 1.729310 0.000000 -0.014160 
#    y 0.000000 1.764480 0.000000 
#    z -0.014160 0.000000 1.747160 
# 
# From -- ./inp_files/176279.got.cif
#   From: 2010.06.25/outbox.cif.g09.slc.cpg/sg15_89_cif.got.tgz:176279.got - 2010.06.28 07:06:18.
