data_PCOD8133445
_publ_section_title
;
Structure prediction by ZEFSAII (Michael W. Deem and Ramdas Pophale) SiO2 
 PCOD8133445
Probable space group: C 2/C
;
_chemical_formula_sum "Si O2"
_cell_formula_units_Z 64
_cell_length_a 20.876176
_cell_length_b 11.523247
_cell_length_c 14.304205
_cell_angle_alpha 90.000000
_cell_angle_beta 68.246465
_cell_angle_gamma 90.000000
_cell_volume 3195.990860
_symmetry_space_group_name_H-M "C 2/C"
_symmetry_group_IT_number 15
_symmetry_cell_setting 'monoclinic'
loop_
_space_group_symop_operation_xyz
x,y,z
-x,y,1/2-z
-x,-y,-z
x,-y,1/2+z
1/2+x,1/2+y,z
1/2-x,1/2+y,1/2-z
1/2-x,1/2-y,-z
1/2+x,1/2-y,1/2+z
loop_
_atom_site_type_symbol
_atom_site_label
_atom_site_fract_x
_atom_site_fract_y
_atom_site_fract_z
Si Si1 0.673728 0.163892 0.487440
Si Si2 0.421380 0.064432 0.645169
Si Si3 0.660835 0.104898 0.186230
Si Si4 0.799465 0.790332 0.204183
Si Si5 0.570507 0.023903 0.073867
Si Si6 0.681508 0.394426 0.585808
Si Si7 0.312903 0.522508 0.098287
Si Si8 0.144779 0.201410 0.286615
O O1 0.657058 0.224379 0.398674
O O2 0.606864 0.099482 0.560635
O O3 0.687195 0.258673 0.558907
O O4 0.737863 0.073103 0.441135
O O5 0.491540 0.003363 0.641710
O O6 0.412948 0.197594 0.685516
O O7 0.361729 0.981635 0.717676
O O8 0.418824 0.076317 0.534658
O O9 0.668971 0.238926 0.216534
O O10 0.735601 0.060540 0.112733
O O11 0.605591 0.108141 0.131674
O O12 0.719038 0.761776 0.238679
O O13 0.810599 0.927017 0.183098
O O14 0.651803 0.473760 0.516990
O O15 0.636125 0.392691 0.705709
O O16 0.358223 0.628753 0.114384
#
# Coordination Sequence:
#
# PCOD8133445 Si02
#       8
#     8   8   8   8   8   8   8   8
#     4   9  15  30  52  77 104 140 186 230 279 340
#     4  11  23  38  52  83 118 152 198 239 293 338
#     4  11  19  34  55  85 115 147 198 236 296 359
#     4   9  18  32  54  79 113 148 182 241 292 349
#     4  11  22  35  56  81 115 154 184 248 290 345
#     4   9  17  30  54  80 107 146 191 231 285 344
#     4  10  19  33  55  84 117 149 187 244 306 346
#     4  10  20  34  54  81 117 154 189 245 289 355
#
# _framework density 20.025089000000001
#
# number of rings (size 3 to 8) (size 9 to 14) (size 15 to 20)
#    0.000    2.000    3.750    1.875    0.000    0.000 
#    2.250    1.250    0.000    3.000    0.000    1.750 
#    0.000    0.000    0.000    0.000    0.000    0.000 
#
# Total GULP energy -396439.260942 kJ/mol
# GULP energy per Si atom -12388.726904 kJ/mol
# Density = 1.997951 g / cm^3
# Si number density = 20.025089 Si / 1000 Ang^3
#
#
#
# Elastic Constant Matrix: (Units=GPa)
#
#
# Indices 1 2 3 4 5 6 
#
# 1 58.2652 15.7268 28.7590 0.0000 20.1072 0.0000
# 2 15.7268 48.9533 13.5567 0.0000 11.0919 0.0000
# 3 28.7590 13.5567 78.7086 0.0000 16.9553 0.0000
# 4 0.0000 0.0000 0.0000 26.4232 0.0000 2.3384
# 5 20.1072 11.0919 16.9553 0.0000 24.5819 0.0000
# 6 0.0000 0.0000 0.0000 2.3384 0.0000 22.4279
#
#
#
# Elastic Compliance Matrix: (Units=1/GPa)
#
#
# Indices 1 2 3 4 5 6 
#
# 1 0.026418 -0.003249 -0.005584 0.000000 -0.016292 0.000000
# 2 -0.003249 0.023426 -0.001343 0.000000 -0.006987 0.000000
# 3 -0.005584 -0.001343 0.016281 0.000000 -0.006057 0.000000
# 4 0.000000 0.000000 0.000000 0.038198 0.000000 -0.003983
# 5 -0.016292 -0.006987 -0.006057 0.000000 0.061337 0.000000
# 6 0.000000 0.000000 0.000000 -0.003983 0.000000 0.045003
#
#
# Mechanical properties :
#
#
# Convention : Reuss Voigt Hill
#
# Bulk Modulus (GPa) = 21.84621 33.55690 27.70155
# Shear Modulus (GPa) = 20.30269 23.21224 21.75746
#
# Velocity S-wave (km/s) = 3.18758 3.40833 3.29980
# Velocity P-wave (km/s) = 4.94779 5.68179 5.32745
#
# Compressibility (1/GPa) = 0.04577453
#
# Stress axis : x y z
#
# Youngs Moduli (GPa) = 37.85263 42.68688 61.42023
#
# Poissons Ratio (x) = 0.13871 0.34295
# Poissons Ratio (y) = 0.12300 0.08246
# Poissons Ratio (z) = 0.21135 0.05731
#
# Static dielectric constant tensor:
#      x y z
#    x 3.467820 0.000000 0.207250 
#    y 0.000000 3.490570 0.000000 
#    z 0.207250 0.000000 3.772810 
# 
# 
# High freq. dielectric constant tensor:
#      x y z
#    x 1.741660 0.000000 0.020400 
#    y 0.000000 1.758980 0.000000 
#    z 0.020400 0.000000 1.785490 
# 
# From -- ./inp_files/167627.got.cif
#   From: 2010.06.25/outbox.cif.g09.slc.cpg/sg15_84_cif.got.tgz:167627.got - 2010.06.28 07:06:18.
