data_PCOD8133127
_publ_section_title
;
Structure prediction by ZEFSAII (Michael W. Deem and Ramdas Pophale) SiO2 
 PCOD8133127
Probable space group: C 2/C
;
_chemical_formula_sum "Si O2"
_cell_formula_units_Z 56
_cell_length_a 20.661814
_cell_length_b 26.799836
_cell_length_c 5.306790
_cell_angle_alpha 90.000000
_cell_angle_beta 98.548194
_cell_angle_gamma 90.000000
_cell_volume 2905.902185
_symmetry_space_group_name_H-M "C 2/C"
_symmetry_group_IT_number 15
_symmetry_cell_setting 'monoclinic'
loop_
_space_group_symop_operation_xyz
x,y,z
-x,y,1/2-z
-x,-y,-z
x,-y,1/2+z
1/2+x,1/2+y,z
1/2-x,1/2+y,1/2-z
1/2-x,1/2-y,-z
1/2+x,1/2-y,1/2+z
loop_
_atom_site_type_symbol
_atom_site_label
_atom_site_fract_x
_atom_site_fract_y
_atom_site_fract_z
Si Si1 0.500000 0.032110 0.250000
Si Si2 0.926711 0.299540 0.603046
Si Si3 0.422068 0.310169 0.198419
Si Si4 0.701425 0.030852 0.049315
Si Si5 0.901098 0.395094 0.840829
Si Si6 0.852816 0.969360 0.649861
Si Si7 0.500000 0.846655 0.250000
Si Si8 0.922220 0.134685 0.199501
O O1 0.567988 0.063218 0.323792
O O2 0.500000 0.000000 0.500000
O O3 0.894532 0.246037 0.642281
O O4 0.880434 0.343589 0.687535
O O5 0.000000 0.303875 0.750000
O O6 0.940795 0.310662 0.316964
O O7 0.500000 0.308415 0.250000
O O8 0.396200 0.332648 0.446993
O O9 0.396025 0.342449 0.947192
O O10 0.661068 0.082503 0.046799
O O11 0.777181 0.046298 0.101460
O O12 0.684438 0.994790 0.273839
O O13 0.964799 0.384292 0.044167
O O14 0.896632 0.920712 0.652592
O O15 0.870732 0.003699 0.421748
O O16 0.000000 0.133410 0.250000
#
# Coordination Sequence:
#
# PCOD8133127 Si02
#       8
#     4   8   8   8   8   8   4   8
#     4  12  23  32  46  70 104 136 168 229 282 308
#     4   9  19  31  51  75 109 146 181 222 270 326
#     4   9  19  32  53  82 113 144 171 214 266 324
#     4  10  23  39  56  76 102 145 190 225 266 324
#     4  11  21  34  50  76 105 142 189 229 276 321
#     4  10  21  39  60  81 109 145 181 215 262 327
#     4  10  19  32  52  78 108 142 180 229 278 314
#     4  10  20  34  56  88 115 137 172 217 270 319
#
# _framework density 19.271122999999999
#
# number of rings (size 3 to 8) (size 9 to 14) (size 15 to 20)
#    0.000    2.000    2.143    2.143    9.000    0.571 
#    0.000    0.000    0.000    1.714    0.000    0.000 
#    0.000    0.000    0.000    0.000    0.000    0.000 
#
# Total GULP energy -346981.297054 kJ/mol
# GULP energy per Si atom -12392.189180 kJ/mol
# Density = 1.922726 g / cm^3
# Si number density = 19.271123 Si / 1000 Ang^3
#
#
#
# Elastic Constant Matrix: (Units=GPa)
#
#
# Indices 1 2 3 4 5 6 
#
# 1 26.6690 32.3034 23.4881 0.0000 -8.1867 0.0000
# 2 32.3034 133.4461 48.3325 0.0000 -13.1308 0.0000
# 3 23.4881 48.3325 117.3146 0.0000 -22.9874 0.0000
# 4 0.0000 0.0000 0.0000 23.9602 0.0000 -7.3366
# 5 -8.1867 -13.1308 -22.9874 0.0000 18.3501 0.0000
# 6 0.0000 0.0000 0.0000 -7.3366 0.0000 20.5032
#
#
#
# Elastic Compliance Matrix: (Units=1/GPa)
#
#
# Indices 1 2 3 4 5 6 
#
# 1 0.059300 -0.011421 -0.004751 0.000000 0.012332 0.000000
# 2 -0.011421 0.011083 -0.002285 0.000000 -0.000027 0.000000
# 3 -0.004751 -0.002285 0.012830 0.000000 0.012318 0.000000
# 4 0.000000 0.000000 0.000000 0.046872 0.000000 0.016772
# 5 0.012332 -0.000027 0.012318 0.000000 0.075409 0.000000
# 6 0.000000 0.000000 0.000000 0.016772 0.000000 0.054774
#
#
# Mechanical properties :
#
#
# Convention : Reuss Voigt Hill
#
# Bulk Modulus (GPa) = 21.59802 53.96420 37.78111
# Shear Modulus (GPa) = 15.99408 24.11641 20.05525
#
# Velocity S-wave (km/s) = 2.88401 3.54139 3.22947
# Velocity P-wave (km/s) = 4.72460 6.69218 5.79254
#
# Compressibility (1/GPa) = 0.04630053
#
# Stress axis : x y z
#
# Youngs Moduli (GPa) = 16.86337 90.22695 77.94019
#
# Poissons Ratio (x) = 1.03044 0.37031
# Poissons Ratio (y) = 0.19259 0.17808
# Poissons Ratio (z) = 0.08012 0.20615
#
# Static dielectric constant tensor:
#      x y z
#    x 3.693350 0.000000 -2.156620 
#    y 0.000000 3.663200 0.000000 
#    z -2.156620 0.000000 10.908270 
# 
# 
# High freq. dielectric constant tensor:
#      x y z
#    x 1.697160 0.000000 -0.020180 
#    y 0.000000 1.757690 0.000000 
#    z -0.020180 0.000000 1.764660 
# 
# From -- ./inp_files/13755.got.cif
#   From: 2010.06.25/outbox.cif.g09.slc.cpg/sg15_7_cif.got.tgz:13755.got - 2010.06.28 07:06:18.
