data_PCOD8133424
_publ_section_title
;
Structure prediction by ZEFSAII (Michael W. Deem and Ramdas Pophale) SiO2 
 PCOD8133424
Probable space group: C 2/C
;
_chemical_formula_sum "Si O2"
_cell_formula_units_Z 44
_cell_length_a 8.211252
_cell_length_b 19.554664
_cell_length_c 15.603707
_cell_angle_alpha 90.000000
_cell_angle_beta 58.248545
_cell_angle_gamma 90.000000
_cell_volume 2130.490259
_symmetry_space_group_name_H-M "C 2/C"
_symmetry_group_IT_number 15
_symmetry_cell_setting 'monoclinic'
loop_
_space_group_symop_operation_xyz
x,y,z
-x,y,1/2-z
-x,-y,-z
x,-y,1/2+z
1/2+x,1/2+y,z
1/2-x,1/2+y,1/2-z
1/2-x,1/2-y,-z
1/2+x,1/2-y,1/2+z
loop_
_atom_site_type_symbol
_atom_site_label
_atom_site_fract_x
_atom_site_fract_y
_atom_site_fract_z
Si Si1 0.072865 0.603574 0.614998
Si Si2 0.780553 0.138499 0.206122
Si Si3 0.000000 0.479277 0.750000
Si Si4 0.000000 0.250000 0.750000
Si Si5 0.697138 0.603574 0.114998
Si Si6 0.000000 0.020723 0.750000
Si Si7 0.692798 0.638499 0.793877
O O1 0.024959 0.526744 0.659394
O O2 0.130149 0.603831 0.500000
O O3 0.245274 0.635566 0.624086
O O4 0.881191 0.648828 0.681291
O O5 0.683224 0.201152 0.181543
O O6 0.743775 0.148828 0.318708
O O7 0.006555 0.135565 0.124085
O O8 0.689374 0.066707 0.202888
O O9 0.953688 0.201152 0.681544
O O10 0.656253 0.526744 0.159394
O O11 0.904852 0.066708 0.702887
#
# Coordination Sequence:
#
# PCOD8133424 Si02
#       7
#     8   8   4   4   8   4   8
#     4  10  19  33  55  81 107 132 165 215 265 306
#     4   9  20  36  54  77 102 139 178 206 251 309
#     4   9  18  33  54  81 108 133 170 208 252 313
#     4  10  20  42  58  64 104 146 172 222 254 284
#     4  10  19  33  55  81 107 132 165 215 265 306
#     4   9  18  33  54  81 108 133 170 208 252 313
#     4   9  20  36  54  77 102 139 178 206 251 309
#
# _framework density 20.652524
#
# number of rings (size 3 to 8) (size 9 to 14) (size 15 to 20)
#    0.000    2.909    0.000    4.364    0.000    8.727 
#    0.000   10.909    0.000    0.000    0.000    0.000 
#    0.000    0.000    0.000    0.000    0.000    0.000 
#
# Total GULP energy -272647.846499 kJ/mol
# GULP energy per Si atom -12393.083932 kJ/mol
# Density = 2.060552 g / cm^3
# Si number density = 20.652524 Si / 1000 Ang^3
#
#
#
# Elastic Constant Matrix: (Units=GPa)
#
#
# Indices 1 2 3 4 5 6 
#
# 1 87.7107 38.7166 2.3864 0.0000 8.1608 0.0000
# 2 38.7166 107.1936 4.8682 0.0000 4.6587 0.0000
# 3 2.3864 4.8682 107.9799 0.0000 -10.9510 0.0000
# 4 0.0000 0.0000 0.0000 6.0951 0.0000 3.2248
# 5 8.1608 4.6587 -10.9510 0.0000 15.6454 0.0000
# 6 0.0000 0.0000 0.0000 3.2248 0.0000 29.5256
#
#
#
# Elastic Compliance Matrix: (Units=1/GPa)
#
#
# Indices 1 2 3 4 5 6 
#
# 1 0.014139 -0.004791 -0.000753 0.000000 -0.006476 0.000000
# 2 -0.004791 0.011134 -0.000515 0.000000 -0.001177 0.000000
# 3 -0.000753 -0.000515 0.010071 0.000000 0.007596 0.000000
# 4 0.000000 0.000000 0.000000 0.174127 0.000000 -0.019019
# 5 -0.006476 -0.001177 0.007596 0.000000 0.072961 0.000000
# 6 0.000000 0.000000 0.000000 -0.019019 0.000000 0.035946
#
#
# Mechanical properties :
#
#
# Convention : Reuss Voigt Hill
#
# Bulk Modulus (GPa) = 43.05786 43.86961 43.46373
# Shear Modulus (GPa) = 14.78239 27.38076 21.08157
#
# Velocity S-wave (km/s) = 2.67828 3.64508 3.19842
# Velocity P-wave (km/s) = 5.51890 6.24527 5.89328
#
# Compressibility (1/GPa) = 0.02322457
#
# Stress axis : x y z
#
# Youngs Moduli (GPa) = 70.72644 89.81537 99.29296
#
# Poissons Ratio (x) = 0.43032 0.07479
# Poissons Ratio (y) = 0.33886 0.05118
# Poissons Ratio (z) = 0.05327 0.04630
#
# Static dielectric constant tensor:
#      x y z
#    x 4.109920 0.000000 0.126140 
#    y 0.000000 3.669450 0.000000 
#    z 0.126140 0.000000 3.193400 
# 
# 
# High freq. dielectric constant tensor:
#      x y z
#    x 1.832070 0.000000 0.011030 
#    y 0.000000 1.801310 0.000000 
#    z 0.011030 0.000000 1.751920 
# 
# From -- ./inp_files/135400.got.cif
#   From: 2010.06.25/outbox.cif.g09.slc.cpg/sg15_68_cif.got.tgz:135400.got - 2010.06.28 07:06:18.
