data_PCOD8133012
_publ_section_title
;
Structure prediction by ZEFSAII (Michael W. Deem and Ramdas Pophale) SiO2 
 PCOD8133012
Probable space group: C 2/C
;
_chemical_formula_sum "Si O2"
_cell_formula_units_Z 56
_cell_length_a 19.729124
_cell_length_b 10.126566
_cell_length_c 22.651034
_cell_angle_alpha 90.000000
_cell_angle_beta 143.023729
_cell_angle_gamma 90.000000
_cell_volume 2721.963317
_symmetry_space_group_name_H-M "C 2/C"
_symmetry_group_IT_number 15
_symmetry_cell_setting 'monoclinic'
loop_
_space_group_symop_operation_xyz
x,y,z
-x,y,1/2-z
-x,-y,-z
x,-y,1/2+z
1/2+x,1/2+y,z
1/2-x,1/2+y,1/2-z
1/2-x,1/2-y,-z
1/2+x,1/2-y,1/2+z
loop_
_atom_site_type_symbol
_atom_site_label
_atom_site_fract_x
_atom_site_fract_y
_atom_site_fract_z
Si Si1 0.135925 0.021029 0.743728
Si Si2 0.157008 0.769614 0.050826
Si Si3 0.293407 0.759710 0.365860
Si Si4 0.094909 0.757618 0.770910
Si Si5 0.944978 0.044049 0.522864
Si Si6 0.668698 0.865827 0.679574
Si Si7 0.048626 0.382650 0.120242
O O1 0.218311 0.118102 0.840112
O O2 0.073690 0.911239 0.740078
O O3 0.220331 0.949770 0.757541
O O4 0.038511 0.090042 0.635932
O O5 0.282721 0.750855 0.114056
O O6 0.117853 0.911499 1.000000
O O7 0.146402 0.747100 0.114797
O O8 0.082830 0.654203 0.969498
O O9 0.352450 0.662485 0.454072
O O10 0.191707 0.693725 0.259161
O O11 0.392494 0.800240 0.390577
O O12 0.101412 0.659132 0.719524
O O13 0.000000 0.708924 0.750000
O O14 0.000000 0.000000 0.500000
O O15 0.561170 0.962326 0.613788
#
# Coordination Sequence:
#
# PCOD8133012 Si02
#       7
#     8   8   8   8   8   8   8
#     4  10  21  37  52  85 119 153 198 238 299 357
#     4  11  20  35  57  86 119 150 194 240 298 361
#     4  11  20  31  57  84 121 153 186 238 304 363
#     4  11  23  41  60  79 116 166 209 250 286 342
#     4  12  18  33  58  87 122 159 183 235 315 371
#     4  10  19  31  53  87 127 145 177 241 301 359
#     4  11  20  34  52  89 119 152 191 238 297 353
#
# _framework density 20.573384999999998
#
# number of rings (size 3 to 8) (size 9 to 14) (size 15 to 20)
#    0.000    1.143    7.143    2.143    0.000    0.571 
#    0.000    0.000    0.000    4.286    0.000    0.000 
#    0.000    0.000    0.000    0.000    0.000    0.000 
#
# Total GULP energy -346945.782258 kJ/mol
# GULP energy per Si atom -12390.920795 kJ/mol
# Density = 2.052656 g / cm^3
# Si number density = 20.573385 Si / 1000 Ang^3
#
#
#
# Elastic Constant Matrix: (Units=GPa)
#
#
# Indices 1 2 3 4 5 6 
#
# 1 38.5224 12.5915 11.2704 0.0000 17.5540 0.0000
# 2 12.5915 62.9958 20.3194 0.0000 6.8409 0.0000
# 3 11.2704 20.3194 117.4435 0.0000 12.7625 0.0000
# 4 0.0000 0.0000 0.0000 43.7312 0.0000 3.2210
# 5 17.5540 6.8409 12.7625 0.0000 19.0485 0.0000
# 6 0.0000 0.0000 0.0000 3.2210 0.0000 10.4082
#
#
#
# Elastic Compliance Matrix: (Units=1/GPa)
#
#
# Indices 1 2 3 4 5 6 
#
# 1 0.046190 -0.005041 0.000937 0.000000 -0.041383 0.000000
# 2 -0.005041 0.017713 -0.002582 0.000000 0.000014 0.000000
# 3 0.000937 -0.002582 0.009561 0.000000 -0.006341 0.000000
# 4 0.000000 0.000000 0.000000 0.023400 0.000000 -0.007242
# 5 -0.041383 0.000014 -0.006341 0.000000 0.094878 0.000000
# 6 0.000000 0.000000 0.000000 -0.007242 0.000000 0.098319
#
#
# Mechanical properties :
#
#
# Convention : Reuss Voigt Hill
#
# Bulk Modulus (GPa) = 16.64138 34.14715 25.39427
# Shear Modulus (GPa) = 15.45765 26.28960 20.87363
#
# Velocity S-wave (km/s) = 2.74404 3.57857 3.18872
# Velocity P-wave (km/s) = 4.25981 5.80592 5.09189
#
# Compressibility (1/GPa) = 0.06009116
#
# Stress axis : x y z
#
# Youngs Moduli (GPa) = 21.64965 56.45566 104.59413
#
# Poissons Ratio (x) = 0.28457 -0.09796
# Poissons Ratio (y) = 0.10913 0.27011
# Poissons Ratio (z) = -0.02028 0.14579
#
# Static dielectric constant tensor:
#      x y z
#    x 3.009950 0.000000 0.088450 
#    y 0.000000 4.093760 0.000000 
#    z 0.088450 0.000000 4.011360 
# 
# 
# High freq. dielectric constant tensor:
#      x y z
#    x 1.717620 0.000000 0.011170 
#    y 0.000000 1.809160 0.000000 
#    z 0.011170 0.000000 1.828190 
# 
# From -- ./inp_files/300746.got.cif
#   From: 2010.06.25/outbox.cif.g09.slc.cpg/sg15_151_cif.got.tgz:300746.got - 2010.06.28 07:06:18.
