data_PCOD8133304
_publ_section_title
;
Structure prediction by ZEFSAII (Michael W. Deem and Ramdas Pophale) SiO2 
 PCOD8133304
Probable space group: C 2/C
;
_chemical_formula_sum "Si O2"
_cell_formula_units_Z 56
_cell_length_a 20.100475
_cell_length_b 24.481168
_cell_length_c 16.952400
_cell_angle_alpha 90.000000
_cell_angle_beta 22.728625
_cell_angle_gamma 90.000000
_cell_volume 3223.068630
_symmetry_space_group_name_H-M "C 2/C"
_symmetry_group_IT_number 15
_symmetry_cell_setting 'monoclinic'
loop_
_space_group_symop_operation_xyz
x,y,z
-x,y,1/2-z
-x,-y,-z
x,-y,1/2+z
1/2+x,1/2+y,z
1/2-x,1/2+y,1/2-z
1/2-x,1/2-y,-z
1/2+x,1/2-y,1/2+z
loop_
_atom_site_type_symbol
_atom_site_label
_atom_site_fract_x
_atom_site_fract_y
_atom_site_fract_z
Si Si1 0.819596 0.020420 0.409342
Si Si2 0.802329 0.635149 0.965481
Si Si3 0.312675 0.027537 0.290219
Si Si4 0.211836 0.327214 0.182778
Si Si5 0.150868 0.422152 0.359423
Si Si6 0.453664 0.276704 0.708587
Si Si7 0.041967 0.957789 0.386354
O O1 0.702720 0.988650 0.601062
O O2 0.845570 0.981953 0.306935
O O3 0.000000 0.038433 0.250000
O O4 0.728953 0.073734 0.470248
O O5 0.705943 0.681185 0.122736
O O6 0.735839 0.634384 0.948093
O O7 0.000000 0.650957 0.750000
O O8 0.143209 0.062120 0.445975
O O9 0.326150 0.971248 0.227361
O O10 0.480650 0.065563 0.097231
O O11 0.122390 0.364180 0.347148
O O12 0.085796 0.280190 0.290137
O O13 0.391817 0.300940 0.013136
O O14 0.325680 0.413854 0.220327
O O15 0.500000 0.266613 0.750000
O O16 0.000000 0.000000 0.500000
#
# Coordination Sequence:
#
# PCOD8133304 Si02
#       7
#     8   8   8   8   8   8   8
#     4  10  19  33  52  75 108 145 180 214 258 322
#     4  11  21  29  51  76 101 143 185 214 261 311
#     4   9  19  35  50  75 105 139 182 215 255 322
#     4  11  20  37  49  71 103 139 181 221 273 301
#     4  10  20  34  51  72 108 140 174 223 266 307
#     4  10  21  35  51  69 102 137 187 231 255 317
#     4   9  20  32  49  74 106 138 176 213 262 318
#
# _framework density 17.374745999999998
#
# number of rings (size 3 to 8) (size 9 to 14) (size 15 to 20)
#    0.000    2.000    1.429    4.286    6.000    1.143 
#    2.571    0.000    0.000    0.000    0.000    0.000 
#    0.000    4.571    0.000    0.000    0.000    0.000 
#
# Total GULP energy -346969.282893 kJ/mol
# GULP energy per Si atom -12391.760103 kJ/mol
# Density = 1.733520 g / cm^3
# Si number density = 17.374746 Si / 1000 Ang^3
#
#
#
# Elastic Constant Matrix: (Units=GPa)
#
#
# Indices 1 2 3 4 5 6 
#
# 1 56.3493 32.8923 33.8539 0.0691 3.5420 0.0045
# 2 32.8923 78.8108 50.9615 0.0572 -0.7945 0.0101
# 3 33.8539 50.9615 116.0808 0.2497 -1.2541 -0.0850
# 4 0.0691 0.0572 0.2497 20.8602 -0.0611 2.9157
# 5 3.5420 -0.7945 -1.2541 -0.0611 32.5989 0.0012
# 6 0.0045 0.0101 -0.0850 2.9157 0.0012 25.7178
#
#
#
# Elastic Compliance Matrix: (Units=1/GPa)
#
#
# Indices 1 2 3 4 5 6 
#
# 1 0.024858 -0.007954 -0.003790 -0.000022 -0.003041 -0.000011
# 2 -0.007954 0.020265 -0.006565 0.000057 0.001106 -0.000035
# 3 -0.003790 -0.006565 0.012610 -0.000126 0.000737 0.000059
# 4 -0.000022 0.000057 -0.000126 0.048712 0.000090 -0.005523
# 5 -0.003041 0.001106 0.000737 0.000090 0.031062 -0.000009
# 6 -0.000011 -0.000035 0.000059 -0.005523 -0.000009 0.039510
#
#
# Mechanical properties :
#
#
# Convention : Reuss Voigt Hill
#
# Bulk Modulus (GPa) = 47.36221 54.07293 50.71757
# Shear Modulus (GPa) = 22.65790 24.73758 23.69774
#
# Velocity S-wave (km/s) = 3.61511 3.77738 3.69713
# Velocity P-wave (km/s) = 6.68908 7.08618 6.89049
#
# Compressibility (1/GPa) = 0.02111388
#
# Stress axis : x y z
#
# Youngs Moduli (GPa) = 40.22868 49.34708 79.29912
#
# Poissons Ratio (x) = 0.39252 0.30057
# Poissons Ratio (y) = 0.31999 0.52059
# Poissons Ratio (z) = 0.15248 0.32396
#
# Static dielectric constant tensor:
#      x y z
#    x 3.279140 -0.000190 -0.198210 
#    y -0.000190 2.935670 0.000390 
#    z -0.198210 0.000390 3.511210 
# 
# 
# High freq. dielectric constant tensor:
#      x y z
#    x 1.646430 -0.000010 -0.021150 
#    y -0.000010 1.632440 0.000030 
#    z -0.021150 0.000030 1.685850 
# 
# From -- ./inp_files/216866.got.cif
#   From: 2010.06.25/outbox.cif.g09.slc.cpg/sg15_109_cif.got.tgz:216866.got - 2010.06.28 07:06:18.
