data_PCOD8133815
_publ_section_title
;
Structure prediction by ZEFSAII (Michael W. Deem and Ramdas Pophale) SiO2 
 PCOD8133815
Probable space group: C 2/C
;
_chemical_formula_sum "Si O2"
_cell_formula_units_Z 48
_cell_length_a 29.027083
_cell_length_b 19.617758
_cell_length_c 10.113466
_cell_angle_alpha 90.000000
_cell_angle_beta 24.741937
_cell_angle_gamma 90.000000
_cell_volume 2410.357087
_symmetry_space_group_name_H-M "C 2/C"
_symmetry_group_IT_number 15
_symmetry_cell_setting 'monoclinic'
loop_
_space_group_symop_operation_xyz
x,y,z
-x,y,1/2-z
-x,-y,-z
x,-y,1/2+z
1/2+x,1/2+y,z
1/2-x,1/2+y,1/2-z
1/2-x,1/2-y,-z
1/2+x,1/2-y,1/2+z
loop_
_atom_site_type_symbol
_atom_site_label
_atom_site_fract_x
_atom_site_fract_y
_atom_site_fract_z
Si Si1 0.211294 0.056165 0.608734
Si Si2 0.823557 0.508212 0.070338
Si Si3 0.645196 0.266506 0.461013
Si Si4 0.500000 0.918285 0.750000
Si Si5 0.000000 0.881611 0.750000
Si Si6 0.347539 0.819534 0.805950
Si Si7 0.077921 0.642887 0.799944
O O1 0.238185 0.007857 0.415025
O O2 0.268858 0.128640 0.433207
O O3 0.259533 0.024145 0.616009
O O4 0.080530 0.068629 0.957809
O O5 0.859582 0.584997 0.944032
O O6 0.931620 0.465601 0.827650
O O7 0.572724 0.335540 0.662464
O O8 0.606639 0.233373 0.421794
O O9 0.627854 0.216867 0.632030
O O10 0.775736 0.283331 0.109155
O O11 0.582649 0.871743 0.445644
O O12 0.448749 0.859369 0.604100
#
# Coordination Sequence:
#
# PCOD8133815 Si02
#       7
#     8   8   8   4   4   8   8
#     4  11  23  39  60  90 120 160 200 249 300 357
#     4  12  23  37  60  90 124 157 199 247 305 358
#     4  10  20  34  60  88 111 146 201 252 290 346
#     4  12  24  35  52  90 123 164 186 248 306 362
#     4  10  22  39  64  86 117 158 206 252 288 350
#     4  10  19  34  57  88 113 144 191 247 298 342
#     4  12  21  35  59  86 120 155 196 245 303 346
#
# _framework density 19.914059999999999
#
# number of rings (size 3 to 8) (size 9 to 14) (size 15 to 20)
#    0.000    1.000    6.667    1.500    0.000    0.667 
#    0.000    0.833    0.000    0.000    0.000    0.000 
#    0.000    0.000    0.000    0.000    0.000    0.000 
#
# Total GULP energy -297569.090416 kJ/mol
# GULP energy per Si atom -12398.712101 kJ/mol
# Density = 1.986873 g / cm^3
# Si number density = 19.914060 Si / 1000 Ang^3
#
#
#
# Elastic Constant Matrix: (Units=GPa)
#
#
# Indices 1 2 3 4 5 6 
#
# 1 67.9633 29.0566 43.0327 0.0000 16.1771 0.0000
# 2 29.0566 71.3708 44.3132 0.0000 8.2376 0.0000
# 3 43.0327 44.3132 127.0487 0.0000 11.0008 0.0000
# 4 0.0000 0.0000 0.0000 40.7440 0.0000 5.1543
# 5 16.1771 8.2376 11.0008 0.0000 34.9926 0.0000
# 6 0.0000 0.0000 0.0000 5.1543 0.0000 19.0023
#
#
#
# Elastic Compliance Matrix: (Units=1/GPa)
#
#
# Indices 1 2 3 4 5 6 
#
# 1 0.021721 -0.004881 -0.005021 0.000000 -0.007314 0.000000
# 2 -0.004881 0.019165 -0.004971 0.000000 -0.000692 0.000000
# 3 -0.005021 -0.004971 0.011311 0.000000 -0.000064 0.000000
# 4 0.000000 0.000000 0.000000 0.025416 0.000000 -0.006894
# 5 -0.007314 -0.000692 -0.000064 0.000000 0.032142 0.000000
# 6 0.000000 0.000000 0.000000 -0.006894 0.000000 0.054495
#
#
# Mechanical properties :
#
#
# Convention : Reuss Voigt Hill
#
# Bulk Modulus (GPa) = 44.54412 55.46530 50.00471
# Shear Modulus (GPa) = 24.81625 28.94648 26.88136
#
# Velocity S-wave (km/s) = 3.53394 3.81671 3.67804
# Velocity P-wave (km/s) = 6.25047 6.88010 6.57283
#
# Compressibility (1/GPa) = 0.02244965
#
# Stress axis : x y z
#
# Youngs Moduli (GPa) = 46.03838 52.17820 88.40732
#
# Poissons Ratio (x) = 0.25469 0.44392
# Poissons Ratio (y) = 0.22472 0.43950
# Poissons Ratio (z) = 0.23117 0.25939
#
# Static dielectric constant tensor:
#      x y z
#    x 3.182800 0.000000 0.069730 
#    y 0.000000 3.687810 0.000000 
#    z 0.069730 0.000000 3.856450 
# 
# 
# High freq. dielectric constant tensor:
#      x y z
#    x 1.728740 0.000000 0.005590 
#    y 0.000000 1.777090 0.000000 
#    z 0.005590 0.000000 1.795010 
# 
# From -- ./inp_files/67492.got.cif
#   From: 2010.06.25/outbox.cif.g09.slc.cpg/sg15_34_cif.got.tgz:67492.got - 2010.06.28 07:06:18.
