data_PCOD8133298
_publ_section_title
;
Structure prediction by ZEFSAII (Michael W. Deem and Ramdas Pophale) SiO2 
 PCOD8133298
Probable space group: C 2/C
;
_chemical_formula_sum "Si O2"
_cell_formula_units_Z 32
_cell_length_a 8.808241
_cell_length_b 35.991316
_cell_length_c 11.297273
_cell_angle_alpha 90.000000
_cell_angle_beta 25.506863
_cell_angle_gamma 90.000000
_cell_volume 1542.247007
_symmetry_space_group_name_H-M "C 2/C"
_symmetry_group_IT_number 15
_symmetry_cell_setting 'monoclinic'
loop_
_space_group_symop_operation_xyz
x,y,z
-x,y,1/2-z
-x,-y,-z
x,-y,1/2+z
1/2+x,1/2+y,z
1/2-x,1/2+y,1/2-z
1/2-x,1/2-y,-z
1/2+x,1/2-y,1/2+z
loop_
_atom_site_type_symbol
_atom_site_label
_atom_site_fract_x
_atom_site_fract_y
_atom_site_fract_z
Si Si1 0.183046 0.960558 0.379395
Si Si2 0.188378 0.579616 0.378464
Si Si3 0.721511 0.226532 0.845117
Si Si4 0.101133 0.657004 0.543992
O O1 0.500000 0.960982 0.250000
O O2 0.872967 0.930103 0.623830
O O3 0.357302 0.948063 0.132516
O O4 0.000000 0.000000 0.500000
O O5 0.500000 0.571146 0.250000
O O6 0.055125 0.621864 0.488416
O O7 0.654742 0.189524 0.817737
O O8 0.000000 0.216160 0.750000
O O9 0.867409 0.257911 0.653735
O O10 0.000000 0.645579 0.750000
O O11 0.500000 0.671385 0.250000
#
# Coordination Sequence:
#
# PCOD8133298 Si02
#       4
#     8   8   8   8
#     4  10  19  33  52  74 102 136 173 213 262 316
#     4   9  18  33  52  74 104 137 168 215 272 315
#     4  10  22  39  56  78 113 150 178 216 278 333
#     4  11  21  35  58  84 107 139 187 231 267 317
#
# _framework density 20.748946
#
# number of rings (size 3 to 8) (size 9 to 14) (size 15 to 20)
#    0.000    2.000    0.000    6.000    0.000    3.000 
#    0.000    2.500    0.000    0.000    0.000    0.000 
#    0.000    0.000    0.000    0.000    0.000    0.000 
#
# Total GULP energy -198288.389843 kJ/mol
# GULP energy per Si atom -12393.024365 kJ/mol
# Density = 2.070172 g / cm^3
# Si number density = 20.748946 Si / 1000 Ang^3
#
#
#
# Elastic Constant Matrix: (Units=GPa)
#
#
# Indices 1 2 3 4 5 6 
#
# 1 24.1925 29.7332 20.4348 0.0000 6.0041 0.0000
# 2 29.7332 130.9900 38.3354 0.0000 -9.6381 0.0000
# 3 20.4348 38.3354 115.7992 0.0000 9.7790 0.0000
# 4 0.0000 0.0000 0.0000 28.7767 0.0000 1.6772
# 5 6.0041 -9.6381 9.7790 0.0000 18.4296 0.0000
# 6 0.0000 0.0000 0.0000 1.6772 0.0000 25.5030
#
#
#
# Elastic Compliance Matrix: (Units=1/GPa)
#
#
# Indices 1 2 3 4 5 6 
#
# 1 0.075237 -0.018033 -0.004649 0.000000 -0.031475 0.000000
# 2 -0.018033 0.013507 -0.002493 0.000000 0.014262 0.000000
# 3 -0.004649 -0.002493 0.010745 0.000000 -0.005491 0.000000
# 4 0.000000 0.000000 0.000000 0.034884 0.000000 -0.002294
# 5 -0.031475 0.014262 -0.005491 0.000000 0.074887 0.000000
# 6 0.000000 0.000000 0.000000 -0.002294 0.000000 0.039362
#
#
# Mechanical properties :
#
#
# Convention : Reuss Voigt Hill
#
# Bulk Modulus (GPa) = 20.35118 49.77650 35.06384
# Shear Modulus (GPa) = 15.85535 26.70706 21.28121
#
# Velocity S-wave (km/s) = 2.76733 3.59158 3.20606
# Velocity P-wave (km/s) = 4.47665 6.42194 5.53542
#
# Compressibility (1/GPa) = 0.04913719
#
# Stress axis : x y z
#
# Youngs Moduli (GPa) = 13.29142 74.03806 93.06489
#
# Poissons Ratio (x) = 1.33514 0.43265
# Poissons Ratio (y) = 0.23969 0.23205
# Poissons Ratio (z) = 0.06179 0.18461
#
# Static dielectric constant tensor:
#      x y z
#    x 3.345470 0.000000 0.267210 
#    y 0.000000 3.618750 0.000000 
#    z 0.267210 0.000000 4.454680 
# 
# 
# High freq. dielectric constant tensor:
#      x y z
#    x 1.756770 0.000000 0.013390 
#    y 0.000000 1.814960 0.000000 
#    z 0.013390 0.000000 1.844370 
# 
# From -- ./inp_files/148477.got.cif
#   From: 2010.06.25/outbox.cif.g09.slc.cpg/sg15_75_cif.got.tgz:148477.got - 2010.06.28 07:06:18.
