data_PCOD8133639
_publ_section_title
;
Structure prediction by ZEFSAII (Michael W. Deem and Ramdas Pophale) SiO2 
 PCOD8133639
Probable space group: C 2/C
;
_chemical_formula_sum "Si O2"
_cell_formula_units_Z 40
_cell_length_a 13.886523
_cell_length_b 30.662914
_cell_length_c 5.115063
_cell_angle_alpha 90.000000
_cell_angle_beta 90.094977
_cell_angle_gamma 90.000000
_cell_volume 2177.997281
_symmetry_space_group_name_H-M "C 2/C"
_symmetry_group_IT_number 15
_symmetry_cell_setting 'monoclinic'
loop_
_space_group_symop_operation_xyz
x,y,z
-x,y,1/2-z
-x,-y,-z
x,-y,1/2+z
1/2+x,1/2+y,z
1/2-x,1/2+y,1/2-z
1/2-x,1/2-y,-z
1/2+x,1/2-y,1/2+z
loop_
_atom_site_type_symbol
_atom_site_label
_atom_site_fract_x
_atom_site_fract_y
_atom_site_fract_z
Si Si1 0.892043 0.305772 0.215761
Si Si2 0.299068 0.657004 0.697256
Si Si3 0.607593 0.251569 0.286114
Si Si4 0.106625 0.982207 0.927408
Si Si5 0.607401 0.617346 0.304005
O O1 0.816481 0.345488 0.258747
O O2 0.876967 0.268088 0.428246
O O3 0.000000 0.325089 0.250000
O O4 0.872539 0.285265 0.930800
O O5 0.320835 0.708065 0.732804
O O6 0.322759 0.637813 0.412758
O O7 0.358697 0.630290 0.908937
O O8 0.500000 0.270027 0.250000
O O9 0.159239 0.986687 0.209277
O O10 0.107272 0.934722 0.800119
O O11 0.000000 0.000000 0.000000
O O12 0.500000 0.635265 0.250000
#
# Coordination Sequence:
#
# PCOD8133639 Si02
#       5
#     8   8   8   8   8
#     4  10  21  37  56  71  99 147 192 226 263 314
#     4  12  23  34  51  81 111 134 182 229 274 304
#     4  10  19  34  53  73 102 145 182 218 272 325
#     4  10  19  34  55  71 103 149 176 187 242 330
#     4  12  23  34  52  80 113 143 165 214 267 317
#
# _framework density 18.365494999999999
#
# number of rings (size 3 to 8) (size 9 to 14) (size 15 to 20)
#    0.000    1.200    2.000    6.600    2.800    1.600 
#    0.000    0.000    0.000    0.000    0.000    0.000 
#    0.000   16.000    0.000    0.000    0.000    0.000 
#
# Total GULP energy -247899.345558 kJ/mol
# GULP energy per Si atom -12394.967278 kJ/mol
# Density = 1.832369 g / cm^3
# Si number density = 18.365495 Si / 1000 Ang^3
#
#
#
# Elastic Constant Matrix: (Units=GPa)
#
#
# Indices 1 2 3 4 5 6 
#
# 1 84.5711 31.1311 12.9860 0.0000 -10.4190 0.0000
# 2 31.1311 50.2532 6.8498 0.0000 -6.6393 0.0000
# 3 12.9860 6.8498 99.8057 0.0000 -9.5335 0.0000
# 4 0.0000 0.0000 0.0000 3.8927 0.0000 -3.0736
# 5 -10.4190 -6.6393 -9.5335 0.0000 25.7231 0.0000
# 6 0.0000 0.0000 0.0000 -3.0736 0.0000 11.3337
#
#
#
# Elastic Compliance Matrix: (Units=1/GPa)
#
#
# Indices 1 2 3 4 5 6 
#
# 1 0.015813 -0.009168 -0.001081 0.000000 0.003638 0.000000
# 2 -0.009168 0.026003 -0.000317 0.000000 0.002881 0.000000
# 3 -0.001081 -0.000317 0.010504 0.000000 0.003374 0.000000
# 4 0.000000 0.000000 0.000000 0.326884 0.000000 0.088647
# 5 0.003638 0.002881 0.003374 0.000000 0.042343 0.000000
# 6 0.000000 0.000000 0.000000 0.088647 0.000000 0.112272
#
#
# Mechanical properties :
#
#
# Convention : Reuss Voigt Hill
#
# Bulk Modulus (GPa) = 32.06260 37.39597 34.72929
# Shear Modulus (GPa) = 8.84414 20.43411 14.63912
#
# Velocity S-wave (km/s) = 2.19683 3.33924 2.82636
# Velocity P-wave (km/s) = 4.89191 5.93916 5.44079
#
# Compressibility (1/GPa) = 0.03118898
#
# Stress axis : x y z
#
# Youngs Moduli (GPa) = 63.23753 38.45783 95.20126
#
# Poissons Ratio (x) = 0.35259 0.10289
# Poissons Ratio (y) = 0.57977 0.03013
# Poissons Ratio (z) = 0.06835 0.01217
#
# Static dielectric constant tensor:
#      x y z
#    x 3.536620 0.000000 0.483720 
#    y 0.000000 3.153600 0.000000 
#    z 0.483720 0.000000 11.639470 
# 
# 
# High freq. dielectric constant tensor:
#      x y z
#    x 1.684530 0.000000 -0.000570 
#    y 0.000000 1.679610 0.000000 
#    z -0.000570 0.000000 1.749490 
# 
# From -- ./inp_files/7351.got.cif
#   From: 2010.06.25/outbox.cif.g09.slc.cpg/sg15_4_cif.got.tgz:7351.got - 2010.06.28 07:06:18.
