data_PCOD8133714
_publ_section_title
;
Structure prediction by ZEFSAII (Michael W. Deem and Ramdas Pophale) SiO2 
 PCOD8133714
Probable space group: C 2/C
;
_chemical_formula_sum "Si O2"
_cell_formula_units_Z 56
_cell_length_a 11.891763
_cell_length_b 27.205576
_cell_length_c 14.226787
_cell_angle_alpha 90.000000
_cell_angle_beta 142.703079
_cell_angle_gamma 90.000000
_cell_volume 2788.975333
_symmetry_space_group_name_H-M "C 2/C"
_symmetry_group_IT_number 15
_symmetry_cell_setting 'monoclinic'
loop_
_space_group_symop_operation_xyz
x,y,z
-x,y,1/2-z
-x,-y,-z
x,-y,1/2+z
1/2+x,1/2+y,z
1/2-x,1/2+y,1/2-z
1/2-x,1/2-y,-z
1/2+x,1/2-y,1/2+z
loop_
_atom_site_type_symbol
_atom_site_label
_atom_site_fract_x
_atom_site_fract_y
_atom_site_fract_z
Si Si1 0.018829 0.911645 0.040381
Si Si2 0.311779 0.043710 0.068885
Si Si3 0.556939 0.305821 0.016435
Si Si4 0.703426 0.381924 0.344475
Si Si5 0.120265 0.706638 0.623570
Si Si6 0.342036 0.159247 0.566762
Si Si7 0.161495 0.940976 0.933822
O O1 0.950684 0.856035 0.973078
O O2 0.184505 0.906608 0.228082
O O3 0.090104 0.937105 0.993366
O O4 0.854115 0.944431 0.970178
O O5 0.500000 0.048002 0.250000
O O6 0.317022 0.081407 0.985877
O O7 0.286219 0.989583 0.009268
O O8 0.720119 0.292949 0.194749
O O9 0.656667 0.313193 0.981231
O O10 0.404715 0.263031 0.923684
O O11 0.500000 0.370884 0.250000
O O12 0.818130 0.330648 0.418149
O O13 0.921366 0.689913 0.532542
O O14 0.500000 0.152608 0.750000
O O15 0.288288 0.105537 0.492658
O O16 0.000000 0.945362 0.750000
#
# Coordination Sequence:
#
# PCOD8133714 Si02
#       7
#     8   8   8   8   8   8   8
#     4   9  20  41  58  77 112 152 184 226 281 332
#     4  11  23  38  58  84 110 142 188 237 278 329
#     4   9  19  33  55  81 110 145 184 226 278 332
#     4   9  20  40  59  77 111 153 191 232 276 327
#     4  10  19  34  55  80 111 146 181 229 281 326
#     4   9  19  35  53  80 114 145 182 230 278 330
#     4  11  22  37  59  85 113 147 184 226 281 342
#
# _framework density 20.079059000000001
#
# number of rings (size 3 to 8) (size 9 to 14) (size 15 to 20)
#    0.000    2.286    0.000    3.429    0.000    4.571 
#    0.000   10.000    0.000    0.000    0.000    0.000 
#    0.000    0.000    0.000    0.000    0.000    0.000 
#
# Total GULP energy -347141.834210 kJ/mol
# GULP energy per Si atom -12397.922650 kJ/mol
# Density = 2.003336 g / cm^3
# Si number density = 20.079059 Si / 1000 Ang^3
#
#
#
# Elastic Constant Matrix: (Units=GPa)
#
#
# Indices 1 2 3 4 5 6 
#
# 1 42.5004 19.8400 19.8218 0.0000 -18.9493 0.0000
# 2 19.8400 137.9549 39.5656 0.0000 -3.4305 0.0000
# 3 19.8218 39.5656 76.3576 0.0000 -6.9010 0.0000
# 4 0.0000 0.0000 0.0000 38.0240 0.0000 7.6527
# 5 -18.9493 -3.4305 -6.9010 0.0000 23.2171 0.0000
# 6 0.0000 0.0000 0.0000 7.6527 0.0000 27.1494
#
#
#
# Elastic Compliance Matrix: (Units=1/GPa)
#
#
# Indices 1 2 3 4 5 6 
#
# 1 0.042504 -0.003503 -0.006299 0.000000 0.032301 0.000000
# 2 -0.003503 0.008803 -0.003897 0.000000 -0.002717 0.000000
# 3 -0.006299 -0.003897 0.016683 0.000000 -0.000759 0.000000
# 4 0.000000 0.000000 0.000000 0.027881 0.000000 -0.007859
# 5 0.032301 -0.002717 -0.000759 0.000000 0.068808 0.000000
# 6 0.000000 0.000000 0.000000 -0.007859 0.000000 0.039048
#
#
# Mechanical properties :
#
#
# Convention : Reuss Voigt Hill
#
# Bulk Modulus (GPa) = 24.63667 46.14087 35.38877
# Shear Modulus (GPa) = 20.43684 29.51714 24.97699
#
# Velocity S-wave (km/s) = 3.19379 3.83828 3.53077
# Velocity P-wave (km/s) = 5.08889 6.53243 5.85532
#
# Compressibility (1/GPa) = 0.04058990
#
# Stress axis : x y z
#
# Youngs Moduli (GPa) = 23.52711 113.60086 59.94298
#
# Poissons Ratio (x) = 0.39793 0.37761
# Poissons Ratio (y) = 0.08241 0.23363
# Poissons Ratio (z) = 0.14821 0.44276
#
# Static dielectric constant tensor:
#      x y z
#    x 3.721300 0.000000 -0.085950 
#    y 0.000000 3.947080 0.000000 
#    z -0.085950 0.000000 3.491650 
# 
# 
# High freq. dielectric constant tensor:
#      x y z
#    x 1.770690 0.000000 -0.005470 
#    y 0.000000 1.797810 0.000000 
#    z -0.005470 0.000000 1.770770 
# 
# From -- ./inp_files/148562.got.cif
#   From: 2010.06.25/outbox.cif.g09.slc.cpg/sg15_75_cif.got.tgz:148562.got - 2010.06.28 07:06:18.
