data_PCOD8133552
_publ_section_title
;
Structure prediction by ZEFSAII (Michael W. Deem and Ramdas Pophale) SiO2 
 PCOD8133552
Probable space group: C 2/C
;
_chemical_formula_sum "Si O2"
_cell_formula_units_Z 64
_cell_length_a 13.658778
_cell_length_b 26.759094
_cell_length_c 9.966258
_cell_angle_alpha 90.000000
_cell_angle_beta 70.187015
_cell_angle_gamma 90.000000
_cell_volume 3427.003291
_symmetry_space_group_name_H-M "C 2/C"
_symmetry_group_IT_number 15
_symmetry_cell_setting 'monoclinic'
loop_
_space_group_symop_operation_xyz
x,y,z
-x,y,1/2-z
-x,-y,-z
x,-y,1/2+z
1/2+x,1/2+y,z
1/2-x,1/2+y,1/2-z
1/2-x,1/2-y,-z
1/2+x,1/2-y,1/2+z
loop_
_atom_site_type_symbol
_atom_site_label
_atom_site_fract_x
_atom_site_fract_y
_atom_site_fract_z
Si Si1 0.627208 0.229478 0.326600
Si Si2 0.626051 0.957537 0.839602
Si Si3 0.384942 0.952884 0.963982
Si Si4 0.250735 0.858701 0.098875
Si Si5 0.603959 0.768062 0.531641
Si Si6 0.735078 0.636936 0.160632
Si Si7 0.650630 0.663176 0.915595
Si Si8 0.410208 0.340258 0.548919
O O1 0.512505 0.209680 0.420234
O O2 0.629929 0.248431 0.171770
O O3 0.702503 0.183300 0.308236
O O4 0.660093 0.276744 0.401519
O O5 0.507293 0.942823 0.924270
O O6 0.642357 0.969704 0.674911
O O7 0.699663 0.912981 0.851794
O O8 0.656545 0.005549 0.913644
O O9 0.331326 0.901398 0.025264
O O10 0.207540 0.865008 0.268153
O O11 0.311717 0.806578 0.060535
O O12 0.153751 0.863267 0.044268
O O13 0.608710 0.719338 0.435657
O O14 0.628025 0.634652 0.294788
O O15 0.710761 0.644653 0.017566
O O16 0.530658 0.646551 0.973044
#
# Coordination Sequence:
#
# PCOD8133552 Si02
#       8
#     8   8   8   8   8   8   8   8
#     4  10  19  35  55  86 119 151 191 236 282 339
#     4  10  22  41  64  91 117 143 183 233 293 349
#     4  10  22  40  65  92 115 144 182 234 293 348
#     4  12  20  37  61  87 110 153 199 234 281 338
#     4  10  19  33  59  86 114 150 198 236 275 340
#     4  12  22  38  59  83 117 155 190 233 290 340
#     4  11  25  35  53  86 121 155 192 237 276 327
#     4  11  21  38  58  80 114 159 197 232 273 329
#
# _framework density 18.675208000000001
#
# number of rings (size 3 to 8) (size 9 to 14) (size 15 to 20)
#    0.000    1.250    3.750    3.000    1.750    2.000 
#    0.000    3.125    0.000    4.500    0.000    0.000 
#    0.000    0.000    0.000    0.000    0.000    0.000 
#
# Total GULP energy -396905.132860 kJ/mol
# GULP energy per Si atom -12403.285402 kJ/mol
# Density = 1.863270 g / cm^3
# Si number density = 18.675208 Si / 1000 Ang^3
#
#
#
# Elastic Constant Matrix: (Units=GPa)
#
#
# Indices 1 2 3 4 5 6 
#
# 1 60.5553 24.3659 21.8499 0.0000 -4.6443 0.0000
# 2 24.3659 56.2560 21.7805 0.0000 -3.2799 0.0000
# 3 21.8499 21.7805 109.1194 0.0000 -2.9681 0.0000
# 4 0.0000 0.0000 0.0000 24.3628 0.0000 0.2257
# 5 -4.6443 -3.2799 -2.9681 0.0000 30.0044 0.0000
# 6 0.0000 0.0000 0.0000 0.2257 0.0000 16.0013
#
#
#
# Elastic Compliance Matrix: (Units=1/GPa)
#
#
# Indices 1 2 3 4 5 6 
#
# 1 0.020762 -0.007892 -0.002525 0.000000 0.002101 0.000000
# 2 -0.007892 0.022355 -0.002856 0.000000 0.000940 0.000000
# 3 -0.002525 -0.002856 0.010248 0.000000 0.000311 0.000000
# 4 0.000000 0.000000 0.000000 0.041052 0.000000 -0.000579
# 5 0.002101 0.000940 0.000311 0.000000 0.033787 0.000000
# 6 0.000000 0.000000 0.000000 -0.000579 0.000000 0.062503
#
#
# Mechanical properties :
#
#
# Convention : Reuss Voigt Hill
#
# Bulk Modulus (GPa) = 37.28808 40.21370 38.75089
# Shear Modulus (GPa) = 22.10502 24.60266 23.35384
#
# Velocity S-wave (km/s) = 3.44416 3.63353 3.54011
# Velocity P-wave (km/s) = 5.98551 6.25966 6.12412
#
# Compressibility (1/GPa) = 0.02681822
#
# Stress axis : x y z
#
# Youngs Moduli (GPa) = 48.16566 44.73298 97.57639
#
# Poissons Ratio (x) = 0.35305 0.24636
# Poissons Ratio (y) = 0.38014 0.27869
# Poissons Ratio (z) = 0.12161 0.12776
#
# Static dielectric constant tensor:
#      x y z
#    x 3.556850 0.000000 -0.096880 
#    y 0.000000 3.252070 0.000000 
#    z -0.096880 0.000000 3.580990 
# 
# 
# High freq. dielectric constant tensor:
#      x y z
#    x 1.731680 0.000000 -0.009260 
#    y 0.000000 1.701550 0.000000 
#    z -0.009260 0.000000 1.735320 
# 
# From -- ./inp_files/43500.got.cif
#   From: 2010.06.25/outbox.cif.g09.slc.cpg/sg15_22_cif.got.tgz:43500.got - 2010.06.28 07:06:18.
