data_PCOD8133804
_publ_section_title
;
Structure prediction by ZEFSAII (Michael W. Deem and Ramdas Pophale) SiO2 
 PCOD8133804
Probable space group: C 2/C
;
_chemical_formula_sum "Si O2"
_cell_formula_units_Z 64
_cell_length_a 26.507289
_cell_length_b 14.417165
_cell_length_c 18.720054
_cell_angle_alpha 90.000000
_cell_angle_beta 151.921937
_cell_angle_gamma 90.000000
_cell_volume 3367.228463
_symmetry_space_group_name_H-M "C 2/C"
_symmetry_group_IT_number 15
_symmetry_cell_setting 'monoclinic'
loop_
_space_group_symop_operation_xyz
x,y,z
-x,y,1/2-z
-x,-y,-z
x,-y,1/2+z
1/2+x,1/2+y,z
1/2-x,1/2+y,1/2-z
1/2-x,1/2-y,-z
1/2+x,1/2-y,1/2+z
loop_
_atom_site_type_symbol
_atom_site_label
_atom_site_fract_x
_atom_site_fract_y
_atom_site_fract_z
Si Si1 0.106197 0.125823 0.708273
Si Si2 0.400295 0.724345 0.386614
Si Si3 0.743043 0.276842 0.658585
Si Si4 0.287184 0.551214 0.196140
Si Si5 0.617852 0.004542 0.866102
Si Si6 0.781520 0.851334 0.017654
Si Si7 0.078729 0.412316 0.173497
Si Si8 0.349615 0.051397 0.342954
O O1 0.212941 0.180512 0.816888
O O2 0.112813 0.121832 0.803616
O O3 0.004991 0.174066 0.547509
O O4 0.115438 0.019579 0.695490
O O5 0.337133 0.753435 0.378938
O O6 0.333856 0.654792 0.253566
O O7 0.423117 0.810873 0.363934
O O8 0.688498 0.343002 0.529191
O O9 0.840174 0.340698 0.808576
O O10 0.245301 0.525884 0.222166
O O11 0.191116 0.546710 0.019645
O O12 0.500000 0.976246 0.750000
O O13 0.607029 0.086347 0.792965
O O14 0.678402 0.917358 0.905127
O O15 0.750000 0.750000 0.000000
O O16 0.162559 0.478909 0.237238
O O17 0.963299 0.460989 0.023277
#
# Coordination Sequence:
#
# PCOD8133804 Si02
#       8
#     8   8   8   8   8   8   8   8
#     4  10  20  38  56  83 122 153 200 245 302 365
#     4  11  23  36  60  85 115 168 200 250 296 353
#     4  10  19  37  55  86 119 148 202 241 301 359
#     4  10  22  38  58  85 116 159 203 246 301 360
#     4  11  21  38  62  90 122 161 198 250 310 352
#     4   9  20  37  54  85 124 151 188 250 297 370
#     4  11  21  35  60  85 119 154 199 247 303 352
#     4  10  19  34  57  85 115 146 194 251 292 350
#
# _framework density 19.006729
#
# number of rings (size 3 to 8) (size 9 to 14) (size 15 to 20)
#    0.000    1.750    3.750    1.125    0.000    1.000 
#   13.500    0.000    0.000    0.000    0.000    0.000 
#    0.000    0.000    0.000    0.000    0.000    0.000 
#
# Total GULP energy -396509.564991 kJ/mol
# GULP energy per Si atom -12390.923906 kJ/mol
# Density = 1.896347 g / cm^3
# Si number density = 19.006729 Si / 1000 Ang^3
#
#
#
# Elastic Constant Matrix: (Units=GPa)
#
#
# Indices 1 2 3 4 5 6 
#
# 1 62.6503 30.3152 19.8522 0.0000 -14.7242 0.0000
# 2 30.3152 60.0814 22.7846 0.0000 -1.8280 0.0000
# 3 19.8522 22.7846 72.6289 0.0000 -7.6036 0.0000
# 4 0.0000 0.0000 0.0000 26.2047 0.0000 -4.6008
# 5 -14.7242 -1.8280 -7.6036 0.0000 23.5550 0.0000
# 6 0.0000 0.0000 0.0000 -4.6008 0.0000 28.8057
#
#
#
# Elastic Compliance Matrix: (Units=1/GPa)
#
#
# Indices 1 2 3 4 5 6 
#
# 1 0.025674 -0.011836 -0.001781 0.000000 0.014556 0.000000
# 2 -0.011836 0.024353 -0.005156 0.000000 -0.007173 0.000000
# 3 -0.001781 -0.005156 0.016264 0.000000 0.003737 0.000000
# 4 0.000000 0.000000 0.000000 0.039262 0.000000 0.006271
# 5 0.014556 -0.007173 0.003737 0.000000 0.052202 0.000000
# 6 0.000000 0.000000 0.000000 0.006271 0.000000 0.035717
#
#
# Mechanical properties :
#
#
# Convention : Reuss Voigt Hill
#
# Bulk Modulus (GPa) = 34.78716 37.91828 36.35272
# Shear Modulus (GPa) = 20.78144 23.87365 22.32755
#
# Velocity S-wave (km/s) = 3.31021 3.54794 3.43113
# Velocity P-wave (km/s) = 5.74040 6.06441 5.90463
#
# Compressibility (1/GPa) = 0.02874624
#
# Stress axis : x y z
#
# Youngs Moduli (GPa) = 38.94983 41.06236 61.48573
#
# Poissons Ratio (x) = 0.48602 0.10949
# Poissons Ratio (y) = 0.46102 0.31700
# Poissons Ratio (z) = 0.06936 0.21170
#
# Static dielectric constant tensor:
#      x y z
#    x 3.753740 0.000000 -0.388400 
#    y 0.000000 3.445290 0.000000 
#    z -0.388400 0.000000 3.686190 
# 
# 
# High freq. dielectric constant tensor:
#      x y z
#    x 1.739710 0.000000 -0.016040 
#    y 0.000000 1.732880 0.000000 
#    z -0.016040 0.000000 1.731920 
# 
# From -- ./inp_files/123536.got.cif
#   From: 2010.06.25/outbox.cif.g09.slc.cpg/sg15_62_cif.got.tgz:123536.got - 2010.06.28 07:06:18.
