data_PCOD8133754
_publ_section_title
;
Structure prediction by ZEFSAII (Michael W. Deem and Ramdas Pophale) SiO2 
 PCOD8133754
Probable space group: C 2/C
;
_chemical_formula_sum "Si O2"
_cell_formula_units_Z 44
_cell_length_a 12.013805
_cell_length_b 42.114619
_cell_length_c 5.180056
_cell_angle_alpha 90.000000
_cell_angle_beta 117.416323
_cell_angle_gamma 90.000000
_cell_volume 2326.518017
_symmetry_space_group_name_H-M "C 2/C"
_symmetry_group_IT_number 15
_symmetry_cell_setting 'monoclinic'
loop_
_space_group_symop_operation_xyz
x,y,z
-x,y,1/2-z
-x,-y,-z
x,-y,1/2+z
1/2+x,1/2+y,z
1/2-x,1/2+y,1/2-z
1/2-x,1/2-y,-z
1/2+x,1/2-y,1/2+z
loop_
_atom_site_type_symbol
_atom_site_label
_atom_site_fract_x
_atom_site_fract_y
_atom_site_fract_z
Si Si1 0.853939 0.682170 0.590567
Si Si2 0.850117 0.278139 0.586811
Si Si3 0.350554 0.888657 0.072976
Si Si4 0.855804 0.016243 0.595837
Si Si5 0.500000 0.978426 0.750000
Si Si6 0.212958 0.426488 0.994906
O O1 0.815577 0.698920 0.284901
O O2 0.795159 0.646986 0.544436
O O3 0.000000 0.676724 0.750000
O O4 0.813106 0.703776 0.786276
O O5 0.750000 0.250000 0.500000
O O6 0.000000 0.268014 0.750000
O O7 0.500000 0.890289 0.250000
O O8 0.290276 0.909805 0.231600
O O9 0.308899 0.900446 0.747917
O O10 0.843945 0.054787 0.599181
O O11 0.000000 0.006951 0.750000
O O12 0.791173 0.001433 0.271248
O O13 0.618515 0.955613 0.872000
O O14 0.500000 0.000000 0.500000
#
# Coordination Sequence:
#
# PCOD8133754 Si02
#       6
#     8   8   8   8   4   8
#     4   9  19  33  54  78 108 143 179 216 248 303
#     4  10  19  34  56  84 111 142 180 219 265 311
#     4  11  20  35  52  78 108 139 176 209 253 319
#     4  10  21  38  56  72  93 129 177 221 262 312
#     4  12  22  32  46  72 108 130 158 204 272 326
#     4  12  21  34  53  76 103 134 169 214 268 311
#
# _framework density 18.912383999999999
#
# number of rings (size 3 to 8) (size 9 to 14) (size 15 to 20)
#    0.000    1.455    1.818    4.909    0.000    2.909 
#    0.000    0.000    0.000    6.545    0.000    0.000 
#    0.000    0.000    0.000    0.000    0.000    0.000 
#
# Total GULP energy -272690.675482 kJ/mol
# GULP energy per Si atom -12395.030704 kJ/mol
# Density = 1.886934 g / cm^3
# Si number density = 18.912384 Si / 1000 Ang^3
#
#
#
# Elastic Constant Matrix: (Units=GPa)
#
#
# Indices 1 2 3 4 5 6 
#
# 1 53.3617 47.3324 40.8860 0.0000 -18.5778 0.0000
# 2 47.3324 134.6441 34.4106 0.0000 -16.3690 0.0000
# 3 40.8860 34.4106 79.9768 0.0000 -37.1572 0.0000
# 4 0.0000 0.0000 0.0000 85.3836 0.0000 -4.8520
# 5 -18.5778 -16.3690 -37.1572 0.0000 31.8535 0.0000
# 6 0.0000 0.0000 0.0000 -4.8520 0.0000 25.9165
#
#
#
# Elastic Compliance Matrix: (Units=1/GPa)
#
#
# Indices 1 2 3 4 5 6 
#
# 1 0.039903 -0.009907 -0.016788 0.000000 -0.001402 0.000000
# 2 -0.009907 0.010805 0.000679 0.000000 0.000567 0.000000
# 3 -0.016788 0.000679 0.035820 0.000000 0.032342 0.000000
# 4 0.000000 0.000000 0.000000 0.011838 0.000000 0.002216
# 5 -0.001402 0.000567 0.032342 0.000000 0.068594 0.000000
# 6 0.000000 0.000000 0.000000 0.002216 0.000000 0.039000
#
#
# Mechanical properties :
#
#
# Convention : Reuss Voigt Hill
#
# Bulk Modulus (GPa) = 28.98943 57.02673 43.00808
# Shear Modulus (GPa) = 18.55354 38.32096 28.43725
#
# Velocity S-wave (km/s) = 3.13553 4.50626 3.88188
# Velocity P-wave (km/s) = 5.33576 7.56926 6.54844
#
# Compressibility (1/GPa) = 0.03449534
#
# Stress axis : x y z
#
# Youngs Moduli (GPa) = 25.06089 92.54883 27.91756
#
# Poissons Ratio (x) = 0.91691 0.46868
# Poissons Ratio (y) = 0.24829 -0.01896
# Poissons Ratio (z) = 0.42072 -0.06285
#
# Static dielectric constant tensor:
#      x y z
#    x 3.077780 0.000000 -0.513850 
#    y 0.000000 3.686580 0.000000 
#    z -0.513850 0.000000 3.356790 
# 
# 
# High freq. dielectric constant tensor:
#      x y z
#    x 1.715150 0.000000 -0.026760 
#    y 0.000000 1.740740 0.000000 
#    z -0.026760 0.000000 1.746340 
# 
# From -- ./inp_files/8871.got.cif
#   From: 2010.06.25/outbox.cif.g09.slc.cpg/sg15_5_cif.got.tgz:8871.got - 2010.06.28 07:06:18.
