data_PCOD8133497
_publ_section_title
;
Structure prediction by ZEFSAII (Michael W. Deem and Ramdas Pophale) SiO2 
 PCOD8133497
Probable space group: C 2/C
;
_chemical_formula_sum "Si O2"
_cell_formula_units_Z 52
_cell_length_a 13.197205
_cell_length_b 19.228198
_cell_length_c 13.529581
_cell_angle_alpha 90.000000
_cell_angle_beta 49.197207
_cell_angle_gamma 90.000000
_cell_volume 2598.840724
_symmetry_space_group_name_H-M "C 2/C"
_symmetry_group_IT_number 15
_symmetry_cell_setting 'monoclinic'
loop_
_space_group_symop_operation_xyz
x,y,z
-x,y,1/2-z
-x,-y,-z
x,-y,1/2+z
1/2+x,1/2+y,z
1/2-x,1/2+y,1/2-z
1/2-x,1/2-y,-z
1/2+x,1/2-y,1/2+z
loop_
_atom_site_type_symbol
_atom_site_label
_atom_site_fract_x
_atom_site_fract_y
_atom_site_fract_z
Si Si1 0.000000 0.982378 0.750000
Si Si2 0.326276 0.391149 0.738741
Si Si3 0.268586 0.828648 0.020488
Si Si4 0.423862 0.416331 0.474751
Si Si5 0.571109 0.234837 0.809125
Si Si6 0.659222 0.682787 0.797194
Si Si7 0.447449 0.176464 0.083317
O O1 0.126133 0.933132 0.695240
O O2 0.045387 0.024957 0.624749
O O3 0.376294 0.439768 0.614382
O O4 0.393780 0.314924 0.691059
O O5 0.165108 0.383780 0.847382
O O6 0.207362 0.873838 0.973018
O O7 0.185028 0.845989 0.171660
O O8 0.250000 0.750000 0.000000
O O9 0.420681 0.851624 0.945930
O O10 0.553298 0.368795 0.413256
O O11 0.500000 0.225758 0.750000
O O12 0.706001 0.188005 0.722755
O O13 0.473808 0.205752 0.956228
O O14 0.601184 0.759691 0.819042
#
# Coordination Sequence:
#
# PCOD8133497 Si02
#       7
#     4   8   8   8   8   8   8
#     4  12  26  44  62  84 126 176 218 248 286 376
#     4  11  24  41  60  94 125 165 213 251 307 374
#     4  11  19  33  60  93 124 152 194 256 326 367
#     4  12  22  40  64  87 121 164 210 253 305 366
#     4  10  20  36  61  92 127 157 196 254 324 363
#     4  10  19  33  56  91 121 152 196 256 312 367
#     4  10  21  36  60  95 128 155 194 269 321 368
#
# _framework density 20.008921999999998
#
# number of rings (size 3 to 8) (size 9 to 14) (size 15 to 20)
#    0.000    1.231    5.385    2.308    0.000    5.538 
#    0.000    0.769    0.000    0.000    0.000    0.000 
#    0.000    0.000    0.000    0.000    0.000    0.000 
#
# Total GULP energy -322274.609078 kJ/mol
# GULP energy per Si atom -12395.177272 kJ/mol
# Density = 1.996338 g / cm^3
# Si number density = 20.008922 Si / 1000 Ang^3
#
#
#
# Elastic Constant Matrix: (Units=GPa)
#
#
# Indices 1 2 3 4 5 6 
#
# 1 129.5929 39.3636 54.0352 0.0000 -7.8329 0.0000
# 2 39.3636 64.4053 30.2018 0.0000 -7.7600 0.0000
# 3 54.0352 30.2018 83.9726 0.0000 -17.1398 0.0000
# 4 0.0000 0.0000 0.0000 16.2681 0.0000 6.3321
# 5 -7.8329 -7.7600 -17.1398 0.0000 30.2770 0.0000
# 6 0.0000 0.0000 0.0000 6.3321 0.0000 33.8808
#
#
#
# Elastic Compliance Matrix: (Units=1/GPa)
#
#
# Indices 1 2 3 4 5 6 
#
# 1 0.011512 -0.004333 -0.006182 0.000000 -0.001632 0.000000
# 2 -0.004333 0.020341 -0.004174 0.000000 0.001729 0.000000
# 3 -0.006182 -0.004174 0.019044 0.000000 0.008111 0.000000
# 4 0.000000 0.000000 0.000000 0.066293 0.000000 -0.012390
# 5 -0.001632 0.001729 0.008111 0.000000 0.037641 0.000000
# 6 0.000000 0.000000 0.000000 -0.012390 0.000000 0.031831
#
#
# Mechanical properties :
#
#
# Convention : Reuss Voigt Hill
#
# Bulk Modulus (GPa) = 46.47613 58.35244 52.41428
# Shear Modulus (GPa) = 22.40002 26.37653 24.38827
#
# Velocity S-wave (km/s) = 3.34953 3.63469 3.49502
# Velocity P-wave (km/s) = 6.18363 6.84406 6.52221
#
# Compressibility (1/GPa) = 0.02151642
#
# Stress axis : x y z
#
# Youngs Moduli (GPa) = 86.86680 49.16153 52.51022
#
# Poissons Ratio (x) = 0.21304 0.32463
# Poissons Ratio (y) = 0.37643 0.21920
# Poissons Ratio (z) = 0.53704 0.20522
#
# Static dielectric constant tensor:
#      x y z
#    x 4.481490 0.000000 -0.181990 
#    y 0.000000 3.394720 0.000000 
#    z -0.181990 0.000000 3.794260 
# 
# 
# High freq. dielectric constant tensor:
#      x y z
#    x 1.796650 0.000000 -0.001050 
#    y 0.000000 1.743990 0.000000 
#    z -0.001050 0.000000 1.787000 
# 
# From -- ./inp_files/147038.got.cif
#   From: 2010.06.25/outbox.cif.g09.slc.cpg/sg15_74_cif.got.tgz:147038.got - 2010.06.28 07:06:18.
