data_PCOD8133565
_publ_section_title
;
Structure prediction by ZEFSAII (Michael W. Deem and Ramdas Pophale) SiO2 
 PCOD8133565
Probable space group: C 2/C
;
_chemical_formula_sum "Si O2"
_cell_formula_units_Z 48
_cell_length_a 24.815064
_cell_length_b 9.471997
_cell_length_c 13.934312
_cell_angle_alpha 90.000000
_cell_angle_beta 48.655069
_cell_angle_gamma 90.000000
_cell_volume 2458.870755
_symmetry_space_group_name_H-M "C 2/C"
_symmetry_group_IT_number 15
_symmetry_cell_setting 'monoclinic'
loop_
_space_group_symop_operation_xyz
x,y,z
-x,y,1/2-z
-x,-y,-z
x,-y,1/2+z
1/2+x,1/2+y,z
1/2-x,1/2+y,1/2-z
1/2-x,1/2-y,-z
1/2+x,1/2-y,1/2+z
loop_
_atom_site_type_symbol
_atom_site_label
_atom_site_fract_x
_atom_site_fract_y
_atom_site_fract_z
Si Si1 0.083711 0.817607 0.649940
Si Si2 0.316477 0.101969 0.061624
Si Si3 0.159701 0.799014 0.752469
Si Si4 0.322572 0.822431 0.945414
Si Si5 0.680334 0.977008 0.734166
Si Si6 0.347964 0.431201 0.534258
O O1 0.121443 0.672603 0.573779
O O2 0.111175 0.859809 0.723500
O O3 0.000000 0.788213 0.750000
O O4 0.100528 0.939988 0.553417
O O5 0.242699 0.182293 0.127450
O O6 0.336973 0.110367 0.149565
O O7 0.306662 0.939247 0.044681
O O8 0.146553 0.632341 0.781705
O O9 0.138454 0.886714 0.871908
O O10 0.357847 0.894112 0.809437
O O11 0.250000 0.750000 0.000000
O O12 0.369920 0.700070 0.939225
O O13 0.766039 0.982222 0.616114
#
# Coordination Sequence:
#
# PCOD8133565 Si02
#       6
#     8   8   8   8   8   8
#     4  12  26  42  60  88 129 172 204 244 307 376
#     4  11  21  37  64  93 122 154 210 254 308 366
#     4  11  20  38  67  91 120 160 204 264 310 346
#     4  10  19  33  59  94 123 149 196 258 313 357
#     4  10  19  34  64  97 119 151 201 263 310 354
#     4  10  22  37  60  94 123 155 206 257 306 362
#
# _framework density 19.521156999999999
#
# number of rings (size 3 to 8) (size 9 to 14) (size 15 to 20)
#    0.000    1.333    5.000    2.500    0.000    2.000 
#    0.000    1.667    0.000    0.000    0.000    0.000 
#    0.000    0.000    0.000    0.000    0.000    0.000 
#
# Total GULP energy -297618.144142 kJ/mol
# GULP energy per Si atom -12400.756006 kJ/mol
# Density = 1.947673 g / cm^3
# Si number density = 19.521157 Si / 1000 Ang^3
#
#
#
# Elastic Constant Matrix: (Units=GPa)
#
#
# Indices 1 2 3 4 5 6 
#
# 1 84.8479 26.9740 63.7542 0.0000 20.2596 0.0000
# 2 26.9740 99.8658 30.4051 0.0000 3.0176 0.0000
# 3 63.7542 30.4051 78.9515 0.0000 6.3328 0.0000
# 4 0.0000 0.0000 0.0000 21.6738 0.0000 11.9280
# 5 20.2596 3.0176 6.3328 0.0000 31.4136 0.0000
# 6 0.0000 0.0000 0.0000 11.9280 0.0000 24.6933
#
#
#
# Elastic Compliance Matrix: (Units=1/GPa)
#
#
# Indices 1 2 3 4 5 6 
#
# 1 0.038623 -0.000937 -0.029311 0.000000 -0.018910 0.000000
# 2 -0.000937 0.011368 -0.003641 0.000000 0.000246 0.000000
# 3 -0.029311 -0.003641 0.036788 0.000000 0.011837 0.000000
# 4 0.000000 0.000000 0.000000 0.062846 0.000000 -0.030357
# 5 -0.018910 0.000246 0.011837 0.000000 0.041619 0.000000
# 6 0.000000 0.000000 0.000000 -0.030357 0.000000 0.055161
#
#
# Mechanical properties :
#
#
# Convention : Reuss Voigt Hill
#
# Bulk Modulus (GPa) = 52.62970 56.21466 54.42218
# Shear Modulus (GPa) = 15.59990 25.05825 20.32907
#
# Velocity S-wave (km/s) = 2.82995 3.58669 3.23055
# Velocity P-wave (km/s) = 6.13979 6.78319 6.46950
#
# Compressibility (1/GPa) = 0.01900068
#
# Stress axis : x y z
#
# Youngs Moduli (GPa) = 25.89133 87.96939 27.18303
#
# Poissons Ratio (x) = 0.08241 0.79676
# Poissons Ratio (y) = 0.02425 0.09898
# Poissons Ratio (z) = 0.75890 0.32030
#
# Static dielectric constant tensor:
#      x y z
#    x 3.557850 0.000000 0.506190 
#    y 0.000000 3.803990 0.000000 
#    z 0.506190 0.000000 3.400180 
# 
# 
# High freq. dielectric constant tensor:
#      x y z
#    x 1.742840 0.000000 0.047610 
#    y 0.000000 1.776060 0.000000 
#    z 0.047610 0.000000 1.732580 
# 
# From -- ./inp_files/166153.got.cif
#   From: 2010.06.25/outbox.cif.g09.slc.cpg/sg15_84_cif.got.tgz:166153.got - 2010.06.28 07:06:18.
