data_PCOD8133545
_publ_section_title
;
Structure prediction by ZEFSAII (Michael W. Deem and Ramdas Pophale) SiO2 
 PCOD8133545
Probable space group: C 2/C
;
_chemical_formula_sum "Si O2"
_cell_formula_units_Z 44
_cell_length_a 8.911174
_cell_length_b 23.040221
_cell_length_c 11.757404
_cell_angle_alpha 90.000000
_cell_angle_beta 66.551498
_cell_angle_gamma 90.000000
_cell_volume 2214.625578
_symmetry_space_group_name_H-M "C 2/C"
_symmetry_group_IT_number 15
_symmetry_cell_setting 'monoclinic'
loop_
_space_group_symop_operation_xyz
x,y,z
-x,y,1/2-z
-x,-y,-z
x,-y,1/2+z
1/2+x,1/2+y,z
1/2-x,1/2+y,1/2-z
1/2-x,1/2-y,-z
1/2+x,1/2-y,1/2+z
loop_
_atom_site_type_symbol
_atom_site_label
_atom_site_fract_x
_atom_site_fract_y
_atom_site_fract_z
Si Si1 0.038005 0.582838 0.571047
Si Si2 0.819850 0.299711 0.829985
Si Si3 0.000000 0.891417 0.250000
Si Si4 0.813799 0.680365 0.591375
Si Si5 0.750606 0.463416 0.290094
Si Si6 0.342038 0.084517 0.219456
O O1 0.177394 0.567685 0.619812
O O2 0.112151 0.572448 0.424769
O O3 0.969678 0.649162 0.603541
O O4 0.878068 0.543542 0.645562
O O5 0.692093 0.246423 0.860541
O O6 0.760384 0.351675 0.763060
O O7 0.000000 0.275257 0.750000
O O8 0.835910 0.324549 0.950975
O O9 0.856853 0.851402 0.338043
O O10 0.924773 0.933736 0.176246
O O11 0.725749 0.533176 0.304106
O O12 0.500000 0.084444 0.250000
#
# Coordination Sequence:
#
# PCOD8133545 Si02
#       6
#     8   8   4   8   8   8
#     4  10  19  35  60  86 115 151 202 244 274 352
#     4  10  19  33  58  90 114 156 197 239 282 353
#     4  10  22  38  56  86 122 158 186 244 304 348
#     4  10  19  35  60  87 116 150 202 237 291 347
#     4  10  22  35  59  87 117 157 195 242 292 344
#     4  11  19  34  59  90 113 154 199 234 285 348
#
# _framework density 19.867918
#
# number of rings (size 3 to 8) (size 9 to 14) (size 15 to 20)
#    0.000    1.818    6.364    0.545    0.000    0.000 
#    0.000    3.636    0.000   36.000    0.000    0.000 
#    0.000    0.000    0.000    0.000    0.000    0.000 
#
# Total GULP energy -272565.155047 kJ/mol
# GULP energy per Si atom -12389.325229 kJ/mol
# Density = 1.982270 g / cm^3
# Si number density = 19.867918 Si / 1000 Ang^3
#
#
#
# Elastic Constant Matrix: (Units=GPa)
#
#
# Indices 1 2 3 4 5 6 
#
# 1 84.5139 45.7009 29.2802 0.0000 14.0406 0.0000
# 2 45.7009 143.3300 40.8812 0.0000 17.4292 0.0000
# 3 29.2802 40.8812 100.4886 0.0000 17.3068 0.0000
# 4 0.0000 0.0000 0.0000 24.6830 0.0000 -8.6854
# 5 14.0406 17.4292 17.3068 0.0000 15.5786 0.0000
# 6 0.0000 0.0000 0.0000 -8.6854 0.0000 22.8056
#
#
#
# Elastic Compliance Matrix: (Units=1/GPa)
#
#
# Indices 1 2 3 4 5 6 
#
# 1 0.015706 -0.003506 -0.001716 0.000000 -0.008327 0.000000
# 2 -0.003506 0.009248 -0.001859 0.000000 -0.005122 0.000000
# 3 -0.001716 -0.001859 0.013087 0.000000 -0.010913 0.000000
# 4 0.000000 0.000000 0.000000 0.046783 0.000000 0.017817
# 5 -0.008327 -0.005122 -0.010913 0.000000 0.089549 0.000000
# 6 0.000000 0.000000 0.000000 0.017817 0.000000 0.050634
#
#
# Mechanical properties :
#
#
# Convention : Reuss Voigt Hill
#
# Bulk Modulus (GPa) = 41.87641 62.22855 52.05248
# Shear Modulus (GPa) = 20.23240 26.77811 23.50526
#
# Velocity S-wave (km/s) = 3.19461 3.67523 3.44332
# Velocity P-wave (km/s) = 5.89327 7.02843 6.48573
#
# Compressibility (1/GPa) = 0.02387979
#
# Stress axis : x y z
#
# Youngs Moduli (GPa) = 63.66968 108.13526 76.41191
#
# Poissons Ratio (x) = 0.37911 0.13112
# Poissons Ratio (y) = 0.22322 0.14201
# Poissons Ratio (z) = 0.10926 0.20097
#
# Static dielectric constant tensor:
#      x y z
#    x 3.211240 0.000000 0.089690 
#    y 0.000000 4.409190 0.000000 
#    z 0.089690 0.000000 3.555520 
# 
# 
# High freq. dielectric constant tensor:
#      x y z
#    x 1.728330 0.000000 0.003770 
#    y 0.000000 1.796580 0.000000 
#    z 0.003770 0.000000 1.773920 
# 
# From -- ./inp_files/79055.got.cif
#   From: 2010.06.25/outbox.cif.g09.slc.cpg/sg15_40_cif.got.tgz:79055.got - 2010.06.28 07:06:18.
