data_PCOD8133760
_publ_section_title
;
Structure prediction by ZEFSAII (Michael W. Deem and Ramdas Pophale) SiO2 
 PCOD8133760
Probable space group: C 2/C
;
_chemical_formula_sum "Si O2"
_cell_formula_units_Z 48
_cell_length_a 5.281876
_cell_length_b 13.538456
_cell_length_c 28.921764
_cell_angle_alpha 90.000000
_cell_angle_beta 84.352936
_cell_angle_gamma 90.000000
_cell_volume 2058.113469
_symmetry_space_group_name_H-M "C 2/C"
_symmetry_group_IT_number 15
_symmetry_cell_setting 'monoclinic'
loop_
_space_group_symop_operation_xyz
x,y,z
-x,y,1/2-z
-x,-y,-z
x,-y,1/2+z
1/2+x,1/2+y,z
1/2-x,1/2+y,1/2-z
1/2-x,1/2-y,-z
1/2+x,1/2-y,1/2+z
loop_
_atom_site_type_symbol
_atom_site_label
_atom_site_fract_x
_atom_site_fract_y
_atom_site_fract_z
Si Si1 0.679823 0.958842 0.343147
Si Si2 0.766650 0.638709 0.220916
Si Si3 0.275766 0.483551 0.445016
Si Si4 0.021610 0.655640 0.490779
Si Si5 0.640197 0.322305 0.432991
Si Si6 0.194741 0.839656 0.330094
O O1 0.627124 0.960279 0.399531
O O2 0.437906 0.911371 0.321694
O O3 0.932221 0.897193 0.325864
O O4 0.714200 0.070271 0.324802
O O5 0.500000 0.615607 0.250000
O O6 0.780259 0.753500 0.207563
O O7 0.000000 0.612036 0.250000
O O8 0.250534 0.598528 0.458181
O O9 0.559353 0.438757 0.433208
O O10 0.190517 0.423963 0.492872
O O11 0.120568 0.696300 0.538237
O O12 0.926857 0.746561 0.459545
O O13 0.699056 0.287903 0.380323
#
# Coordination Sequence:
#
# PCOD8133760 Si02
#       6
#     8   8   8   8   8   8
#     4  11  24  44  68  96 132 169 211 265 323 382
#     4  12  27  46  70 100 126 162 214 267 332 398
#     4  10  20  35  56  86 121 164 209 252 303 361
#     4  10  19  34  56  84 123 164 212 251 296 358
#     4  10  20  35  56  86 121 164 209 252 303 361
#     4  11  24  44  68  96 132 169 211 265 323 382
#
# _framework density 23.322331999999999
#
# number of rings (size 3 to 8) (size 9 to 14) (size 15 to 20)
#    0.000    1.333    1.667    4.000    0.000    4.000 
#    0.000    0.000    0.000    0.000    0.000    0.000 
#    0.000    0.000    0.000    0.000    0.000    0.000 
#
# Total GULP energy -297407.356137 kJ/mol
# GULP energy per Si atom -12391.973172 kJ/mol
# Density = 2.326925 g / cm^3
# Si number density = 23.322332 Si / 1000 Ang^3
#
#
#
# Elastic Constant Matrix: (Units=GPa)
#
#
# Indices 1 2 3 4 5 6 
#
# 1 105.8107 13.8810 19.1293 0.0000 -0.1975 0.0000
# 2 13.8810 94.6515 28.9002 0.0000 -0.1583 0.0000
# 3 19.1293 28.9002 74.9594 0.0000 -2.3759 0.0000
# 4 0.0000 0.0000 0.0000 41.4468 0.0000 -1.4046
# 5 -0.1975 -0.1583 -2.3759 0.0000 24.3428 0.0000
# 6 0.0000 0.0000 0.0000 -1.4046 0.0000 15.4803
#
#
#
# Elastic Compliance Matrix: (Units=1/GPa)
#
#
# Indices 1 2 3 4 5 6 
#
# 1 0.009958 -0.000775 -0.002247 0.000000 -0.000144 0.000000
# 2 -0.000775 0.012038 -0.004455 0.000000 -0.000363 0.000000
# 3 -0.002247 -0.004455 0.015679 0.000000 0.001483 0.000000
# 4 0.000000 0.000000 0.000000 0.024202 0.000000 0.002196
# 5 -0.000144 -0.000363 0.001483 0.000000 0.041221 0.000000
# 6 0.000000 0.000000 0.000000 0.002196 0.000000 0.064797
#
#
# Mechanical properties :
#
#
# Convention : Reuss Voigt Hill
#
# Bulk Modulus (GPa) = 44.01102 44.36030 44.18566
# Shear Modulus (GPa) = 26.25724 30.48806 28.37265
#
# Velocity S-wave (km/s) = 3.35900 3.61951 3.49168
# Velocity P-wave (km/s) = 5.82714 6.04397 5.93655
#
# Compressibility (1/GPa) = 0.02272158
#
# Stress axis : x y z
#
# Youngs Moduli (GPa) = 100.41714 83.06771 63.78068
#
# Poissons Ratio (x) = 0.06434 0.14333
# Poissons Ratio (y) = 0.07777 0.28415
# Poissons Ratio (z) = 0.22567 0.37008
#
# Static dielectric constant tensor:
#      x y z
#    x 3.997580 0.000000 -0.136240 
#    y 0.000000 4.460700 0.000000 
#    z -0.136240 0.000000 4.267830 
# 
# 
# High freq. dielectric constant tensor:
#      x y z
#    x 1.909790 0.000000 -0.003300 
#    y 0.000000 1.928610 0.000000 
#    z -0.003300 0.000000 1.923280 
# 
# From -- ./inp_files/285556.got.cif
#   From: 2010.06.25/outbox.cif.g09.slc.cpg/sg15_143_cif.got.tgz:285556.got - 2010.06.28 07:06:18.
