data_PCOD8133659
_publ_section_title
;
Structure prediction by ZEFSAII (Michael W. Deem and Ramdas Pophale) SiO2 
 PCOD8133659
Probable space group: C 2/C
;
_chemical_formula_sum "Si O2"
_cell_formula_units_Z 52
_cell_length_a 22.273161
_cell_length_b 5.559441
_cell_length_c 27.649268
_cell_angle_alpha 90.000000
_cell_angle_beta 128.756660
_cell_angle_gamma 90.000000
_cell_volume 2669.847028
_symmetry_space_group_name_H-M "C 2/C"
_symmetry_group_IT_number 15
_symmetry_cell_setting 'monoclinic'
loop_
_space_group_symop_operation_xyz
x,y,z
-x,y,1/2-z
-x,-y,-z
x,-y,1/2+z
1/2+x,1/2+y,z
1/2-x,1/2+y,1/2-z
1/2-x,1/2-y,-z
1/2+x,1/2-y,1/2+z
loop_
_atom_site_type_symbol
_atom_site_label
_atom_site_fract_x
_atom_site_fract_y
_atom_site_fract_z
Si Si1 0.756929 0.328632 0.924954
Si Si2 0.402023 0.250281 0.438596
Si Si3 0.515543 0.765475 0.349109
Si Si4 0.673341 0.013761 0.450396
Si Si5 0.500000 0.068236 0.250000
Si Si6 0.044712 0.248473 0.078559
Si Si7 0.387062 0.392333 0.145623
O O1 0.813329 0.251637 0.910485
O O2 0.739314 0.099137 0.949531
O O3 0.676014 0.429358 0.862083
O O4 0.798869 0.528537 0.980056
O O5 0.411716 0.500883 0.414083
O O6 0.459190 0.256246 0.513128
O O7 0.414855 0.001131 0.415551
O O8 0.595789 0.862315 0.409563
O O9 0.479351 0.921131 0.287762
O O10 0.457070 0.744271 0.364098
O O11 0.534472 0.509402 0.334873
O O12 0.656221 0.279399 0.422536
O O13 0.419153 0.207689 0.201439
#
# Coordination Sequence:
#
# PCOD8133659 Si02
#       7
#     8   8   8   8   4   8   8
#     4  10  19  34  53  90 125 155 196 239 303 380
#     4  10  22  36  57  88 129 168 201 231 296 371
#     4  10  20  37  57  87 118 152 208 252 311 359
#     4   9  19  32  54  87 121 158 186 242 309 368
#     4  10  22  38  58  90 108 150 204 270 318 358
#     4  10  22  37  57  88 125 171 199 242 288 370
#     4  10  21  34  60  86 113 154 195 260 311 361
#
# _framework density 19.476773000000001
#
# number of rings (size 3 to 8) (size 9 to 14) (size 15 to 20)
#    0.000    2.154    1.538    0.923    6.462    1.231 
#    0.000    0.000    0.000    0.000   16.000    0.000 
#    0.000    0.000    0.000    0.000    0.000    0.000 
#
# Total GULP energy -322186.882003 kJ/mol
# GULP energy per Si atom -12391.803154 kJ/mol
# Density = 1.943244 g / cm^3
# Si number density = 19.476773 Si / 1000 Ang^3
#
#
#
# Elastic Constant Matrix: (Units=GPa)
#
#
# Indices 1 2 3 4 5 6 
#
# 1 127.0908 54.6472 43.6211 0.0042 -25.5819 -0.0028
# 2 54.6472 124.6272 39.6814 0.0019 -12.4677 -0.0065
# 3 43.6211 39.6814 89.9784 -0.0026 -17.7320 -0.0010
# 4 0.0042 0.0019 -0.0026 14.8487 0.0008 7.1787
# 5 -25.5819 -12.4677 -17.7320 0.0008 23.5260 0.0016
# 6 -0.0028 -0.0065 -0.0010 7.1787 0.0016 18.5642
#
#
#
# Elastic Compliance Matrix: (Units=1/GPa)
#
#
# Indices 1 2 3 4 5 6 
#
# 1 0.012165 -0.003610 -0.002438 -0.000005 0.009478 0.000001
# 2 -0.003610 0.010501 -0.003004 -0.000003 -0.000625 0.000004
# 3 -0.002438 -0.003004 0.015014 0.000005 0.007074 -0.000003
# 4 -0.000005 -0.000003 0.000005 0.082831 -0.000004 -0.032031
# 5 0.009478 -0.000625 0.007074 -0.000004 0.057813 -0.000002
# 6 0.000001 0.000004 -0.000003 -0.032031 -0.000002 0.066253
#
#
# Mechanical properties :
#
#
# Convention : Reuss Voigt Hill
#
# Bulk Modulus (GPa) = 51.08052 68.62177 59.85114
# Shear Modulus (GPa) = 18.57311 24.97091 21.77201
#
# Velocity S-wave (km/s) = 3.09140 3.58451 3.34705
# Velocity P-wave (km/s) = 6.24705 7.24160 6.76263
#
# Compressibility (1/GPa) = 0.01957694
#
# Stress axis : x y z
#
# Youngs Moduli (GPa) = 82.20285 95.23094 66.60249
#
# Poissons Ratio (x) = 0.34377 0.16237
# Poissons Ratio (y) = 0.29674 0.20007
# Poissons Ratio (z) = 0.20040 0.28607
#
# Static dielectric constant tensor:
#      x y z
#    x 3.385990 0.000000 0.027840 
#    y 0.000000 3.827110 0.000000 
#    z 0.027840 0.000000 3.400160 
# 
# 
# High freq. dielectric constant tensor:
#      x y z
#    x 1.739180 0.000000 0.004150 
#    y 0.000000 1.773020 0.000000 
#    z 0.004150 0.000000 1.732420 
# 
# From -- ./inp_files/299778.got.cif
#   From: 2010.06.25/outbox.cif.g09.slc.cpg/sg15_150_cif.got.tgz:299778.got - 2010.06.28 07:06:18.
