data_PCOD8133446
_publ_section_title
;
Structure prediction by ZEFSAII (Michael W. Deem and Ramdas Pophale) SiO2 
 PCOD8133446
Probable space group: C 2/C
;
_chemical_formula_sum "Si O2"
_cell_formula_units_Z 40
_cell_length_a 4.950066
_cell_length_b 23.900232
_cell_length_c 21.648453
_cell_angle_alpha 90.000000
_cell_angle_beta 131.043019
_cell_angle_gamma 90.000000
_cell_volume 1931.684369
_symmetry_space_group_name_H-M "C 2/C"
_symmetry_group_IT_number 15
_symmetry_cell_setting 'monoclinic'
loop_
_space_group_symop_operation_xyz
x,y,z
-x,y,1/2-z
-x,-y,-z
x,-y,1/2+z
1/2+x,1/2+y,z
1/2-x,1/2+y,1/2-z
1/2-x,1/2-y,-z
1/2+x,1/2-y,1/2+z
loop_
_atom_site_type_symbol
_atom_site_label
_atom_site_fract_x
_atom_site_fract_y
_atom_site_fract_z
Si Si1 0.125975 0.187879 0.995050
Si Si2 0.833931 0.562413 0.888218
Si Si3 0.091024 0.047664 0.194761
Si Si4 0.295163 0.622912 0.048984
Si Si5 0.828303 0.628293 0.662701
O O1 0.443297 0.145243 0.029231
O O2 0.000785 0.174720 0.046407
O O3 0.250000 0.250000 0.000000
O O4 0.774643 0.177979 0.899500
O O5 0.709563 0.498423 0.867587
O O6 0.531737 0.597972 0.874334
O O7 0.901977 0.583752 0.828448
O O8 0.192472 0.574082 0.983256
O O9 0.500000 0.024806 0.250000
O O10 0.000000 0.069034 0.250000
O O11 0.053243 0.097916 0.140243
O O12 0.000000 0.654543 0.750000
#
# Coordination Sequence:
#
# PCOD8133446 Si02
#       5
#     8   8   8   8   8
#     4  10  21  39  61  81 108 150 192 238 294 342
#     4  10  20  35  57  81 113 151 187 228 280 338
#     4  12  23  36  56  85 121 158 188 226 281 348
#     4  10  22  39  58  82 113 149 194 238 281 344
#     4  10  19  33  55  85 111 138 187 244 284 326
#
# _framework density 20.707315999999999
#
# number of rings (size 3 to 8) (size 9 to 14) (size 15 to 20)
#    0.000    1.600    0.000    6.000    0.000    0.000 
#    0.000   11.000    0.000    2.400    0.000    0.000 
#    0.000    0.000    0.000    0.000    0.000    0.000 
#
# Total GULP energy -247944.571778 kJ/mol
# GULP energy per Si atom -12397.228589 kJ/mol
# Density = 2.066019 g / cm^3
# Si number density = 20.707316 Si / 1000 Ang^3
#
#
#
# Elastic Constant Matrix: (Units=GPa)
#
#
# Indices 1 2 3 4 5 6 
#
# 1 120.9970 20.9922 32.4853 0.0000 -8.6733 0.0000
# 2 20.9922 90.5558 45.4596 0.0000 -8.4236 0.0000
# 3 32.4853 45.4596 98.2996 0.0000 -18.0840 0.0000
# 4 0.0000 0.0000 0.0000 19.0271 0.0000 1.9848
# 5 -8.6733 -8.4236 -18.0840 0.0000 33.6141 0.0000
# 6 0.0000 0.0000 0.0000 1.9848 0.0000 36.5395
#
#
#
# Elastic Compliance Matrix: (Units=1/GPa)
#
#
# Indices 1 2 3 4 5 6 
#
# 1 0.009132 -0.000783 -0.002506 0.000000 0.000812 0.000000
# 2 -0.000783 0.014449 -0.006431 0.000000 -0.000041 0.000000
# 3 -0.002506 -0.006431 0.015049 0.000000 0.005838 0.000000
# 4 0.000000 0.000000 0.000000 0.052856 0.000000 -0.002871
# 5 0.000812 -0.000041 0.005838 0.000000 0.033089 0.000000
# 6 0.000000 0.000000 0.000000 -0.002871 0.000000 0.027524
#
#
# Mechanical properties :
#
#
# Convention : Reuss Voigt Hill
#
# Bulk Modulus (GPa) = 52.11214 56.41407 54.26310
# Shear Modulus (GPa) = 28.10002 31.89716 29.99859
#
# Velocity S-wave (km/s) = 3.68776 3.92903 3.81030
# Velocity P-wave (km/s) = 6.58433 6.91995 6.75423
#
# Compressibility (1/GPa) = 0.01918939
#
# Stress axis : x y z
#
# Youngs Moduli (GPa) = 109.50988 69.20919 66.44863
#
# Poissons Ratio (x) = 0.05420 0.16654
# Poissons Ratio (y) = 0.08577 0.42731
# Poissons Ratio (z) = 0.27446 0.44507
#
# Static dielectric constant tensor:
#      x y z
#    x 4.012130 0.000000 -0.115860 
#    y 0.000000 3.323890 0.000000 
#    z -0.115860 0.000000 3.986010 
# 
# 
# High freq. dielectric constant tensor:
#      x y z
#    x 1.835680 0.000000 -0.005620 
#    y 0.000000 1.769130 0.000000 
#    z -0.005620 0.000000 1.810480 
# 
# From -- ./inp_files/129123.got.cif
#   From: 2010.06.25/outbox.cif.g09.slc.cpg/sg15_65_cif.got.tgz:129123.got - 2010.06.28 07:06:18.
