data_PCOD8133508
_publ_section_title
;
Structure prediction by ZEFSAII (Michael W. Deem and Ramdas Pophale) SiO2 
 PCOD8133508
Probable space group: C 2/C
;
_chemical_formula_sum "Si O2"
_cell_formula_units_Z 48
_cell_length_a 18.629844
_cell_length_b 7.361406
_cell_length_c 19.505483
_cell_angle_alpha 90.000000
_cell_angle_beta 70.336407
_cell_angle_gamma 90.000000
_cell_volume 2519.023066
_symmetry_space_group_name_H-M "C 2/C"
_symmetry_group_IT_number 15
_symmetry_cell_setting 'monoclinic'
loop_
_space_group_symop_operation_xyz
x,y,z
-x,y,1/2-z
-x,-y,-z
x,-y,1/2+z
1/2+x,1/2+y,z
1/2-x,1/2+y,1/2-z
1/2-x,1/2-y,-z
1/2+x,1/2-y,1/2+z
loop_
_atom_site_type_symbol
_atom_site_label
_atom_site_fract_x
_atom_site_fract_y
_atom_site_fract_z
Si Si1 0.491557 0.216068 0.832289
Si Si2 0.272132 0.586037 0.541814
Si Si3 0.375990 0.488592 0.395213
Si Si4 0.250267 0.335483 0.836868
Si Si5 0.847119 0.410354 0.218025
Si Si6 0.626262 0.086505 0.145805
O O1 0.500000 0.259074 0.750000
O O2 0.452644 0.392434 0.878658
O O3 0.575184 0.178066 0.836269
O O4 0.440219 0.039382 0.862821
O O5 0.250000 0.750000 0.500000
O O6 0.339511 0.472698 0.483377
O O7 0.295523 0.678268 0.606867
O O8 0.202505 0.449259 0.577877
O O9 0.317533 0.585661 0.362321
O O10 0.398262 0.293802 0.357481
O O11 0.190102 0.485974 0.833819
O O12 0.289636 0.250040 0.757304
O O13 0.863008 0.545033 0.276860
#
# Coordination Sequence:
#
# PCOD8133508 Si02
#       6
#     8   8   8   8   8   8
#     4  10  19  36  51  81 117 139 186 234 279 332
#     4   9  17  34  56  80 110 144 193 232 269 339
#     4  11  19  34  60  80 108 149 187 233 280 335
#     4  10  19  35  56  78 111 147 182 235 286 325
#     4  10  20  36  52  84 116 140 190 241 281 341
#     4  10  19  33  57  84 105 148 189 232 282 330
#
# _framework density 19.055005999999999
#
# number of rings (size 3 to 8) (size 9 to 14) (size 15 to 20)
#    0.000    2.000    6.667    1.500    0.000    2.000 
#    3.000    0.833    0.000    1.000    0.000    0.000 
#    0.000    0.000    0.000    0.000    0.000    0.000 
#
# Total GULP energy -297526.440008 kJ/mol
# GULP energy per Si atom -12396.935000 kJ/mol
# Density = 1.901164 g / cm^3
# Si number density = 19.055006 Si / 1000 Ang^3
#
#
#
# Elastic Constant Matrix: (Units=GPa)
#
#
# Indices 1 2 3 4 5 6 
#
# 1 89.6135 32.4110 35.2922 -0.0005 -15.1832 -0.0013
# 2 32.4110 94.1802 26.2381 -0.0013 -9.8676 -0.0032
# 3 35.2922 26.2381 81.6942 0.0000 -24.7341 -0.0001
# 4 -0.0005 -0.0013 0.0000 27.6705 -0.0002 1.3275
# 5 -15.1832 -9.8676 -24.7341 -0.0002 22.9862 -0.0011
# 6 -0.0013 -0.0032 -0.0001 1.3275 -0.0011 24.4194
#
#
#
# Elastic Compliance Matrix: (Units=1/GPa)
#
#
# Indices 1 2 3 4 5 6 
#
# 1 0.014676 -0.003521 -0.004052 0.000000 0.003822 0.000000
# 2 -0.003521 0.012539 -0.002344 0.000000 0.000534 0.000001
# 3 -0.004052 -0.002344 0.020215 0.000000 0.018069 0.000000
# 4 0.000000 0.000000 0.000000 0.036234 0.000000 -0.001970
# 5 0.003822 0.000534 0.018069 0.000000 0.065702 0.000003
# 6 0.000000 0.000001 0.000000 -0.001970 0.000003 0.041058
#
#
# Mechanical properties :
#
#
# Convention : Reuss Voigt Hill
#
# Bulk Modulus (GPa) = 36.23834 50.37450 43.30642
# Shear Modulus (GPa) = 22.78355 26.45167 24.61761
#
# Velocity S-wave (km/s) = 3.46160 3.72986 3.59823
# Velocity P-wave (km/s) = 5.91912 6.71140 6.32767
#
# Compressibility (1/GPa) = 0.02759508
#
# Stress axis : x y z
#
# Youngs Moduli (GPa) = 68.13880 79.75251 49.46867
#
# Poissons Ratio (x) = 0.28083 0.20044
# Poissons Ratio (y) = 0.23993 0.11596
# Poissons Ratio (z) = 0.27609 0.18695
#
# Static dielectric constant tensor:
#      x y z
#    x 3.298020 0.000000 -0.291390 
#    y 0.000000 3.461570 0.000000 
#    z -0.291390 0.000000 3.853000 
# 
# 
# High freq. dielectric constant tensor:
#      x y z
#    x 1.706070 0.000000 -0.020600 
#    y 0.000000 1.742140 0.000000 
#    z -0.020600 0.000000 1.739530 
# 
# From -- ./inp_files/246827.got.cif
#   From: 2010.06.25/outbox.cif.g09.slc.cpg/sg15_124_cif.got.tgz:246827.got - 2010.06.28 07:06:18.
