data_PCOD8133096
_publ_section_title
;
Structure prediction by ZEFSAII (Michael W. Deem and Ramdas Pophale) SiO2 
 PCOD8133096
Probable space group: C 2/C
;
_chemical_formula_sum "Si O2"
_cell_formula_units_Z 56
_cell_length_a 24.084571
_cell_length_b 9.384961
_cell_length_c 13.958589
_cell_angle_alpha 90.000000
_cell_angle_beta 99.085099
_cell_angle_gamma 90.000000
_cell_volume 3115.517384
_symmetry_space_group_name_H-M "C 2/C"
_symmetry_group_IT_number 15
_symmetry_cell_setting 'monoclinic'
loop_
_space_group_symop_operation_xyz
x,y,z
-x,y,1/2-z
-x,-y,-z
x,-y,1/2+z
1/2+x,1/2+y,z
1/2-x,1/2+y,1/2-z
1/2-x,1/2-y,-z
1/2+x,1/2-y,1/2+z
loop_
_atom_site_type_symbol
_atom_site_label
_atom_site_fract_x
_atom_site_fract_y
_atom_site_fract_z
Si Si1 0.753073 0.590148 0.538219
Si Si2 0.066070 0.492063 0.526519
Si Si3 0.872610 0.461314 0.155212
Si Si4 0.629334 0.183245 0.190774
Si Si5 0.772008 0.508554 0.842434
Si Si6 0.669266 0.517055 0.675147
Si Si7 0.129989 0.709407 0.665828
O O1 0.750000 0.750000 0.500000
O O2 0.806854 0.566115 0.619740
O O3 0.756156 0.483311 0.449588
O O4 0.696971 0.550851 0.580607
O O5 0.091416 0.451952 0.430583
O O6 0.080717 0.366457 0.604747
O O7 0.091754 0.641421 0.571267
O O8 0.000000 0.500000 0.500000
O O9 0.880650 0.616468 0.206564
O O10 0.893524 0.340832 0.236688
O O11 0.629158 0.353446 0.196863
O O12 0.689302 0.129577 0.166304
O O13 0.715437 0.491725 0.768278
O O14 0.805906 0.652101 0.826195
O O15 0.629410 0.379086 0.655995
#
# Coordination Sequence:
#
# PCOD8133096 Si02
#       7
#     8   8   8   8   8   8   8
#     4  12  19  30  56  80 116 159 184 214 269 319
#     4  10  21  42  64  78 100 140 194 243 279 326
#     4  10  19  37  57  77 113 138 195 224 266 344
#     4  10  21  35  54  82 110 150 181 223 272 327
#     4  10  19  32  50  79 112 157 186 208 264 317
#     4  12  21  34  53  83 127 146 178 223 266 335
#     4  10  22  34  55  86 109 147 188 225 272 327
#
# _framework density 17.974543000000001
#
# number of rings (size 3 to 8) (size 9 to 14) (size 15 to 20)
#    0.000    1.714    7.143    1.714    0.000    4.000 
#    0.000    0.714    0.000    1.714    0.000    0.000 
#    0.000    0.000    0.000    0.000    0.000    0.000 
#
# Total GULP energy -347201.676495 kJ/mol
# GULP energy per Si atom -12400.059875 kJ/mol
# Density = 1.793363 g / cm^3
# Si number density = 17.974543 Si / 1000 Ang^3
#
#
#
# Elastic Constant Matrix: (Units=GPa)
#
#
# Indices 1 2 3 4 5 6 
#
# 1 61.0039 28.8020 29.8912 0.0000 16.3230 0.0000
# 2 28.8020 141.2540 32.6193 0.0000 7.8006 0.0000
# 3 29.8912 32.6193 107.0394 0.0000 -1.4604 0.0000
# 4 0.0000 0.0000 0.0000 13.6280 0.0000 -2.9646
# 5 16.3230 7.8006 -1.4604 0.0000 24.6908 0.0000
# 6 0.0000 0.0000 0.0000 -2.9646 0.0000 7.6660
#
#
#
# Elastic Compliance Matrix: (Units=1/GPa)
#
#
# Indices 1 2 3 4 5 6 
#
# 1 0.025149 -0.002758 -0.006402 0.000000 -0.016133 0.000000
# 2 -0.002758 0.008081 -0.001704 0.000000 -0.000830 0.000000
# 3 -0.006402 -0.001704 0.011724 0.000000 0.005464 0.000000
# 4 0.000000 0.000000 0.000000 0.080119 0.000000 0.030983
# 5 -0.016133 -0.000830 0.005464 0.000000 0.051752 0.000000
# 6 0.000000 0.000000 0.000000 0.030983 0.000000 0.142427
#
#
# Mechanical properties :
#
#
# Convention : Reuss Voigt Hill
#
# Bulk Modulus (GPa) = 43.05753 54.65802 48.85778
# Shear Modulus (GPa) = 14.33807 23.72928 19.03368
#
# Velocity S-wave (km/s) = 2.82740 3.63734 3.25764
# Velocity P-wave (km/s) = 5.88776 6.93649 6.43353
#
# Compressibility (1/GPa) = 0.02322474
#
# Stress axis : x y z
#
# Youngs Moduli (GPa) = 39.76378 123.74434 85.29541
#
# Poissons Ratio (x) = 0.34134 0.54609
# Poissons Ratio (y) = 0.10969 0.14532
# Poissons Ratio (z) = 0.25458 0.21082
#
# Static dielectric constant tensor:
#      x y z
#    x 3.046990 0.000000 0.080810 
#    y 0.000000 3.253760 0.000000 
#    z 0.080810 0.000000 4.378650 
# 
# 
# High freq. dielectric constant tensor:
#      x y z
#    x 1.655670 0.000000 -0.008480 
#    y 0.000000 1.682520 0.000000 
#    z -0.008480 0.000000 1.716670 
# 
# From -- ./inp_files/176232.got.cif
#   From: 2010.06.25/outbox.cif.g09.slc.cpg/sg15_89_cif.got.tgz:176232.got - 2010.06.28 07:06:18.
