data_PCOD8133993
_publ_section_title
;
Structure prediction by ZEFSAII (Michael W. Deem and Ramdas Pophale) SiO2 
 PCOD8133993
Probable space group: C 2/C
;
_chemical_formula_sum "Si O2"
_cell_formula_units_Z 48
_cell_length_a 11.224244
_cell_length_b 14.014657
_cell_length_c 20.094956
_cell_angle_alpha 90.000000
_cell_angle_beta 135.040321
_cell_angle_gamma 90.000000
_cell_volume 2233.602006
_symmetry_space_group_name_H-M "C 2/C"
_symmetry_group_IT_number 15
_symmetry_cell_setting 'monoclinic'
loop_
_space_group_symop_operation_xyz
x,y,z
-x,y,1/2-z
-x,-y,-z
x,-y,1/2+z
1/2+x,1/2+y,z
1/2-x,1/2+y,1/2-z
1/2-x,1/2-y,-z
1/2+x,1/2-y,1/2+z
loop_
_atom_site_type_symbol
_atom_site_label
_atom_site_fract_x
_atom_site_fract_y
_atom_site_fract_z
Si Si1 0.651094 0.745492 0.677950
Si Si2 0.660556 0.126405 0.845958
Si Si3 0.022591 0.340820 0.498242
Si Si4 0.224468 0.960350 0.977547
Si Si5 0.496304 0.711707 0.129428
Si Si6 0.315917 0.670781 0.576154
O O1 0.706371 0.651550 0.658889
O O2 0.587035 0.824499 0.599015
O O3 0.801406 0.788926 0.781746
O O4 0.502654 0.709303 0.669502
O O5 0.500000 0.072112 0.750000
O O6 0.591487 0.226329 0.848325
O O7 0.741541 0.057043 0.931503
O O8 0.065881 0.251934 0.466826
O O9 0.817132 0.345538 0.416265
O O10 0.107452 0.436002 0.500080
O O11 0.070612 0.895637 0.890216
O O12 0.167866 0.068767 0.952599
O O13 0.250000 0.750000 0.500000
#
# Coordination Sequence:
#
# PCOD8133993 Si02
#       6
#     8   8   8   8   8   8
#     4  10  19  37  56  86 126 154 192 251 317 344
#     4   9  17  33  61  92 118 148 201 265 298 345
#     4  10  19  39  60  87 122 157 201 255 301 359
#     4  11  19  37  65  94 109 164 217 239 298 365
#     4  10  19  34  65  89 114 155 209 254 291 356
#     4  10  24  39  57  84 131 165 189 252 316 360
#
# _framework density 21.489954000000001
#
# number of rings (size 3 to 8) (size 9 to 14) (size 15 to 20)
#    0.000    2.000    3.333    1.500    0.000    1.333 
#    0.000   13.333    0.000    0.000    0.000    0.000 
#    0.000    0.000    0.000    0.000    0.000    0.000 
#
# Total GULP energy -297442.619401 kJ/mol
# GULP energy per Si atom -12393.442475 kJ/mol
# Density = 2.144104 g / cm^3
# Si number density = 21.489954 Si / 1000 Ang^3
#
#
#
# Elastic Constant Matrix: (Units=GPa)
#
#
# Indices 1 2 3 4 5 6 
#
# 1 86.3599 13.3390 28.4374 0.0000 32.8454 0.0000
# 2 13.3390 101.6258 25.3584 0.0000 10.3720 0.0000
# 3 28.4374 25.3584 92.9142 0.0000 18.7170 0.0000
# 4 0.0000 0.0000 0.0000 15.1731 0.0000 4.5248
# 5 32.8454 10.3720 18.7170 0.0000 38.3243 0.0000
# 6 0.0000 0.0000 0.0000 4.5248 0.0000 21.0450
#
#
#
# Elastic Compliance Matrix: (Units=1/GPa)
#
#
# Indices 1 2 3 4 5 6 
#
# 1 0.017745 -0.000273 -0.002560 0.000000 -0.013884 0.000000
# 2 -0.000273 0.010653 -0.002540 0.000000 -0.001408 0.000000
# 3 -0.002560 -0.002540 0.012931 0.000000 -0.003434 0.000000
# 4 0.000000 0.000000 0.000000 0.070421 0.000000 -0.015141
# 5 -0.013884 -0.001408 -0.003434 0.000000 0.040051 0.000000
# 6 0.000000 0.000000 0.000000 -0.015141 0.000000 0.050773
#
#
# Mechanical properties :
#
#
# Convention : Reuss Voigt Hill
#
# Bulk Modulus (GPa) = 32.69762 46.12997 39.41379
# Shear Modulus (GPa) = 22.36985 29.15948 25.76466
#
# Velocity S-wave (km/s) = 3.22987 3.68759 3.46629
# Velocity P-wave (km/s) = 5.39979 6.29631 5.86521
#
# Compressibility (1/GPa) = 0.03058327
#
# Stress axis : x y z
#
# Youngs Moduli (GPa) = 56.35348 93.86594 77.33300
#
# Poissons Ratio (x) = 0.02567 0.19794
# Poissons Ratio (y) = 0.01541 0.19644
# Poissons Ratio (z) = 0.14424 0.23844
#
# Static dielectric constant tensor:
#      x y z
#    x 4.191960 0.000000 0.381380 
#    y 0.000000 3.407210 0.000000 
#    z 0.381380 0.000000 4.010600 
# 
# 
# High freq. dielectric constant tensor:
#      x y z
#    x 1.849340 0.000000 0.020050 
#    y 0.000000 1.806100 0.000000 
#    z 0.020050 0.000000 1.839850 
# 
# From -- ./inp_files/238947.got.cif
#   From: 2010.06.25/outbox.cif.g09.slc.cpg/sg15_120_cif.got.tgz:238947.got - 2010.06.28 07:06:18.
