data_PCOD8133289
_publ_section_title
;
Structure prediction by ZEFSAII (Michael W. Deem and Ramdas Pophale) SiO2 
 PCOD8133289
Probable space group: C 2/C
;
_chemical_formula_sum "Si O2"
_cell_formula_units_Z 56
_cell_length_a 19.397154
_cell_length_b 10.909664
_cell_length_c 14.142009
_cell_angle_alpha 90.000000
_cell_angle_beta 110.948405
_cell_angle_gamma 90.000000
_cell_volume 2794.873506
_symmetry_space_group_name_H-M "C 2/C"
_symmetry_group_IT_number 15
_symmetry_cell_setting 'monoclinic'
loop_
_space_group_symop_operation_xyz
x,y,z
-x,y,1/2-z
-x,-y,-z
x,-y,1/2+z
1/2+x,1/2+y,z
1/2-x,1/2+y,1/2-z
1/2-x,1/2-y,-z
1/2+x,1/2-y,1/2+z
loop_
_atom_site_type_symbol
_atom_site_label
_atom_site_fract_x
_atom_site_fract_y
_atom_site_fract_z
Si Si1 0.951887 0.869391 0.560689
Si Si2 0.233467 0.239120 0.347560
Si Si3 0.846560 0.995904 0.141447
Si Si4 0.782288 0.187262 0.367762
Si Si5 0.401523 0.497265 0.861405
Si Si6 0.645124 0.151118 0.958778
Si Si7 0.304106 0.892486 0.509356
O O1 0.907889 0.977389 0.592934
O O2 0.930914 0.729330 0.582634
O O3 0.038360 0.888127 0.623907
O O4 0.933960 0.893822 0.441771
O O5 0.180979 0.125136 0.334836
O O6 0.241726 0.261167 0.239366
O O7 0.312401 0.218648 0.434776
O O8 0.192235 0.348420 0.383939
O O9 0.883066 0.935534 0.252768
O O10 0.779311 0.919460 0.067001
O O11 0.828383 0.064276 0.370175
O O12 0.706973 0.148774 0.386932
O O13 0.831400 0.280451 0.456806
O O14 0.637938 0.005169 0.975097
#
# Coordination Sequence:
#
# PCOD8133289 Si02
#       7
#     8   8   8   8   8   8   8
#     4  10  19  33  51  74 102 132 173 213 249 303
#     4   8  17  29  51  73  98 131 163 215 253 302
#     4   9  17  32  50  75 100 128 167 210 259 300
#     4  10  20  33  49  76 106 132 169 207 265 307
#     4  10  20  32  52  74 103 136 169 209 256 307
#     4   9  18  32  49  75 100 132 175 207 255 301
#     4  10  20  33  51  75 106 135 164 216 260 306
#
# _framework density 20.036684000000001
#
# number of rings (size 3 to 8) (size 9 to 14) (size 15 to 20)
#    0.000    2.571    1.429    1.286    2.000    2.286 
#    0.000    0.714    0.000    0.000    0.000    2.000 
#    0.000    0.000    0.000    0.000    0.000    0.000 
#
# Total GULP energy -346922.598726 kJ/mol
# GULP energy per Si atom -12390.092812 kJ/mol
# Density = 1.999108 g / cm^3
# Si number density = 20.036684 Si / 1000 Ang^3
#
#
#
# Elastic Constant Matrix: (Units=GPa)
#
#
# Indices 1 2 3 4 5 6 
#
# 1 44.5010 1.9581 17.1433 0.0000 -7.8800 0.0000
# 2 1.9581 60.2246 -2.9117 0.0000 -6.6213 0.0000
# 3 17.1433 -2.9117 103.7629 0.0000 -18.1204 0.0000
# 4 0.0000 0.0000 0.0000 18.9797 0.0000 0.5334
# 5 -7.8800 -6.6213 -18.1204 0.0000 20.1049 0.0000
# 6 0.0000 0.0000 0.0000 0.5334 0.0000 29.2331
#
#
#
# Elastic Compliance Matrix: (Units=1/GPa)
#
#
# Indices 1 2 3 4 5 6 
#
# 1 0.024841 -0.000166 -0.002870 0.000000 0.007095 0.000000
# 2 -0.000166 0.017501 0.001797 0.000000 0.007318 0.000000
# 3 -0.002870 0.001797 0.011950 0.000000 0.010237 0.000000
# 4 0.000000 0.000000 0.000000 0.052715 0.000000 -0.000962
# 5 0.007095 0.007318 0.010237 0.000000 0.064156 0.000000
# 6 0.000000 0.000000 0.000000 -0.000962 0.000000 0.034225
#
#
# Mechanical properties :
#
#
# Convention : Reuss Voigt Hill
#
# Bulk Modulus (GPa) = 19.30040 26.76309 23.03175
# Shear Modulus (GPa) = 22.20860 26.48346 24.34603
#
# Velocity S-wave (km/s) = 3.33287 3.63953 3.48957
# Velocity P-wave (km/s) = 4.94612 5.57204 5.26839
#
# Compressibility (1/GPa) = 0.05181239
#
# Stress axis : x y z
#
# Youngs Moduli (GPa) = 40.25669 57.13852 83.68484
#
# Poissons Ratio (x) = 0.00951 0.24015
# Poissons Ratio (y) = 0.00670 -0.15034
# Poissons Ratio (z) = 0.11553 -0.10265
#
# Static dielectric constant tensor:
#      x y z
#    x 3.392080 0.000000 -0.263450 
#    y 0.000000 3.446460 0.000000 
#    z -0.263450 0.000000 4.182390 
# 
# 
# High freq. dielectric constant tensor:
#      x y z
#    x 1.743930 0.000000 -0.024570 
#    y 0.000000 1.759790 0.000000 
#    z -0.024570 0.000000 1.790940 
# 
# From -- ./inp_files/167319.got.cif
#   From: 2010.06.25/outbox.cif.g09.slc.cpg/sg15_84_cif.got.tgz:167319.got - 2010.06.28 07:06:18.
