data_PCOD8133792
_publ_section_title
;
Structure prediction by ZEFSAII (Michael W. Deem and Ramdas Pophale) SiO2 
 PCOD8133792
Probable space group: C 2/C
;
_chemical_formula_sum "Si O2"
_cell_formula_units_Z 64
_cell_length_a 11.631922
_cell_length_b 17.852201
_cell_length_c 23.775031
_cell_angle_alpha 90.000000
_cell_angle_beta 139.956923
_cell_angle_gamma 90.000000
_cell_volume 3176.293823
_symmetry_space_group_name_H-M "C 2/C"
_symmetry_group_IT_number 15
_symmetry_cell_setting 'monoclinic'
loop_
_space_group_symop_operation_xyz
x,y,z
-x,y,1/2-z
-x,-y,-z
x,-y,1/2+z
1/2+x,1/2+y,z
1/2-x,1/2+y,1/2-z
1/2-x,1/2-y,-z
1/2+x,1/2-y,1/2+z
loop_
_atom_site_type_symbol
_atom_site_label
_atom_site_fract_x
_atom_site_fract_y
_atom_site_fract_z
Si Si1 0.021373 0.385808 0.665651
Si Si2 0.413642 0.767474 0.960705
Si Si3 0.385951 0.378571 0.957426
Si Si4 0.982485 0.206491 0.178560
Si Si5 0.881132 0.933901 0.838841
Si Si6 0.040249 0.086786 0.889374
Si Si7 0.948807 0.422727 0.512425
Si Si8 0.844314 0.768669 0.307345
O O1 0.165274 0.434427 0.754171
O O2 0.034822 0.416698 0.606677
O O3 0.080358 0.300480 0.699586
O O4 0.825426 0.389179 0.617204
O O5 0.482623 0.851907 0.998538
O O6 0.411503 0.750115 0.894516
O O7 0.212517 0.761002 0.910523
O O8 0.550381 0.705679 0.037019
O O9 0.445084 0.430969 0.927833
O O10 0.475223 0.403981 0.048932
O O11 0.026340 0.132901 0.160074
O O12 0.128344 0.271898 0.221142
O O13 0.000000 0.182177 0.250000
O O14 0.949210 0.010176 0.836850
O O15 0.929899 0.153779 0.818520
O O16 0.237997 0.086597 0.939439
O O17 0.000000 0.500000 0.500000
#
# Coordination Sequence:
#
# PCOD8133792 Si02
#       8
#     8   8   8   8   8   8   8   8
#     4   9  19  36  56  75 101 141 179 214 259 317
#     4   9  17  32  55  78 103 136 172 216 261 307
#     4  10  20  35  53  76 104 140 183 216 255 311
#     4   9  18  34  55  78 104 138 179 219 265 319
#     4  11  21  34  53  76 109 142 173 217 267 316
#     4  10  20  34  53  79 108 139 176 217 261 313
#     4  10  19  34  57  83 108 135 172 218 270 320
#     4   8  16  33  55  76 100 137 179 211 251 312
#
# _framework density 20.149270000000001
#
# number of rings (size 3 to 8) (size 9 to 14) (size 15 to 20)
#    0.000    2.500    0.000    3.000    0.000    3.500 
#    0.000   11.250    0.000    3.000    0.000    0.000 
#    0.000    0.000    0.000    0.000    0.000    0.000 
#
# Total GULP energy -396558.116389 kJ/mol
# GULP energy per Si atom -12392.441137 kJ/mol
# Density = 2.010341 g / cm^3
# Si number density = 20.149270 Si / 1000 Ang^3
#
#
#
# Elastic Constant Matrix: (Units=GPa)
#
#
# Indices 1 2 3 4 5 6 
#
# 1 65.1302 30.9782 24.9790 0.0000 11.7593 0.0000
# 2 30.9782 105.3810 39.1110 0.0000 16.4001 0.0000
# 3 24.9790 39.1110 68.2934 0.0001 19.7296 0.0000
# 4 0.0000 0.0000 0.0001 27.7410 0.0000 8.4432
# 5 11.7593 16.4001 19.7296 0.0000 26.6268 0.0000
# 6 0.0000 0.0000 0.0000 8.4432 0.0000 25.0305
#
#
#
# Elastic Compliance Matrix: (Units=1/GPa)
#
#
# Indices 1 2 3 4 5 6 
#
# 1 0.019215 -0.003659 -0.003985 0.000000 -0.003279 0.000000
# 2 -0.003659 0.012931 -0.005386 0.000000 -0.002358 0.000000
# 3 -0.003985 -0.005386 0.022544 0.000000 -0.011627 0.000000
# 4 0.000000 0.000000 0.000000 0.040172 0.000000 -0.013551
# 5 -0.003279 -0.002358 -0.011627 0.000000 0.049072 0.000000
# 6 0.000000 0.000000 0.000000 -0.013551 0.000000 0.044522
#
#
# Mechanical properties :
#
#
# Convention : Reuss Voigt Hill
#
# Bulk Modulus (GPa) = 34.92946 47.66010 41.29478
# Shear Modulus (GPa) = 22.31564 25.46209 23.88886
#
# Velocity S-wave (km/s) = 3.33155 3.55867 3.44698
# Velocity P-wave (km/s) = 5.67203 6.37106 6.03168
#
# Compressibility (1/GPa) = 0.02862913
#
# Stress axis : x y z
#
# Youngs Moduli (GPa) = 52.04350 77.33445 44.35832
#
# Poissons Ratio (x) = 0.28297 0.17677
# Poissons Ratio (y) = 0.19043 0.23891
# Poissons Ratio (z) = 0.20740 0.41652
#
# Static dielectric constant tensor:
#      x y z
#    x 3.597480 0.000000 0.167690 
#    y 0.000000 3.735690 0.000000 
#    z 0.167690 0.000000 3.686780 
# 
# 
# High freq. dielectric constant tensor:
#      x y z
#    x 1.781130 0.000000 0.017770 
#    y 0.000000 1.777490 0.000000 
#    z 0.017770 0.000000 1.778930 
# 
# From -- ./inp_files/239796.got.cif
#   From: 2010.06.25/outbox.cif.g09.slc.cpg/sg15_120_cif.got.tgz:239796.got - 2010.06.28 07:06:18.
