data_PCOD8133598
_publ_section_title
;
Structure prediction by ZEFSAII (Michael W. Deem and Ramdas Pophale) SiO2 
 PCOD8133598
Probable space group: C 2/C
;
_chemical_formula_sum "Si O2"
_cell_formula_units_Z 36
_cell_length_a 9.005336
_cell_length_b 22.463862
_cell_length_c 8.945544
_cell_angle_alpha 90.000000
_cell_angle_beta 95.152420
_cell_angle_gamma 90.000000
_cell_volume 1802.323311
_symmetry_space_group_name_H-M "C 2/C"
_symmetry_group_IT_number 15
_symmetry_cell_setting 'monoclinic'
loop_
_space_group_symop_operation_xyz
x,y,z
-x,y,1/2-z
-x,-y,-z
x,-y,1/2+z
1/2+x,1/2+y,z
1/2-x,1/2+y,1/2-z
1/2-x,1/2-y,-z
1/2+x,1/2-y,1/2+z
loop_
_atom_site_type_symbol
_atom_site_label
_atom_site_fract_x
_atom_site_fract_y
_atom_site_fract_z
Si Si1 0.176459 0.963221 0.775161
Si Si2 0.160342 0.334234 0.226438
Si Si3 0.687793 0.422650 0.455304
Si Si4 0.379224 0.371496 0.504000
Si Si5 0.500000 0.720530 0.250000
O O1 0.246226 0.947194 0.620319
O O2 0.000000 0.957811 0.750000
O O3 0.224631 0.913815 0.901961
O O4 0.225827 0.028778 0.830887
O O5 0.278511 0.343533 0.368062
O O6 0.000000 0.364217 0.250000
O O7 0.136539 0.262880 0.206156
O O8 0.222960 0.362757 0.079004
O O9 0.510476 0.410772 0.440888
O O10 0.452238 0.319042 0.606381
#
# Coordination Sequence:
#
# PCOD8133598 Si02
#       5
#     8   8   8   8   4
#     4  10  19  33  64  92 118 144 206 257 291 340
#     4  10  24  38  59  87 127 158 197 237 297 357
#     4  11  20  38  62  93 116 157 200 247 300 346
#     4  11  19  41  62  90 116 155 201 252 292 345
#     4  10  22  40  64  84 124 156 206 238 288 352
#
# _framework density 19.974219999999999
#
# number of rings (size 3 to 8) (size 9 to 14) (size 15 to 20)
#    0.667    0.889    3.333    6.667    0.000    0.889 
#    0.000    5.556    0.000    0.000    0.000    0.000 
#    0.000    0.000    0.000    0.000    0.000    0.000 
#
# Total GULP energy -223134.805828 kJ/mol
# GULP energy per Si atom -12396.378102 kJ/mol
# Density = 1.992876 g / cm^3
# Si number density = 19.974220 Si / 1000 Ang^3
#
#
#
# Elastic Constant Matrix: (Units=GPa)
#
#
# Indices 1 2 3 4 5 6 
#
# 1 52.4715 22.0000 42.9753 0.0000 -0.6723 0.0000
# 2 22.0000 124.5224 63.1960 0.0000 2.0584 0.0000
# 3 42.9753 63.1960 115.7526 0.0000 -16.5444 0.0000
# 4 0.0000 0.0000 0.0000 25.7112 0.0000 -15.4844
# 5 -0.6723 2.0584 -16.5444 0.0000 16.3650 0.0000
# 6 0.0000 0.0000 0.0000 -15.4844 0.0000 13.3533
#
#
#
# Elastic Compliance Matrix: (Units=1/GPa)
#
#
# Indices 1 2 3 4 5 6 
#
# 1 0.029442 0.002101 -0.013960 0.000000 -0.013168 0.000000
# 2 0.002101 0.012460 -0.009111 0.000000 -0.010692 0.000000
# 3 -0.013960 -0.009111 0.022066 0.000000 0.022881 0.000000
# 4 0.000000 0.000000 0.000000 0.128941 0.000000 0.149519
# 5 -0.013168 -0.010692 0.022881 0.000000 0.085042 0.000000
# 6 0.000000 0.000000 0.000000 0.149519 0.000000 0.248271
#
#
# Mechanical properties :
#
#
# Convention : Reuss Voigt Hill
#
# Bulk Modulus (GPa) = 45.39542 61.00990 53.20266
# Shear Modulus (GPa) = 8.68805 22.05758 15.37281
#
# Velocity S-wave (km/s) = 2.08784 3.32671 2.77724
# Velocity P-wave (km/s) = 5.34682 6.73548 6.08092
#
# Compressibility (1/GPa) = 0.02202865
#
# Stress axis : x y z
#
# Youngs Moduli (GPa) = 33.96535 80.25675 45.31804
#
# Poissons Ratio (x) = -0.16859 0.63263
# Poissons Ratio (y) = -0.07135 0.41288
# Poissons Ratio (z) = 0.47415 0.73119
#
# Static dielectric constant tensor:
#      x y z
#    x 3.247660 0.000000 -0.145860 
#    y 0.000000 3.799070 0.000000 
#    z -0.145860 0.000000 3.811280 
# 
# 
# High freq. dielectric constant tensor:
#      x y z
#    x 1.731240 0.000000 -0.007800 
#    y 0.000000 1.791210 0.000000 
#    z -0.007800 0.000000 1.789500 
# 
# From -- ./inp_files/23337.got.cif
#   From: 2010.06.25/outbox.cif.g09.slc.cpg/sg15_12_cif.got.tgz:23337.got - 2010.06.28 07:06:18.
