data_PCOD8133894
_publ_section_title
;
Structure prediction by ZEFSAII (Michael W. Deem and Ramdas Pophale) SiO2 
 PCOD8133894
Probable space group: C 2/C
;
_chemical_formula_sum "Si O2"
_cell_formula_units_Z 64
_cell_length_a 11.977214
_cell_length_b 15.438749
_cell_length_c 28.156251
_cell_angle_alpha 90.000000
_cell_angle_beta 138.438666
_cell_angle_gamma 90.000000
_cell_volume 3454.078691
_symmetry_space_group_name_H-M "C 2/C"
_symmetry_group_IT_number 15
_symmetry_cell_setting 'monoclinic'
loop_
_space_group_symop_operation_xyz
x,y,z
-x,y,1/2-z
-x,-y,-z
x,-y,1/2+z
1/2+x,1/2+y,z
1/2-x,1/2+y,1/2-z
1/2-x,1/2-y,-z
1/2+x,1/2-y,1/2+z
loop_
_atom_site_type_symbol
_atom_site_label
_atom_site_fract_x
_atom_site_fract_y
_atom_site_fract_z
Si Si1 0.397507 0.912606 0.795335
Si Si2 0.612250 0.245797 0.330547
Si Si3 0.769061 0.700440 0.328090
Si Si4 0.883777 0.855799 0.864075
Si Si5 0.970342 0.976991 0.436659
Si Si6 0.594480 0.074284 0.827798
Si Si7 0.100655 0.192899 0.929817
Si Si8 0.531712 0.256871 0.831123
O O1 0.529454 0.838614 0.825961
O O2 0.323904 0.893544 0.824627
O O3 0.253672 0.908857 0.710086
O O4 0.494542 0.002918 0.826253
O O5 0.500000 0.282539 0.250000
O O6 0.795461 0.213182 0.371609
O O7 0.624354 0.313180 0.379239
O O8 0.652706 0.747462 0.251665
O O9 0.663101 0.686212 0.342143
O O10 0.926536 0.761750 0.388313
O O11 0.016762 0.800517 0.876958
O O12 0.001699 0.929350 0.923545
O O13 0.776761 0.953345 0.369255
O O14 0.091397 0.903383 0.451137
O O15 0.000000 0.000000 0.500000
O O16 0.500000 0.099589 0.750000
O O17 0.602414 0.160533 0.861968
O O18 0.250000 0.250000 0.000000
#
# Coordination Sequence:
#
# PCOD8133894 Si02
#       8
#     8   8   8   8   8   8   8   8
#     4   9  17  29  57  85 114 145 187 245 289 337
#     4   9  17  34  57  83 115 153 196 247 304 347
#     4   9  18  34  55  85 117 154 190 235 301 349
#     4  10  19  35  56  85 117 147 186 243 301 342
#     4  12  24  37  58  88 118 152 203 249 291 358
#     4  12  18  34  60  88 112 146 202 244 284 345
#     4  11  22  36  59  87 121 159 201 248 300 363
#     4  10  19  34  59  87 118 149 193 247 294 356
#
# _framework density 18.528818999999999
#
# number of rings (size 3 to 8) (size 9 to 14) (size 15 to 20)
#    0.000    1.750    5.000    1.875    1.750    0.000 
#    0.000    1.875    2.750    0.750    0.000    0.000 
#    0.000    0.000    0.000    0.000    0.000    0.000 
#
# Total GULP energy -396498.390484 kJ/mol
# GULP energy per Si atom -12390.574703 kJ/mol
# Density = 1.848665 g / cm^3
# Si number density = 18.528819 Si / 1000 Ang^3
#
#
#
# Elastic Constant Matrix: (Units=GPa)
#
#
# Indices 1 2 3 4 5 6 
#
# 1 128.1081 62.9834 34.6074 0.0000 -14.2120 0.0000
# 2 62.9834 97.7859 19.1525 0.0000 -17.8941 0.0000
# 3 34.6074 19.1525 52.4519 0.0000 -13.9688 0.0000
# 4 0.0000 0.0000 0.0000 19.5208 0.0000 -1.6773
# 5 -14.2120 -17.8941 -13.9688 0.0000 24.6640 0.0000
# 6 0.0000 0.0000 0.0000 -1.6773 0.0000 40.2964
#
#
#
# Elastic Compliance Matrix: (Units=1/GPa)
#
#
# Indices 1 2 3 4 5 6 
#
# 1 0.012966 -0.007390 -0.006235 0.000000 -0.001422 0.000000
# 2 -0.007390 0.016264 0.001114 0.000000 0.008172 0.000000
# 3 -0.006235 0.001114 0.025944 0.000000 0.011909 0.000000
# 4 0.000000 0.000000 0.000000 0.051411 0.000000 0.002140
# 5 -0.001422 0.008172 0.011909 0.000000 0.052399 0.000000
# 6 0.000000 0.000000 0.000000 0.002140 0.000000 0.024905
#
#
# Mechanical properties :
#
#
# Convention : Reuss Voigt Hill
#
# Bulk Modulus (GPa) = 33.16695 56.87026 45.01860
# Shear Modulus (GPa) = 22.83502 27.66975 25.25239
#
# Velocity S-wave (km/s) = 3.51437 3.86856 3.69571
# Velocity P-wave (km/s) = 5.86573 7.12137 6.52383
#
# Compressibility (1/GPa) = 0.03015050
#
# Stress axis : x y z
#
# Youngs Moduli (GPa) = 77.12570 61.48668 38.54496
#
# Poissons Ratio (x) = 0.45440 0.24032
# Poissons Ratio (y) = 0.56998 -0.04293
# Poissons Ratio (z) = 0.48087 -0.06848
#
# Static dielectric constant tensor:
#      x y z
#    x 3.905570 0.000000 -0.004490 
#    y 0.000000 3.982810 0.000000 
#    z -0.004490 0.000000 3.466450 
# 
# 
# High freq. dielectric constant tensor:
#      x y z
#    x 1.723160 0.000000 0.004560 
#    y 0.000000 1.699590 0.000000 
#    z 0.004560 0.000000 1.700260 
# 
# From -- ./inp_files/311226.got.cif
#   From: 2010.06.25/outbox.cif.g09.slc.cpg/sg15_156_cif.got.tgz:311226.got - 2010.06.28 07:06:18.
