data_PCOD8133166
_publ_section_title
;
Structure prediction by ZEFSAII (Michael W. Deem and Ramdas Pophale) SiO2 
 PCOD8133166
Probable space group: C 2/C
;
_chemical_formula_sum "Si O2"
_cell_formula_units_Z 44
_cell_length_a 16.659836
_cell_length_b 15.741812
_cell_length_c 8.238317
_cell_angle_alpha 90.000000
_cell_angle_beta 77.833956
_cell_angle_gamma 90.000000
_cell_volume 2112.024285
_symmetry_space_group_name_H-M "C 2/C"
_symmetry_group_IT_number 15
_symmetry_cell_setting 'monoclinic'
loop_
_space_group_symop_operation_xyz
x,y,z
-x,y,1/2-z
-x,-y,-z
x,-y,1/2+z
1/2+x,1/2+y,z
1/2-x,1/2+y,1/2-z
1/2-x,1/2-y,-z
1/2+x,1/2-y,1/2+z
loop_
_atom_site_type_symbol
_atom_site_label
_atom_site_fract_x
_atom_site_fract_y
_atom_site_fract_z
Si Si1 0.577718 0.423468 0.315944
Si Si2 0.766395 0.117376 0.353820
Si Si3 0.500000 0.979178 0.750000
Si Si4 0.177730 0.956411 0.985271
Si Si5 0.083602 0.614943 0.507542
Si Si6 0.069487 0.799030 0.602247
O O1 0.500000 0.455272 0.250000
O O2 0.602742 0.504712 0.412466
O O3 0.561095 0.340829 0.429179
O O4 0.646183 0.399862 0.149906
O O5 0.767641 0.099632 0.159602
O O6 0.675900 0.148687 0.435521
O O7 0.838625 0.184122 0.366711
O O8 0.771649 0.033257 0.460095
O O9 0.459091 0.917006 0.637856
O O10 0.571653 0.039439 0.644264
O O11 0.043867 0.700860 0.592829
O O12 0.000000 0.838960 0.750000
#
# Coordination Sequence:
#
# PCOD8133166 Si02
#       6
#     8   8   4   8   8   8
#     4  10  19  32  54  80 120 160 192 234 284 351
#     4  10  20  37  62  88 124 162 196 247 298 357
#     4  10  24  42  70  88 112 156 206 266 298 352
#     4   9  19  34  54  87 117 153 202 231 284 355
#     4  11  22  43  63  90 115 153 207 255 310 353
#     4  11  23  38  58  88 125 162 197 244 304 361
#
# _framework density 20.833093999999999
#
# number of rings (size 3 to 8) (size 9 to 14) (size 15 to 20)
#    0.000    1.818    0.909    3.273    1.273    5.091 
#    0.000    0.909    0.000    0.000    0.000    0.000 
#    0.000    0.000    0.000    0.000    0.000    0.000 
#
# Total GULP energy -272669.233821 kJ/mol
# GULP energy per Si atom -12394.056083 kJ/mol
# Density = 2.078568 g / cm^3
# Si number density = 20.833094 Si / 1000 Ang^3
#
#
#
# Elastic Constant Matrix: (Units=GPa)
#
#
# Indices 1 2 3 4 5 6 
#
# 1 80.6313 15.9094 37.0058 0.0000 -16.1273 0.0000
# 2 15.9094 76.3021 46.8925 0.0000 -3.8309 0.0000
# 3 37.0058 46.8925 148.4665 0.0000 1.1718 0.0000
# 4 0.0000 0.0000 0.0000 30.6015 0.0000 -3.1959
# 5 -16.1273 -3.8309 1.1718 0.0000 26.7952 0.0000
# 6 0.0000 0.0000 0.0000 -3.1959 0.0000 14.8509
#
#
#
# Elastic Compliance Matrix: (Units=1/GPa)
#
#
# Indices 1 2 3 4 5 6 
#
# 1 0.016314 -0.000441 -0.004005 0.000000 0.009931 0.000000
# 2 -0.000441 0.016451 -0.005104 0.000000 0.002309 0.000000
# 3 -0.004005 -0.005104 0.009374 0.000000 -0.003550 0.000000
# 4 0.000000 0.000000 0.000000 0.033429 0.000000 0.007194
# 5 0.009931 0.002309 -0.003550 0.000000 0.043783 0.000000
# 6 0.000000 0.000000 0.000000 0.007194 0.000000 0.068884
#
#
# Mechanical properties :
#
#
# Convention : Reuss Voigt Hill
#
# Bulk Modulus (GPa) = 43.40870 56.11278 49.76074
# Shear Modulus (GPa) = 23.25424 28.15568 25.70496
#
# Velocity S-wave (km/s) = 3.34461 3.68025 3.51643
# Velocity P-wave (km/s) = 5.98305 6.71207 6.35802
#
# Compressibility (1/GPa) = 0.02303686
#
# Stress axis : x y z
#
# Youngs Moduli (GPa) = 61.29816 60.78822 106.67868
#
# Poissons Ratio (x) = 0.02683 0.42727
# Poissons Ratio (y) = 0.02706 0.54449
# Poissons Ratio (z) = 0.24551 0.31027
#
# Static dielectric constant tensor:
#      x y z
#    x 3.556640 0.000000 -0.024370 
#    y 0.000000 3.402650 0.000000 
#    z -0.024370 0.000000 4.297350 
# 
# 
# High freq. dielectric constant tensor:
#      x y z
#    x 1.800840 0.000000 -0.004730 
#    y 0.000000 1.790790 0.000000 
#    z -0.004730 0.000000 1.843050 
# 
# From -- ./inp_files/39091.got.cif
#   From: 2010.06.25/outbox.cif.g09.slc.cpg/sg15_20_cif.got.tgz:39091.got - 2010.06.28 07:06:18.
