data_PCOD8133102
_publ_section_title
;
Structure prediction by ZEFSAII (Michael W. Deem and Ramdas Pophale) SiO2 
 PCOD8133102
Probable space group: C 2/C
;
_chemical_formula_sum "Si O2"
_cell_formula_units_Z 40
_cell_length_a 18.643589
_cell_length_b 13.283481
_cell_length_c 20.767454
_cell_angle_alpha 90.000000
_cell_angle_beta 153.861604
_cell_angle_gamma 90.000000
_cell_volume 2265.744235
_symmetry_space_group_name_H-M "C 2/C"
_symmetry_group_IT_number 15
_symmetry_cell_setting 'monoclinic'
loop_
_space_group_symop_operation_xyz
x,y,z
-x,y,1/2-z
-x,-y,-z
x,-y,1/2+z
1/2+x,1/2+y,z
1/2-x,1/2+y,1/2-z
1/2-x,1/2-y,-z
1/2+x,1/2-y,1/2+z
loop_
_atom_site_type_symbol
_atom_site_label
_atom_site_fract_x
_atom_site_fract_y
_atom_site_fract_z
Si Si1 0.170101 0.644607 0.420102
Si Si2 0.109366 0.151487 0.579611
Si Si3 0.049867 0.651486 0.579624
Si Si4 0.179999 0.943576 0.580611
Si Si5 0.018778 0.556422 0.419390
O O1 0.250000 0.750000 0.500000
O O2 0.283857 0.579203 0.464709
O O3 0.000000 0.668874 0.250000
O O4 0.145563 0.579207 0.464713
O O5 0.271497 0.173792 0.749992
O O6 0.061087 0.249999 0.499992
O O7 0.967822 0.126439 0.516379
O O8 0.132336 0.060813 0.547617
O O9 0.962909 0.560819 0.547636
O O10 0.064942 0.626426 0.516389
O O11 0.334007 0.918901 0.750001
#
# Coordination Sequence:
#
# PCOD8133102 Si02
#       5
#     8   8   8   8   8
#     4  10  20  34  51  72  98 126 157 196 243 288
#     4  10  19  32  51  73  98 128 162 200 240 283
#     4  10  19  32  51  73  98 128 162 200 240 283
#     4   9  19  34  51  72  98 128 162 199 239 286
#     4   9  19  34  51  72  98 128 162 199 239 286
#
# _framework density 17.654243999999998
#
# number of rings (size 3 to 8) (size 9 to 14) (size 15 to 20)
#    0.000    2.400    0.000    2.400    0.000    6.400 
#    0.000    1.000    0.000    0.000    0.000    0.000 
#    0.000    0.000    0.000    0.000    0.000    0.000 
#
# Total GULP energy -248059.163473 kJ/mol
# GULP energy per Si atom -12402.958174 kJ/mol
# Density = 1.761406 g / cm^3
# Si number density = 17.654244 Si / 1000 Ang^3
#
#
#
# Elastic Constant Matrix: (Units=GPa)
#
#
# Indices 1 2 3 4 5 6 
#
# 1 136.5017 67.2103 45.4564 0.0002 0.4363 0.0003
# 2 67.2103 134.6697 61.0334 -0.0081 0.0611 -0.0009
# 3 45.4564 61.0334 77.5607 -0.0153 0.1315 -0.0031
# 4 0.0002 -0.0081 -0.0153 36.5337 -0.0006 -0.1621
# 5 0.4363 0.0611 0.1315 -0.0006 22.9738 0.0005
# 6 0.0003 -0.0009 -0.0031 -0.1621 0.0005 19.9539
#
#
#
# Elastic Compliance Matrix: (Units=1/GPa)
#
#
# Indices 1 2 3 4 5 6 
#
# 1 0.010158 -0.003686 -0.003052 -0.000002 -0.000166 -0.000001
# 2 -0.003686 0.012879 -0.007975 0.000000 0.000081 -0.000001
# 3 -0.003052 -0.007975 0.020958 0.000007 -0.000041 0.000003
# 4 -0.000002 0.000000 0.000007 0.027373 0.000001 0.000222
# 5 -0.000166 0.000081 -0.000041 0.000001 0.043531 -0.000001
# 6 -0.000001 -0.000001 0.000003 0.000222 -0.000001 0.050117
#
#
# Mechanical properties :
#
#
# Convention : Reuss Voigt Hill
#
# Bulk Modulus (GPa) = 68.64183 77.34802 72.99492
# Shear Modulus (GPa) = 25.08799 27.56110 26.32454
#
# Velocity S-wave (km/s) = 3.77380 3.95544 3.86569
# Velocity P-wave (km/s) = 7.61278 8.04789 7.83335
#
# Compressibility (1/GPa) = 0.01456838
#
# Stress axis : x y z
#
# Youngs Moduli (GPa) = 98.44594 77.64336 47.71559
#
# Poissons Ratio (x) = 0.28620 0.14564
# Poissons Ratio (y) = 0.36288 0.38052
# Poissons Ratio (z) = 0.30049 0.61919
#
# Static dielectric constant tensor:
#      x y z
#    x 3.251230 0.000000 -0.000860 
#    y 0.000000 3.463100 0.000000 
#    z -0.000860 0.000000 3.339210 
# 
# 
# High freq. dielectric constant tensor:
#      x y z
#    x 1.667410 0.000000 -0.000200 
#    y 0.000000 1.691430 0.000000 
#    z -0.000200 0.000000 1.688260 
# 
# From -- ./inp_files/46248.got.cif
#   From: 2010.06.25/outbox.cif.g09.slc.cpg/sg15_24_cif.got.tgz:46248.got - 2010.06.28 07:06:18.
