data_PCOD8133228
_publ_section_title
;
Structure prediction by ZEFSAII (Michael W. Deem and Ramdas Pophale) SiO2 
 PCOD8133228
Probable space group: C 2/C
;
_chemical_formula_sum "Si O2"
_cell_formula_units_Z 48
_cell_length_a 19.592150
_cell_length_b 12.494217
_cell_length_c 21.652356
_cell_angle_alpha 90.000000
_cell_angle_beta 27.820495
_cell_angle_gamma 90.000000
_cell_volume 2473.642425
_symmetry_space_group_name_H-M "C 2/C"
_symmetry_group_IT_number 15
_symmetry_cell_setting 'monoclinic'
loop_
_space_group_symop_operation_xyz
x,y,z
-x,y,1/2-z
-x,-y,-z
x,-y,1/2+z
1/2+x,1/2+y,z
1/2-x,1/2+y,1/2-z
1/2-x,1/2-y,-z
1/2+x,1/2-y,1/2+z
loop_
_atom_site_type_symbol
_atom_site_label
_atom_site_fract_x
_atom_site_fract_y
_atom_site_fract_z
Si Si1 0.253376 0.721415 0.146242
Si Si2 0.659396 0.589143 0.643981
Si Si3 0.829387 0.431684 0.888480
Si Si4 0.128414 0.661957 0.606021
Si Si5 0.608536 0.941873 0.995680
Si Si6 0.949123 0.347310 0.586055
O O1 0.149680 0.807499 0.195274
O O2 0.253203 0.613076 0.105764
O O3 0.185574 0.700345 0.267707
O O4 0.417416 0.764049 0.022179
O O5 0.500000 0.553288 0.750000
O O6 0.761709 0.620892 0.504172
O O7 0.728154 0.489069 0.626204
O O8 0.805562 0.559596 0.910411
O O9 0.000000 0.401222 0.750000
O O10 0.250000 0.750000 0.500000
O O11 0.062365 0.624772 0.593070
O O12 0.000000 0.713168 0.750000
O O13 0.607658 0.863929 0.937898
O O14 0.495489 0.039769 0.078725
#
# Coordination Sequence:
#
# PCOD8133228 Si02
#       6
#     8   8   8   8   8   8
#     4  11  19  33  57  88 114 142 180 224 280 332
#     4  10  19  32  57  87 113 138 180 236 278 320
#     4  10  19  34  55  83 116 145 175 224 285 334
#     4  10  21  36  56  77 103 142 186 230 268 313
#     4   9  21  40  56  77 112 155 185 213 277 338
#     4  10  21  37  59  80 114 151 181 220 270 342
#
# _framework density 19.404582999999999
#
# number of rings (size 3 to 8) (size 9 to 14) (size 15 to 20)
#    0.000    2.000    0.000    6.000    0.000    4.000 
#    0.000    1.667    0.000   11.000    0.000    0.000 
#    0.000    0.000    0.000    0.000    0.000    0.000 
#
# Total GULP energy -297642.419570 kJ/mol
# GULP energy per Si atom -12401.767482 kJ/mol
# Density = 1.936042 g / cm^3
# Si number density = 19.404583 Si / 1000 Ang^3
#
#
#
# Elastic Constant Matrix: (Units=GPa)
#
#
# Indices 1 2 3 4 5 6 
#
# 1 120.2058 55.6478 65.7670 0.0003 11.9527 -0.0007
# 2 55.6478 86.6407 61.9154 0.0005 10.2400 -0.0005
# 3 65.7670 61.9154 136.1881 -0.0020 23.1119 -0.0002
# 4 0.0003 0.0005 -0.0020 27.4364 0.0008 10.5813
# 5 11.9527 10.2400 23.1119 0.0008 28.1856 0.0003
# 6 -0.0007 -0.0005 -0.0002 10.5813 0.0003 29.7300
#
#
#
# Elastic Compliance Matrix: (Units=1/GPa)
#
#
# Indices 1 2 3 4 5 6 
#
# 1 0.012974 -0.005713 -0.003585 0.000000 -0.000486 0.000000
# 2 -0.005713 0.019613 -0.006226 -0.000001 0.000403 0.000001
# 3 -0.003585 -0.006226 0.013084 0.000002 -0.006946 -0.000001
# 4 0.000000 -0.000001 0.000002 0.042247 -0.000002 -0.015036
# 5 -0.000486 0.000403 -0.006946 -0.000002 0.041235 0.000000
# 6 0.000000 0.000001 -0.000001 -0.015036 0.000000 0.038988
#
#
# Mechanical properties :
#
#
# Convention : Reuss Voigt Hill
#
# Bulk Modulus (GPa) = 68.39348 78.85499 73.62423
# Shear Modulus (GPa) = 24.50224 27.71737 26.10980
#
# Velocity S-wave (km/s) = 3.55731 3.78351 3.67215
# Velocity P-wave (km/s) = 7.22462 7.73383 7.48356
#
# Compressibility (1/GPa) = 0.01462128
#
# Stress axis : x y z
#
# Youngs Moduli (GPa) = 77.07776 50.98614 76.43208
#
# Poissons Ratio (x) = 0.29130 0.27403
# Poissons Ratio (y) = 0.44037 0.47587
# Poissons Ratio (z) = 0.27635 0.31744
#
# Static dielectric constant tensor:
#      x y z
#    x 3.540710 0.000000 0.159840 
#    y 0.000000 3.521840 0.000000 
#    z 0.159840 0.000000 3.567860 
# 
# 
# High freq. dielectric constant tensor:
#      x y z
#    x 1.744780 0.000000 0.014560 
#    y 0.000000 1.747810 0.000000 
#    z 0.014560 0.000000 1.757480 
# 
# From -- ./inp_files/252513.got.cif
#   From: 2010.06.25/outbox.cif.g09.slc.cpg/sg15_127_cif.got.tgz:252513.got - 2010.06.28 07:06:18.
