data_PCOD8133295
_publ_section_title
;
Structure prediction by ZEFSAII (Michael W. Deem and Ramdas Pophale) SiO2 
 PCOD8133295
Probable space group: C 2/C
;
_chemical_formula_sum "Si O2"
_cell_formula_units_Z 64
_cell_length_a 24.433401
_cell_length_b 21.650118
_cell_length_c 16.384764
_cell_angle_alpha 90.000000
_cell_angle_beta 23.075995
_cell_angle_gamma 90.000000
_cell_volume 3397.167355
_symmetry_space_group_name_H-M "C 2/C"
_symmetry_group_IT_number 15
_symmetry_cell_setting 'monoclinic'
loop_
_space_group_symop_operation_xyz
x,y,z
-x,y,1/2-z
-x,-y,-z
x,-y,1/2+z
1/2+x,1/2+y,z
1/2-x,1/2+y,1/2-z
1/2-x,1/2-y,-z
1/2+x,1/2-y,1/2+z
loop_
_atom_site_type_symbol
_atom_site_label
_atom_site_fract_x
_atom_site_fract_y
_atom_site_fract_z
Si Si1 0.631165 0.706043 0.330055
Si Si2 0.622267 0.109549 0.953800
Si Si3 0.659285 0.127124 0.556978
Si Si4 0.821333 0.191596 0.776279
Si Si5 0.407963 0.155995 0.672366
Si Si6 0.336842 0.008138 0.479439
Si Si7 0.785439 0.675053 0.277451
Si Si8 0.701522 0.113473 0.081184
O O1 0.477529 0.677379 0.529386
O O2 0.639618 0.778546 0.299176
O O3 0.666886 0.688571 0.374504
O O4 0.741113 0.677960 0.117097
O O5 0.715304 0.167241 0.853675
O O6 0.625027 0.104599 0.851906
O O7 0.688083 0.046943 0.902799
O O8 0.465114 0.124403 0.199769
O O9 0.500000 0.138874 0.750000
O O10 0.672619 0.134764 0.636407
O O11 0.723333 0.061223 0.438956
O O12 0.808535 0.265247 0.802850
O O13 0.788605 0.162197 0.908600
O O14 0.573430 0.157291 0.464643
O O15 0.500000 0.998026 0.250000
O O16 0.271107 0.044827 0.492261
O O17 0.748686 0.620265 0.392809
#
# Coordination Sequence:
#
# PCOD8133295 Si02
#       8
#     8   8   8   8   8   8   8   8
#     4  11  22  35  51  84 110 140 183 219 270 327
#     4   9  17  36  58  79 110 140 182 215 262 330
#     4  11  21  38  56  78 109 143 182 228 271 303
#     4  10  19  33  53  79 112 142 174 215 274 322
#     4  10  20  36  57  79 109 143 177 225 270 317
#     4   8  17  34  55  81 106 137 182 220 264 319
#     4  10  19  33  51  82 112 138 179 220 269 323
#     4   9  18  34  55  80 108 144 175 218 264 324
#
# _framework density 18.839224999999999
#
# number of rings (size 3 to 8) (size 9 to 14) (size 15 to 20)
#    0.000    2.250    2.500    1.875    0.000    0.500 
#    4.500    5.625    0.000    0.000    6.500    0.000 
#    0.000    0.000    0.000    0.000    0.000    0.000 
#
# Total GULP energy -396559.857108 kJ/mol
# GULP energy per Si atom -12392.495535 kJ/mol
# Density = 1.879635 g / cm^3
# Si number density = 18.839225 Si / 1000 Ang^3
#
#
#
# Elastic Constant Matrix: (Units=GPa)
#
#
# Indices 1 2 3 4 5 6 
#
# 1 88.5589 26.1384 24.8641 -0.0043 11.0026 0.0021
# 2 26.1384 58.5744 23.2656 -0.0028 2.0253 0.0002
# 3 24.8641 23.2656 72.3962 -0.0032 9.3727 0.0019
# 4 -0.0043 -0.0028 -0.0032 17.7983 0.0009 1.4200
# 5 11.0026 2.0253 9.3727 0.0009 25.5541 -0.0018
# 6 0.0021 0.0002 0.0019 1.4200 -0.0018 19.6821
#
#
#
# Elastic Compliance Matrix: (Units=1/GPa)
#
#
# Indices 1 2 3 4 5 6 
#
# 1 0.014114 -0.005104 -0.002596 0.000003 -0.004720 -0.000002
# 2 -0.005104 0.021431 -0.005458 0.000001 0.002501 0.000001
# 3 -0.002596 -0.005458 0.017068 0.000002 -0.004710 -0.000002
# 4 0.000003 0.000001 0.000002 0.056510 -0.000004 -0.004077
# 5 -0.004720 0.002501 -0.004710 -0.000004 0.042694 0.000005
# 6 -0.000002 0.000001 -0.000002 -0.004077 0.000005 0.051102
#
#
# Mechanical properties :
#
#
# Convention : Reuss Voigt Hill
#
# Bulk Modulus (GPa) = 38.02665 40.89618 39.46142
# Shear Modulus (GPa) = 21.00828 22.29099 21.64963
#
# Velocity S-wave (km/s) = 3.34299 3.44353 3.39363
# Velocity P-wave (km/s) = 5.92701 6.12908 6.02889
#
# Compressibility (1/GPa) = 0.02629734
#
# Stress axis : x y z
#
# Youngs Moduli (GPa) = 70.85369 46.66067 58.58815
#
# Poissons Ratio (x) = 0.23814 0.15209
# Poissons Ratio (y) = 0.36162 0.31979
# Poissons Ratio (z) = 0.18393 0.25468
#
# Static dielectric constant tensor:
#      x y z
#    x 3.443350 -0.000010 0.049810 
#    y -0.000010 3.495510 0.000010 
#    z 0.049810 0.000010 3.259190 
# 
# 
# High freq. dielectric constant tensor:
#      x y z
#    x 1.732670 0.000000 0.009380 
#    y 0.000000 1.719890 0.000000 
#    z 0.009380 0.000000 1.707570 
# 
# From -- ./inp_files/223131.got.cif
#   From: 2010.06.25/outbox.cif.g09.slc.cpg/sg15_112_cif.got.tgz:223131.got - 2010.06.28 07:06:18.
