data_PCOD8133657
_publ_section_title
;
Structure prediction by ZEFSAII (Michael W. Deem and Ramdas Pophale) SiO2 
 PCOD8133657
Probable space group: C 2/C
;
_chemical_formula_sum "Si O2"
_cell_formula_units_Z 52
_cell_length_a 5.555524
_cell_length_b 22.310747
_cell_length_c 21.986897
_cell_angle_alpha 90.000000
_cell_angle_beta 99.749309
_cell_angle_gamma 90.000000
_cell_volume 2685.872012
_symmetry_space_group_name_H-M "C 2/C"
_symmetry_group_IT_number 15
_symmetry_cell_setting 'monoclinic'
loop_
_space_group_symop_operation_xyz
x,y,z
-x,y,1/2-z
-x,-y,-z
x,-y,1/2+z
1/2+x,1/2+y,z
1/2-x,1/2+y,1/2-z
1/2-x,1/2-y,-z
1/2+x,1/2-y,1/2+z
loop_
_atom_site_type_symbol
_atom_site_label
_atom_site_fract_x
_atom_site_fract_y
_atom_site_fract_z
Si Si1 0.049553 0.265983 0.078142
Si Si2 0.500000 0.561367 0.750000
Si Si3 0.966992 0.434987 0.574766
Si Si4 0.295612 0.462178 0.049860
Si Si5 0.039987 0.300405 0.561091
Si Si6 0.883921 0.617402 0.850687
Si Si7 0.759494 0.023815 0.853438
O O1 0.307265 0.230559 0.084307
O O2 0.080308 0.312599 0.134778
O O3 0.808134 0.227679 0.085666
O O4 0.002215 0.300447 0.012991
O O5 0.679462 0.607058 0.791376
O O6 0.397882 0.513952 0.795646
O O7 0.730190 0.437342 0.519891
O O8 0.909563 0.466318 0.637851
O O9 0.182573 0.471417 0.551095
O O10 0.052623 0.367331 0.588444
O O11 0.165027 0.415434 0.088096
O O12 0.577629 0.466182 0.079558
O O13 0.126004 0.586713 0.834754
#
# Coordination Sequence:
#
# PCOD8133657 Si02
#       7
#     8   4   8   8   8   8   8
#     4  10  22  37  57  89 124 167 199 244 291 372
#     4  10  22  38  58  90 108 150 204 270 314 350
#     4  10  19  34  53  88 125 160 193 237 305 378
#     4   9  19  32  54  87 121 156 191 236 304 374
#     4  10  22  36  57  88 130 165 198 233 300 374
#     4  10  20  37  59  87 115 152 203 254 310 354
#     4  10  21  34  58  86 116 152 200 259 308 358
#
# _framework density 19.360565999999999
#
# number of rings (size 3 to 8) (size 9 to 14) (size 15 to 20)
#    0.000    2.154    1.538    0.923    6.462    1.231 
#    0.000    0.000    0.000    0.000   16.000    0.000 
#    0.000    0.000    0.000    0.000    0.000    0.000 
#
# Total GULP energy -322175.977265 kJ/mol
# GULP energy per Si atom -12391.383741 kJ/mol
# Density = 1.931650 g / cm^3
# Si number density = 19.360566 Si / 1000 Ang^3
#
#
#
# Elastic Constant Matrix: (Units=GPa)
#
#
# Indices 1 2 3 4 5 6 
#
# 1 123.0812 55.1247 36.0859 0.0000 5.8859 0.0000
# 2 55.1247 132.7638 37.2586 0.0000 6.9711 0.0000
# 3 36.0859 37.2586 79.4056 0.0000 10.2668 0.0000
# 4 0.0000 0.0000 0.0000 16.3322 0.0000 1.7078
# 5 5.8859 6.9711 10.2668 0.0000 18.6992 0.0000
# 6 0.0000 0.0000 0.0000 1.7078 0.0000 14.3295
#
#
#
# Elastic Compliance Matrix: (Units=1/GPa)
#
#
# Indices 1 2 3 4 5 6 
#
# 1 0.010637 -0.003518 -0.003143 0.000000 -0.000311 0.000000
# 2 -0.003518 0.009858 -0.002901 0.000000 -0.000975 0.000000
# 3 -0.003143 -0.002901 0.016270 0.000000 -0.006862 0.000000
# 4 0.000000 0.000000 0.000000 0.062002 0.000000 -0.007389
# 5 -0.000311 -0.000975 -0.006862 0.000000 0.057707 0.000000
# 6 0.000000 0.000000 0.000000 -0.007389 0.000000 0.070667
#
#
# Mechanical properties :
#
#
# Convention : Reuss Voigt Hill
#
# Bulk Modulus (GPa) = 56.68421 65.79875 61.24148
# Shear Modulus (GPa) = 19.82987 23.65761 21.74374
#
# Velocity S-wave (km/s) = 3.20385 3.49943 3.35490
# Velocity P-wave (km/s) = 6.55957 7.09843 6.83431
#
# Compressibility (1/GPa) = 0.01764160
#
# Stress axis : x y z
#
# Youngs Moduli (GPa) = 94.01404 101.43850 61.46201
#
# Poissons Ratio (x) = 0.35687 0.19317
# Poissons Ratio (y) = 0.33075 0.17829
# Poissons Ratio (z) = 0.29547 0.29425
#
# Static dielectric constant tensor:
#      x y z
#    x 3.788780 0.000000 -0.042190 
#    y 0.000000 3.366020 0.000000 
#    z -0.042190 0.000000 3.413710 
# 
# 
# High freq. dielectric constant tensor:
#      x y z
#    x 1.767810 0.000000 -0.000320 
#    y 0.000000 1.733500 0.000000 
#    z -0.000320 0.000000 1.729640 
# 
# From -- ./inp_files/227533.got.cif
#   From: 2010.06.25/outbox.cif.g09.slc.cpg/sg15_114_cif.got.tgz:227533.got - 2010.06.28 07:06:18.
