data_PCOD8133761
_publ_section_title
;
Structure prediction by ZEFSAII (Michael W. Deem and Ramdas Pophale) SiO2 
 PCOD8133761
Probable space group: C 2/C
;
_chemical_formula_sum "Si O2"
_cell_formula_units_Z 64
_cell_length_a 23.454858
_cell_length_b 13.229458
_cell_length_c 13.938662
_cell_angle_alpha 90.000000
_cell_angle_beta 42.923154
_cell_angle_gamma 90.000000
_cell_volume 2945.464552
_symmetry_space_group_name_H-M "C 2/C"
_symmetry_group_IT_number 15
_symmetry_cell_setting 'monoclinic'
loop_
_space_group_symop_operation_xyz
x,y,z
-x,y,1/2-z
-x,-y,-z
x,-y,1/2+z
1/2+x,1/2+y,z
1/2-x,1/2+y,1/2-z
1/2-x,1/2-y,-z
1/2+x,1/2-y,1/2+z
loop_
_atom_site_type_symbol
_atom_site_label
_atom_site_fract_x
_atom_site_fract_y
_atom_site_fract_z
Si Si1 0.151600 0.740925 0.462673
Si Si2 0.766487 0.647230 0.687170
Si Si3 0.005466 0.193897 0.002195
Si Si4 0.535306 0.886695 0.855820
Si Si5 0.613327 0.973110 0.947446
Si Si6 0.656330 0.235045 0.077694
Si Si7 0.916396 0.133052 0.290823
Si Si8 0.384558 0.582472 0.763998
O O1 0.237934 0.781536 0.310260
O O2 0.080549 0.780778 0.480807
O O3 0.144549 0.618788 0.477841
O O4 0.143470 0.788567 0.579388
O O5 0.808985 0.545365 0.671929
O O6 0.836829 0.711529 0.543183
O O7 0.693674 0.612638 0.705013
O O8 0.927741 0.172391 0.167760
O O9 0.986230 0.288364 0.956763
O O10 0.031932 0.096029 0.905113
O O11 0.590135 0.932626 0.872507
O O12 0.602051 0.856729 0.691431
O O13 0.465858 0.968292 0.906093
O O14 0.607243 0.338656 0.157924
O O15 0.750000 0.250000 0.000000
O O16 0.000000 0.118628 0.250000
O O17 0.873326 0.024821 0.328737
#
# Coordination Sequence:
#
# PCOD8133761 Si02
#       8
#     8   8   8   8   8   8   8   8
#     4   9  20  37  56  79 119 158 192 236 301 361
#     4  10  21  37  56  80 112 156 198 239 293 356
#     4   8  16  35  57  80 115 144 187 242 294 342
#     4   9  19  37  59  85 114 151 197 243 296 355
#     4  10  20  39  57  84 114 153 194 247 298 347
#     4   9  18  36  59  82 113 152 188 238 295 344
#     4  10  19  34  56  85 113 153 188 236 306 358
#     4   9  18  35  58  80 112 151 190 237 289 355
#
# _framework density 21.72832
#
# number of rings (size 3 to 8) (size 9 to 14) (size 15 to 20)
#    0.000    2.750    0.000    2.625    0.000    3.500 
#   20.250    0.625    0.000    0.000    0.000    0.000 
#    0.000    0.000    0.000    0.000    0.000    0.000 
#
# Total GULP energy -396461.132657 kJ/mol
# GULP energy per Si atom -12389.410396 kJ/mol
# Density = 2.167887 g / cm^3
# Si number density = 21.728320 Si / 1000 Ang^3
#
#
#
# Elastic Constant Matrix: (Units=GPa)
#
#
# Indices 1 2 3 4 5 6 
#
# 1 24.6707 30.3462 26.5556 0.0000 2.0759 0.0000
# 2 30.3462 152.5223 85.2026 0.0000 -2.1412 0.0000
# 3 26.5556 85.2026 178.4889 0.0000 9.6397 0.0000
# 4 0.0000 0.0000 0.0000 34.4651 0.0000 -5.4252
# 5 2.0759 -2.1412 9.6397 0.0000 12.9610 0.0000
# 6 0.0000 0.0000 0.0000 -5.4252 0.0000 31.8600
#
#
#
# Elastic Compliance Matrix: (Units=1/GPa)
#
#
# Indices 1 2 3 4 5 6 
#
# 1 0.056541 -0.009416 -0.003484 0.000000 -0.008020 0.000000
# 2 -0.009416 0.010810 -0.004102 0.000000 0.006345 0.000000
# 3 -0.003484 -0.004102 0.008424 0.000000 -0.006385 0.000000
# 4 0.000000 0.000000 0.000000 0.029814 0.000000 0.005077
# 5 -0.008020 0.006345 -0.006385 0.000000 0.084236 0.000000
# 6 0.000000 0.000000 0.000000 0.005077 0.000000 0.032252
#
#
# Mechanical properties :
#
#
# Convention : Reuss Voigt Hill
#
# Bulk Modulus (GPa) = 23.94009 71.09896 47.51953
# Shear Modulus (GPa) = 18.51809 30.09570 24.30690
#
# Velocity S-wave (km/s) = 2.92251 3.72572 3.34829
# Velocity P-wave (km/s) = 4.73602 7.16246 6.07169
#
# Compressibility (1/GPa) = 0.04177094
#
# Stress axis : x y z
#
# Youngs Moduli (GPa) = 17.68626 92.50292 118.70747
#
# Poissons Ratio (x) = 0.87098 0.41363
# Poissons Ratio (y) = 0.16653 0.48697
# Poissons Ratio (z) = 0.06163 0.37947
#
# Static dielectric constant tensor:
#      x y z
#    x 3.572350 0.000000 0.170720 
#    y 0.000000 4.170410 0.000000 
#    z 0.170720 0.000000 4.316450 
# 
# 
# High freq. dielectric constant tensor:
#      x y z
#    x 1.825240 0.000000 0.003420 
#    y 0.000000 1.854210 0.000000 
#    z 0.003420 0.000000 1.856130 
# 
# From -- ./inp_files/177822.got.cif
#   From: 2010.06.25/outbox.cif.g09.slc.cpg/sg15_89_cif.got.tgz:177822.got - 2010.06.28 07:06:18.
