data_PCOD8133706
_publ_section_title
;
Structure prediction by ZEFSAII (Michael W. Deem and Ramdas Pophale) SiO2 
 PCOD8133706
Probable space group: C 2/C
;
_chemical_formula_sum "Si O2"
_cell_formula_units_Z 52
_cell_length_a 17.627956
_cell_length_b 14.032965
_cell_length_c 18.921445
_cell_angle_alpha 90.000000
_cell_angle_beta 35.272801
_cell_angle_gamma 90.000000
_cell_volume 2702.932646
_symmetry_space_group_name_H-M "C 2/C"
_symmetry_group_IT_number 15
_symmetry_cell_setting 'monoclinic'
loop_
_space_group_symop_operation_xyz
x,y,z
-x,y,1/2-z
-x,-y,-z
x,-y,1/2+z
1/2+x,1/2+y,z
1/2-x,1/2+y,1/2-z
1/2-x,1/2-y,-z
1/2+x,1/2-y,1/2+z
loop_
_atom_site_type_symbol
_atom_site_label
_atom_site_fract_x
_atom_site_fract_y
_atom_site_fract_z
Si Si1 0.000000 0.825019 0.750000
Si Si2 0.872717 0.937582 0.081033
Si Si3 0.942003 0.763724 0.938932
Si Si4 0.791949 0.302277 0.192986
Si Si5 0.251802 0.897352 0.628502
Si Si6 0.072321 0.555615 0.007278
Si Si7 0.301725 0.099349 0.252964
O O1 0.930888 0.759404 0.862106
O O2 0.893862 0.891308 0.791492
O O3 0.818934 0.865761 0.183307
O O4 0.762071 0.017835 0.148422
O O5 0.912713 0.872320 0.984329
O O6 0.000000 0.000000 0.000000
O O7 0.088382 0.727298 0.846213
O O8 0.830161 0.701018 0.060357
O O9 0.732809 0.207605 0.202371
O O10 0.847114 0.356065 0.083399
O O11 0.249298 0.923036 0.713378
O O12 0.328791 0.982139 0.528986
O O13 0.958357 0.591515 0.145868
O O14 0.000000 0.500000 0.000000
#
# Coordination Sequence:
#
# PCOD8133706 Si02
#       7
#     4   8   8   8   8   8   8
#     4  12  24  36  52  82 124 170 194 222 274 364
#     4  12  21  31  53  85 118 149 193 245 295 345
#     4  12  22  37  54  82 124 162 195 229 287 356
#     4  12  19  34  57  82 120 152 185 247 296 349
#     4  11  20  36  55  79 113 158 194 227 289 351
#     4  10  19  34  55  79 109 152 192 234 298 341
#     4  11  20  35  55  86 117 148 191 249 300 344
#
# _framework density 19.238363
#
# number of rings (size 3 to 8) (size 9 to 14) (size 15 to 20)
#    0.000    0.615   10.769    0.462    0.000    0.000 
#    0.000    0.000    0.000    0.000    0.000    4.308 
#    0.000    0.000    0.000    0.000    0.000    0.000 
#
# Total GULP energy -322206.812988 kJ/mol
# GULP energy per Si atom -12392.569730 kJ/mol
# Density = 1.919458 g / cm^3
# Si number density = 19.238363 Si / 1000 Ang^3
#
#
#
# Elastic Constant Matrix: (Units=GPa)
#
#
# Indices 1 2 3 4 5 6 
#
# 1 37.6357 11.7202 16.5447 -0.0001 -8.9169 0.0001
# 2 11.7202 141.5477 49.8016 -0.0001 -6.8814 0.0001
# 3 16.5447 49.8016 105.4525 -0.0004 -14.7012 0.0002
# 4 -0.0001 -0.0001 -0.0004 54.0293 0.0002 -10.4461
# 5 -8.9169 -6.8814 -14.7012 0.0002 28.1476 -0.0001
# 6 0.0001 0.0001 0.0002 -10.4461 -0.0001 13.6777
#
#
#
# Elastic Compliance Matrix: (Units=1/GPa)
#
#
# Indices 1 2 3 4 5 6 
#
# 1 0.030089 -0.001000 -0.003186 0.000000 0.007623 0.000000
# 2 -0.001000 0.008506 -0.003898 0.000000 -0.000273 0.000000
# 3 -0.003186 -0.003898 0.012457 0.000000 0.004544 0.000000
# 4 0.000000 0.000000 0.000000 0.021715 0.000000 0.016584
# 5 0.007623 -0.000273 0.004544 0.000000 0.040249 0.000000
# 6 0.000000 0.000000 0.000000 0.016584 0.000000 0.085778
#
#
# Mechanical properties :
#
#
# Convention : Reuss Voigt Hill
#
# Bulk Modulus (GPa) = 28.66642 48.97431 38.82037
# Shear Modulus (GPa) = 22.06645 32.94221 27.50433
#
# Velocity S-wave (km/s) = 3.39042 4.14251 3.78519
# Velocity P-wave (km/s) = 5.50087 6.95646 6.27104
#
# Compressibility (1/GPa) = 0.03488402
#
# Stress axis : x y z
#
# Youngs Moduli (GPa) = 33.23528 117.56693 80.27462
#
# Poissons Ratio (x) = 0.11755 0.25573
# Poissons Ratio (y) = 0.03323 0.31293
# Poissons Ratio (z) = 0.10588 0.45830
#
# Static dielectric constant tensor:
#      x y z
#    x 3.083590 0.000000 -0.401530 
#    y 0.000000 4.068790 0.000000 
#    z -0.401530 0.000000 4.271840 
# 
# 
# High freq. dielectric constant tensor:
#      x y z
#    x 1.670260 0.000000 -0.026920 
#    y 0.000000 1.764420 0.000000 
#    z -0.026920 0.000000 1.777610 
# 
# From -- ./inp_files/205644.got.cif
#   From: 2010.06.25/outbox.cif.g09.slc.cpg/sg15_103_cif.got.tgz:205644.got - 2010.06.28 07:06:18.
