data_PCOD8133233
_publ_section_title
;
Structure prediction by ZEFSAII (Michael W. Deem and Ramdas Pophale) SiO2 
 PCOD8133233
Probable space group: C 2/C
;
_chemical_formula_sum "Si O2"
_cell_formula_units_Z 64
_cell_length_a 9.805446
_cell_length_b 19.565733
_cell_length_c 20.662686
_cell_angle_alpha 90.000000
_cell_angle_beta 58.693852
_cell_angle_gamma 90.000000
_cell_volume 3386.983305
_symmetry_space_group_name_H-M "C 2/C"
_symmetry_group_IT_number 15
_symmetry_cell_setting 'monoclinic'
loop_
_space_group_symop_operation_xyz
x,y,z
-x,y,1/2-z
-x,-y,-z
x,-y,1/2+z
1/2+x,1/2+y,z
1/2-x,1/2+y,1/2-z
1/2-x,1/2-y,-z
1/2+x,1/2-y,1/2+z
loop_
_atom_site_type_symbol
_atom_site_label
_atom_site_fract_x
_atom_site_fract_y
_atom_site_fract_z
Si Si1 0.409744 0.707313 0.457060
Si Si2 0.253354 0.498736 0.548840
Si Si3 0.990747 0.892479 0.045764
Si Si4 0.791371 0.400693 0.550748
Si Si5 0.453508 0.960061 0.188694
Si Si6 0.826902 0.024997 0.307641
Si Si7 0.571220 0.160989 0.905002
Si Si8 0.588625 0.616894 0.662303
O O1 0.250000 0.750000 0.500000
O O2 0.463810 0.677858 0.513440
O O3 0.371038 0.642767 0.421062
O O4 0.540379 0.759213 0.394928
O O5 0.341391 0.426260 0.518310
O O6 0.352008 0.552747 0.567590
O O7 0.218727 0.529439 0.487008
O O8 0.084274 0.488007 0.626570
O O9 0.984383 0.872305 0.123281
O O10 0.786359 0.421044 0.627388
O O11 0.953044 0.360462 0.493034
O O12 0.500000 0.942946 0.250000
O O13 0.456133 0.887926 0.149843
O O14 0.277660 0.995706 0.226975
O O15 0.000000 0.058737 0.250000
O O16 0.868762 0.962665 0.344740
O O17 0.750617 0.159900 0.886115
O O18 0.500000 0.641062 0.750000
#
# Coordination Sequence:
#
# PCOD8133233 Si02
#       8
#     8   8   8   8   8   8   8   8
#     4   9  19  37  55  80 102 142 193 237 268 330
#     4   9  19  31  53  88 108 142 185 228 285 344
#     4  10  19  32  58  82 112 146 185 237 286 326
#     4   9  17  35  59  78 109 139 187 232 278 330
#     4  10  22  34  55  84 116 149 183 234 285 341
#     4  10  21  34  55  84 119 146 179 234 294 344
#     4   9  20  36  56  80 113 146 191 230 270 336
#     4  10  21  33  54  86 117 149 177 231 291 337
#
# _framework density 18.895872000000001
#
# number of rings (size 3 to 8) (size 9 to 14) (size 15 to 20)
#    0.000    2.500    1.250    0.750    7.000    2.000 
#    0.000    0.625    2.750    0.750    0.000    0.000 
#    0.000    0.000    0.000    0.000    0.000    0.000 
#
# Total GULP energy -396538.559848 kJ/mol
# GULP energy per Si atom -12391.829995 kJ/mol
# Density = 1.885286 g / cm^3
# Si number density = 18.895872 Si / 1000 Ang^3
#
#
#
# Elastic Constant Matrix: (Units=GPa)
#
#
# Indices 1 2 3 4 5 6 
#
# 1 95.0915 22.8288 49.9035 0.0000 5.4306 0.0000
# 2 22.8288 53.1301 35.8907 0.0000 2.3793 0.0000
# 3 49.9035 35.8907 92.0428 0.0000 0.8059 0.0000
# 4 0.0000 0.0000 0.0000 17.7336 0.0000 -2.5450
# 5 5.4306 2.3793 0.8059 0.0000 37.1355 0.0000
# 6 0.0000 0.0000 0.0000 -2.5450 0.0000 24.4203
#
#
#
# Elastic Compliance Matrix: (Units=1/GPa)
#
#
# Indices 1 2 3 4 5 6 
#
# 1 0.014899 -0.001181 -0.007601 0.000000 -0.001938 0.000000
# 2 -0.001181 0.025721 -0.009378 0.000000 -0.001272 0.000000
# 3 -0.007601 -0.009378 0.018631 0.000000 0.001308 0.000000
# 4 0.000000 0.000000 0.000000 0.057246 0.000000 0.005966
# 5 -0.001938 -0.001272 0.001308 0.000000 0.027265 0.000000
# 6 0.000000 0.000000 0.000000 0.005966 0.000000 0.041571
#
#
# Mechanical properties :
#
#
# Convention : Reuss Voigt Hill
#
# Bulk Modulus (GPa) = 43.60709 50.83451 47.22080
# Shear Modulus (GPa) = 21.80576 24.63396 23.21986
#
# Velocity S-wave (km/s) = 3.40074 3.61455 3.50927
# Velocity P-wave (km/s) = 6.20868 6.66189 6.43927
#
# Compressibility (1/GPa) = 0.02293205
#
# Stress axis : x y z
#
# Youngs Moduli (GPa) = 67.11829 38.87824 53.67424
#
# Poissons Ratio (x) = 0.04590 0.40796
# Poissons Ratio (y) = 0.07924 0.50338
# Poissons Ratio (z) = 0.51014 0.36462
#
# Static dielectric constant tensor:
#      x y z
#    x 3.681490 0.000000 -0.220780 
#    y 0.000000 3.513350 0.000000 
#    z -0.220780 0.000000 3.343220 
# 
# 
# High freq. dielectric constant tensor:
#      x y z
#    x 1.743090 0.000000 -0.008760 
#    y 0.000000 1.702920 0.000000 
#    z -0.008760 0.000000 1.714580 
# 
# From -- ./inp_files/233819.got.cif
#   From: 2010.06.25/outbox.cif.g09.slc.cpg/sg15_117_cif.got.tgz:233819.got - 2010.06.28 07:06:18.
