data_PCOD8133068
_publ_section_title
;
Structure prediction by ZEFSAII (Michael W. Deem and Ramdas Pophale) SiO2 
 PCOD8133068
Probable space group: C 2/C
;
_chemical_formula_sum "Si O2"
_cell_formula_units_Z 40
_cell_length_a 16.440552
_cell_length_b 22.704707
_cell_length_c 5.215841
_cell_angle_alpha 90.000000
_cell_angle_beta 94.352926
_cell_angle_gamma 90.000000
_cell_volume 1941.342156
_symmetry_space_group_name_H-M "C 2/C"
_symmetry_group_IT_number 15
_symmetry_cell_setting 'monoclinic'
loop_
_space_group_symop_operation_xyz
x,y,z
-x,y,1/2-z
-x,-y,-z
x,-y,1/2+z
1/2+x,1/2+y,z
1/2-x,1/2+y,1/2-z
1/2-x,1/2-y,-z
1/2+x,1/2-y,1/2+z
loop_
_atom_site_type_symbol
_atom_site_label
_atom_site_fract_x
_atom_site_fract_y
_atom_site_fract_z
Si Si1 0.958918 0.787936 0.492217
Si Si2 0.904711 0.034958 0.209663
Si Si3 0.970466 0.660682 0.994229
Si Si4 0.781934 0.683414 0.005721
Si Si5 0.302003 0.353105 0.511471
O O1 0.862223 0.797568 0.487222
O O2 0.000000 0.817667 0.250000
O O3 0.971300 0.718208 0.492065
O O4 0.000000 0.817923 0.750000
O O5 0.855363 0.091008 0.100124
O O6 0.000000 0.050349 0.250000
O O7 0.881552 0.014681 0.491757
O O8 0.877967 0.681535 0.979342
O O9 0.000000 0.624331 0.750000
O O10 0.000000 0.623396 0.250000
O O11 0.743221 0.642359 0.773274
O O12 0.750000 0.750000 0.000000
O O13 0.762915 0.656465 0.278607
#
# Coordination Sequence:
#
# PCOD8133068 Si02
#       5
#     8   8   8   8   8
#     4  10  19  32  49  70 100 147 190 217 261 325
#     4  10  22  40  61  85 114 151 197 247 292 342
#     4  10  19  34  50  70 106 150 187 220 266 323
#     4  12  23  35  53  83 118 153 194 237 278 340
#     4  12  23  37  57  83 116 152 196 240 289 339
#
# _framework density 20.604301
#
# number of rings (size 3 to 8) (size 9 to 14) (size 15 to 20)
#    0.000    1.200    0.000    9.600    0.000    2.400 
#    0.000    0.000    0.000    0.000    0.000    0.000 
#    0.000   56.000    0.000    0.000    0.000    0.000 
#
# Total GULP energy -247825.633888 kJ/mol
# GULP energy per Si atom -12391.281694 kJ/mol
# Density = 2.055740 g / cm^3
# Si number density = 20.604301 Si / 1000 Ang^3
#
#
#
# Elastic Constant Matrix: (Units=GPa)
#
#
# Indices 1 2 3 4 5 6 
#
# 1 83.3528 6.3721 43.4574 0.0000 -2.0209 0.0000
# 2 6.3721 46.4262 9.8239 0.0000 7.6104 0.0000
# 3 43.4574 9.8239 192.3814 0.0000 -6.4308 0.0000
# 4 0.0000 0.0000 0.0000 20.9821 0.0000 7.3720
# 5 -2.0209 7.6104 -6.4308 0.0000 40.4042 0.0000
# 6 0.0000 0.0000 0.0000 7.3720 0.0000 21.4997
#
#
#
# Elastic Compliance Matrix: (Units=1/GPa)
#
#
# Indices 1 2 3 4 5 6 
#
# 1 0.013677 -0.001315 -0.003007 0.000000 0.000453 0.000000
# 2 -0.001315 0.022671 -0.001011 0.000000 -0.004497 0.000000
# 3 -0.003007 -0.001011 0.005962 0.000000 0.000989 0.000000
# 4 0.000000 0.000000 0.000000 0.054188 0.000000 -0.018580
# 5 0.000453 -0.004497 0.000989 0.000000 0.025777 0.000000
# 6 0.000000 0.000000 0.000000 -0.018580 0.000000 0.052883
#
#
# Mechanical properties :
#
#
# Convention : Reuss Voigt Hill
#
# Bulk Modulus (GPa) = 31.60226 49.05191 40.32709
# Shear Modulus (GPa) = 25.46193 34.07767 29.76980
#
# Velocity S-wave (km/s) = 3.51915 4.07124 3.80522
# Velocity P-wave (km/s) = 5.64655 6.77926 6.23866
#
# Compressibility (1/GPa) = 0.03164330
#
# Stress axis : x y z
#
# Youngs Moduli (GPa) = 73.11797 44.10896 167.72982
#
# Poissons Ratio (x) = 0.05801 0.50438
# Poissons Ratio (y) = 0.09616 0.16956
# Poissons Ratio (z) = 0.21987 0.04459
#
# Static dielectric constant tensor:
#      x y z
#    x 3.799630 0.000000 0.052530 
#    y 0.000000 3.098920 0.000000 
#    z 0.052530 0.000000 7.358150 
# 
# 
# High freq. dielectric constant tensor:
#      x y z
#    x 1.807150 0.000000 0.001400 
#    y 0.000000 1.730360 0.000000 
#    z 0.001400 0.000000 1.852020 
# 
# From -- ./inp_files/7340.got.cif
#   From: 2010.06.25/outbox.cif.g09.slc.cpg/sg15_4_cif.got.tgz:7340.got - 2010.06.28 07:06:18.
