data_PCOD8133308
_publ_section_title
;
Structure prediction by ZEFSAII (Michael W. Deem and Ramdas Pophale) SiO2 
 PCOD8133308
Probable space group: C 2/C
;
_chemical_formula_sum "Si O2"
_cell_formula_units_Z 56
_cell_length_a 23.874906
_cell_length_b 12.021553
_cell_length_c 19.408475
_cell_angle_alpha 90.000000
_cell_angle_beta 144.382535
_cell_angle_gamma 90.000000
_cell_volume 3244.092621
_symmetry_space_group_name_H-M "C 2/C"
_symmetry_group_IT_number 15
_symmetry_cell_setting 'monoclinic'
loop_
_space_group_symop_operation_xyz
x,y,z
-x,y,1/2-z
-x,-y,-z
x,-y,1/2+z
1/2+x,1/2+y,z
1/2-x,1/2+y,1/2-z
1/2-x,1/2-y,-z
1/2+x,1/2-y,1/2+z
loop_
_atom_site_type_symbol
_atom_site_label
_atom_site_fract_x
_atom_site_fract_y
_atom_site_fract_z
Si Si1 0.250000 0.750000 0.704875
Si Si2 0.767981 0.010924 0.345201
Si Si3 0.111994 0.667503 0.044375
Si Si4 0.388461 0.642175 0.060714
Si Si5 0.111994 0.332497 0.179613
Si Si6 0.888461 0.142175 0.216208
Si Si7 0.267981 0.489076 0.190761
O O1 0.240879 0.857872 0.646785
O O2 0.343536 0.764946 0.847012
O O3 0.156463 0.735054 0.659939
O O4 0.259121 0.642128 0.665026
O O5 0.811783 1.000000 0.311783
O O6 0.837067 0.958399 0.470458
O O7 0.663738 0.951085 0.241942
O O8 0.163738 0.548916 0.085534
O O9 0.131200 0.739960 0.995267
O O10 0.000000 0.646075 0.946013
O O11 0.349203 0.650801 0.099203
O O12 0.500000 0.612617 0.170987
O O13 0.131199 0.260040 0.267132
O O14 0.837068 0.041601 0.203677
#
# Coordination Sequence:
#
# PCOD8133308 Si02
#       7
#     8   8   8   8   8   8   8
#     4  10  20  34  50  78 106 140 180 208 258 320
#     4  10  19  34  51  77 107 139 174 217 256 315
#     4  10  19  33  52  78 106 134 173 221 264 305
#     4  10  20  34  55  81 105 135 175 221 269 309
#     4  10  19  33  52  78 106 134 173 221 264 305
#     4  10  20  34  55  81 105 135 175 221 269 309
#     4  10  19  34  51  77 107 139 174 217 256 315
#
# _framework density 17.262146000000001
#
# number of rings (size 3 to 8) (size 9 to 14) (size 15 to 20)
#    0.000    2.000    5.714    0.000    0.000    9.143 
#    0.000    0.714    0.000    0.000    0.000    4.000 
#    0.000    0.000    0.000    0.000    0.000    0.000 
#
# Total GULP energy -347142.404563 kJ/mol
# GULP energy per Si atom -12397.943020 kJ/mol
# Density = 1.722286 g / cm^3
# Si number density = 17.262146 Si / 1000 Ang^3
#
#
#
# Elastic Constant Matrix: (Units=GPa)
#
#
# Indices 1 2 3 4 5 6 
#
# 1 83.3611 47.4167 32.4174 0.0000 -1.7396 0.0000
# 2 47.4167 159.5980 49.9815 0.0000 3.4377 0.0000
# 3 32.4174 49.9815 79.1508 0.0000 -3.9043 0.0000
# 4 0.0000 0.0000 0.0000 18.3452 0.0000 -3.4341
# 5 -1.7396 3.4377 -3.9043 0.0000 21.9214 0.0000
# 6 0.0000 0.0000 0.0000 -3.4341 0.0000 20.9073
#
#
#
# Elastic Compliance Matrix: (Units=1/GPa)
#
#
# Indices 1 2 3 4 5 6 
#
# 1 0.015546 -0.003318 -0.004223 0.000000 0.001002 0.000000
# 2 -0.003318 0.008618 -0.004199 0.000000 -0.002363 0.000000
# 3 -0.004223 -0.004199 0.017182 0.000000 0.003384 0.000000
# 4 0.000000 0.000000 0.000000 0.056239 0.000000 0.009237
# 5 0.001002 -0.002363 0.003384 0.000000 0.046670 0.000000
# 6 0.000000 0.000000 0.000000 0.009237 0.000000 0.049347
#
#
# Mechanical properties :
#
#
# Convention : Reuss Voigt Hill
#
# Bulk Modulus (GPa) = 55.97157 64.63789 60.30473
# Shear Modulus (GPa) = 22.41769 25.05440 23.73604
#
# Velocity S-wave (km/s) = 3.60760 3.81387 3.71217
# Velocity P-wave (km/s) = 7.06031 7.54455 7.30644
#
# Compressibility (1/GPa) = 0.01786621
#
# Stress axis : x y z
#
# Youngs Moduli (GPa) = 64.32398 116.04264 58.19986
#
# Poissons Ratio (x) = 0.38503 0.24575
# Poissons Ratio (y) = 0.21343 0.24440
# Poissons Ratio (z) = 0.27161 0.48730
#
# Static dielectric constant tensor:
#      x y z
#    x 3.205030 0.000000 0.012640 
#    y 0.000000 3.452090 0.000000 
#    z 0.012640 0.000000 3.214460 
# 
# 
# High freq. dielectric constant tensor:
#      x y z
#    x 1.650150 0.000000 0.011560 
#    y 0.000000 1.669840 0.000000 
#    z 0.011560 0.000000 1.658770 
# 
# From -- ./inp_files/257420.got.cif
#   From: 2010.06.25/outbox.cif.g09.slc.cpg/sg15_129_cif.got.tgz:257420.got - 2010.06.28 07:06:18.
