data_PCOD8133225
_publ_section_title
;
Structure prediction by ZEFSAII (Michael W. Deem and Ramdas Pophale) SiO2 
 PCOD8133225
Probable space group: C 2/C
;
_chemical_formula_sum "Si O2"
_cell_formula_units_Z 64
_cell_length_a 25.765897
_cell_length_b 13.615194
_cell_length_c 14.388375
_cell_angle_alpha 90.000000
_cell_angle_beta 39.003339
_cell_angle_gamma 90.000000
_cell_volume 3176.756335
_symmetry_space_group_name_H-M "C 2/C"
_symmetry_group_IT_number 15
_symmetry_cell_setting 'monoclinic'
loop_
_space_group_symop_operation_xyz
x,y,z
-x,y,1/2-z
-x,-y,-z
x,-y,1/2+z
1/2+x,1/2+y,z
1/2-x,1/2+y,1/2-z
1/2-x,1/2-y,-z
1/2+x,1/2-y,1/2+z
loop_
_atom_site_type_symbol
_atom_site_label
_atom_site_fract_x
_atom_site_fract_y
_atom_site_fract_z
Si Si1 0.770810 0.592909 0.438395
Si Si2 0.784802 0.606188 0.024735
Si Si3 0.211328 0.074636 0.318660
Si Si4 0.035914 0.118662 0.537994
Si Si5 0.338269 0.356767 0.126698
Si Si6 0.484986 0.589881 0.141486
Si Si7 0.846013 0.198285 0.422019
Si Si8 0.864001 0.216573 0.784163
O O1 0.800811 0.500614 0.458270
O O2 0.762576 0.563506 0.342145
O O3 0.841280 0.675953 0.354702
O O4 0.680846 0.631428 0.594436
O O5 0.774044 0.608606 0.151200
O O6 0.704286 0.656340 0.094181
O O7 0.859004 0.683142 0.896513
O O8 0.128479 0.143700 0.448241
O O9 0.181834 0.968830 0.322914
O O10 0.056483 0.094613 0.402402
O O11 0.963873 0.201730 0.649196
O O12 0.002018 0.023993 0.640787
O O13 0.321077 0.290071 0.241129
O O14 0.434796 0.343384 0.974425
O O15 0.296552 0.321698 0.088282
O O16 0.430380 0.636529 0.299822
#
# Coordination Sequence:
#
# PCOD8133225 Si02
#       8
#     8   8   8   8   8   8   8   8
#     4  11  22  37  56  81 113 154 187 225 277 336
#     4  11  22  35  53  81 116 146 183 229 276 335
#     4  11  20  35  57  83 115 141 185 238 287 325
#     4   9  18  32  56  82 114 141 174 241 285 327
#     4  10  19  32  57  85 109 141 179 236 281 333
#     4   9  17  31  54  83 112 138 176 228 289 329
#     4  11  20  33  53  84 114 144 181 224 284 336
#     4  10  21  37  55  80 116 149 187 224 280 338
#
# _framework density 20.146336000000002
#
# number of rings (size 3 to 8) (size 9 to 14) (size 15 to 20)
#    0.000    1.750    3.750    2.625    0.000    0.500 
#    0.000    0.000    0.000    3.000   13.000    0.000 
#    0.000    0.000    0.000    0.000    0.000    0.000 
#
# Total GULP energy -396430.769884 kJ/mol
# GULP energy per Si atom -12388.461559 kJ/mol
# Density = 2.010048 g / cm^3
# Si number density = 20.146336 Si / 1000 Ang^3
#
#
#
# Elastic Constant Matrix: (Units=GPa)
#
#
# Indices 1 2 3 4 5 6 
#
# 1 45.7392 6.0158 18.9810 0.0000 18.2336 0.0000
# 2 6.0158 107.6511 41.9688 0.0000 4.1456 0.0000
# 3 18.9810 41.9688 75.2309 0.0000 16.8094 0.0000
# 4 0.0000 0.0000 0.0000 26.7880 0.0000 -0.3376
# 5 18.2336 4.1456 16.8094 0.0000 32.8901 0.0000
# 6 0.0000 0.0000 0.0000 -0.3376 0.0000 17.5518
#
#
#
# Elastic Compliance Matrix: (Units=1/GPa)
#
#
# Indices 1 2 3 4 5 6 
#
# 1 0.029258 0.000724 -0.004675 0.000000 -0.013922 0.000000
# 2 0.000724 0.012023 -0.007295 0.000000 0.001811 0.000000
# 3 -0.004675 -0.007295 0.020046 0.000000 -0.006734 0.000000
# 4 0.000000 0.000000 0.000000 0.037339 0.000000 0.000718
# 5 -0.013922 0.001811 -0.006734 0.000000 0.041336 0.000000
# 6 0.000000 0.000000 0.000000 0.000718 0.000000 0.056988
#
#
# Mechanical properties :
#
#
# Convention : Reuss Voigt Hill
#
# Bulk Modulus (GPa) = 25.74986 40.28360 33.01673
# Shear Modulus (GPa) = 21.51225 26.22302 23.86764
#
# Velocity S-wave (km/s) = 3.27127 3.61172 3.44570
# Velocity P-wave (km/s) = 5.20359 6.11814 5.67930
#
# Compressibility (1/GPa) = 0.03883516
#
# Stress axis : x y z
#
# Youngs Moduli (GPa) = 34.17895 83.17460 49.88558
#
# Poissons Ratio (x) = -0.06019 0.23321
# Poissons Ratio (y) = -0.02474 0.36389
# Poissons Ratio (z) = 0.15978 0.60672
#
# Static dielectric constant tensor:
#      x y z
#    x 3.693270 0.000000 0.285360 
#    y 0.000000 3.597800 0.000000 
#    z 0.285360 0.000000 3.653690 
# 
# 
# High freq. dielectric constant tensor:
#      x y z
#    x 1.780210 0.000000 0.031260 
#    y 0.000000 1.765290 0.000000 
#    z 0.031260 0.000000 1.774820 
# 
# From -- ./inp_files/177817.got.cif
#   From: 2010.06.25/outbox.cif.g09.slc.cpg/sg15_89_cif.got.tgz:177817.got - 2010.06.28 07:06:18.
