data_PCOD8133479
_publ_section_title
;
Structure prediction by ZEFSAII (Michael W. Deem and Ramdas Pophale) SiO2 
 PCOD8133479
Probable space group: C 2/C
;
_chemical_formula_sum "Si O2"
_cell_formula_units_Z 44
_cell_length_a 17.845592
_cell_length_b 25.296393
_cell_length_c 5.085434
_cell_angle_alpha 90.000000
_cell_angle_beta 107.374686
_cell_angle_gamma 90.000000
_cell_volume 2190.964963
_symmetry_space_group_name_H-M "C 2/C"
_symmetry_group_IT_number 15
_symmetry_cell_setting 'monoclinic'
loop_
_space_group_symop_operation_xyz
x,y,z
-x,y,1/2-z
-x,-y,-z
x,-y,1/2+z
1/2+x,1/2+y,z
1/2-x,1/2+y,1/2-z
1/2-x,1/2-y,-z
1/2+x,1/2-y,1/2+z
loop_
_atom_site_type_symbol
_atom_site_label
_atom_site_fract_x
_atom_site_fract_y
_atom_site_fract_z
Si Si1 0.676566 0.190609 0.409078
Si Si2 0.626638 0.629617 0.377527
Si Si3 0.191428 0.628052 0.908559
Si Si4 0.087063 0.532624 0.808256
Si Si5 0.500000 0.538336 0.250000
Si Si6 0.641195 0.695937 0.874202
O O1 0.650236 0.146247 0.592161
O O2 0.619702 0.241925 0.382385
O O3 0.766422 0.199898 0.590516
O O4 0.674459 0.172988 0.105727
O O5 0.716812 0.613861 0.519142
O O6 0.576687 0.575763 0.323318
O O7 0.597775 0.668186 0.582446
O O8 0.616318 0.661961 0.098807
O O9 0.150317 0.575242 0.960543
O O10 0.099554 0.516201 0.519360
O O11 0.000000 0.556514 0.750000
O O12 0.500000 0.500000 0.500000
#
# Coordination Sequence:
#
# PCOD8133479 Si02
#       6
#     8   8   8   8   4   8
#     4   9  17  30  55  85 110 137 171 216 272 322
#     4  10  21  36  57  79 107 144 182 226 272 322
#     4  10  19  33  56  84 108 138 180 226 267 322
#     4  10  21  36  54  74 103 143 175 212 267 320
#     4  12  26  42  58  78 110 152 194 244 286 312
#     4   9  17  33  56  82 108 140 176 213 268 340
#
# _framework density 20.082476
#
# number of rings (size 3 to 8) (size 9 to 14) (size 15 to 20)
#    0.000    2.182    0.000    3.273    0.000    5.818 
#    0.000    0.000   12.000    0.000    0.000    0.000 
#    0.000    0.000    0.000    0.000    0.000    0.000 
#
# Total GULP energy -272718.114945 kJ/mol
# GULP energy per Si atom -12396.277952 kJ/mol
# Density = 2.003677 g / cm^3
# Si number density = 20.082476 Si / 1000 Ang^3
#
#
#
# Elastic Constant Matrix: (Units=GPa)
#
#
# Indices 1 2 3 4 5 6 
#
# 1 66.3870 66.5898 35.8932 0.0000 -2.8364 0.0000
# 2 66.5898 133.5837 50.1493 0.0000 -0.3271 0.0000
# 3 35.8932 50.1493 120.1017 0.0000 -18.8378 0.0000
# 4 0.0000 0.0000 0.0000 28.1449 0.0000 -1.8007
# 5 -2.8364 -0.3271 -18.8378 0.0000 21.6723 0.0000
# 6 0.0000 0.0000 0.0000 -1.8007 0.0000 30.4748
#
#
#
# Elastic Compliance Matrix: (Units=1/GPa)
#
#
# Indices 1 2 3 4 5 6 
#
# 1 0.031253 -0.014393 -0.003153 0.000000 0.001133 0.000000
# 2 -0.014393 0.015752 -0.002934 0.000000 -0.004196 0.000000
# 3 -0.003153 -0.002934 0.012067 0.000000 0.010032 0.000000
# 4 0.000000 0.000000 0.000000 0.035665 0.000000 0.002107
# 5 0.001133 -0.004196 0.010032 0.000000 0.054947 0.000000
# 6 0.000000 0.000000 0.000000 0.002107 0.000000 0.032938
#
#
# Mechanical properties :
#
#
# Convention : Reuss Voigt Hill
#
# Bulk Modulus (GPa) = 55.20977 69.48188 62.34582
# Shear Modulus (GPa) = 21.77518 27.22106 24.49812
#
# Velocity S-wave (km/s) = 3.29642 3.68566 3.49646
# Velocity P-wave (km/s) = 6.48381 7.26536 6.88568
#
# Compressibility (1/GPa) = 0.01811274
#
# Stress axis : x y z
#
# Youngs Moduli (GPa) = 31.99690 63.48461 82.87000
#
# Poissons Ratio (x) = 0.91373 0.26126
# Poissons Ratio (y) = 0.46053 0.24314
# Poissons Ratio (z) = 0.10087 0.18627
#
# Static dielectric constant tensor:
#      x y z
#    x 3.406080 0.000000 -0.100530 
#    y 0.000000 3.664120 0.000000 
#    z -0.100530 0.000000 3.785360 
# 
# 
# High freq. dielectric constant tensor:
#      x y z
#    x 1.754430 0.000000 -0.014790 
#    y 0.000000 1.784350 0.000000 
#    z -0.014790 0.000000 1.799470 
# 
# From -- ./inp_files/10265.got.cif
#   From: 2010.06.25/outbox.cif.g09.slc.cpg/sg15_6_cif.got.tgz:10265.got - 2010.06.28 07:06:18.
