data_PCOD8133755
_publ_section_title
;
Structure prediction by ZEFSAII (Michael W. Deem and Ramdas Pophale) SiO2 
 PCOD8133755
Probable space group: C 2/C
;
_chemical_formula_sum "Si O2"
_cell_formula_units_Z 56
_cell_length_a 6.247117
_cell_length_b 22.060167
_cell_length_c 22.660102
_cell_angle_alpha 90.000000
_cell_angle_beta 64.915209
_cell_angle_gamma 90.000000
_cell_volume 2828.301671
_symmetry_space_group_name_H-M "C 2/C"
_symmetry_group_IT_number 15
_symmetry_cell_setting 'monoclinic'
loop_
_space_group_symop_operation_xyz
x,y,z
-x,y,1/2-z
-x,-y,-z
x,-y,1/2+z
1/2+x,1/2+y,z
1/2-x,1/2+y,1/2-z
1/2-x,1/2-y,-z
1/2+x,1/2-y,1/2+z
loop_
_atom_site_type_symbol
_atom_site_label
_atom_site_fract_x
_atom_site_fract_y
_atom_site_fract_z
Si Si1 0.817507 0.105296 0.315901
Si Si2 0.714815 0.076441 0.897802
Si Si3 0.062458 0.823750 0.060768
Si Si4 0.526062 0.813095 0.932812
Si Si5 0.236534 0.118956 0.995651
Si Si6 0.973049 0.033238 0.103233
Si Si7 0.038119 0.507848 0.811984
O O1 0.610104 0.148318 0.365901
O O2 0.698961 0.051764 0.291754
O O3 0.000000 0.139834 0.250000
O O4 0.980426 0.077184 0.347434
O O5 0.856428 0.140285 0.889520
O O6 0.471949 0.079765 0.961794
O O7 0.668273 0.060884 0.834324
O O8 0.857994 0.024286 0.913396
O O9 0.984519 0.756288 0.087037
O O10 0.829707 0.853453 0.059754
O O11 0.263279 0.828571 0.986411
O O12 0.715184 0.826446 0.962973
O O13 0.030837 0.072685 0.038781
O O14 0.707577 0.009624 0.128756
O O15 0.000000 0.532162 0.750000
#
# Coordination Sequence:
#
# PCOD8133755 Si02
#       7
#     8   8   8   8   8   8   8
#     4  10  19  35  56  84 109 135 187 241 283 331
#     4  10  22  33  53  82 114 146 183 230 278 339
#     4  10  19  36  54  82 117 149 187 229 280 348
#     4   9  20  34  57  83 112 147 187 236 284 329
#     4  10  19  34  56  84 113 146 183 228 287 336
#     4  10  20  34  54  83 114 143 177 233 281 339
#     4  11  21  35  56  81 107 149 185 225 291 344
#
# _framework density 19.799866999999999
#
# number of rings (size 3 to 8) (size 9 to 14) (size 15 to 20)
#    0.000    2.000    1.429    2.571    0.000    4.571 
#    0.000    0.000    0.000    5.143    0.000    0.000 
#    0.000    0.000    0.000    0.000    0.000    0.000 
#
# Total GULP energy -347063.448427 kJ/mol
# GULP energy per Si atom -12395.123158 kJ/mol
# Density = 1.975480 g / cm^3
# Si number density = 19.799867 Si / 1000 Ang^3
#
#
#
# Elastic Constant Matrix: (Units=GPa)
#
#
# Indices 1 2 3 4 5 6 
#
# 1 73.9033 34.2956 20.5139 0.0000 6.2600 0.0000
# 2 34.2956 112.6391 49.2895 0.0000 10.4038 0.0000
# 3 20.5139 49.2895 74.3097 0.0000 2.3027 0.0000
# 4 0.0000 0.0000 0.0000 18.3683 0.0000 -0.3425
# 5 6.2600 10.4038 2.3027 0.0000 32.8403 0.0000
# 6 0.0000 0.0000 0.0000 -0.3425 0.0000 27.4073
#
#
#
# Elastic Compliance Matrix: (Units=1/GPa)
#
#
# Indices 1 2 3 4 5 6 
#
# 1 0.015990 -0.003952 -0.001741 0.000000 -0.001674 0.000000
# 2 -0.003952 0.013873 -0.008016 0.000000 -0.003080 0.000000
# 3 -0.001741 -0.008016 0.019207 0.000000 0.001524 0.000000
# 4 0.000000 0.000000 0.000000 0.054454 0.000000 0.000681
# 5 -0.001674 -0.003080 0.001524 0.000000 0.031638 0.000000
# 6 0.000000 0.000000 0.000000 0.000681 0.000000 0.036495
#
#
# Mechanical properties :
#
#
# Convention : Reuss Voigt Hill
#
# Bulk Modulus (GPa) = 46.18224 52.11670 49.14947
# Shear Modulus (GPa) = 24.23727 26.17338 25.20533
#
# Velocity S-wave (km/s) = 3.50253 3.63973 3.57179
# Velocity P-wave (km/s) = 6.30334 6.63645 6.47204
#
# Compressibility (1/GPa) = 0.02165334
#
# Stress axis : x y z
#
# Youngs Moduli (GPa) = 62.53794 72.08116 52.06348
#
# Poissons Ratio (x) = 0.28488 0.09064
# Poissons Ratio (y) = 0.24716 0.41732
# Poissons Ratio (z) = 0.10887 0.57778
#
# Static dielectric constant tensor:
#      x y z
#    x 3.732950 0.000000 -0.025000 
#    y 0.000000 3.566080 0.000000 
#    z -0.025000 0.000000 3.382650 
# 
# 
# High freq. dielectric constant tensor:
#      x y z
#    x 1.785690 0.000000 -0.002960 
#    y 0.000000 1.755170 0.000000 
#    z -0.002960 0.000000 1.747320 
# 
# From -- ./inp_files/227902.got.cif
#   From: 2010.06.25/outbox.cif.g09.slc.cpg/sg15_114_cif.got.tgz:227902.got - 2010.06.28 07:06:18.
