data_PCOD8133740
_publ_section_title
;
Structure prediction by ZEFSAII (Michael W. Deem and Ramdas Pophale) SiO2 
 PCOD8133740
Probable space group: C 2/C
;
_chemical_formula_sum "Si O2"
_cell_formula_units_Z 48
_cell_length_a 24.652268
_cell_length_b 8.818074
_cell_length_c 15.819468
_cell_angle_alpha 90.000000
_cell_angle_beta 131.601435
_cell_angle_gamma 90.000000
_cell_volume 2571.563117
_symmetry_space_group_name_H-M "C 2/C"
_symmetry_group_IT_number 15
_symmetry_cell_setting 'monoclinic'
loop_
_space_group_symop_operation_xyz
x,y,z
-x,y,1/2-z
-x,-y,-z
x,-y,1/2+z
1/2+x,1/2+y,z
1/2-x,1/2+y,1/2-z
1/2-x,1/2-y,-z
1/2+x,1/2-y,1/2+z
loop_
_atom_site_type_symbol
_atom_site_label
_atom_site_fract_x
_atom_site_fract_y
_atom_site_fract_z
Si Si1 0.085382 0.803867 0.492047
Si Si2 0.572387 0.808754 0.162335
Si Si3 0.324180 0.164976 0.055523
Si Si4 0.829511 0.688170 0.579317
Si Si5 0.539880 0.115865 0.206046
Si Si6 0.049022 0.118799 0.381504
O O1 0.102104 0.750853 0.604132
O O2 0.150570 0.732088 0.506995
O O3 0.006625 0.746517 0.383477
O O4 0.082694 0.982599 0.471289
O O5 0.638457 0.788397 0.294686
O O6 0.501537 0.712259 0.108749
O O7 0.549653 0.985569 0.145669
O O8 0.384074 0.195918 0.190408
O O9 0.319838 0.984834 0.040745
O O10 0.250000 0.250000 0.000000
O O11 0.750000 0.750000 0.500000
O O12 0.882437 0.776637 0.570760
O O13 0.500000 0.048690 0.250000
O O14 0.000000 0.066321 0.250000
#
# Coordination Sequence:
#
# PCOD8133740 Si02
#       6
#     8   8   8   8   8   8
#     4  11  20  33  55  84 107 132 179 233 267 306
#     4  10  20  35  54  80 109 137 175 225 270 314
#     4  10  20  36  56  78 106 143 182 218 265 329
#     4  10  21  38  56  74 106 150 182 211 267 334
#     4   9  18  34  56  79 106 143 177 212 269 327
#     4  10  19  34  56  79 108 145 180 215 266 328
#
# _framework density 18.665690000000001
#
# number of rings (size 3 to 8) (size 9 to 14) (size 15 to 20)
#    0.000    2.000    0.000    7.000    0.000    1.333 
#    0.000    6.667    0.000    0.000    0.000    0.000 
#    0.000    0.000    0.000    0.000    0.000    0.000 
#
# Total GULP energy -297481.139253 kJ/mol
# GULP energy per Si atom -12395.047469 kJ/mol
# Density = 1.862321 g / cm^3
# Si number density = 18.665690 Si / 1000 Ang^3
#
#
#
# Elastic Constant Matrix: (Units=GPa)
#
#
# Indices 1 2 3 4 5 6 
#
# 1 137.1481 75.9128 69.4934 0.0000 8.0579 0.0000
# 2 75.9128 129.4205 62.7787 0.0000 4.0333 0.0000
# 3 69.4934 62.7787 67.9304 0.0000 13.6278 0.0000
# 4 0.0000 0.0000 0.0000 22.9201 0.0000 5.0651
# 5 8.0579 4.0333 13.6278 0.0000 37.9551 0.0000
# 6 0.0000 0.0000 0.0000 5.0651 0.0000 32.8734
#
#
#
# Elastic Compliance Matrix: (Units=1/GPa)
#
#
# Indices 1 2 3 4 5 6 
#
# 1 0.015735 -0.002329 -0.014358 0.000000 0.002062 0.000000
# 2 -0.002329 0.014770 -0.011910 0.000000 0.003201 0.000000
# 3 -0.014358 -0.011910 0.042621 0.000000 -0.010989 0.000000
# 4 0.000000 0.000000 0.000000 0.045168 0.000000 -0.006959
# 5 0.002062 0.003201 -0.010989 0.000000 0.029515 0.000000
# 6 0.000000 0.000000 0.000000 -0.006959 0.000000 0.031492
#
#
# Mechanical properties :
#
#
# Convention : Reuss Voigt Hill
#
# Bulk Modulus (GPa) = 62.76740 83.42986 73.09863
# Shear Modulus (GPa) = 20.67790 27.17065 23.92427
#
# Velocity S-wave (km/s) = 3.33198 3.81943 3.58400
# Velocity P-wave (km/s) = 6.96440 8.01528 7.50825
#
# Compressibility (1/GPa) = 0.01593184
#
# Stress axis : x y z
#
# Youngs Moduli (GPa) = 63.55457 67.70431 23.46275
#
# Poissons Ratio (x) = 0.15766 0.33688
# Poissons Ratio (y) = 0.14800 0.27944
# Poissons Ratio (z) = 0.91253 0.80635
#
# Static dielectric constant tensor:
#      x y z
#    x 3.392220 0.000000 0.134730 
#    y 0.000000 3.426320 0.000000 
#    z 0.134730 0.000000 3.431190 
# 
# 
# High freq. dielectric constant tensor:
#      x y z
#    x 1.722040 0.000000 0.009450 
#    y 0.000000 1.735480 0.000000 
#    z 0.009450 0.000000 1.713310 
# 
# From -- ./inp_files/218375.got.cif
#   From: 2010.06.25/outbox.cif.g09.slc.cpg/sg15_110_cif.got.tgz:218375.got - 2010.06.28 07:06:18.
