data_PCOD8133600
_publ_section_title
;
Structure prediction by ZEFSAII (Michael W. Deem and Ramdas Pophale) SiO2 
 PCOD8133600
Probable space group: C 2/C
;
_chemical_formula_sum "Si O2"
_cell_formula_units_Z 60
_cell_length_a 30.143696
_cell_length_b 13.908329
_cell_length_c 9.068331
_cell_angle_alpha 90.000000
_cell_angle_beta 115.428747
_cell_angle_gamma 90.000000
_cell_volume 3433.557034
_symmetry_space_group_name_H-M "C 2/C"
_symmetry_group_IT_number 15
_symmetry_cell_setting 'monoclinic'
loop_
_space_group_symop_operation_xyz
x,y,z
-x,y,1/2-z
-x,-y,-z
x,-y,1/2+z
1/2+x,1/2+y,z
1/2-x,1/2+y,1/2-z
1/2-x,1/2-y,-z
1/2+x,1/2-y,1/2+z
loop_
_atom_site_type_symbol
_atom_site_label
_atom_site_fract_x
_atom_site_fract_y
_atom_site_fract_z
Si Si1 0.212063 0.109005 0.442009
Si Si2 0.180737 0.686087 0.951891
Si Si3 0.303614 0.421702 0.245820
Si Si4 0.656377 0.033691 0.706260
Si Si5 0.359814 0.761632 0.796424
Si Si6 0.561412 0.092001 0.094976
Si Si7 0.798306 0.608406 0.024712
Si Si8 0.500000 0.990357 0.250000
O O1 0.181072 0.206498 0.387034
O O2 0.266523 0.134144 0.465921
O O3 0.212006 0.069548 0.607615
O O4 0.186807 0.028496 0.302386
O O5 0.159720 0.684820 0.085545
O O6 0.146182 0.627830 0.791302
O O7 0.352358 0.354117 0.296653
O O8 0.258173 0.370815 0.095776
O O9 0.672139 0.061622 0.566615
O O10 0.605809 0.978662 0.626619
O O11 0.699443 0.968698 0.839590
O O12 0.416402 0.798405 0.857386
O O13 0.326047 0.794300 0.610718
O O14 0.535896 0.062118 0.211959
O O15 0.525658 0.081600 0.903485
#
# Coordination Sequence:
#
# PCOD8133600 Si02
#       8
#     8   8   8   8   8   8   8   4
#     4  10  22  31  46  65 100 141 187 207 246 261
#     4  10  19  34  45  68  98 141 176 219 229 292
#     4  11  20  34  45  68  99 143 180 216 235 285
#     4  11  19  31  50  71 106 134 179 203 250 290
#     4  10  22  32  50  71 103 128 179 210 253 293
#     4  10  20  34  52  80  99 133 155 214 258 324
#     4  11  19  29  44  71  96 143 173 211 232 288
#     4  10  20  36  56  72 106 124 162 200 284 330
#
# _framework density 17.474589000000002
#
# number of rings (size 3 to 8) (size 9 to 14) (size 15 to 20)
#    0.000    1.600    2.667    4.400    1.867    1.067 
#    0.000    0.000    0.000    0.000    0.000    0.000 
#    0.000   36.267    0.000    0.000    0.000    0.000 
#
# Total GULP energy -371835.304616 kJ/mol
# GULP energy per Si atom -12394.510154 kJ/mol
# Density = 1.743482 g / cm^3
# Si number density = 17.474589 Si / 1000 Ang^3
#
#
#
# Elastic Constant Matrix: (Units=GPa)
#
#
# Indices 1 2 3 4 5 6 
#
# 1 62.9584 28.5179 11.1625 0.0000 -3.0675 0.0000
# 2 28.5179 95.3886 25.6956 0.0000 -0.3873 0.0000
# 3 11.1625 25.6956 48.7927 0.0000 -4.3378 0.0000
# 4 0.0000 0.0000 0.0000 22.4568 0.0000 2.0640
# 5 -3.0675 -0.3873 -4.3378 0.0000 24.1958 0.0000
# 6 0.0000 0.0000 0.0000 2.0640 0.0000 27.6796
#
#
#
# Elastic Compliance Matrix: (Units=1/GPa)
#
#
# Indices 1 2 3 4 5 6 
#
# 1 0.018567 -0.005182 -0.001338 0.000000 0.002031 0.000000
# 2 -0.005182 0.013686 -0.006159 0.000000 -0.001542 0.000000
# 3 -0.001338 -0.006159 0.024410 0.000000 0.004108 0.000000
# 4 0.000000 0.000000 0.000000 0.044837 0.000000 -0.003343
# 5 0.002031 -0.001542 0.004108 0.000000 0.042299 0.000000
# 6 0.000000 0.000000 0.000000 -0.003343 0.000000 0.036377
#
#
# Mechanical properties :
#
#
# Convention : Reuss Voigt Hill
#
# Bulk Modulus (GPa) = 31.94458 37.54352 34.74405
# Shear Modulus (GPa) = 23.15162 24.31735 23.73448
#
# Velocity S-wave (km/s) = 3.64383 3.73444 3.68941
# Velocity P-wave (km/s) = 6.00197 6.33451 6.17048
#
# Compressibility (1/GPa) = 0.03130422
#
# Stress axis : x y z
#
# Youngs Moduli (GPa) = 53.85888 73.07003 40.96760
#
# Poissons Ratio (x) = 0.37867 0.05481
# Poissons Ratio (y) = 0.27911 0.25231
# Poissons Ratio (z) = 0.07206 0.45002
#
# Static dielectric constant tensor:
#      x y z
#    x 3.154380 0.000000 -0.096440 
#    y 0.000000 3.380280 0.000000 
#    z -0.096440 0.000000 3.433280 
# 
# 
# High freq. dielectric constant tensor:
#      x y z
#    x 1.641140 0.000000 -0.026550 
#    y 0.000000 1.667120 0.000000 
#    z -0.026550 0.000000 1.683310 
# 
# From -- ./inp_files/69768.got.cif
#   From: 2010.06.25/outbox.cif.g09.slc.cpg/sg15_35_cif.got.tgz:69768.got - 2010.06.28 07:06:18.
