data_PCOD8133941
_publ_section_title
;
Structure prediction by ZEFSAII (Michael W. Deem and Ramdas Pophale) SiO2 
 PCOD8133941
Probable space group: C 2/C
;
_chemical_formula_sum "Si O2"
_cell_formula_units_Z 56
_cell_length_a 11.123225
_cell_length_b 9.647148
_cell_length_c 26.632757
_cell_angle_alpha 90.000000
_cell_angle_beta 72.450299
_cell_angle_gamma 90.000000
_cell_volume 2724.873406
_symmetry_space_group_name_H-M "C 2/C"
_symmetry_group_IT_number 15
_symmetry_cell_setting 'monoclinic'
loop_
_space_group_symop_operation_xyz
x,y,z
-x,y,1/2-z
-x,-y,-z
x,-y,1/2+z
1/2+x,1/2+y,z
1/2-x,1/2+y,1/2-z
1/2-x,1/2-y,-z
1/2+x,1/2-y,1/2+z
loop_
_atom_site_type_symbol
_atom_site_label
_atom_site_fract_x
_atom_site_fract_y
_atom_site_fract_z
Si Si1 0.742435 0.391692 0.528850
Si Si2 0.694975 0.989967 0.576935
Si Si3 0.411087 0.279293 0.868954
Si Si4 0.321708 0.742821 0.127650
Si Si5 0.350439 0.341296 0.265719
Si Si6 0.415975 0.971547 0.588974
Si Si7 0.755780 0.127993 0.300410
O O1 0.750000 0.250000 0.500000
O O2 0.726186 0.500820 0.485376
O O3 0.630656 0.395541 0.584363
O O4 0.873773 0.402316 0.542430
O O5 0.778432 0.890615 0.601392
O O6 0.560523 0.929483 0.577708
O O7 0.660641 0.135315 0.608711
O O8 0.562359 0.285858 0.848923
O O9 0.375208 0.317238 0.816821
O O10 0.200484 0.790490 0.174134
O O11 0.378240 0.866138 0.086070
O O12 0.500000 0.334764 0.250000
O O13 0.299276 0.245814 0.227982
O O14 0.300372 0.496844 0.261584
O O15 0.351352 0.913860 0.646980
#
# Coordination Sequence:
#
# PCOD8133941 Si02
#       7
#     8   8   8   8   8   8   8
#     4   9  18  35  57  84 115 158 200 240 299 359
#     4  10  19  34  61  85 115 160 197 240 297 359
#     4   9  21  38  58  84 123 154 196 245 298 358
#     4  10  22  37  58  88 116 155 199 246 306 357
#     4  11  25  41  61  90 118 153 207 248 301 367
#     4   9  19  39  55  83 121 150 196 254 295 351
#     4  10  23  41  61  86 120 158 194 254 302 353
#
# _framework density 20.551414000000001
#
# number of rings (size 3 to 8) (size 9 to 14) (size 15 to 20)
#    0.000    2.286    0.000    1.286    4.000    1.143 
#    0.000    8.571    0.000    0.000    0.000    0.000 
#    0.000    0.000    0.000    0.000    0.000    0.000 
#
# Total GULP energy -346940.504540 kJ/mol
# GULP energy per Si atom -12390.732305 kJ/mol
# Density = 2.050464 g / cm^3
# Si number density = 20.551414 Si / 1000 Ang^3
#
#
#
# Elastic Constant Matrix: (Units=GPa)
#
#
# Indices 1 2 3 4 5 6 
#
# 1 114.3469 72.2139 36.9605 0.0000 9.7099 0.0000
# 2 72.2139 106.2054 48.9329 0.0000 24.4456 0.0000
# 3 36.9605 48.9329 73.1666 0.0000 16.6678 0.0000
# 4 0.0000 0.0000 0.0000 31.8524 0.0000 12.9984
# 5 9.7099 24.4456 16.6678 0.0000 28.0702 0.0000
# 6 0.0000 0.0000 0.0000 12.9984 0.0000 37.1696
#
#
#
# Elastic Compliance Matrix: (Units=1/GPa)
#
#
# Indices 1 2 3 4 5 6 
#
# 1 0.015991 -0.011303 -0.001736 0.000000 0.005343 0.000000
# 2 -0.011303 0.023097 -0.006991 0.000000 -0.012053 0.000000
# 3 -0.001736 -0.006991 0.020464 0.000000 -0.005463 0.000000
# 4 0.000000 0.000000 0.000000 0.036621 0.000000 -0.012807
# 5 0.005343 -0.012053 -0.005463 0.000000 0.047517 0.000000
# 6 0.000000 0.000000 0.000000 -0.012807 0.000000 0.031382
#
#
# Mechanical properties :
#
#
# Convention : Reuss Voigt Hill
#
# Bulk Modulus (GPa) = 51.30301 67.77040 59.53670
# Shear Modulus (GPa) = 22.56023 28.45921 25.50972
#
# Velocity S-wave (km/s) = 3.31682 3.72530 3.52698
# Velocity P-wave (km/s) = 6.29967 7.17993 6.75416
#
# Compressibility (1/GPa) = 0.01949203
#
# Stress axis : x y z
#
# Youngs Moduli (GPa) = 62.53576 43.29657 48.86575
#
# Poissons Ratio (x) = 0.48938 0.08481
# Poissons Ratio (y) = 0.70684 0.34163
# Poissons Ratio (z) = 0.10854 0.30269
#
# Static dielectric constant tensor:
#      x y z
#    x 3.796230 0.000000 -0.066640 
#    y 0.000000 3.898520 0.000000 
#    z -0.066640 0.000000 4.277520 
# 
# 
# High freq. dielectric constant tensor:
#      x y z
#    x 1.804320 0.000000 0.001270 
#    y 0.000000 1.795830 0.000000 
#    z 0.001270 0.000000 1.809240 
# 
# From -- ./inp_files/291522.got.cif
#   From: 2010.06.25/outbox.cif.g09.slc.cpg/sg15_146_cif.got.tgz:291522.got - 2010.06.28 07:06:18.
