data_PCOD8133731
_publ_section_title
;
Structure prediction by ZEFSAII (Michael W. Deem and Ramdas Pophale) SiO2 
 PCOD8133731
Probable space group: C 2/C
;
_chemical_formula_sum "Si O2"
_cell_formula_units_Z 56
_cell_length_a 12.030655
_cell_length_b 18.702001
_cell_length_c 14.734234
_cell_angle_alpha 90.000000
_cell_angle_beta 59.807734
_cell_angle_gamma 90.000000
_cell_volume 2865.437081
_symmetry_space_group_name_H-M "C 2/C"
_symmetry_group_IT_number 15
_symmetry_cell_setting 'monoclinic'
loop_
_space_group_symop_operation_xyz
x,y,z
-x,y,1/2-z
-x,-y,-z
x,-y,1/2+z
1/2+x,1/2+y,z
1/2-x,1/2+y,1/2-z
1/2-x,1/2-y,-z
1/2+x,1/2-y,1/2+z
loop_
_atom_site_type_symbol
_atom_site_label
_atom_site_fract_x
_atom_site_fract_y
_atom_site_fract_z
Si Si1 0.363483 0.414902 0.061451
Si Si2 0.214578 0.174017 0.556278
Si Si3 0.441057 0.213842 0.569995
Si Si4 0.161598 0.074780 0.413973
Si Si5 0.270235 0.689297 0.250522
Si Si6 0.553779 0.296207 0.352565
Si Si7 0.715326 0.827029 0.978581
O O1 0.301881 0.491632 0.110112
O O2 0.358161 0.363869 0.152960
O O3 0.508721 0.419991 0.966897
O O4 0.277858 0.386978 0.014154
O O5 0.250000 0.250000 0.500000
O O6 0.323511 0.161213 0.587886
O O7 0.214156 0.108328 0.486269
O O8 0.069646 0.180786 0.659886
O O9 0.394615 0.262873 0.673517
O O10 0.485663 0.268889 0.473561
O O11 0.560681 0.163604 0.547351
O O12 0.232150 0.115846 0.303782
O O13 0.142333 0.734282 0.274243
O O14 0.271120 0.667405 0.354544
O O15 0.750000 0.750000 0.000000
#
# Coordination Sequence:
#
# PCOD8133731 Si02
#       7
#     8   8   8   8   8   8   8
#     4  10  19  39  56  85 123 152 189 246 303 334
#     4   9  16  35  55  82 118 149 192 240 294 330
#     4  10  19  34  55  89 115 150 199 240 288 340
#     4  10  20  35  63  86 116 162 190 243 301 350
#     4  11  19  34  60  92 110 153 206 231 290 356
#     4   9  18  34  56  87 115 147 193 253 281 338
#     4  11  21  37  58  87 120 152 191 245 289 341
#
# _framework density 19.543267
#
# number of rings (size 3 to 8) (size 9 to 14) (size 15 to 20)
#    0.000    2.000    7.143    0.000    0.000    2.857 
#    2.571    2.143    0.000   13.714    0.000    0.000 
#    0.000    0.000    0.000    0.000    0.000    0.000 
#
# Total GULP energy -347020.978958 kJ/mol
# GULP energy per Si atom -12393.606391 kJ/mol
# Density = 1.949879 g / cm^3
# Si number density = 19.543267 Si / 1000 Ang^3
#
#
#
# Elastic Constant Matrix: (Units=GPa)
#
#
# Indices 1 2 3 4 5 6 
#
# 1 141.2485 61.1605 35.3831 0.0000 0.8222 0.0000
# 2 61.1605 141.9039 45.1173 0.0000 2.7664 0.0000
# 3 35.3831 45.1173 83.3381 0.0000 -17.6321 0.0000
# 4 0.0000 0.0000 0.0000 30.0293 0.0000 4.0028
# 5 0.8222 2.7664 -17.6321 0.0000 12.9729 0.0000
# 6 0.0000 0.0000 0.0000 4.0028 0.0000 28.6643
#
#
#
# Elastic Compliance Matrix: (Units=1/GPa)
#
#
# Indices 1 2 3 4 5 6 
#
# 1 0.009150 -0.002801 -0.003320 0.000000 -0.004495 0.000000
# 2 -0.002801 0.010751 -0.007128 0.000000 -0.011804 0.000000
# 3 -0.003320 -0.007128 0.024752 0.000000 0.035372 0.000000
# 4 0.000000 0.000000 0.000000 0.033932 0.000000 -0.004738
# 5 -0.004495 -0.011804 0.035372 0.000000 0.127961 0.000000
# 6 0.000000 0.000000 0.000000 -0.004738 0.000000 0.035548
#
#
# Mechanical properties :
#
#
# Convention : Reuss Voigt Hill
#
# Bulk Modulus (GPa) = 55.08122 72.20137 63.64130
# Shear Modulus (GPa) = 18.20545 29.32193 23.76369
#
# Velocity S-wave (km/s) = 3.05544 3.87765 3.49083
# Velocity P-wave (km/s) = 6.37911 7.55465 6.99163
#
# Compressibility (1/GPa) = 0.01815501
#
# Stress axis : x y z
#
# Youngs Moduli (GPa) = 109.28810 93.01797 40.40150
#
# Poissons Ratio (x) = 0.26051 0.13412
# Poissons Ratio (y) = 0.30607 0.28800
# Poissons Ratio (z) = 0.36280 0.66307
#
# Static dielectric constant tensor:
#      x y z
#    x 5.022880 0.000000 -0.389310 
#    y 0.000000 3.567700 0.000000 
#    z -0.389310 0.000000 3.459250 
# 
# 
# High freq. dielectric constant tensor:
#      x y z
#    x 1.769520 0.000000 -0.004280 
#    y 0.000000 1.733010 0.000000 
#    z -0.004280 0.000000 1.754510 
# 
# From -- ./inp_files/145961.got.cif
#   From: 2010.06.25/outbox.cif.g09.slc.cpg/sg15_73_cif.got.tgz:145961.got - 2010.06.28 07:06:18.
