data_PCOD8133496
_publ_section_title
;
Structure prediction by ZEFSAII (Michael W. Deem and Ramdas Pophale) SiO2 
 PCOD8133496
Probable space group: C 2/C
;
_chemical_formula_sum "Si O2"
_cell_formula_units_Z 64
_cell_length_a 12.069378
_cell_length_b 14.481576
_cell_length_c 20.493170
_cell_angle_alpha 90.000000
_cell_angle_beta 65.116400
_cell_angle_gamma 90.000000
_cell_volume 3249.345579
_symmetry_space_group_name_H-M "C 2/C"
_symmetry_group_IT_number 15
_symmetry_cell_setting 'monoclinic'
loop_
_space_group_symop_operation_xyz
x,y,z
-x,y,1/2-z
-x,-y,-z
x,-y,1/2+z
1/2+x,1/2+y,z
1/2-x,1/2+y,1/2-z
1/2-x,1/2-y,-z
1/2+x,1/2-y,1/2+z
loop_
_atom_site_type_symbol
_atom_site_label
_atom_site_fract_x
_atom_site_fract_y
_atom_site_fract_z
Si Si1 0.418146 0.726888 0.560091
Si Si2 0.504793 0.289725 0.600604
Si Si3 0.067371 0.438371 0.929067
Si Si4 0.754346 0.201750 0.103960
Si Si5 0.574595 0.039549 0.166629
Si Si6 0.363625 0.641528 0.939626
Si Si7 0.317121 0.136779 0.912912
Si Si8 0.812707 0.064872 0.425746
O O1 0.455435 0.684055 0.482003
O O2 0.461232 0.832049 0.549950
O O3 0.495552 0.674690 0.596448
O O4 0.273854 0.706597 0.603660
O O5 0.356900 0.293017 0.636263
O O6 0.553186 0.189477 0.611487
O O7 0.573716 0.370190 0.625336
O O8 0.214087 0.452064 0.892630
O O9 0.018462 0.463646 0.870435
O O10 0.000000 0.500000 0.000000
O O11 0.646200 0.135908 0.155769
O O12 0.706539 0.305778 0.101713
O O13 0.801250 0.161374 0.024265
O O14 0.500000 0.021655 0.250000
O O15 0.668919 0.955202 0.133386
O O16 0.367623 0.532743 0.930869
O O17 0.266471 0.112906 0.997116
#
# Coordination Sequence:
#
# PCOD8133496 Si02
#       8
#     8   8   8   8   8   8   8   8
#     4  10  19  33  56  90 127 153 187 248 308 349
#     4  10  20  32  57  92 127 148 189 248 308 343
#     4  12  20  37  64  88 118 160 202 251 290 356
#     4  10  21  36  55  84 125 155 196 248 295 363
#     4  12  26  42  61  86 120 164 203 247 306 365
#     4  10  20  31  56  94 119 152 193 247 308 348
#     4  11  20  37  56  89 124 155 194 244 298 359
#     4  11  20  32  59  94 121 150 191 248 303 350
#
# _framework density 19.696273999999999
#
# number of rings (size 3 to 8) (size 9 to 14) (size 15 to 20)
#    0.000    1.250    6.250    0.750    7.000    1.500 
#    0.000    1.250    0.000    0.000    0.000    0.000 
#    0.000    0.000    0.000    0.000    0.000    0.000 
#
# Total GULP energy -396641.133367 kJ/mol
# GULP energy per Si atom -12395.035418 kJ/mol
# Density = 1.965144 g / cm^3
# Si number density = 19.696274 Si / 1000 Ang^3
#
#
#
# Elastic Constant Matrix: (Units=GPa)
#
#
# Indices 1 2 3 4 5 6 
#
# 1 137.1541 36.9110 20.8725 0.0000 10.9492 0.0000
# 2 36.9110 116.3947 2.9861 0.0000 6.6859 0.0000
# 3 20.8725 2.9861 43.0902 0.0000 5.9341 0.0000
# 4 0.0000 0.0000 0.0000 8.1622 0.0000 -2.7502
# 5 10.9492 6.6859 5.9341 0.0000 10.9909 0.0000
# 6 0.0000 0.0000 0.0000 -2.7502 0.0000 39.0633
#
#
#
# Elastic Compliance Matrix: (Units=1/GPa)
#
#
# Indices 1 2 3 4 5 6 
#
# 1 0.008900 -0.002416 -0.003376 0.000000 -0.005574 0.000000
# 2 -0.002416 0.009559 0.001055 0.000000 -0.003978 0.000000
# 3 -0.003376 0.001055 0.026354 0.000000 -0.011508 0.000000
# 4 0.000000 0.000000 0.000000 0.125492 0.000000 0.008835
# 5 -0.005574 -0.003978 -0.011508 0.000000 0.105170 0.000000
# 6 0.000000 0.000000 0.000000 0.008835 0.000000 0.026221
#
#
# Mechanical properties :
#
#
# Convention : Reuss Voigt Hill
#
# Bulk Modulus (GPa) = 28.29594 46.46425 37.38009
# Shear Modulus (GPa) = 15.48232 27.36792 21.42512
#
# Velocity S-wave (km/s) = 2.80671 3.73164 3.30172
# Velocity P-wave (km/s) = 4.99007 6.49680 5.79263
#
# Compressibility (1/GPa) = 0.03534076
#
# Stress axis : x y z
#
# Youngs Moduli (GPa) = 112.36091 104.61439 37.94478
#
# Poissons Ratio (x) = 0.25270 0.12810
# Poissons Ratio (y) = 0.27141 -0.04005
# Poissons Ratio (z) = 0.37933 -0.11042
#
# Static dielectric constant tensor:
#      x y z
#    x 4.403700 0.000000 0.123090 
#    y 0.000000 3.731830 0.000000 
#    z 0.123090 0.000000 2.912630 
# 
# 
# High freq. dielectric constant tensor:
#      x y z
#    x 1.795220 0.000000 0.006970 
#    y 0.000000 1.785340 0.000000 
#    z 0.006970 0.000000 1.675160 
# 
# From -- ./inp_files/238744.got.cif
#   From: 2010.06.25/outbox.cif.g09.slc.cpg/sg15_120_cif.got.tgz:238744.got - 2010.06.28 07:06:18.
