data_PCOD8133793
_publ_section_title
;
Structure prediction by ZEFSAII (Michael W. Deem and Ramdas Pophale) SiO2 
 PCOD8133793
Probable space group: C 2/C
;
_chemical_formula_sum "Si O2"
_cell_formula_units_Z 48
_cell_length_a 25.997672
_cell_length_b 15.473287
_cell_length_c 9.237038
_cell_angle_alpha 90.000000
_cell_angle_beta 144.041210
_cell_angle_gamma 90.000000
_cell_volume 2181.916848
_symmetry_space_group_name_H-M "C 2/C"
_symmetry_group_IT_number 15
_symmetry_cell_setting 'monoclinic'
loop_
_space_group_symop_operation_xyz
x,y,z
-x,y,1/2-z
-x,-y,-z
x,-y,1/2+z
1/2+x,1/2+y,z
1/2-x,1/2+y,1/2-z
1/2-x,1/2-y,-z
1/2+x,1/2-y,1/2+z
loop_
_atom_site_type_symbol
_atom_site_label
_atom_site_fract_x
_atom_site_fract_y
_atom_site_fract_z
Si Si1 0.824991 0.091662 0.230835
Si Si2 0.346921 0.248203 0.161139
Si Si3 0.406499 0.760743 0.484855
Si Si4 0.833558 0.932174 0.072342
Si Si5 0.374860 0.087877 0.392169
Si Si6 0.382439 0.079104 0.740205
O O1 0.860302 0.188012 0.278875
O O2 0.859647 0.062627 0.465472
O O3 0.720993 0.092084 0.983103
O O4 0.866095 0.021297 0.216223
O O5 0.346808 0.219346 0.990988
O O6 0.402842 0.179747 0.383571
O O7 0.250000 0.250000 0.000000
O O8 0.381404 0.347630 0.251621
O O9 0.500000 0.725176 0.750000
O O10 0.425259 0.844474 0.430486
O O11 0.729354 0.921225 0.848140
O O12 0.413360 0.082724 0.642837
O O13 0.414199 0.011434 0.382054
#
# Coordination Sequence:
#
# PCOD8133793 Si02
#       6
#     8   8   8   8   8   8
#     4   9  18  33  54  80 108 141 182 222 267 325
#     4   9  18  35  56  80 111 146 183 227 272 325
#     4  11  23  38  54  81 116 148 183 231 280 325
#     4   8  16  29  52  82 107 135 178 229 269 311
#     4   9  17  31  55  84 108 137 186 233 270 321
#     4  10  19  34  57  83 110 147 187 228 273 329
#
# _framework density 21.999006000000001
#
# number of rings (size 3 to 8) (size 9 to 14) (size 15 to 20)
#    0.000    2.667    0.000    2.500    0.000    5.333 
#    0.000    7.500    0.000    0.000    0.000    0.000 
#    0.000    0.000    0.000    0.000    0.000    0.000 
#
# Total GULP energy -297473.933931 kJ/mol
# GULP energy per Si atom -12394.747247 kJ/mol
# Density = 2.194894 g / cm^3
# Si number density = 21.999006 Si / 1000 Ang^3
#
#
#
# Elastic Constant Matrix: (Units=GPa)
#
#
# Indices 1 2 3 4 5 6 
#
# 1 58.1854 6.5678 13.8337 0.0000 -25.4305 0.0000
# 2 6.5678 97.0906 26.9420 0.0000 -26.8955 0.0000
# 3 13.8337 26.9420 54.2818 0.0000 -21.8193 0.0000
# 4 0.0000 0.0000 0.0000 40.0240 0.0000 -22.9690
# 5 -25.4305 -26.8955 -21.8193 0.0000 26.4332 0.0000
# 6 0.0000 0.0000 0.0000 -22.9690 0.0000 22.4112
#
#
#
# Elastic Compliance Matrix: (Units=1/GPa)
#
#
# Indices 1 2 3 4 5 6 
#
# 1 0.036466 0.009695 0.005929 0.000000 0.049841 0.000000
# 2 0.009695 0.017048 -0.000315 0.000000 0.026413 0.000000
# 3 0.005929 -0.000315 0.028781 0.000000 0.029141 0.000000
# 4 0.000000 0.000000 0.000000 0.060667 0.000000 0.062177
# 5 0.049841 0.026413 0.029141 0.000000 0.136710 0.000000
# 6 0.000000 0.000000 0.000000 0.062177 0.000000 0.108346
#
#
# Mechanical properties :
#
#
# Convention : Reuss Voigt Hill
#
# Bulk Modulus (GPa) = 8.85648 33.80499 21.33073
# Shear Modulus (GPa) = 12.65698 28.58796 20.62247
#
# Velocity S-wave (km/s) = 2.40123 3.60878 3.06507
# Velocity P-wave (km/s) = 3.42381 5.72402 4.71630
#
# Compressibility (1/GPa) = 0.11291171
#
# Stress axis : x y z
#
# Youngs Moduli (GPa) = 27.42293 58.65773 34.74470
#
# Poissons Ratio (x) = -0.56866 -0.20600
# Poissons Ratio (y) = -0.26585 0.01096
# Poissons Ratio (z) = -0.16259 0.01850
#
# Static dielectric constant tensor:
#      x y z
#    x 3.927850 0.000000 -0.309110 
#    y 0.000000 4.455450 0.000000 
#    z -0.309110 0.000000 3.696480 
# 
# 
# High freq. dielectric constant tensor:
#      x y z
#    x 1.857660 0.000000 -0.016760 
#    y 0.000000 1.878350 0.000000 
#    z -0.016760 0.000000 1.833220 
# 
# From -- ./inp_files/70007.got.cif
#   From: 2010.06.25/outbox.cif.g09.slc.cpg/sg15_36_cif.got.tgz:70007.got - 2010.06.28 07:06:18.
