data_PCOD8133189
_publ_section_title
;
Structure prediction by ZEFSAII (Michael W. Deem and Ramdas Pophale) SiO2 
 PCOD8133189
Probable space group: C 2/C
;
_chemical_formula_sum "Si O2"
_cell_formula_units_Z 56
_cell_length_a 12.399826
_cell_length_b 14.413945
_cell_length_c 32.849970
_cell_angle_alpha 90.000000
_cell_angle_beta 30.324865
_cell_angle_gamma 90.000000
_cell_volume 2964.426941
_symmetry_space_group_name_H-M "C 2/C"
_symmetry_group_IT_number 15
_symmetry_cell_setting 'monoclinic'
loop_
_space_group_symop_operation_xyz
x,y,z
-x,y,1/2-z
-x,-y,-z
x,-y,1/2+z
1/2+x,1/2+y,z
1/2-x,1/2+y,1/2-z
1/2-x,1/2-y,-z
1/2+x,1/2-y,1/2+z
loop_
_atom_site_type_symbol
_atom_site_label
_atom_site_fract_x
_atom_site_fract_y
_atom_site_fract_z
Si Si1 0.532865 0.014299 0.866988
Si Si2 0.417482 0.932987 0.562235
Si Si3 0.494034 0.509851 0.677208
Si Si4 0.811787 0.109795 0.170068
Si Si5 0.287380 0.185947 0.579335
Si Si6 0.475174 0.790283 0.414727
Si Si7 0.858216 0.614651 0.358816
O O1 0.451518 0.119904 0.894040
O O2 0.781226 0.010898 0.773597
O O3 0.500854 0.964199 0.920479
O O4 0.371897 0.964983 0.888070
O O5 0.527427 0.834246 0.514937
O O6 0.500000 0.000000 0.500000
O O7 0.159342 0.937014 0.644470
O O8 0.442182 0.473103 0.648731
O O9 0.592735 0.612390 0.640657
O O10 0.579805 0.120369 0.263749
O O11 0.814732 0.090977 0.120203
O O12 0.912347 0.209556 0.147392
O O13 0.385704 0.177656 0.592128
O O14 0.196943 0.288540 0.600948
O O15 0.250000 0.750000 0.500000
#
# Coordination Sequence:
#
# PCOD8133189 Si02
#       7
#     8   8   8   8   8   8   8
#     4  11  21  35  58  86 112 146 189 239 277 339
#     4  10  19  32  55  83 114 139 183 232 288 322
#     4  10  19  34  62  85 110 143 190 236 286 328
#     4   9  19  35  58  81 112 146 188 238 275 339
#     4  10  20  36  58  82 115 150 186 232 288 338
#     4  11  21  34  58  83 111 146 193 229 274 333
#     4   9  20  37  55  83 111 149 191 226 285 337
#
# _framework density 18.890667000000001
#
# number of rings (size 3 to 8) (size 9 to 14) (size 15 to 20)
#    0.000    2.000    2.857    2.143    2.000    1.714 
#    0.000    2.857    6.286    0.000    0.000    0.000 
#    0.000    0.000    0.000    0.000    0.000    0.000 
#
# Total GULP energy -347065.846189 kJ/mol
# GULP energy per Si atom -12395.208792 kJ/mol
# Density = 1.884767 g / cm^3
# Si number density = 18.890667 Si / 1000 Ang^3
#
#
#
# Elastic Constant Matrix: (Units=GPa)
#
#
# Indices 1 2 3 4 5 6 
#
# 1 97.1422 75.6181 38.2397 -0.0053 6.4417 0.0079
# 2 75.6181 134.5727 45.4699 -0.0090 2.2501 -0.0107
# 3 38.2397 45.4699 48.5445 -0.2320 11.8804 -0.0641
# 4 -0.0053 -0.0090 -0.2320 31.9413 0.0552 -2.5688
# 5 6.4417 2.2501 11.8804 0.0552 23.1520 0.0076
# 6 0.0079 -0.0107 -0.0641 -2.5688 0.0076 34.9707
#
#
#
# Elastic Compliance Matrix: (Units=1/GPa)
#
#
# Indices 1 2 3 4 5 6 
#
# 1 0.020099 -0.008789 -0.007366 -0.000053 -0.000958 -0.000024
# 2 -0.008789 0.015196 -0.008631 -0.000070 0.005398 -0.000016
# 3 -0.007366 -0.008631 0.038633 0.000314 -0.016937 0.000097
# 4 -0.000053 -0.000070 0.000314 0.031496 -0.000215 0.002314
# 5 -0.000958 0.005398 -0.016937 -0.000215 0.051627 -0.000056
# 6 -0.000024 -0.000016 0.000097 0.002314 -0.000056 0.028766
#
#
# Mechanical properties :
#
#
# Convention : Reuss Voigt Hill
#
# Bulk Modulus (GPa) = 41.05854 66.54608 53.80231
# Shear Modulus (GPa) = 20.53329 26.07491 23.30410
#
# Velocity S-wave (km/s) = 3.30048 3.71928 3.51612
# Velocity P-wave (km/s) = 6.02546 7.33127 6.71020
#
# Compressibility (1/GPa) = 0.02435547
#
# Stress axis : x y z
#
# Youngs Moduli (GPa) = 49.75419 65.80813 25.88440
#
# Poissons Ratio (x) = 0.57839 0.19066
# Poissons Ratio (y) = 0.43729 0.22342
# Poissons Ratio (z) = 0.36648 0.56802
#
# Static dielectric constant tensor:
#      x y z
#    x 3.777830 0.000000 -0.063880 
#    y 0.000000 3.542400 -0.000030 
#    z -0.063880 -0.000030 3.676320 
# 
# 
# High freq. dielectric constant tensor:
#      x y z
#    x 1.729350 0.000000 -0.007750 
#    y 0.000000 1.724750 0.000000 
#    z -0.007750 0.000000 1.736030 
# 
# From -- ./inp_files/311323.got.cif
#   From: 2010.06.25/outbox.cif.g09.slc.cpg/sg15_156_cif.got.tgz:311323.got - 2010.06.28 07:06:18.
