data_PCOD8133868
_publ_section_title
;
Structure prediction by ZEFSAII (Michael W. Deem and Ramdas Pophale) SiO2 
 PCOD8133868
Probable space group: C 2/C
;
_chemical_formula_sum "Si O2"
_cell_formula_units_Z 32
_cell_length_a 17.369093
_cell_length_b 16.749071
_cell_length_c 5.134643
_cell_angle_alpha 90.000000
_cell_angle_beta 106.269035
_cell_angle_gamma 90.000000
_cell_volume 1433.936181
_symmetry_space_group_name_H-M "C 2/C"
_symmetry_group_IT_number 15
_symmetry_cell_setting 'monoclinic'
loop_
_space_group_symop_operation_xyz
x,y,z
-x,y,1/2-z
-x,-y,-z
x,-y,1/2+z
1/2+x,1/2+y,z
1/2-x,1/2+y,1/2-z
1/2-x,1/2-y,-z
1/2+x,1/2-y,1/2+z
loop_
_atom_site_type_symbol
_atom_site_label
_atom_site_fract_x
_atom_site_fract_y
_atom_site_fract_z
Si Si1 0.413495 0.215309 0.083570
Si Si2 0.589242 0.967467 0.025142
Si Si3 0.837399 0.219343 0.013351
Si Si4 0.592724 0.551219 0.334618
O O1 0.500000 0.247111 0.250000
O O2 0.351751 0.253145 0.230160
O O3 0.409190 0.120340 0.089010
O O4 0.399244 0.241715 0.774603
O O5 0.633249 0.977302 0.346162
O O6 0.500000 0.000000 0.000000
O O7 0.847210 0.124135 0.048102
O O8 0.750000 0.250000 0.000000
O O9 0.500000 0.580011 0.250000
O O10 0.610594 0.483466 0.565840
#
# Coordination Sequence:
#
# PCOD8133868 Si02
#       4
#     8   8   8   8
#     4  12  23  40  70  95 129 183 233 278 331 400
#     4  10  19  34  58  90 137 163 212 278 305 381
#     4  12  27  45  64 102 146 176 220 288 362 427
#     4  10  21  42  73  97 124 170 236 297 334 388
#
# _framework density 22.316195
#
# number of rings (size 3 to 8) (size 9 to 14) (size 15 to 20)
#    0.000    1.000    2.500    6.000    3.500    2.000 
#    0.000    7.500    0.000    0.000    0.000    0.000 
#    0.000    0.000    0.000    0.000    0.000    0.000 
#
# Total GULP energy -198338.474493 kJ/mol
# GULP energy per Si atom -12396.154656 kJ/mol
# Density = 2.226540 g / cm^3
# Si number density = 22.316195 Si / 1000 Ang^3
#
#
#
# Elastic Constant Matrix: (Units=GPa)
#
#
# Indices 1 2 3 4 5 6 
#
# 1 68.6250 35.6285 10.2226 0.0000 -3.6117 0.0000
# 2 35.6285 124.1615 24.3220 0.0000 0.0231 0.0000
# 3 10.2226 24.3220 126.1461 0.0000 -24.6578 0.0000
# 4 0.0000 0.0000 0.0000 48.4776 0.0000 -2.9775
# 5 -3.6117 0.0231 -24.6578 0.0000 33.6788 0.0000
# 6 0.0000 0.0000 0.0000 -2.9775 0.0000 27.5575
#
#
#
# Elastic Compliance Matrix: (Units=1/GPa)
#
#
# Indices 1 2 3 4 5 6 
#
# 1 0.017239 -0.004928 -0.000099 0.000000 0.001779 0.000000
# 2 -0.004928 0.009834 -0.001869 0.000000 -0.001903 0.000000
# 3 -0.000099 -0.001869 0.009679 0.000000 0.007077 0.000000
# 4 0.000000 0.000000 0.000000 0.020766 0.000000 0.002244
# 5 0.001779 -0.001903 0.007077 0.000000 0.035066 0.000000
# 6 0.000000 0.000000 0.000000 0.002244 0.000000 0.036530
#
#
# Mechanical properties :
#
#
# Convention : Reuss Voigt Hill
#
# Bulk Modulus (GPa) = 43.55210 51.03098 47.29154
# Shear Modulus (GPa) = 33.20957 38.52675 35.86816
#
# Velocity S-wave (km/s) = 3.86182 4.15951 4.01343
# Velocity P-wave (km/s) = 6.28038 6.78127 6.53562
#
# Compressibility (1/GPa) = 0.02296100
#
# Stress axis : x y z
#
# Youngs Moduli (GPa) = 58.00919 101.68310 103.31586
#
# Poissons Ratio (x) = 0.50105 0.01023
# Poissons Ratio (y) = 0.28585 0.19309
# Poissons Ratio (z) = 0.00575 0.19004
#
# Static dielectric constant tensor:
#      x y z
#    x 4.000350 0.000000 -0.464060 
#    y 0.000000 4.046970 0.000000 
#    z -0.464060 0.000000 2.183960 
# 
# 
# High freq. dielectric constant tensor:
#      x y z
#    x 1.843790 0.000000 -0.024210 
#    y 0.000000 1.883590 0.000000 
#    z -0.024210 0.000000 1.908390 
# 
# From -- ./inp_files/9506.got.cif
#   From: 2010.06.25/outbox.cif.g09.slc.cpg/sg15_5_cif.got.tgz:9506.got - 2010.06.28 07:06:18.
