data_PCOD8133523
_publ_section_title
;
Structure prediction by ZEFSAII (Michael W. Deem and Ramdas Pophale) SiO2 
 PCOD8133523
Probable space group: C 2/C
;
_chemical_formula_sum "Si O2"
_cell_formula_units_Z 40
_cell_length_a 6.279771
_cell_length_b 19.760018
_cell_length_c 17.739598
_cell_angle_alpha 90.000000
_cell_angle_beta 100.950925
_cell_angle_gamma 90.000000
_cell_volume 2161.193407
_symmetry_space_group_name_H-M "C 2/C"
_symmetry_group_IT_number 15
_symmetry_cell_setting 'monoclinic'
loop_
_space_group_symop_operation_xyz
x,y,z
-x,y,1/2-z
-x,-y,-z
x,-y,1/2+z
1/2+x,1/2+y,z
1/2-x,1/2+y,1/2-z
1/2-x,1/2-y,-z
1/2+x,1/2-y,1/2+z
loop_
_atom_site_type_symbol
_atom_site_label
_atom_site_fract_x
_atom_site_fract_y
_atom_site_fract_z
Si Si1 0.461468 0.866725 0.828232
Si Si2 0.790593 0.321083 0.964584
Si Si3 0.846708 0.991883 0.672032
Si Si4 0.896494 0.086744 0.426094
Si Si5 0.889443 0.433979 0.458696
O O1 0.500000 0.830322 0.750000
O O2 0.398697 0.812535 0.888696
O O3 0.278900 0.924947 0.808809
O O4 0.684827 0.902059 0.862688
O O5 0.551903 0.349040 0.936259
O O6 0.750000 0.250000 0.000000
O O7 0.944230 0.370538 0.025317
O O8 0.000000 0.018273 0.750000
O O9 0.982454 0.976174 0.604992
O O10 0.680400 0.051277 0.633239
O O11 0.829383 0.076498 0.508113
O O12 0.000000 0.500000 0.500000
#
# Coordination Sequence:
#
# PCOD8133523 Si02
#       5
#     8   8   8   8   8
#     4  10  19  33  57  91 112 145 198 244 296 353
#     4  10  23  38  58  85 114 160 204 244 291 357
#     4  11  20  31  54  90 119 146 183 244 312 347
#     4  10  19  34  60  81 118 146 190 242 293 342
#     4  11  20  34  57  91 113 150 199 243 294 361
#
# _framework density 18.508292999999998
#
# number of rings (size 3 to 8) (size 9 to 14) (size 15 to 20)
#    0.000    1.600    8.000    0.600    0.000    3.200 
#    0.000    0.000    0.000    7.200    0.000    0.000 
#    0.000    0.000    0.000    0.000    0.000    0.000 
#
# Total GULP energy -247792.203333 kJ/mol
# GULP energy per Si atom -12389.610167 kJ/mol
# Density = 1.846617 g / cm^3
# Si number density = 18.508293 Si / 1000 Ang^3
#
#
#
# Elastic Constant Matrix: (Units=GPa)
#
#
# Indices 1 2 3 4 5 6 
#
# 1 85.5131 28.9784 29.7707 0.0000 0.7493 0.0000
# 2 28.9784 90.6104 52.6377 0.0000 -1.3281 0.0000
# 3 29.7707 52.6377 124.2825 0.0000 9.3794 0.0000
# 4 0.0000 0.0000 0.0000 22.6730 0.0000 -1.1127
# 5 0.7493 -1.3281 9.3794 0.0000 35.8207 0.0000
# 6 0.0000 0.0000 0.0000 -1.1127 0.0000 18.8256
#
#
#
# Elastic Compliance Matrix: (Units=1/GPa)
#
#
# Indices 1 2 3 4 5 6 
#
# 1 0.013430 -0.003211 -0.001864 0.000000 0.000088 0.000000
# 2 -0.003211 0.015579 -0.005996 0.000000 0.002215 0.000000
# 3 -0.001864 -0.005996 0.011269 0.000000 -0.003134 0.000000
# 4 0.000000 0.000000 0.000000 0.044234 0.000000 0.002614
# 5 0.000088 0.002215 -0.003134 0.000000 0.028818 0.000000
# 6 0.000000 0.000000 0.000000 0.002614 0.000000 0.053274
#
#
# Mechanical properties :
#
#
# Convention : Reuss Voigt Hill
#
# Bulk Modulus (GPa) = 55.13920 58.13105 56.63513
# Shear Modulus (GPa) = 25.66858 28.06514 26.86686
#
# Velocity S-wave (km/s) = 3.72811 3.89826 3.81414
# Velocity P-wave (km/s) = 6.95615 7.19293 7.07553
#
# Compressibility (1/GPa) = 0.01813592
#
# Stress axis : x y z
#
# Youngs Moduli (GPa) = 74.45795 64.18880 88.74143
#
# Poissons Ratio (x) = 0.20613 0.16539
# Poissons Ratio (y) = 0.23910 0.53211
# Poissons Ratio (z) = 0.13877 0.38489
#
# Static dielectric constant tensor:
#      x y z
#    x 4.131820 0.000000 0.009190 
#    y 0.000000 3.047470 0.000000 
#    z 0.009190 0.000000 3.774120 
# 
# 
# High freq. dielectric constant tensor:
#      x y z
#    x 1.744470 0.000000 0.004270 
#    y 0.000000 1.660110 0.000000 
#    z 0.004270 0.000000 1.719060 
# 
# From -- ./inp_files/184212.got.cif
#   From: 2010.06.25/outbox.cif.g09.slc.cpg/sg15_93_cif.got.tgz:184212.got - 2010.06.28 07:06:18.
