data_PCOD8133847
_publ_section_title
;
Structure prediction by ZEFSAII (Michael W. Deem and Ramdas Pophale) SiO2 
 PCOD8133847
Probable space group: C 2/C
;
_chemical_formula_sum "Si O2"
_cell_formula_units_Z 52
_cell_length_a 13.892118
_cell_length_b 14.961904
_cell_length_c 13.087376
_cell_angle_alpha 90.000000
_cell_angle_beta 102.678371
_cell_angle_gamma 90.000000
_cell_volume 2653.917840
_symmetry_space_group_name_H-M "C 2/C"
_symmetry_group_IT_number 15
_symmetry_cell_setting 'monoclinic'
loop_
_space_group_symop_operation_xyz
x,y,z
-x,y,1/2-z
-x,-y,-z
x,-y,1/2+z
1/2+x,1/2+y,z
1/2-x,1/2+y,1/2-z
1/2-x,1/2-y,-z
1/2+x,1/2-y,1/2+z
loop_
_atom_site_type_symbol
_atom_site_label
_atom_site_fract_x
_atom_site_fract_y
_atom_site_fract_z
Si Si1 0.326868 0.085988 0.324527
Si Si2 0.000000 0.485634 0.250000
Si Si3 0.500907 0.573040 0.586293
Si Si4 0.911483 0.750197 0.006032
Si Si5 0.165058 0.066408 0.785802
Si Si6 0.541212 0.090630 0.965109
Si Si7 0.779447 0.262387 0.661834
O O1 0.358026 0.110774 0.448684
O O2 0.290248 0.177114 0.264279
O O3 0.419747 0.048298 0.284338
O O4 0.239968 0.014968 0.305311
O O5 0.055795 0.422651 0.346602
O O6 0.500000 0.500000 0.500000
O O7 0.492049 0.671859 0.536744
O O8 0.605085 0.566396 0.666902
O O9 0.408568 0.554474 0.637416
O O10 0.871682 0.719209 0.107751
O O11 0.821710 0.788496 0.917839
O O12 0.961349 0.667778 0.961601
O O13 0.225173 0.158565 0.808240
O O14 0.500000 0.000000 0.000000
#
# Coordination Sequence:
#
# PCOD8133847 Si02
#       7
#     8   4   8   8   8   8   8
#     4  11  21  36  60  86 115 150 189 232 286 342
#     4  10  22  36  56  84 120 150 180 234 288 338
#     4  10  21  39  59  80 112 152 190 233 281 330
#     4  10  20  35  58  84 111 149 193 235 280 335
#     4  10  22  37  57  86 114 144 191 238 276 332
#     4  10  20  35  54  80 112 146 183 227 282 335
#     4  10  19  34  58  85 112 146 191 237 279 332
#
# _framework density 19.593675000000001
#
# number of rings (size 3 to 8) (size 9 to 14) (size 15 to 20)
#    0.000    1.846    0.000    5.538    0.000    6.154 
#    0.000    4.615    0.000    6.462    0.000    0.000 
#    0.000    0.000    0.000    0.000    0.000    0.000 
#
# Total GULP energy -322434.943112 kJ/mol
# GULP energy per Si atom -12401.343966 kJ/mol
# Density = 1.954908 g / cm^3
# Si number density = 19.593675 Si / 1000 Ang^3
#
#
#
# Elastic Constant Matrix: (Units=GPa)
#
#
# Indices 1 2 3 4 5 6 
#
# 1 55.7748 26.3106 22.6849 0.0000 15.9844 0.0000
# 2 26.3106 89.4989 49.6419 0.0000 3.4562 0.0000
# 3 22.6849 49.6419 150.9216 0.0000 17.4110 0.0000
# 4 0.0000 0.0000 0.0000 39.1445 0.0000 0.4092
# 5 15.9844 3.4562 17.4110 0.0000 24.1696 0.0000
# 6 0.0000 0.0000 0.0000 0.4092 0.0000 32.0288
#
#
#
# Elastic Compliance Matrix: (Units=1/GPa)
#
#
# Indices 1 2 3 4 5 6 
#
# 1 0.025842 -0.007163 0.000355 0.000000 -0.016321 0.000000
# 2 -0.007163 0.015696 -0.004770 0.000000 0.005929 0.000000
# 3 0.000355 -0.004770 0.008823 0.000000 -0.005909 0.000000
# 4 0.000000 0.000000 0.000000 0.025550 0.000000 -0.000326
# 5 -0.016321 0.005929 -0.005909 0.000000 0.055577 0.000000
# 6 0.000000 0.000000 0.000000 -0.000326 0.000000 0.031226
#
#
# Mechanical properties :
#
#
# Convention : Reuss Voigt Hill
#
# Bulk Modulus (GPa) = 36.75972 54.83003 45.79487
# Shear Modulus (GPa) = 25.64909 32.23911 28.94410
#
# Velocity S-wave (km/s) = 3.62200 4.06073 3.84763
# Velocity P-wave (km/s) = 6.02442 7.07321 6.56978
#
# Compressibility (1/GPa) = 0.02720369
#
# Stress axis : x y z
#
# Youngs Moduli (GPa) = 38.69729 63.71033 113.33675
#
# Poissons Ratio (x) = 0.45638 -0.04022
# Poissons Ratio (y) = 0.27720 0.54063
# Poissons Ratio (z) = -0.01373 0.30391
#
# Static dielectric constant tensor:
#      x y z
#    x 3.409450 0.000000 0.230010 
#    y 0.000000 3.386940 0.000000 
#    z 0.230010 0.000000 4.183770 
# 
# 
# High freq. dielectric constant tensor:
#      x y z
#    x 1.743980 0.000000 0.020780 
#    y 0.000000 1.765460 0.000000 
#    z 0.020780 0.000000 1.779800 
# 
# From -- ./inp_files/97107.got.cif
#   From: 2010.06.25/outbox.cif.g09.slc.cpg/sg15_49_cif.got.tgz:97107.got - 2010.06.28 07:06:18.
