data_PCOD8133037
_publ_section_title
;
Structure prediction by ZEFSAII (Michael W. Deem and Ramdas Pophale) SiO2 
 PCOD8133037
Probable space group: C 2/C
;
_chemical_formula_sum "Si O2"
_cell_formula_units_Z 48
_cell_length_a 19.403387
_cell_length_b 10.036677
_cell_length_c 27.900331
_cell_angle_alpha 90.000000
_cell_angle_beta 152.249550
_cell_angle_gamma 90.000000
_cell_volume 2529.937823
_symmetry_space_group_name_H-M "C 2/C"
_symmetry_group_IT_number 15
_symmetry_cell_setting 'monoclinic'
loop_
_space_group_symop_operation_xyz
x,y,z
-x,y,1/2-z
-x,-y,-z
x,-y,1/2+z
1/2+x,1/2+y,z
1/2-x,1/2+y,1/2-z
1/2-x,1/2-y,-z
1/2+x,1/2-y,1/2+z
loop_
_atom_site_type_symbol
_atom_site_label
_atom_site_fract_x
_atom_site_fract_y
_atom_site_fract_z
Si Si1 0.206591 0.975091 0.219066
Si Si2 0.071658 0.622286 0.571623
Si Si3 0.929499 0.420504 0.277505
Si Si4 0.720454 0.963188 0.410594
Si Si5 0.957649 0.122682 0.509259
Si Si6 0.480314 0.291167 0.598730
O O1 0.270163 0.924484 0.309078
O O2 0.340326 0.000973 0.263538
O O3 0.100593 0.858793 0.131813
O O4 0.114043 0.110127 0.167149
O O5 0.088808 0.743223 0.545400
O O6 0.969754 0.673948 0.552526
O O7 0.000000 0.500000 0.500000
O O8 0.828982 0.392410 0.169296
O O9 0.981798 0.274473 0.327127
O O10 0.077341 0.504013 0.354026
O O11 0.823085 0.863767 0.504547
O O12 0.815408 0.092021 0.454735
O O13 0.000000 0.000000 0.500000
#
# Coordination Sequence:
#
# PCOD8133037 Si02
#       6
#     8   8   8   8   8   8
#     4  10  21  35  59  86 116 154 194 240 294 343
#     4  11  23  32  58  92 114 148 202 248 282 351
#     4  10  19  31  56  90 106 145 205 234 279 347
#     4  10  19  34  57  83 110 154 188 244 283 348
#     4  11  19  38  59  82 118 155 196 236 297 346
#     4  10  20  36  54  84 119 151 188 246 292 341
#
# _framework density 18.972798999999998
#
# number of rings (size 3 to 8) (size 9 to 14) (size 15 to 20)
#    0.000    1.667    5.000    0.500    7.000    0.000 
#    0.000    0.000    0.000    4.000   47.667    0.000 
#    0.000    0.000    0.000    0.000    0.000    0.000 
#
# Total GULP energy -297436.640080 kJ/mol
# GULP energy per Si atom -12393.193337 kJ/mol
# Density = 1.892962 g / cm^3
# Si number density = 18.972799 Si / 1000 Ang^3
#
#
#
# Elastic Constant Matrix: (Units=GPa)
#
#
# Indices 1 2 3 4 5 6 
#
# 1 80.3563 31.8026 52.7756 -0.0006 11.6762 0.0001
# 2 31.8026 81.4127 47.1592 0.0005 -5.9941 0.0011
# 3 52.7756 47.1592 148.0652 0.0078 -7.3569 0.0020
# 4 -0.0006 0.0005 0.0078 30.7790 -0.0004 -10.0564
# 5 11.6762 -5.9941 -7.3569 -0.0004 38.7639 -0.0006
# 6 0.0001 0.0011 0.0020 -10.0564 -0.0006 26.4356
#
#
#
# Elastic Compliance Matrix: (Units=1/GPa)
#
#
# Indices 1 2 3 4 5 6 
#
# 1 0.019167 -0.004746 -0.005697 0.000002 -0.007589 0.000001
# 2 -0.004746 0.016316 -0.003340 0.000000 0.003319 0.000000
# 3 -0.005697 -0.003340 0.010002 -0.000003 0.003098 -0.000002
# 4 0.000002 0.000000 -0.000003 0.037101 -0.000001 0.014114
# 5 -0.007589 0.003319 0.003098 -0.000001 0.029184 0.000000
# 6 0.000001 0.000000 -0.000002 0.014114 0.000000 0.043197
#
#
# Mechanical properties :
#
#
# Convention : Reuss Voigt Hill
#
# Bulk Modulus (GPa) = 55.80717 63.70099 59.75408
# Shear Modulus (GPa) = 26.52408 31.06882 28.79645
#
# Velocity S-wave (km/s) = 3.74305 4.05105 3.90009
# Velocity P-wave (km/s) = 6.93965 7.45179 7.20027
#
# Compressibility (1/GPa) = 0.01791885
#
# Stress axis : x y z
#
# Youngs Moduli (GPa) = 52.17193 61.28870 99.97643
#
# Poissons Ratio (x) = 0.29087 0.56961
# Poissons Ratio (y) = 0.24760 0.33395
# Poissons Ratio (z) = 0.29724 0.20472
#
# Static dielectric constant tensor:
#      x y z
#    x 3.510360 0.000000 -0.136540 
#    y 0.000000 3.299400 0.000000 
#    z -0.136540 0.000000 3.965230 
# 
# 
# High freq. dielectric constant tensor:
#      x y z
#    x 1.723330 0.000000 -0.007120 
#    y 0.000000 1.704270 0.000000 
#    z -0.007120 0.000000 1.762660 
# 
# From -- ./inp_files/298801.got.cif
#   From: 2010.06.25/outbox.cif.g09.slc.cpg/sg15_150_cif.got.tgz:298801.got - 2010.06.28 07:06:18.
