data_PCOD8133654
_publ_section_title
;
Structure prediction by ZEFSAII (Michael W. Deem and Ramdas Pophale) SiO2 
 PCOD8133654
Probable space group: C 2/C
;
_chemical_formula_sum "Si O2"
_cell_formula_units_Z 56
_cell_length_a 17.280733
_cell_length_b 19.084152
_cell_length_c 14.595644
_cell_angle_alpha 90.000000
_cell_angle_beta 137.226531
_cell_angle_gamma 90.000000
_cell_volume 3268.834726
_symmetry_space_group_name_H-M "C 2/C"
_symmetry_group_IT_number 15
_symmetry_cell_setting 'monoclinic'
loop_
_space_group_symop_operation_xyz
x,y,z
-x,y,1/2-z
-x,-y,-z
x,-y,1/2+z
1/2+x,1/2+y,z
1/2-x,1/2+y,1/2-z
1/2-x,1/2-y,-z
1/2+x,1/2-y,1/2+z
loop_
_atom_site_type_symbol
_atom_site_label
_atom_site_fract_x
_atom_site_fract_y
_atom_site_fract_z
Si Si1 0.690636 0.988054 0.099621
Si Si2 0.471331 0.923293 0.824610
Si Si3 0.387333 0.860562 0.922780
Si Si4 0.301073 0.700203 0.123053
Si Si5 0.068468 0.673453 0.719486
Si Si6 0.132397 0.954364 0.879636
Si Si7 0.211737 0.543671 0.821318
O O1 0.742733 0.963848 0.241800
O O2 0.630119 0.062244 0.053837
O O3 0.796849 0.992942 0.123410
O O4 0.591362 0.936595 0.979526
O O5 0.500000 0.891534 0.750000
O O6 0.402183 0.865436 0.825125
O O7 0.394293 0.992937 0.744811
O O8 0.285690 0.810486 0.867447
O O9 0.502912 0.834129 0.067897
O O10 0.404695 0.743960 0.254730
O O11 0.345047 0.626719 0.123550
O O12 0.250000 0.750000 0.000000
O O13 0.178764 0.623785 0.814567
O O14 0.000000 0.650362 0.750000
O O15 0.000000 0.972060 0.750000
O O16 0.175193 0.971690 0.020077
#
# Coordination Sequence:
#
# PCOD8133654 Si02
#       7
#     8   8   8   8   8   8   8
#     4  10  19  34  53  82 105 136 179 223 274 318
#     4  11  18  32  59  84 101 131 179 236 280 305
#     4  10  20  32  48  82 111 130 178 227 264 318
#     4  11  21  31  49  75 111 149 174 209 265 323
#     4  12  18  28  52  76 108 141 172 212 267 319
#     4  11  23  35  47  75 116 146 177 212 256 331
#     4  11  19  31  55  79 107 139 175 224 272 312
#
# _framework density 17.131488000000001
#
# number of rings (size 3 to 8) (size 9 to 14) (size 15 to 20)
#    0.000    1.143    7.143    2.571    0.000    0.571 
#    0.000    0.000    0.000    0.857    0.000    0.000 
#    0.000    0.000    0.000    0.000    0.000    0.000 
#
# Total GULP energy -347069.298411 kJ/mol
# GULP energy per Si atom -12395.332086 kJ/mol
# Density = 1.709250 g / cm^3
# Si number density = 17.131488 Si / 1000 Ang^3
#
#
#
# Elastic Constant Matrix: (Units=GPa)
#
#
# Indices 1 2 3 4 5 6 
#
# 1 98.4553 27.7817 50.7439 0.0000 -14.2228 0.0000
# 2 27.7817 48.2233 21.8092 0.0000 -4.7011 0.0000
# 3 50.7439 21.8092 125.5987 0.0000 -4.4559 0.0000
# 4 0.0000 0.0000 0.0000 20.1677 0.0000 -2.6066
# 5 -14.2228 -4.7011 -4.4559 0.0000 32.1408 0.0000
# 6 0.0000 0.0000 0.0000 -2.6066 0.0000 23.1058
#
#
#
# Elastic Compliance Matrix: (Units=1/GPa)
#
#
# Indices 1 2 3 4 5 6 
#
# 1 0.015105 -0.005995 -0.004880 0.000000 0.005131 0.000000
# 2 -0.005995 0.025130 -0.001915 0.000000 0.000757 0.000000
# 3 -0.004880 -0.001915 0.010230 0.000000 -0.001021 0.000000
# 4 0.000000 0.000000 0.000000 0.050318 0.000000 0.005676
# 5 0.005131 0.000757 -0.001021 0.000000 0.033353 0.000000
# 6 0.000000 0.000000 0.000000 0.005676 0.000000 0.043920
#
#
# Mechanical properties :
#
#
# Convention : Reuss Voigt Hill
#
# Bulk Modulus (GPa) = 40.18309 52.54968 46.36638
# Shear Modulus (GPa) = 23.59288 26.54569 25.06929
#
# Velocity S-wave (km/s) = 3.71504 3.94067 3.82952
# Velocity P-wave (km/s) = 6.47369 7.17259 6.83209
#
# Compressibility (1/GPa) = 0.02488609
#
# Stress axis : x y z
#
# Youngs Moduli (GPa) = 66.20509 39.79253 97.75623
#
# Poissons Ratio (x) = 0.23855 0.47700
# Poissons Ratio (y) = 0.39689 0.18718
# Poissons Ratio (z) = 0.32305 0.07619
#
# Static dielectric constant tensor:
#      x y z
#    x 3.426930 0.000000 -0.060920 
#    y 0.000000 3.165560 0.000000 
#    z -0.060920 0.000000 3.283230 
# 
# 
# High freq. dielectric constant tensor:
#      x y z
#    x 1.656300 0.000000 -0.005620 
#    y 0.000000 1.628660 0.000000 
#    z -0.005620 0.000000 1.661270 
# 
# From -- ./inp_files/106340.got.cif
#   From: 2010.06.25/outbox.cif.g09.slc.cpg/sg15_54_cif.got.tgz:106340.got - 2010.06.28 07:06:18.
