data_PCOD8133311
_publ_section_title
;
Structure prediction by ZEFSAII (Michael W. Deem and Ramdas Pophale) SiO2 
 PCOD8133311
Probable space group: C 2/C
;
_chemical_formula_sum "Si O2"
_cell_formula_units_Z 48
_cell_length_a 5.032713
_cell_length_b 28.788341
_cell_length_c 17.851291
_cell_angle_alpha 90.000000
_cell_angle_beta 84.009484
_cell_angle_gamma 90.000000
_cell_volume 2572.233151
_symmetry_space_group_name_H-M "C 2/C"
_symmetry_group_IT_number 15
_symmetry_cell_setting 'monoclinic'
loop_
_space_group_symop_operation_xyz
x,y,z
-x,y,1/2-z
-x,-y,-z
x,-y,1/2+z
1/2+x,1/2+y,z
1/2-x,1/2+y,1/2-z
1/2-x,1/2-y,-z
1/2+x,1/2-y,1/2+z
loop_
_atom_site_type_symbol
_atom_site_label
_atom_site_fract_x
_atom_site_fract_y
_atom_site_fract_z
Si Si1 0.638054 0.897734 0.644585
Si Si2 0.318350 0.715342 0.431031
Si Si3 0.838930 0.889226 0.950338
Si Si4 0.750013 0.493465 0.795485
Si Si5 0.740555 0.976154 0.037048
Si Si6 0.857241 0.293946 0.829500
O O1 0.342894 0.899734 0.617513
O O2 0.688167 0.938379 0.702353
O O3 0.688909 0.848701 0.684667
O O4 0.857953 0.905008 0.573473
O O5 0.250000 0.750000 0.500000
O O6 0.346349 0.665189 0.469952
O O7 0.571865 0.727202 0.367979
O O8 0.054028 0.715660 0.390664
O O9 0.734216 0.920609 0.021926
O O10 0.500000 0.503428 0.750000
O O11 0.743338 0.517492 0.875446
O O12 0.000000 0.518433 0.750000
O O13 0.500000 0.000000 0.000000
O O14 0.000000 0.000000 0.000000
O O15 0.000000 0.272568 0.750000
#
# Coordination Sequence:
#
# PCOD8133311 Si02
#       6
#     8   8   8   8   8   8
#     4  10  19  33  52  79 111 141 177 216 286 342
#     4  10  21  36  58  83 113 145 189 232 284 328
#     4  10  19  35  56  79 103 146 189 228 265 329
#     4  12  23  33  50  79 113 144 181 232 277 320
#     4  12  21  37  57  76 108 150 196 220 267 336
#     4  10  20  34  55  84 116 145 175 227 288 353
#
# _framework density 18.660830000000001
#
# number of rings (size 3 to 8) (size 9 to 14) (size 15 to 20)
#    0.000    1.333    3.333    3.500    0.000    2.667 
#    0.000    0.000    0.000    3.000    0.000    0.000 
#    0.000    0.000    0.000    0.000    0.000    0.000 
#
# Total GULP energy -297324.695046 kJ/mol
# GULP energy per Si atom -12388.528960 kJ/mol
# Density = 1.861836 g / cm^3
# Si number density = 18.660830 Si / 1000 Ang^3
#
#
#
# Elastic Constant Matrix: (Units=GPa)
#
#
# Indices 1 2 3 4 5 6 
#
# 1 122.4752 27.2929 45.2217 0.0000 -6.4510 0.0000
# 2 27.2929 69.0249 48.4811 0.0000 -8.1255 0.0000
# 3 45.2217 48.4811 132.7431 0.0000 -11.1245 0.0000
# 4 0.0000 0.0000 0.0000 32.6463 0.0000 2.7192
# 5 -6.4510 -8.1255 -11.1245 0.0000 36.8067 0.0000
# 6 0.0000 0.0000 0.0000 2.7192 0.0000 21.1427
#
#
#
# Elastic Compliance Matrix: (Units=1/GPa)
#
#
# Indices 1 2 3 4 5 6 
#
# 1 0.009550 -0.001967 -0.002494 0.000000 0.000486 0.000000
# 2 -0.001967 0.020068 -0.006481 0.000000 0.002127 0.000000
# 3 -0.002494 -0.006481 0.010869 0.000000 0.001417 0.000000
# 4 0.000000 0.000000 0.000000 0.030963 0.000000 -0.003982
# 5 0.000486 0.002127 0.001417 0.000000 0.028152 0.000000
# 6 0.000000 0.000000 0.000000 -0.003982 0.000000 0.047810
#
#
# Mechanical properties :
#
#
# Convention : Reuss Voigt Hill
#
# Bulk Modulus (GPa) = 53.75774 62.91497 58.33635
# Shear Modulus (GPa) = 28.49073 31.66899 30.07986
#
# Velocity S-wave (km/s) = 3.91162 4.12404 4.01923
# Velocity P-wave (km/s) = 7.01936 7.51433 7.27106
#
# Compressibility (1/GPa) = 0.01860197
#
# Stress axis : x y z
#
# Youngs Moduli (GPa) = 104.71441 49.83154 92.00651
#
# Poissons Ratio (x) = 0.09802 0.22949
# Poissons Ratio (y) = 0.20597 0.59628
# Poissons Ratio (z) = 0.26118 0.32295
#
# Static dielectric constant tensor:
#      x y z
#    x 3.656950 0.000000 -0.778850 
#    y 0.000000 3.487100 0.000000 
#    z -0.778850 0.000000 0.039010 
# 
# 
# High freq. dielectric constant tensor:
#      x y z
#    x 1.754300 0.000000 -0.009320 
#    y 0.000000 1.687740 0.000000 
#    z -0.009320 0.000000 1.716140 
# 
# From -- ./inp_files/130368.got.cif
#   From: 2010.06.25/outbox.cif.g09.slc.cpg/sg15_66_cif.got.tgz:130368.got - 2010.06.28 07:06:18.
