data_PCOD8133009
_publ_section_title
;
Structure prediction by ZEFSAII (Michael W. Deem and Ramdas Pophale) SiO2 
 PCOD8133009
Probable space group: C 2/C
;
_chemical_formula_sum "Si O2"
_cell_formula_units_Z 48
_cell_length_a 16.473334
_cell_length_b 9.549837
_cell_length_c 22.266230
_cell_angle_alpha 90.000000
_cell_angle_beta 47.585017
_cell_angle_gamma 90.000000
_cell_volume 2586.096100
_symmetry_space_group_name_H-M "C 2/C"
_symmetry_group_IT_number 15
_symmetry_cell_setting 'monoclinic'
loop_
_space_group_symop_operation_xyz
x,y,z
-x,y,1/2-z
-x,-y,-z
x,-y,1/2+z
1/2+x,1/2+y,z
1/2-x,1/2+y,1/2-z
1/2-x,1/2-y,-z
1/2+x,1/2-y,1/2+z
loop_
_atom_site_type_symbol
_atom_site_label
_atom_site_fract_x
_atom_site_fract_y
_atom_site_fract_z
Si Si1 0.487579 0.073764 0.424512
Si Si2 0.163736 0.076858 0.421128
Si Si3 0.402092 0.896931 0.834048
Si Si4 0.902783 0.101186 0.765426
Si Si5 0.158880 0.398150 0.394454
Si Si6 0.540065 0.624868 0.900642
O O1 0.432117 0.102353 0.388688
O O2 0.388682 0.039760 0.519757
O O3 0.549347 0.214030 0.416766
O O4 0.579097 0.950440 0.379922
O O5 0.283523 0.031865 0.385393
O O6 0.162773 0.230005 0.391093
O O7 0.079618 0.066681 0.519141
O O8 0.134835 0.965322 0.384357
O O9 0.500000 0.979406 0.750000
O O10 0.394272 0.742676 0.809326
O O11 0.780911 0.035066 0.825481
O O12 0.945405 0.123717 0.677416
O O13 0.000000 0.010222 0.750000
#
# Coordination Sequence:
#
# PCOD8133009 Si02
#       6
#     8   8   8   8   8   8
#     4  10  19  36  56  77 108 137 181 217 258 318
#     4   9  21  35  54  78 106 143 171 217 270 311
#     4  10  19  33  54  81 101 137 180 219 255 304
#     4  10  19  31  53  83 101 133 180 223 253 302
#     4   9  21  33  55  80 106 142 172 218 269 307
#     4  10  19  34  56  77 107 136 180 215 262 317
#
# _framework density 18.560796
#
# number of rings (size 3 to 8) (size 9 to 14) (size 15 to 20)
#    0.000    2.333    3.333    0.000    4.667    2.000 
#    0.000    0.000    3.667    4.000    0.000    0.000 
#    0.000    0.000    0.000    0.000    0.000    0.000 
#
# Total GULP energy -297324.074706 kJ/mol
# GULP energy per Si atom -12388.503113 kJ/mol
# Density = 1.851855 g / cm^3
# Si number density = 18.560796 Si / 1000 Ang^3
#
#
#
# Elastic Constant Matrix: (Units=GPa)
#
#
# Indices 1 2 3 4 5 6 
#
# 1 154.2985 47.3891 67.2128 0.0000 -14.7571 0.0000
# 2 47.3891 43.5417 20.4377 0.0000 -5.0264 0.0001
# 3 67.2128 20.4377 96.6007 0.0000 -9.2611 0.0000
# 4 0.0000 0.0000 0.0000 15.0875 0.0000 0.6717
# 5 -14.7571 -5.0264 -9.2611 0.0000 41.6297 0.0000
# 6 0.0000 0.0001 0.0000 0.6717 0.0000 18.1164
#
#
#
# Elastic Compliance Matrix: (Units=1/GPa)
#
#
# Indices 1 2 3 4 5 6 
#
# 1 0.012711 -0.010610 -0.006427 0.000000 0.001795 0.000000
# 2 -0.010610 0.034506 0.000123 0.000000 0.000433 0.000000
# 3 -0.006427 0.000123 0.014898 0.000000 0.001051 0.000000
# 4 0.000000 0.000000 0.000000 0.066389 0.000000 -0.002461
# 5 0.001795 0.000433 0.001051 0.000000 0.024944 0.000000
# 6 0.000000 0.000000 0.000000 -0.002461 0.000000 0.055290
#
#
# Mechanical properties :
#
#
# Convention : Reuss Voigt Hill
#
# Bulk Modulus (GPa) = 35.35107 62.72446 49.03776
# Shear Modulus (GPa) = 19.84161 25.59347 22.71754
#
# Velocity S-wave (km/s) = 3.27311 3.71738 3.50230
# Velocity P-wave (km/s) = 5.77683 7.23137 6.54463
#
# Compressibility (1/GPa) = 0.02828769
#
# Stress axis : x y z
#
# Youngs Moduli (GPa) = 78.67235 28.98034 67.12114
#
# Poissons Ratio (x) = 0.30748 0.43140
# Poissons Ratio (y) = 0.83472 -0.00828
# Poissons Ratio (z) = 0.50564 -0.00357
#
# Static dielectric constant tensor:
#      x y z
#    x 3.787930 0.000000 -0.439690 
#    y 0.000000 3.169700 0.000000 
#    z -0.439690 0.000000 3.807420 
# 
# 
# High freq. dielectric constant tensor:
#      x y z
#    x 1.725970 0.000000 -0.011860 
#    y 0.000000 1.667000 0.000000 
#    z -0.011860 0.000000 1.739590 
# 
# From -- ./inp_files/203253.got.cif
#   From: 2010.06.25/outbox.cif.g09.slc.cpg/sg15_102_cif.got.tgz:203253.got - 2010.06.28 07:06:18.
