data_PCOD8133557
_publ_section_title
;
Structure prediction by ZEFSAII (Michael W. Deem and Ramdas Pophale) SiO2 
 PCOD8133557
Probable space group: C 2/C
;
_chemical_formula_sum "Si O2"
_cell_formula_units_Z 60
_cell_length_a 27.941070
_cell_length_b 9.588971
_cell_length_c 19.350650
_cell_angle_alpha 90.000000
_cell_angle_beta 39.500407
_cell_angle_gamma 90.000000
_cell_volume 3297.804179
_symmetry_space_group_name_H-M "C 2/C"
_symmetry_group_IT_number 15
_symmetry_cell_setting 'monoclinic'
loop_
_space_group_symop_operation_xyz
x,y,z
-x,y,1/2-z
-x,-y,-z
x,-y,1/2+z
1/2+x,1/2+y,z
1/2-x,1/2+y,1/2-z
1/2-x,1/2-y,-z
1/2+x,1/2-y,1/2+z
loop_
_atom_site_type_symbol
_atom_site_label
_atom_site_fract_x
_atom_site_fract_y
_atom_site_fract_z
Si Si1 0.228986 0.636611 0.578729
Si Si2 0.939122 0.662120 0.163545
Si Si3 0.470490 0.646930 0.504090
Si Si4 0.928492 0.654302 0.692204
Si Si5 0.439922 0.724790 0.874253
Si Si6 0.885573 0.924776 0.964885
Si Si7 0.822137 0.344667 0.910574
Si Si8 0.500000 0.747742 0.250000
O O1 0.250000 0.750000 0.500000
O O2 0.159731 0.688390 0.702542
O O3 0.297785 0.604930 0.552877
O O4 0.204141 0.502766 0.562628
O O5 0.930577 0.757343 0.105658
O O6 0.940414 0.497656 0.144885
O O7 0.867704 0.699391 0.291010
O O8 0.018855 0.698192 0.109215
O O9 0.500000 0.500000 0.500000
O O10 0.541094 0.727367 0.392431
O O11 0.407530 0.627126 0.516155
O O12 0.968425 0.655804 0.723319
O O13 0.500000 0.678279 0.750000
O O14 0.398071 0.589185 0.948416
O O15 0.377743 0.830362 0.913708
O O16 0.932797 0.849407 0.852174
O O17 0.750000 0.250000 0.000000
#
# Coordination Sequence:
#
# PCOD8133557 Si02
#       8
#     8   8   8   8   8   8   8   4
#     4  11  22  37  57  89 128 152 184 246 312 353
#     4  10  22  38  59  86 124 154 197 247 292 348
#     4  11  23  40  61  86 115 164 208 241 284 355
#     4  10  23  38  60  87 122 153 200 245 303 348
#     4  10  19  33  59  89 117 150 198 250 295 337
#     4  11  20  35  60  87 120 152 205 241 296 348
#     4  10  21  34  58  89 119 150 191 241 301 348
#     4  10  20  34  60  90 112 156 196 254 294 350
#
# _framework density 18.193925
#
# number of rings (size 3 to 8) (size 9 to 14) (size 15 to 20)
#    0.000    1.600    4.667    0.400    4.667    1.067 
#    0.000    4.000    0.000    0.000    0.000    0.000 
#    0.000    0.000    0.000    0.000    0.000    0.000 
#
# Total GULP energy -372074.425836 kJ/mol
# GULP energy per Si atom -12402.480861 kJ/mol
# Density = 1.815251 g / cm^3
# Si number density = 18.193925 Si / 1000 Ang^3
#
#
#
# Elastic Constant Matrix: (Units=GPa)
#
#
# Indices 1 2 3 4 5 6 
#
# 1 115.8287 58.6977 64.0739 -0.0024 -8.1947 0.0009
# 2 58.6977 128.6069 66.6435 -0.0026 2.4927 -0.0022
# 3 64.0739 66.6435 107.1664 -0.0134 -13.0810 0.0027
# 4 -0.0024 -0.0026 -0.0134 35.9029 0.0026 -0.0190
# 5 -8.1947 2.4927 -13.0810 0.0026 34.9468 -0.0001
# 6 0.0009 -0.0022 0.0027 -0.0190 -0.0001 31.0230
#
#
#
# Elastic Compliance Matrix: (Units=1/GPa)
#
#
# Indices 1 2 3 4 5 6 
#
# 1 0.013658 -0.003093 -0.006104 -0.000002 0.001139 0.000000
# 2 -0.003093 0.012637 -0.006505 -0.000001 -0.004062 0.000002
# 3 -0.006104 -0.006505 0.017717 0.000005 0.005665 -0.000002
# 4 -0.000002 -0.000001 0.000005 0.027853 0.000000 0.000017
# 5 0.001139 -0.004062 0.005665 0.000000 0.031292 -0.000001
# 6 0.000000 0.000002 -0.000002 0.000017 -0.000001 0.032234
#
#
# Mechanical properties :
#
#
# Convention : Reuss Voigt Hill
#
# Bulk Modulus (GPa) = 79.30834 81.15913 80.23373
# Shear Modulus (GPa) = 29.24039 31.18701 30.21370
#
# Velocity S-wave (km/s) = 4.01328 4.14471 4.07953
# Velocity P-wave (km/s) = 8.07220 8.22250 8.14770
#
# Compressibility (1/GPa) = 0.01260902
#
# Stress axis : x y z
#
# Youngs Moduli (GPa) = 73.21930 79.13383 56.44209
#
# Poissons Ratio (x) = 0.24474 0.34449
# Poissons Ratio (y) = 0.22645 0.36716
# Poissons Ratio (z) = 0.44689 0.51477
#
# Static dielectric constant tensor:
#      x y z
#    x 3.384280 -0.000010 -0.140840 
#    y -0.000010 3.455130 0.000010 
#    z -0.140840 0.000010 3.416290 
# 
# 
# High freq. dielectric constant tensor:
#      x y z
#    x 1.702580 0.000000 -0.009760 
#    y 0.000000 1.716330 0.000000 
#    z -0.009760 0.000000 1.699760 
# 
# From -- ./inp_files/257199.got.cif
#   From: 2010.06.25/outbox.cif.g09.slc.cpg/sg15_129_cif.got.tgz:257199.got - 2010.06.28 07:06:18.
