data_PCOD8133323
_publ_section_title
;
Structure prediction by ZEFSAII (Michael W. Deem and Ramdas Pophale) SiO2 
 PCOD8133323
Probable space group: C 2/C
;
_chemical_formula_sum "Si O2"
_cell_formula_units_Z 60
_cell_length_a 16.638184
_cell_length_b 31.115873
_cell_length_c 18.813007
_cell_angle_alpha 90.000000
_cell_angle_beta 157.286374
_cell_angle_gamma 90.000000
_cell_volume 3760.750595
_symmetry_space_group_name_H-M "C 2/C"
_symmetry_group_IT_number 15
_symmetry_cell_setting 'monoclinic'
loop_
_space_group_symop_operation_xyz
x,y,z
-x,y,1/2-z
-x,-y,-z
x,-y,1/2+z
1/2+x,1/2+y,z
1/2-x,1/2+y,1/2-z
1/2-x,1/2-y,-z
1/2+x,1/2-y,1/2+z
loop_
_atom_site_type_symbol
_atom_site_label
_atom_site_fract_x
_atom_site_fract_y
_atom_site_fract_z
Si Si1 0.667755 0.475095 0.940947
Si Si2 0.931092 0.027532 0.510010
Si Si3 0.500000 0.090333 0.750000
Si Si4 0.087893 0.805653 0.744399
Si Si5 0.652964 0.936133 0.148930
Si Si6 0.972874 0.641376 0.581403
Si Si7 0.826434 0.289771 0.170566
Si Si8 0.005980 0.516968 0.393100
O O1 0.500000 0.453962 0.750000
O O2 0.532941 0.501100 0.888152
O O3 0.794505 0.439149 0.088013
O O4 0.819994 0.507612 0.023687
O O5 0.689577 0.040254 0.305216
O O6 0.094690 0.066913 0.645029
O O7 0.000000 0.000000 0.500000
O O8 0.467116 0.118444 0.653309
O O9 0.203654 0.759779 0.832320
O O10 0.000000 0.810769 0.750000
O O11 0.894943 0.809486 0.533234
O O12 0.250221 0.844742 0.866871
O O13 0.572339 0.889122 0.103350
O O14 0.561215 0.971130 0.128904
O O15 0.581244 0.948714 0.011795
O O16 0.105436 0.684508 0.703342
O O17 0.000000 0.293742 0.250000
#
# Coordination Sequence:
#
# PCOD8133323 Si02
#       8
#     8   8   4   8   8   8   8   8
#     4  12  21  34  55  73  96 139 182 217 257 307
#     4  10  19  33  53  68  94 134 167 212 262 305
#     4  12  22  34  44  78  98 122 178 230 248 294
#     4  11  19  34  53  70  94 135 170 214 266 312
#     4  10  21  34  47  71  99 130 170 216 260 296
#     4  12  22  34  48  75 104 126 173 229 257 299
#     4  11  19  34  53  70  95 131 174 212 262 316
#     4  10  19  36  51  67  97 133 174 209 257 308
#
# _framework density 15.954262
#
# number of rings (size 3 to 8) (size 9 to 14) (size 15 to 20)
#    0.000    1.067    7.333    1.600    0.000    2.667 
#    0.000    0.000    0.000    0.000    0.000    0.000 
#    0.000    0.000    0.000    4.800    0.000    0.267 
#
# Total GULP energy -371842.797648 kJ/mol
# GULP energy per Si atom -12394.759922 kJ/mol
# Density = 1.591795 g / cm^3
# Si number density = 15.954262 Si / 1000 Ang^3
#
#
#
# Elastic Constant Matrix: (Units=GPa)
#
#
# Indices 1 2 3 4 5 6 
#
# 1 54.6442 26.3235 17.9806 0.0011 1.7975 -0.0005
# 2 26.3235 77.9615 38.9081 0.0002 7.5067 0.0001
# 3 17.9806 38.9081 126.7588 0.0001 -1.7884 -0.0045
# 4 0.0011 0.0002 0.0001 34.7068 0.0004 1.6853
# 5 1.7975 7.5067 -1.7884 0.0004 19.6550 -0.0008
# 6 -0.0005 0.0001 -0.0045 1.6853 -0.0008 21.4971
#
#
#
# Elastic Compliance Matrix: (Units=1/GPa)
#
#
# Indices 1 2 3 4 5 6 
#
# 1 0.021966 -0.006992 -0.000962 -0.000001 0.000574 0.000000
# 2 -0.006992 0.018171 -0.004681 0.000000 -0.006727 -0.000001
# 3 -0.000962 -0.004681 0.009501 0.000000 0.002740 0.000002
# 4 -0.000001 0.000000 0.000000 0.028923 -0.000001 -0.002268
# 5 0.000574 -0.006727 0.002740 -0.000001 0.053644 0.000003
# 6 0.000000 -0.000001 0.000002 -0.002268 0.000003 0.046696
#
#
# Mechanical properties :
#
#
# Convention : Reuss Voigt Hill
#
# Bulk Modulus (GPa) = 41.03513 47.30987 44.17250
# Shear Modulus (GPa) = 23.55243 26.91525 25.23384
#
# Velocity S-wave (km/s) = 3.84636 4.11180 3.98129
# Velocity P-wave (km/s) = 6.74554 7.22913 6.99152
#
# Compressibility (1/GPa) = 0.02436937
#
# Stress axis : x y z
#
# Youngs Moduli (GPa) = 45.52482 55.03148 105.25452
#
# Poissons Ratio (x) = 0.38479 0.10121
# Poissons Ratio (y) = 0.31832 0.49267
# Poissons Ratio (z) = 0.04377 0.25759
#
# Static dielectric constant tensor:
#      x y z
#    x 2.832390 0.000000 -0.009620 
#    y 0.000000 3.031130 0.000000 
#    z -0.009620 0.000000 3.414880 
# 
# 
# High freq. dielectric constant tensor:
#      x y z
#    x 1.575150 0.000000 -0.010730 
#    y 0.000000 1.581330 0.000000 
#    z -0.010730 0.000000 1.642980 
# 
# From -- ./inp_files/250510.got.cif
#   From: 2010.06.25/outbox.cif.g09.slc.cpg/sg15_126_cif.got.tgz:250510.got - 2010.06.28 07:06:18.
