data_PCOD8133914
_publ_section_title
;
Structure prediction by ZEFSAII (Michael W. Deem and Ramdas Pophale) SiO2 
 PCOD8133914
Probable space group: C 2/C
;
_chemical_formula_sum "Si O2"
_cell_formula_units_Z 64
_cell_length_a 28.903863
_cell_length_b 18.968922
_cell_length_c 12.603682
_cell_angle_alpha 90.000000
_cell_angle_beta 152.041613
_cell_angle_gamma 90.000000
_cell_volume 3239.750219
_symmetry_space_group_name_H-M "C 2/C"
_symmetry_group_IT_number 15
_symmetry_cell_setting 'monoclinic'
loop_
_space_group_symop_operation_xyz
x,y,z
-x,y,1/2-z
-x,-y,-z
x,-y,1/2+z
1/2+x,1/2+y,z
1/2-x,1/2+y,1/2-z
1/2-x,1/2-y,-z
1/2+x,1/2-y,1/2+z
loop_
_atom_site_type_symbol
_atom_site_label
_atom_site_fract_x
_atom_site_fract_y
_atom_site_fract_z
Si Si1 0.575905 0.818731 0.670958
Si Si2 0.911113 0.094571 0.995563
Si Si3 0.287351 0.808283 0.744695
Si Si4 0.448849 0.564951 0.538370
Si Si5 0.777685 0.164692 0.163515
Si Si6 0.715315 0.848668 0.129660
Si Si7 0.898442 0.159470 0.754916
Si Si8 0.136761 0.685324 0.690345
O O1 0.613748 0.821934 0.625284
O O2 0.571682 0.739366 0.708849
O O3 0.462848 0.842074 0.454722
O O4 0.645438 0.867382 0.887267
O O5 0.803266 0.094508 0.834046
O O6 0.883540 0.151474 0.849921
O O7 0.000000 0.123368 0.250000
O O8 0.943413 0.018960 0.015850
O O9 0.298365 0.829970 0.890761
O O10 0.262344 0.726396 0.695105
O O11 0.200521 0.854720 0.513439
O O12 0.500000 0.588904 0.750000
O O13 0.338918 0.593943 0.305924
O O14 0.517868 0.600465 0.591100
O O15 0.853523 0.230451 0.308274
O O16 0.722123 0.157819 0.940346
O O17 0.647637 0.849756 0.097321
#
# Coordination Sequence:
#
# PCOD8133914 Si02
#       8
#     8   8   8   8   8   8   8   8
#     4  11  19  35  61  87 110 151 192 238 293 349
#     4  11  24  36  54  87 119 156 191 232 294 355
#     4  10  19  34  60  80 114 152 189 243 287 345
#     4  11  22  37  58  81 118 158 192 227 289 361
#     4  10  21  37  52  85 117 146 189 243 297 342
#     4  10  20  37  54  84 117 148 192 237 291 348
#     4  11  19  36  56  85 116 148 190 237 284 357
#     4  10  22  34  57  85 113 148 188 247 302 336
#
# _framework density 19.754608999999999
#
# number of rings (size 3 to 8) (size 9 to 14) (size 15 to 20)
#    0.000    1.500    5.000    1.500    1.750    1.500 
#    0.000    0.000    0.000    0.750    3.250    0.000 
#    0.000    0.000    0.000    0.000    0.000    0.000 
#
# Total GULP energy -396491.103885 kJ/mol
# GULP energy per Si atom -12390.346996 kJ/mol
# Density = 1.970965 g / cm^3
# Si number density = 19.754609 Si / 1000 Ang^3
#
#
#
# Elastic Constant Matrix: (Units=GPa)
#
#
# Indices 1 2 3 4 5 6 
#
# 1 121.0318 8.9723 28.2297 0.0000 9.2865 0.0000
# 2 8.9723 38.6019 22.8027 0.0000 3.8220 0.0000
# 3 28.2297 22.8027 70.3623 0.0000 -0.0366 0.0000
# 4 0.0000 0.0000 0.0000 23.9126 0.0000 5.6542
# 5 9.2865 3.8220 -0.0366 0.0000 41.6278 0.0000
# 6 0.0000 0.0000 0.0000 5.6542 0.0000 11.4713
#
#
#
# Elastic Compliance Matrix: (Units=1/GPa)
#
#
# Indices 1 2 3 4 5 6 
#
# 1 0.009294 0.000311 -0.003831 0.000000 -0.002105 0.000000
# 2 0.000311 0.032416 -0.010632 0.000000 -0.003055 0.000000
# 3 -0.003831 -0.010632 0.019196 0.000000 0.001848 0.000000
# 4 0.000000 0.000000 0.000000 0.047336 0.000000 -0.023332
# 5 -0.002105 -0.003055 0.001848 0.000000 0.024774 0.000000
# 6 0.000000 0.000000 0.000000 -0.023332 0.000000 0.098674
#
#
# Mechanical properties :
#
#
# Convention : Reuss Voigt Hill
#
# Bulk Modulus (GPa) = 30.67202 38.88950 34.78076
# Shear Modulus (GPa) = 18.45968 26.73508 22.59738
#
# Velocity S-wave (km/s) = 3.06019 3.68279 3.38583
# Velocity P-wave (km/s) = 5.29590 6.14923 5.73845
#
# Compressibility (1/GPa) = 0.03260300
#
# Stress axis : x y z
#
# Youngs Moduli (GPa) = 107.59315 30.84902 52.09549
#
# Poissons Ratio (x) = -0.00960 0.19957
# Poissons Ratio (y) = -0.03347 0.55386
# Poissons Ratio (z) = 0.41217 0.32798
#
# Static dielectric constant tensor:
#      x y z
#    x 3.782270 0.000000 -0.067970 
#    y 0.000000 3.098710 0.000000 
#    z -0.067970 0.000000 3.587800 
# 
# 
# High freq. dielectric constant tensor:
#      x y z
#    x 1.785980 0.000000 -0.004480 
#    y 0.000000 1.715800 0.000000 
#    z -0.004480 0.000000 1.765160 
# 
# From -- ./inp_files/127320.got.cif
#   From: 2010.06.25/outbox.cif.g09.slc.cpg/sg15_64_cif.got.tgz:127320.got - 2010.06.28 07:06:18.
