data_PCOD8133925
_publ_section_title
;
Structure prediction by ZEFSAII (Michael W. Deem and Ramdas Pophale) SiO2 
 PCOD8133925
Probable space group: C 2/C
;
_chemical_formula_sum "Si O2"
_cell_formula_units_Z 64
_cell_length_a 28.890123
_cell_length_b 18.198899
_cell_length_c 11.366603
_cell_angle_alpha 90.000000
_cell_angle_beta 33.635818
_cell_angle_gamma 90.000000
_cell_volume 3310.290267
_symmetry_space_group_name_H-M "C 2/C"
_symmetry_group_IT_number 15
_symmetry_cell_setting 'monoclinic'
loop_
_space_group_symop_operation_xyz
x,y,z
-x,y,1/2-z
-x,-y,-z
x,-y,1/2+z
1/2+x,1/2+y,z
1/2-x,1/2+y,1/2-z
1/2-x,1/2-y,-z
1/2+x,1/2-y,1/2+z
loop_
_atom_site_type_symbol
_atom_site_label
_atom_site_fract_x
_atom_site_fract_y
_atom_site_fract_z
Si Si1 0.098031 0.271168 0.520658
Si Si2 0.030512 0.254125 0.311679
Si Si3 0.368151 0.223177 0.290650
Si Si4 0.316256 0.619491 0.194256
Si Si5 0.316986 0.812196 0.380692
Si Si6 0.371239 0.505302 0.731873
Si Si7 0.473358 0.582184 0.179693
Si Si8 0.770279 0.866959 0.522294
O O1 0.144051 0.291819 0.544636
O O2 0.120538 0.188823 0.427981
O O3 0.132160 0.327867 0.348499
O O4 0.000000 0.278000 0.750000
O O5 0.118900 0.290482 0.152253
O O6 0.044544 0.167760 0.279522
O O7 0.000000 0.283158 0.250000
O O8 0.965151 0.276728 0.550948
O O9 0.323409 0.158926 0.310469
O O10 0.330576 0.303517 0.342152
O O11 0.237687 0.620782 0.451971
O O12 0.365307 0.545340 0.127077
O O13 0.281243 0.618197 0.136963
O O14 0.250000 0.750000 0.500000
O O15 0.448916 0.562039 0.567992
O O16 0.387943 0.454483 0.811400
O O17 0.288973 0.555675 0.918611
O O18 0.500000 0.551478 0.250000
#
# Coordination Sequence:
#
# PCOD8133925 Si02
#       8
#     8   8   8   8   8   8   8   8
#     4  10  19  34  60  86 115 149 194 242 295 349
#     4  11  20  34  58  85 117 149 194 246 299 345
#     4  10  20  36  58  83 111 155 194 252 286 346
#     4  10  22  36  56  83 120 161 189 238 289 358
#     4  10  20  36  54  87 117 152 197 243 294 345
#     4  11  21  36  54  79 117 160 195 231 285 371
#     4  10  21  33  50  82 117 153 190 234 290 354
#     4  10  21  38  55  82 117 154 203 236 295 341
#
# _framework density 19.333652000000001
#
# number of rings (size 3 to 8) (size 9 to 14) (size 15 to 20)
#    0.000    1.750    2.500    3.000    0.000    2.500 
#    4.500    0.000    0.000    0.750    0.000    0.000 
#    0.000    0.000    0.000    0.000    0.000    0.000 
#
# Total GULP energy -396641.705396 kJ/mol
# GULP energy per Si atom -12395.053294 kJ/mol
# Density = 1.928965 g / cm^3
# Si number density = 19.333652 Si / 1000 Ang^3
#
#
#
# Elastic Constant Matrix: (Units=GPa)
#
#
# Indices 1 2 3 4 5 6 
#
# 1 104.9406 23.8955 10.4321 0.0000 0.2699 0.0000
# 2 23.8955 50.6224 12.5915 0.0000 -1.7780 0.0000
# 3 10.4321 12.5915 83.2517 0.0000 -0.3202 0.0000
# 4 0.0000 0.0000 0.0000 24.8518 0.0000 0.1451
# 5 0.2699 -1.7780 -0.3202 0.0000 34.2896 0.0000
# 6 0.0000 0.0000 0.0000 0.1451 0.0000 24.3725
#
#
#
# Elastic Compliance Matrix: (Units=1/GPa)
#
#
# Indices 1 2 3 4 5 6 
#
# 1 0.010710 -0.004918 -0.000599 0.000000 -0.000345 0.000000
# 2 -0.004918 0.022822 -0.002831 0.000000 0.001196 0.000000
# 3 -0.000599 -0.002831 0.012515 0.000000 -0.000025 0.000000
# 4 0.000000 0.000000 0.000000 0.040240 0.000000 -0.000240
# 5 -0.000345 0.001196 -0.000025 0.000000 0.029228 0.000000
# 6 0.000000 0.000000 0.000000 -0.000240 0.000000 0.041031
#
#
# Mechanical properties :
#
#
# Convention : Reuss Voigt Hill
#
# Bulk Modulus (GPa) = 34.07243 36.96142 35.51692
# Shear Modulus (GPa) = 27.31857 29.49581 28.40719
#
# Velocity S-wave (km/s) = 3.76308 3.91016 3.83732
# Velocity P-wave (km/s) = 6.04505 6.28848 6.16796
#
# Compressibility (1/GPa) = 0.02934924
#
# Stress axis : x y z
#
# Youngs Moduli (GPa) = 93.37420 43.81769 79.90449
#
# Poissons Ratio (x) = 0.21551 0.04790
# Poissons Ratio (y) = 0.45924 0.22619
# Poissons Ratio (z) = 0.05597 0.12404
#
# Static dielectric constant tensor:
#      x y z
#    x 3.724790 0.000000 0.140400 
#    y 0.000000 3.283080 0.000000 
#    z 0.140400 0.000000 3.678600 
# 
# 
# High freq. dielectric constant tensor:
#      x y z
#    x 1.767290 0.000000 0.005920 
#    y 0.000000 1.708830 0.000000 
#    z 0.005920 0.000000 1.746990 
# 
# From -- ./inp_files/127292.got.cif
#   From: 2010.06.25/outbox.cif.g09.slc.cpg/sg15_64_cif.got.tgz:127292.got - 2010.06.28 07:06:18.
