data_PCOD8133587
_publ_section_title
;
Structure prediction by ZEFSAII (Michael W. Deem and Ramdas Pophale) SiO2 
 PCOD8133587
Probable space group: C 2/C
;
_chemical_formula_sum "Si O2"
_cell_formula_units_Z 56
_cell_length_a 11.083625
_cell_length_b 12.193493
_cell_length_c 24.253860
_cell_angle_alpha 90.000000
_cell_angle_beta 55.465403
_cell_angle_gamma 90.000000
_cell_volume 2700.251330
_symmetry_space_group_name_H-M "C 2/C"
_symmetry_group_IT_number 15
_symmetry_cell_setting 'monoclinic'
loop_
_space_group_symop_operation_xyz
x,y,z
-x,y,1/2-z
-x,-y,-z
x,-y,1/2+z
1/2+x,1/2+y,z
1/2-x,1/2+y,1/2-z
1/2-x,1/2-y,-z
1/2+x,1/2-y,1/2+z
loop_
_atom_site_type_symbol
_atom_site_label
_atom_site_fract_x
_atom_site_fract_y
_atom_site_fract_z
Si Si1 0.675806 0.593237 0.988539
Si Si2 0.196672 0.714218 0.897557
Si Si3 0.597278 0.357822 0.015025
Si Si4 0.143339 0.681584 0.239380
Si Si5 0.077834 0.103278 0.287569
Si Si6 0.075291 0.736021 0.596723
Si Si7 0.488465 0.626323 0.844521
O O1 0.524762 0.610280 0.997074
O O2 0.811742 0.639004 0.916689
O O3 0.699848 0.465302 0.997162
O O4 0.666892 0.662886 0.047201
O O5 0.247363 0.806875 0.840843
O O6 0.321248 0.620455 0.864227
O O7 0.037342 0.677492 0.917403
O O8 0.190868 0.760302 0.962203
O O9 0.519771 0.322122 0.091996
O O10 0.243033 0.617265 0.259174
O O11 0.000000 0.619854 0.250000
O O12 0.088768 0.796189 0.280346
O O13 0.000000 0.078487 0.250000
O O14 0.006644 0.216022 0.328594
O O15 0.050084 0.996323 0.332329
#
# Coordination Sequence:
#
# PCOD8133587 Si02
#       7
#     8   8   8   8   8   8   8
#     4   9  18  33  57  84 115 146 184 239 287 331
#     4   9  19  37  58  81 114 154 188 234 287 346
#     4  10  19  33  61  88 109 149 200 233 282 346
#     4   9  21  41  60  82 117 158 191 235 292 347
#     4  11  22  37  61  87 115 152 196 240 292 346
#     4   9  18  36  56  82 117 150 184 232 292 338
#     4  11  21  39  60  82 118 153 190 238 295 345
#
# _framework density 20.738810999999998
#
# number of rings (size 3 to 8) (size 9 to 14) (size 15 to 20)
#    0.000    2.286    1.429    1.714    4.000    0.000 
#    0.000   10.000    0.000    0.000    0.000    0.000 
#    0.000    0.000    0.000    0.000    0.000    0.000 
#
# Total GULP energy -346879.379829 kJ/mol
# GULP energy per Si atom -12388.549280 kJ/mol
# Density = 2.069161 g / cm^3
# Si number density = 20.738811 Si / 1000 Ang^3
#
#
#
# Elastic Constant Matrix: (Units=GPa)
#
#
# Indices 1 2 3 4 5 6 
#
# 1 81.5277 34.3476 16.1291 0.0000 -18.3208 0.0000
# 2 34.3476 64.0874 16.9765 0.0000 -17.4285 0.0000
# 3 16.1291 16.9765 93.4076 0.0000 2.4380 0.0000
# 4 0.0000 0.0000 0.0000 26.2918 0.0000 -5.4501
# 5 -18.3208 -17.4285 2.4380 0.0000 33.6239 0.0000
# 6 0.0000 0.0000 0.0000 -5.4501 0.0000 25.7743
#
#
#
# Elastic Compliance Matrix: (Units=1/GPa)
#
#
# Indices 1 2 3 4 5 6 
#
# 1 0.016849 -0.007015 -0.001782 0.000000 0.005674 0.000000
# 2 -0.007015 0.022344 -0.003058 0.000000 0.007981 0.000000
# 3 -0.001782 -0.003058 0.011658 0.000000 -0.003402 0.000000
# 4 0.000000 0.000000 0.000000 0.039778 0.000000 0.008411
# 5 0.005674 0.007981 -0.003402 0.000000 0.037216 0.000000
# 6 0.000000 0.000000 0.000000 0.008411 0.000000 0.040577
#
#
# Mechanical properties :
#
#
# Convention : Reuss Voigt Hill
#
# Bulk Modulus (GPa) = 36.84605 41.54768 39.19686
# Shear Modulus (GPa) = 24.85347 28.57597 26.71472
#
# Velocity S-wave (km/s) = 3.46555 3.71603 3.59298
# Velocity P-wave (km/s) = 5.81538 6.20396 6.01281
#
# Compressibility (1/GPa) = 0.02713995
#
# Stress axis : x y z
#
# Youngs Moduli (GPa) = 59.35143 44.75501 85.77728
#
# Poissons Ratio (x) = 0.31396 0.15290
# Poissons Ratio (y) = 0.41635 0.26230
# Poissons Ratio (z) = 0.10579 0.13686
#
# Static dielectric constant tensor:
#      x y z
#    x 3.998730 0.000000 -0.070810 
#    y 0.000000 3.574810 0.000000 
#    z -0.070810 0.000000 3.747510 
# 
# 
# High freq. dielectric constant tensor:
#      x y z
#    x 1.818850 0.000000 -0.003770 
#    y 0.000000 1.773440 0.000000 
#    z -0.003770 0.000000 1.808740 
# 
# From -- ./inp_files/236996.got.cif
#   From: 2010.06.25/outbox.cif.g09.slc.cpg/sg15_119_cif.got.tgz:236996.got - 2010.06.28 07:06:18.
