data_PCOD8133539
_publ_section_title
;
Structure prediction by ZEFSAII (Michael W. Deem and Ramdas Pophale) SiO2 
 PCOD8133539
Probable space group: C 2/C
;
_chemical_formula_sum "Si O2"
_cell_formula_units_Z 32
_cell_length_a 10.536808
_cell_length_b 8.835741
_cell_length_c 19.980691
_cell_angle_alpha 90.000000
_cell_angle_beta 138.552967
_cell_angle_gamma 90.000000
_cell_volume 1231.325581
_symmetry_space_group_name_H-M "C 2/C"
_symmetry_group_IT_number 15
_symmetry_cell_setting 'monoclinic'
loop_
_space_group_symop_operation_xyz
x,y,z
-x,y,1/2-z
-x,-y,-z
x,-y,1/2+z
1/2+x,1/2+y,z
1/2-x,1/2+y,1/2-z
1/2-x,1/2-y,-z
1/2+x,1/2-y,1/2+z
loop_
_atom_site_type_symbol
_atom_site_label
_atom_site_fract_x
_atom_site_fract_y
_atom_site_fract_z
Si Si1 0.606284 0.925883 0.979417
Si Si2 0.607445 0.640404 0.357262
Si Si3 0.067176 0.863883 0.071635
Si Si4 0.597538 0.078324 0.716675
O O1 0.620162 0.742067 0.988759
O O2 0.474996 0.952658 0.862690
O O3 0.500000 0.000000 0.000000
O O4 0.817568 0.006872 0.062378
O O5 0.500000 0.567880 0.250000
O O6 0.783088 0.749835 0.404876
O O7 0.460203 0.755015 0.336032
O O8 0.171683 0.929274 0.180459
O O9 0.000000 0.000000 0.000000
O O10 0.500000 0.051297 0.750000
#
# Coordination Sequence:
#
# PCOD8133539 Si02
#       4
#     8   8   8   8
#     4  10  19  33  58  86 108 151 203 239 286 348
#     4   8  17  35  56  82 116 157 196 234 284 343
#     4   9  19  35  56  84 116 149 189 245 296 341
#     4   9  19  37  57  80 117 159 194 242 295 344
#
# _framework density 25.988253
#
# number of rings (size 3 to 8) (size 9 to 14) (size 15 to 20)
#    0.000    3.500    0.000    0.750    0.000    4.000 
#    0.000   17.500    0.000    0.000    0.000    0.000 
#    0.000    0.000    0.000    0.000    0.000    0.000 
#
# Total GULP energy -198218.402150 kJ/mol
# GULP energy per Si atom -12388.650134 kJ/mol
# Density = 2.592910 g / cm^3
# Si number density = 25.988253 Si / 1000 Ang^3
#
#
#
# Elastic Constant Matrix: (Units=GPa)
#
#
# Indices 1 2 3 4 5 6 
#
# 1 31.7345 2.8242 27.7308 0.0000 1.3341 0.0000
# 2 2.8242 192.3891 129.1837 0.0000 -13.1151 0.0000
# 3 27.7308 129.1837 220.2492 0.0000 7.5251 0.0000
# 4 0.0000 0.0000 0.0000 49.1070 0.0000 -5.3292
# 5 1.3341 -13.1151 7.5251 0.0000 39.7101 0.0000
# 6 0.0000 0.0000 0.0000 -5.3292 0.0000 10.1505
#
#
#
# Elastic Compliance Matrix: (Units=1/GPa)
#
#
# Indices 1 2 3 4 5 6 
#
# 1 0.037564 0.004580 -0.007473 0.000000 0.001667 0.000000
# 2 0.004580 0.009747 -0.006440 0.000000 0.004286 0.000000
# 3 -0.007473 -0.006440 0.009383 0.000000 -0.003654 0.000000
# 4 0.000000 0.000000 0.000000 0.021594 0.000000 0.011337
# 5 0.001667 0.004286 -0.003654 0.000000 0.027234 0.000000
# 6 0.000000 0.000000 0.000000 0.011337 0.000000 0.104470
#
#
# Mechanical properties :
#
#
# Convention : Reuss Voigt Hill
#
# Bulk Modulus (GPa) = 26.29611 84.87222 55.58416
# Shear Modulus (GPa) = 20.71817 38.76913 29.74365
#
# Velocity S-wave (km/s) = 2.82656 3.86657 3.38672
# Velocity P-wave (km/s) = 4.55994 7.25690 6.06035
#
# Compressibility (1/GPa) = 0.03802844
#
# Stress axis : x y z
#
# Youngs Moduli (GPa) = 26.62138 102.59552 106.57206
#
# Poissons Ratio (x) = -0.46988 0.79639
# Poissons Ratio (y) = -0.12192 0.68633
# Poissons Ratio (z) = 0.19894 0.66072
#
# Static dielectric constant tensor:
#      x y z
#    x 4.487640 0.000000 -0.332500 
#    y 0.000000 5.284480 0.000000 
#    z -0.332500 0.000000 -1.643650 
# 
# 
# High freq. dielectric constant tensor:
#      x y z
#    x 2.017400 0.000000 0.019970 
#    y 0.000000 2.043650 0.000000 
#    z 0.019970 0.000000 2.058520 
# 
# From -- ./inp_files/172183.got.cif
#   From: 2010.06.25/outbox.cif.g09.slc.cpg/sg15_87_cif.got.tgz:172183.got - 2010.06.28 07:06:18.
