data_PCOD8133886
_publ_section_title
;
Structure prediction by ZEFSAII (Michael W. Deem and Ramdas Pophale) SiO2 
 PCOD8133886
Probable space group: C 2/C
;
_chemical_formula_sum "Si O2"
_cell_formula_units_Z 44
_cell_length_a 26.008473
_cell_length_b 17.780094
_cell_length_c 14.741799
_cell_angle_alpha 90.000000
_cell_angle_beta 159.837676
_cell_angle_gamma 90.000000
_cell_volume 2349.723370
_symmetry_space_group_name_H-M "C 2/C"
_symmetry_group_IT_number 15
_symmetry_cell_setting 'monoclinic'
loop_
_space_group_symop_operation_xyz
x,y,z
-x,y,1/2-z
-x,-y,-z
x,-y,1/2+z
1/2+x,1/2+y,z
1/2-x,1/2+y,1/2-z
1/2-x,1/2-y,-z
1/2+x,1/2-y,1/2+z
loop_
_atom_site_type_symbol
_atom_site_label
_atom_site_fract_x
_atom_site_fract_y
_atom_site_fract_z
Si Si1 0.189836 0.530195 0.386075
Si Si2 0.971749 0.914170 0.432213
Si Si3 0.362179 0.027076 0.895323
Si Si4 0.895998 0.860924 0.499186
Si Si5 0.500000 0.782820 0.250000
Si Si6 0.288349 0.911234 0.929464
O O1 0.316869 0.592746 0.619240
O O2 0.197873 0.515421 0.292639
O O3 0.222414 0.452494 0.491826
O O4 0.027827 0.559254 0.151010
O O5 0.963044 0.869531 0.511158
O O6 0.118824 0.886616 0.620371
O O7 0.000000 0.000000 0.500000
O O8 0.265157 0.099752 0.761876
O O9 0.361528 0.965333 0.974558
O O10 0.000000 0.898556 0.750000
O O11 0.897359 0.770222 0.515479
O O12 0.615640 0.837106 0.390368
#
# Coordination Sequence:
#
# PCOD8133886 Si02
#       6
#     8   8   8   8   4   8
#     4  10  21  34  60  95 110 155 205 255 291 344
#     4  10  19  34  59  86 121 151 205 248 297 343
#     4  11  20  35  62  88 122 154 207 247 291 360
#     4  10  21  36  57  92 117 155 197 250 297 355
#     4  10  24  38  58  90 128 158 196 246 320 358
#     4  11  20  39  59  88 123 159 197 250 302 359
#
# _framework density 18.725608000000001
#
# number of rings (size 3 to 8) (size 9 to 14) (size 15 to 20)
#    0.545    1.091    5.455    2.182    0.000    0.727 
#    0.000    0.000    0.000    6.545    0.000    0.000 
#    0.000    0.000    0.000    0.000    0.000    0.000 
#
# Total GULP energy -272548.787204 kJ/mol
# GULP energy per Si atom -12388.581237 kJ/mol
# Density = 1.868299 g / cm^3
# Si number density = 18.725608 Si / 1000 Ang^3
#
#
#
# Elastic Constant Matrix: (Units=GPa)
#
#
# Indices 1 2 3 4 5 6 
#
# 1 69.8749 19.4231 23.2770 0.0000 2.1238 0.0000
# 2 19.4231 89.0565 31.6524 0.0000 7.2367 0.0000
# 3 23.2770 31.6524 106.4877 0.0000 13.5758 0.0000
# 4 0.0000 0.0000 0.0000 30.5766 0.0000 1.6364
# 5 2.1238 7.2367 13.5758 0.0000 39.0153 0.0000
# 6 0.0000 0.0000 0.0000 1.6364 0.0000 16.9647
#
#
#
# Elastic Compliance Matrix: (Units=1/GPa)
#
#
# Indices 1 2 3 4 5 6 
#
# 1 0.015930 -0.002524 -0.002805 0.000000 0.000577 0.000000
# 2 -0.002524 0.012999 -0.003162 0.000000 -0.001173 0.000000
# 3 -0.002805 -0.003162 0.011353 0.000000 -0.003211 0.000000
# 4 0.000000 0.000000 0.000000 0.032874 0.000000 -0.003171
# 5 0.000577 -0.001173 -0.003211 0.000000 0.026935 0.000000
# 6 0.000000 0.000000 0.000000 -0.003171 0.000000 0.059252
#
#
# Mechanical properties :
#
#
# Convention : Reuss Voigt Hill
#
# Bulk Modulus (GPa) = 42.92198 46.01380 44.46789
# Shear Modulus (GPa) = 27.16024 30.04911 28.60467
#
# Velocity S-wave (km/s) = 3.81259 4.01022 3.91265
# Velocity P-wave (km/s) = 6.50787 6.78738 6.64910
#
# Compressibility (1/GPa) = 0.02329809
#
# Stress axis : x y z
#
# Youngs Moduli (GPa) = 62.77491 76.93108 88.07956
#
# Poissons Ratio (x) = 0.19418 0.24710
# Poissons Ratio (y) = 0.15845 0.27854
# Poissons Ratio (z) = 0.17611 0.24329
#
# Static dielectric constant tensor:
#      x y z
#    x 3.419030 0.000000 0.254910 
#    y 0.000000 2.985850 0.000000 
#    z 0.254910 0.000000 4.291360 
# 
# 
# High freq. dielectric constant tensor:
#      x y z
#    x 1.727350 0.000000 0.015040 
#    y 0.000000 1.677600 0.000000 
#    z 0.015040 0.000000 1.746090 
# 
# From -- ./inp_files/178818.got.cif
#   From: 2010.06.25/outbox.cif.g09.slc.cpg/sg15_90_cif.got.tgz:178818.got - 2010.06.28 07:06:18.
