data_PCOD8133272
_publ_section_title
;
Structure prediction by ZEFSAII (Michael W. Deem and Ramdas Pophale) SiO2 
 PCOD8133272
Probable space group: C 2/C
;
_chemical_formula_sum "Si O2"
_cell_formula_units_Z 32
_cell_length_a 13.556206
_cell_length_b 25.774409
_cell_length_c 5.142646
_cell_angle_alpha 90.000000
_cell_angle_beta 102.816740
_cell_angle_gamma 90.000000
_cell_volume 1752.087518
_symmetry_space_group_name_H-M "C 2/C"
_symmetry_group_IT_number 15
_symmetry_cell_setting 'monoclinic'
loop_
_space_group_symop_operation_xyz
x,y,z
-x,y,1/2-z
-x,-y,-z
x,-y,1/2+z
1/2+x,1/2+y,z
1/2-x,1/2+y,1/2-z
1/2-x,1/2-y,-z
1/2+x,1/2-y,1/2+z
loop_
_atom_site_type_symbol
_atom_site_label
_atom_site_fract_x
_atom_site_fract_y
_atom_site_fract_z
Si Si1 0.616111 0.967191 0.326426
Si Si2 0.274164 0.862342 0.231654
Si Si3 0.394479 0.779066 0.552008
Si Si4 0.795971 0.183656 0.317677
O O1 0.500000 0.948575 0.250000
O O2 0.688996 0.919499 0.312221
O O3 0.638926 0.988641 0.626877
O O4 0.371748 0.824314 0.325771
O O5 0.207502 0.860599 0.457853
O O6 0.200131 0.843283 0.958979
O O7 0.500000 0.789983 0.750000
O O8 0.306497 0.781044 0.721812
O O9 0.391485 0.722360 0.412456
#
# Coordination Sequence:
#
# PCOD8133272 Si02
#       4
#     8   8   8   8
#     4  10  21  32  46  70  96 124 167 204 230 283
#     4  10  19  33  49  64 101 131 159 192 243 278
#     4   9  20  31  50  71  99 132 160 195 236 286
#     4   9  20  33  45  73  97 128 164 199 225 291
#
# _framework density 18.263928
#
# number of rings (size 3 to 8) (size 9 to 14) (size 15 to 20)
#    1.500    1.000    0.000    2.250    3.500    1.000 
#    0.000    0.000    0.000    0.000    0.000    0.000 
#    0.000   20.000    0.000    0.000    0.000    0.000 
#
# Total GULP energy -198251.215653 kJ/mol
# GULP energy per Si atom -12390.700978 kJ/mol
# Density = 1.822236 g / cm^3
# Si number density = 18.263928 Si / 1000 Ang^3
#
#
#
# Elastic Constant Matrix: (Units=GPa)
#
#
# Indices 1 2 3 4 5 6 
#
# 1 12.4277 3.7601 6.6886 0.0000 -1.8930 0.0000
# 2 3.7601 69.2392 9.7782 0.0000 -0.3298 0.0000
# 3 6.6886 9.7782 102.3962 0.0000 -8.3855 0.0000
# 4 0.0000 0.0000 0.0000 18.5959 0.0000 -2.1342
# 5 -1.8930 -0.3298 -8.3855 0.0000 11.7370 0.0000
# 6 0.0000 0.0000 0.0000 -2.1342 0.0000 11.8627
#
#
#
# Elastic Compliance Matrix: (Units=1/GPa)
#
#
# Indices 1 2 3 4 5 6 
#
# 1 0.085624 -0.003986 -0.004345 0.000000 0.010594 0.000000
# 2 -0.003986 0.014830 -0.001247 0.000000 -0.001117 0.000000
# 3 -0.004345 -0.001247 0.010737 0.000000 0.006935 0.000000
# 4 0.000000 0.000000 0.000000 0.054909 0.000000 0.009879
# 5 0.010594 -0.001117 0.006935 0.000000 0.091832 0.000000
# 6 0.000000 0.000000 0.000000 0.009879 0.000000 0.086075
#
#
# Mechanical properties :
#
#
# Convention : Reuss Voigt Hill
#
# Bulk Modulus (GPa) = 10.86548 24.94632 17.90590
# Shear Modulus (GPa) = 12.69547 19.36153 16.02850
#
# Velocity S-wave (km/s) = 2.63936 3.25944 2.96565
# Velocity P-wave (km/s) = 3.90517 5.27767 4.64242
#
# Compressibility (1/GPa) = 0.09203455
#
# Stress axis : x y z
#
# Youngs Moduli (GPa) = 11.67901 67.43101 93.13728
#
# Poissons Ratio (x) = 0.26876 0.40467
# Poissons Ratio (y) = 0.04655 0.11617
# Poissons Ratio (z) = 0.05074 0.08411
#
# Static dielectric constant tensor:
#      x y z
#    x 2.843060 0.000000 -0.106280 
#    y 0.000000 3.134460 0.000000 
#    z -0.106280 0.000000 3.427050 
# 
# 
# High freq. dielectric constant tensor:
#      x y z
#    x 1.650140 0.000000 -0.011200 
#    y 0.000000 1.690770 0.000000 
#    z -0.011200 0.000000 1.722570 
# 
# From -- ./inp_files/4437.got.cif
#   From: 2010.06.25/outbox.cif.g09.slc.cpg/sg15_3_cif.got.tgz:4437.got - 2010.06.28 07:06:18.
