data_PCOD8133881
_publ_section_title
;
Structure prediction by ZEFSAII (Michael W. Deem and Ramdas Pophale) SiO2 
 PCOD8133881
Probable space group: C 2/C
;
_chemical_formula_sum "Si O2"
_cell_formula_units_Z 40
_cell_length_a 20.336447
_cell_length_b 11.652035
_cell_length_c 17.950247
_cell_angle_alpha 90.000000
_cell_angle_beta 32.326896
_cell_angle_gamma 90.000000
_cell_volume 2274.559656
_symmetry_space_group_name_H-M "C 2/C"
_symmetry_group_IT_number 15
_symmetry_cell_setting 'monoclinic'
loop_
_space_group_symop_operation_xyz
x,y,z
-x,y,1/2-z
-x,-y,-z
x,-y,1/2+z
1/2+x,1/2+y,z
1/2-x,1/2+y,1/2-z
1/2-x,1/2-y,-z
1/2+x,1/2-y,1/2+z
loop_
_atom_site_type_symbol
_atom_site_label
_atom_site_fract_x
_atom_site_fract_y
_atom_site_fract_z
Si Si1 0.721199 0.402627 0.368290
Si Si2 0.325653 0.663126 0.252866
Si Si3 0.888069 0.575869 0.134070
Si Si4 0.029260 0.824278 0.433493
Si Si5 0.005151 0.995976 0.660039
O O1 0.799228 0.288943 0.311526
O O2 0.813671 0.508461 0.268749
O O3 0.640338 0.386588 0.370611
O O4 0.632945 0.430002 0.522141
O O5 0.197109 0.602697 0.355766
O O6 0.392821 0.590433 0.252060
O O7 0.407384 0.673866 0.100246
O O8 0.936815 0.694916 0.121805
O O9 0.000000 0.500000 0.000000
O O10 0.996370 0.108556 0.617693
O O11 0.000000 0.035891 0.750000
#
# Coordination Sequence:
#
# PCOD8133881 Si02
#       5
#     8   8   8   8   8
#     4  10  19  35  59  84 108 141 193 245 273 317
#     4  10  19  36  59  85 108 141 196 243 271 322
#     4  11  19  31  61  88 108 135 185 250 284 312
#     4  10  19  34  59  85 107 144 193 234 284 322
#     4  11  22  38  57  80 120 158 183 219 284 351
#
# _framework density 17.585823000000001
#
# number of rings (size 3 to 8) (size 9 to 14) (size 15 to 20)
#    0.000    1.600    6.000    1.200    0.000    0.800 
#    0.000    1.000    0.000    0.000    0.000    0.000 
#    0.000    0.000    0.000    0.000    0.000    0.000 
#
# Total GULP energy -248061.388023 kJ/mol
# GULP energy per Si atom -12403.069401 kJ/mol
# Density = 1.754580 g / cm^3
# Si number density = 17.585823 Si / 1000 Ang^3
#
#
#
# Elastic Constant Matrix: (Units=GPa)
#
#
# Indices 1 2 3 4 5 6 
#
# 1 63.8294 38.7844 50.2052 0.0000 7.7588 0.0000
# 2 38.7844 126.1333 62.7086 0.0000 -3.9466 0.0000
# 3 50.2052 62.7086 85.9014 0.0000 -2.9221 0.0000
# 4 0.0000 0.0000 0.0000 38.7233 0.0000 -10.7186
# 5 7.7588 -3.9466 -2.9221 0.0000 27.8261 0.0000
# 6 0.0000 0.0000 0.0000 -10.7186 0.0000 22.1574
#
#
#
# Elastic Compliance Matrix: (Units=1/GPa)
#
#
# Indices 1 2 3 4 5 6 
#
# 1 0.032092 -0.001101 -0.018327 0.000000 -0.011029 0.000000
# 2 -0.001101 0.012501 -0.008441 0.000000 0.001194 0.000000
# 3 -0.018327 -0.008441 0.028751 0.000000 0.006932 0.000000
# 4 0.000000 0.000000 0.000000 0.029817 0.000000 0.014424
# 5 -0.011029 0.001194 0.006932 0.000000 0.039910 0.000000
# 6 0.000000 0.000000 0.000000 0.014424 0.000000 0.052109
#
#
# Mechanical properties :
#
#
# Convention : Reuss Voigt Hill
#
# Bulk Modulus (GPa) = 56.80724 64.36229 60.58477
# Shear Modulus (GPa) = 19.47132 26.01908 22.74520
#
# Velocity S-wave (km/s) = 3.33110 3.85066 3.60026
# Velocity P-wave (km/s) = 6.86789 7.51323 7.19779
#
# Compressibility (1/GPa) = 0.01760339
#
# Stress axis : x y z
#
# Youngs Moduli (GPa) = 31.16036 79.99442 34.78154
#
# Poissons Ratio (x) = 0.08810 0.63746
# Poissons Ratio (y) = 0.03432 0.29361
# Poissons Ratio (z) = 0.57109 0.67527
#
# Static dielectric constant tensor:
#      x y z
#    x 2.892500 0.000000 -0.326670 
#    y 0.000000 3.561230 0.000000 
#    z -0.326670 0.000000 3.396960 
# 
# 
# High freq. dielectric constant tensor:
#      x y z
#    x 1.635070 0.000000 -0.029060 
#    y 0.000000 1.699310 0.000000 
#    z -0.029060 0.000000 1.684830 
# 
# From -- ./inp_files/214960.got.cif
#   From: 2010.06.25/outbox.cif.g09.slc.cpg/sg15_108_cif.got.tgz:214960.got - 2010.06.28 07:06:18.
