data_PCOD8133597
_publ_section_title
;
Structure prediction by ZEFSAII (Michael W. Deem and Ramdas Pophale) SiO2 
 PCOD8133597
Probable space group: C 2/C
;
_chemical_formula_sum "Si O2"
_cell_formula_units_Z 40
_cell_length_a 12.949143
_cell_length_b 8.477097
_cell_length_c 28.346779
_cell_angle_alpha 90.000000
_cell_angle_beta 29.910356
_cell_angle_gamma 90.000000
_cell_volume 1551.611039
_symmetry_space_group_name_H-M "C 2/C"
_symmetry_group_IT_number 15
_symmetry_cell_setting 'monoclinic'
loop_
_space_group_symop_operation_xyz
x,y,z
-x,y,1/2-z
-x,-y,-z
x,-y,1/2+z
1/2+x,1/2+y,z
1/2-x,1/2+y,1/2-z
1/2-x,1/2-y,-z
1/2+x,1/2-y,1/2+z
loop_
_atom_site_type_symbol
_atom_site_label
_atom_site_fract_x
_atom_site_fract_y
_atom_site_fract_z
Si Si1 0.555840 0.353179 0.009983
Si Si2 0.769501 0.799713 0.211194
Si Si3 0.471644 0.487277 0.206602
Si Si4 0.394946 0.053649 0.903098
Si Si5 0.374070 0.846100 0.509154
O O1 0.389574 0.351943 0.117443
O O2 0.539477 0.189171 0.986098
O O3 0.500000 0.500000 0.000000
O O4 0.791693 0.379870 0.935864
O O5 0.710845 0.615661 0.231559
O O6 0.560736 0.905079 0.297187
O O7 0.906131 0.830282 0.204089
O O8 0.500000 0.447468 0.250000
O O9 0.686670 0.549556 0.101673
O O10 0.205029 0.175998 0.976723
O O11 0.486845 0.065765 0.920387
#
# Coordination Sequence:
#
# PCOD8133597 Si02
#       5
#     8   8   8   8   8
#     4  10  19  33  63  98 124 168 224 260 319 394
#     4  11  23  40  66  99 131 177 218 274 326 396
#     4  11  22  42  68  94 132 174 221 269 336 384
#     4   9  19  34  58  94 129 159 220 267 316 381
#     4   9  17  34  61  88 122 171 210 264 323 386
#
# _framework density 25.779657
#
# number of rings (size 3 to 8) (size 9 to 14) (size 15 to 20)
#    0.000    2.000    4.000    0.000    2.800    0.000 
#    0.000    5.000    0.000    0.000    0.000    0.000 
#    0.000    0.000    0.000    0.000    0.000    0.000 
#
# Total GULP energy -247897.095861 kJ/mol
# GULP energy per Si atom -12394.854793 kJ/mol
# Density = 2.572098 g / cm^3
# Si number density = 25.779657 Si / 1000 Ang^3
#
#
#
# Elastic Constant Matrix: (Units=GPa)
#
#
# Indices 1 2 3 4 5 6 
#
# 1 188.3887 58.4001 44.0139 0.0038 17.6604 0.0020
# 2 58.4001 40.6310 55.9570 0.0022 -15.7680 0.0173
# 3 44.0139 55.9570 83.5881 0.0084 39.0403 -0.0023
# 4 0.0038 0.0022 0.0084 15.0782 -0.0027 2.7870
# 5 17.6604 -15.7680 39.0403 -0.0027 34.3231 0.0033
# 6 0.0020 0.0173 -0.0023 2.7870 0.0033 42.7108
#
#
#
# Elastic Compliance Matrix: (Units=1/GPa)
#
#
# Indices 1 2 3 4 5 6 
#
# 1 0.005917 0.001194 -0.005866 0.000003 0.004176 -0.000002
# 2 0.001194 -0.009196 0.016613 -0.000014 -0.023736 0.000007
# 3 -0.005866 0.016613 -0.002227 0.000004 0.013183 -0.000008
# 4 0.000003 -0.000014 0.000004 0.067131 -0.000007 -0.004381
# 5 0.004176 -0.023736 0.013183 -0.000007 0.001087 0.000010
# 6 -0.000002 0.000007 -0.000008 -0.004381 0.000010 0.023699
#
#
# Mechanical properties :
#
#
# Convention : Reuss Voigt Hill
#
# Bulk Modulus (GPa) = 54.41239 69.92775 62.17007
# Shear Modulus (GPa) = 72.82952 28.70486 50.76719
#
# Velocity S-wave (km/s) = 5.32091 3.34049 4.44246
# Velocity P-wave (km/s) = 7.67476 6.48556 7.10509
#
# Compressibility (1/GPa) = 0.01837817
#
# Stress axis : x y z
#
# Youngs Moduli (GPa) = 169.01001 -108.74083 -449.12855
#
# Poissons Ratio (x) = 0.12989 -2.63444
# Poissons Ratio (y) = -0.20188 7.46147
# Poissons Ratio (z) = 0.99136 1.80654
#
# Static dielectric constant tensor:
#      x y z
#    x 2.260180 0.000430 1.519150 
#    y 0.000430 5.380190 -0.000230 
#    z 1.519150 -0.000230 3.702740 
# 
# 
# High freq. dielectric constant tensor:
#      x y z
#    x 2.040570 0.000000 0.001200 
#    y 0.000000 2.026060 0.000000 
#    z 0.001200 0.000000 2.035470 
# 
# From -- ./inp_files/310727.got.cif
#   From: 2010.06.25/outbox.cif.g09.slc.cpg/sg15_156_cif.got.tgz:310727.got - 2010.06.28 07:06:18.
