data_PCOD8133962
_publ_section_title
;
Structure prediction by ZEFSAII (Michael W. Deem and Ramdas Pophale) SiO2 
 PCOD8133962
Probable space group: C 2/C
;
_chemical_formula_sum "Si O2"
_cell_formula_units_Z 64
_cell_length_a 25.556522
_cell_length_b 13.367050
_cell_length_c 18.332514
_cell_angle_alpha 90.000000
_cell_angle_beta 30.122472
_cell_angle_gamma 90.000000
_cell_volume 3142.919762
_symmetry_space_group_name_H-M "C 2/C"
_symmetry_group_IT_number 15
_symmetry_cell_setting 'monoclinic'
loop_
_space_group_symop_operation_xyz
x,y,z
-x,y,1/2-z
-x,-y,-z
x,-y,1/2+z
1/2+x,1/2+y,z
1/2-x,1/2+y,1/2-z
1/2-x,1/2-y,-z
1/2+x,1/2-y,1/2+z
loop_
_atom_site_type_symbol
_atom_site_label
_atom_site_fract_x
_atom_site_fract_y
_atom_site_fract_z
Si Si1 0.860209 0.754282 0.192693
Si Si2 0.220154 0.117721 0.838190
Si Si3 0.388300 0.519595 0.405805
Si Si4 0.083320 0.376362 0.589411
Si Si5 0.455589 0.900393 0.020990
Si Si6 0.190056 0.059065 0.651472
Si Si7 0.614719 0.544492 0.370329
Si Si8 0.858578 0.832825 0.535611
O O1 0.835311 0.793285 0.140487
O O2 0.872082 0.846895 0.236248
O O3 0.764604 0.682293 0.331616
O O4 0.965701 0.691878 0.063855
O O5 0.344750 0.132256 0.689064
O O6 0.191920 0.017036 0.829808
O O7 0.178721 0.106521 0.972128
O O8 0.500000 0.566839 0.250000
O O9 0.334785 0.468546 0.401011
O O10 0.407596 0.429386 0.438323
O O11 0.058697 0.434709 0.545318
O O12 0.190691 0.411294 0.493550
O O13 0.079574 0.260632 0.570738
O O14 0.000000 0.401873 0.750000
O O15 0.500000 0.000000 0.000000
O O16 0.166659 0.958836 0.727365
O O17 0.500000 0.500000 0.500000
O O18 0.615962 0.653958 0.407482
#
# Coordination Sequence:
#
# PCOD8133962 Si02
#       8
#     8   8   8   8   8   8   8   8
#     4  10  23  38  67  88 126 171 216 270 321 388
#     4  10  22  42  57  96 128 164 228 261 310 412
#     4  11  23  37  64  92 132 163 205 270 334 384
#     4  11  25  38  59  95 133 161 205 264 332 394
#     4  12  24  42  66  93 130 183 221 267 329 398
#     4  10  22  40  58  96 129 163 208 272 327 388
#     4  10  19  34  62  85 120 162 208 257 320 381
#     4  10  21  38  58  92 124 160 211 265 316 396
#
# _framework density 20.363230000000001
#
# number of rings (size 3 to 8) (size 9 to 14) (size 15 to 20)
#    0.000    1.500    3.750    3.375   10.500    1.000 
#    0.000    0.000    0.000    3.750    0.000    0.000 
#    0.000    0.000    0.000    0.000    0.000    0.000 
#
# Total GULP energy -396513.785813 kJ/mol
# GULP energy per Si atom -12391.055807 kJ/mol
# Density = 2.031688 g / cm^3
# Si number density = 20.363230 Si / 1000 Ang^3
#
#
#
# Elastic Constant Matrix: (Units=GPa)
#
#
# Indices 1 2 3 4 5 6 
#
# 1 101.4858 39.9647 50.2135 0.0000 2.2676 0.0000
# 2 39.9647 31.2322 42.6221 0.0000 3.2702 0.0000
# 3 50.2135 42.6221 149.3694 0.0000 6.5684 0.0000
# 4 0.0000 0.0000 0.0000 28.8850 0.0000 0.1606
# 5 2.2676 3.2702 6.5684 0.0000 35.7656 0.0000
# 6 0.0000 0.0000 0.0000 0.1606 0.0000 30.7373
#
#
#
# Elastic Compliance Matrix: (Units=1/GPa)
#
#
# Indices 1 2 3 4 5 6 
#
# 1 0.019981 -0.026936 0.000924 0.000000 0.001026 0.000000
# 2 -0.026936 0.088901 -0.016161 0.000000 -0.003453 0.000000
# 3 0.000924 -0.016161 0.011022 0.000000 -0.000605 0.000000
# 4 0.000000 0.000000 0.000000 0.034621 0.000000 -0.000181
# 5 0.001026 -0.003453 -0.000605 0.000000 0.028322 0.000000
# 6 0.000000 0.000000 0.000000 -0.000181 0.000000 0.032535
#
#
# Mechanical properties :
#
#
# Convention : Reuss Voigt Hill
#
# Bulk Modulus (GPa) = 28.12234 60.85423 44.48829
# Shear Modulus (GPa) = 16.04730 29.03005 22.53867
#
# Velocity S-wave (km/s) = 2.81027 3.77982 3.33052
# Velocity P-wave (km/s) = 4.93665 6.99990 6.05678
#
# Compressibility (1/GPa) = 0.03555892
#
# Stress axis : x y z
#
# Youngs Moduli (GPa) = 50.04857 11.24848 90.72537
#
# Poissons Ratio (x) = 0.30298 -0.08383
# Poissons Ratio (y) = 1.34808 1.46620
# Poissons Ratio (z) = -0.04624 0.18179
#
# Static dielectric constant tensor:
#      x y z
#    x 3.998560 0.000000 0.131290 
#    y 0.000000 3.677430 0.000000 
#    z 0.131290 0.000000 4.039430 
# 
# 
# High freq. dielectric constant tensor:
#      x y z
#    x 1.800600 0.000000 -0.009000 
#    y 0.000000 1.765430 0.000000 
#    z -0.009000 0.000000 1.806720 
# 
# From -- ./inp_files/219711.got.cif
#   From: 2010.06.25/outbox.cif.g09.slc.cpg/sg15_110_cif.got.tgz:219711.got - 2010.06.28 07:06:18.
