data_PCOD8133807
_publ_section_title
;
Structure prediction by ZEFSAII (Michael W. Deem and Ramdas Pophale) SiO2 
 PCOD8133807
Probable space group: C 2/C
;
_chemical_formula_sum "Si O2"
_cell_formula_units_Z 64
_cell_length_a 12.347780
_cell_length_b 14.601342
_cell_length_c 32.769089
_cell_angle_alpha 90.000000
_cell_angle_beta 146.482197
_cell_angle_gamma 90.000000
_cell_volume 3262.415948
_symmetry_space_group_name_H-M "C 2/C"
_symmetry_group_IT_number 15
_symmetry_cell_setting 'monoclinic'
loop_
_space_group_symop_operation_xyz
x,y,z
-x,y,1/2-z
-x,-y,-z
x,-y,1/2+z
1/2+x,1/2+y,z
1/2-x,1/2+y,1/2-z
1/2-x,1/2-y,-z
1/2+x,1/2-y,1/2+z
loop_
_atom_site_type_symbol
_atom_site_label
_atom_site_fract_x
_atom_site_fract_y
_atom_site_fract_z
Si Si1 0.498778 0.449918 0.894879
Si Si2 0.694896 0.727177 0.143062
Si Si3 0.983764 0.160455 0.597029
Si Si4 0.538258 0.814272 0.969803
Si Si5 0.436759 0.492109 0.785371
Si Si6 0.453100 0.702288 0.795984
Si Si7 0.321989 0.031815 0.365517
Si Si8 0.428939 0.869005 0.024070
O O1 0.355080 0.381140 0.873776
O O2 0.478793 0.554815 0.903724
O O3 0.417204 0.450539 0.823617
O O4 0.718788 0.411582 0.968857
O O5 0.776686 0.757899 0.213064
O O6 0.491226 0.782524 0.071583
O O7 0.848448 0.743309 0.154425
O O8 0.768171 0.174571 0.547840
O O9 0.019297 0.214610 0.566104
O O10 0.107223 0.202435 0.674471
O O11 0.474510 0.885821 0.915210
O O12 0.426335 0.835973 0.976413
O O13 0.499262 0.597408 0.800692
O O14 0.224250 0.483876 0.696834
O O15 0.615334 0.438081 0.820449
O O16 0.407819 0.945867 0.417043
#
# Coordination Sequence:
#
# PCOD8133807 Si02
#       8
#     8   8   8   8   8   8   8   8
#     4  11  23  36  57  87 121 148 188 240 290 340
#     4  11  21  35  59  87 113 153 194 238 286 340
#     4  10  22  38  57  85 113 154 195 237 277 347
#     4  11  21  34  61  83 115 152 192 233 293 340
#     4  10  19  34  57  86 111 145 190 238 287 335
#     4  10  19  38  60  79 113 152 198 236 275 343
#     4  11  18  32  59  86 114 145 184 237 292 338
#     4  12  19  37  57  88 118 149 184 243 293 344
#
# _framework density 19.617363999999998
#
# number of rings (size 3 to 8) (size 9 to 14) (size 15 to 20)
#    0.000    1.250    6.250    2.250    1.750    0.000 
#    0.000    0.625    0.000    9.000    0.000    0.000 
#    0.000    0.000    0.000    0.000    0.000    0.000 
#
# Total GULP energy -396530.600348 kJ/mol
# GULP energy per Si atom -12391.581261 kJ/mol
# Density = 1.957271 g / cm^3
# Si number density = 19.617364 Si / 1000 Ang^3
#
#
#
# Elastic Constant Matrix: (Units=GPa)
#
#
# Indices 1 2 3 4 5 6 
#
# 1 29.0395 29.9970 23.5540 0.0000 -0.0795 0.0000
# 2 29.9970 126.8503 45.6452 0.0000 -12.0664 0.0000
# 3 23.5540 45.6452 109.9773 0.0000 -13.3091 0.0000
# 4 0.0000 0.0000 0.0000 28.9374 0.0000 -7.7320
# 5 -0.0795 -12.0664 -13.3091 0.0000 7.0331 0.0000
# 6 0.0000 0.0000 0.0000 -7.7320 0.0000 15.4820
#
#
#
# Elastic Compliance Matrix: (Units=1/GPa)
#
#
# Indices 1 2 3 4 5 6 
#
# 1 0.058731 -0.013838 -0.012488 0.000000 -0.046708 0.000000
# 2 -0.013838 0.013259 0.000252 0.000000 0.023070 0.000000
# 3 -0.012488 0.000252 0.015172 0.000000 0.029003 0.000000
# 4 0.000000 0.000000 0.000000 0.039879 0.000000 0.019916
# 5 -0.046708 0.023070 0.029003 0.000000 0.236119 0.000000
# 6 0.000000 0.000000 0.000000 0.019916 0.000000 0.074537
#
#
# Mechanical properties :
#
#
# Convention : Reuss Voigt Hill
#
# Bulk Modulus (GPa) = 28.55824 51.58440 40.07132
# Shear Modulus (GPa) = 9.96974 21.40190 15.68582
#
# Velocity S-wave (km/s) = 2.25680 3.30656 2.83077
# Velocity P-wave (km/s) = 4.62386 6.39767 5.58168
#
# Compressibility (1/GPa) = 0.03501617
#
# Stress axis : x y z
#
# Youngs Moduli (GPa) = 17.02675 75.41862 65.90906
#
# Poissons Ratio (x) = 1.04365 0.82305
# Poissons Ratio (y) = 0.23562 -0.01663
# Poissons Ratio (z) = 0.21262 -0.01903
#
# Static dielectric constant tensor:
#      x y z
#    x 3.012190 0.000000 -0.176470 
#    y 0.000000 3.633110 0.000000 
#    z -0.176470 0.000000 3.996150 
# 
# 
# High freq. dielectric constant tensor:
#      x y z
#    x 1.710650 0.000000 -0.012650 
#    y 0.000000 1.762150 0.000000 
#    z -0.012650 0.000000 1.788110 
# 
# From -- ./inp_files/311203.got.cif
#   From: 2010.06.25/outbox.cif.g09.slc.cpg/sg15_156_cif.got.tgz:311203.got - 2010.06.28 07:06:18.
