data_PCOD8133275
_publ_section_title
;
Structure prediction by ZEFSAII (Michael W. Deem and Ramdas Pophale) SiO2 
 PCOD8133275
Probable space group: C 2/C
;
_chemical_formula_sum "Si O2"
_cell_formula_units_Z 64
_cell_length_a 12.727249
_cell_length_b 22.977693
_cell_length_c 17.688009
_cell_angle_alpha 90.000000
_cell_angle_beta 46.986280
_cell_angle_gamma 90.000000
_cell_volume 3782.251266
_symmetry_space_group_name_H-M "C 2/C"
_symmetry_group_IT_number 15
_symmetry_cell_setting 'monoclinic'
loop_
_space_group_symop_operation_xyz
x,y,z
-x,y,1/2-z
-x,-y,-z
x,-y,1/2+z
1/2+x,1/2+y,z
1/2-x,1/2+y,1/2-z
1/2-x,1/2-y,-z
1/2+x,1/2-y,1/2+z
loop_
_atom_site_type_symbol
_atom_site_label
_atom_site_fract_x
_atom_site_fract_y
_atom_site_fract_z
Si Si1 0.166059 0.353350 0.022167
Si Si2 0.840741 0.962812 0.328743
Si Si3 0.355247 0.102144 0.686905
Si Si4 0.662270 0.186735 0.684719
Si Si5 0.149960 0.495034 0.706238
Si Si6 0.177962 0.033741 0.021817
Si Si7 0.157351 0.817580 0.700408
Si Si8 0.356700 0.567860 0.206685
O O1 0.226531 0.320566 0.068430
O O2 0.994531 0.359911 0.096599
O O3 0.231607 0.416814 0.982075
O O4 0.222814 0.317624 0.923277
O O5 0.735179 0.914924 0.343462
O O6 0.000000 0.935528 0.250000
O O7 0.802834 0.976394 0.434792
O O8 0.838032 0.024699 0.286738
O O9 0.264398 0.142918 0.790299
O O10 0.397236 0.043687 0.710208
O O11 0.500000 0.164842 0.750000
O O12 0.664549 0.250380 0.722618
O O13 0.255648 0.522018 0.592255
O O14 0.237509 0.443724 0.702142
O O15 0.000000 0.468819 0.750000
O O16 0.014030 0.056254 0.094288
O O17 0.180618 0.865241 0.754230
O O18 0.000000 0.834150 0.750000
#
# Coordination Sequence:
#
# PCOD8133275 Si02
#       8
#     8   8   8   8   8   8   8   8
#     4  11  18  30  49  74 103 126 155 194 241 289
#     4   9  19  33  50  71  98 127 161 194 236 285
#     4  10  19  33  49  72  99 128 160 196 235 286
#     4   9  19  32  49  72  99 128 157 194 239 286
#     4  11  20  32  49  70 100 131 162 195 239 285
#     4  11  18  32  49  72 103 128 155 196 241 287
#     4  11  19  32  49  71 101 130 159 195 239 286
#     4  10  20  32  48  72  98 130 161 196 237 287
#
# _framework density 16.921139
#
# number of rings (size 3 to 8) (size 9 to 14) (size 15 to 20)
#    0.000    1.750    5.000    1.500    0.000    1.500 
#    0.000    0.000    0.000    0.750    0.000    1.750 
#    0.000    0.000    0.000    0.000    0.000    0.000 
#
# Total GULP energy -396525.464312 kJ/mol
# GULP energy per Si atom -12391.420760 kJ/mol
# Density = 1.688263 g / cm^3
# Si number density = 16.921139 Si / 1000 Ang^3
#
#
#
# Elastic Constant Matrix: (Units=GPa)
#
#
# Indices 1 2 3 4 5 6 
#
# 1 88.4489 34.6001 22.9210 -0.0001 -6.3296 0.0002
# 2 34.6001 65.7684 4.7896 0.0001 -4.4761 -0.0001
# 3 22.9210 4.7896 68.7674 -0.0003 -8.1794 0.0012
# 4 -0.0001 0.0001 -0.0003 -10.0717 0.0000 41.3383
# 5 -6.3296 -4.4761 -8.1794 0.0000 12.1963 -0.0005
# 6 0.0002 -0.0001 0.0012 41.3383 -0.0005 -37.9345
#
#
#
# Elastic Compliance Matrix: (Units=1/GPa)
#
#
# Indices 1 2 3 4 5 6 
#
# 1 0.015645 -0.007752 -0.004398 0.000000 0.002325 0.000000
# 2 -0.007752 0.019448 0.001738 0.000000 0.004280 0.000000
# 3 -0.004398 0.001738 0.017051 0.000000 0.009791 0.000000
# 4 0.000000 0.000000 0.000000 0.028591 0.000001 0.031157
# 5 0.002325 0.004280 0.009791 0.000001 0.091335 0.000000
# 6 0.000000 0.000000 0.000000 0.031157 0.000000 0.007591
#
#
# Mechanical properties :
#
#
# Convention : Reuss Voigt Hill
#
# Bulk Modulus (GPa) = 31.92830 38.62291 35.27561
# Shear Modulus (GPa) = 23.70519 3.54963 13.62741
#
# Velocity S-wave (km/s) = 3.74695 1.44993 2.84094
# Velocity P-wave (km/s) = 6.13428 5.06733 5.62615
#
# Compressibility (1/GPa) = 0.03132018
#
# Stress axis : x y z
#
# Youngs Moduli (GPa) = 63.92022 51.41970 58.64707
#
# Poissons Ratio (x) = 0.39860 0.25793
# Poissons Ratio (y) = 0.49550 -0.10195
# Poissons Ratio (z) = 0.28113 -0.08939
#
# Static dielectric constant tensor:
#      x y z
#    x 3.052080 0.000000 0.058270 
#    y 0.000000 3.040860 0.000000 
#    z 0.058270 0.000000 3.577360 
# 
# 
# High freq. dielectric constant tensor:
#      x y z
#    x 1.622270 0.000000 -0.000020 
#    y 0.000000 1.632090 0.000000 
#    z -0.000020 0.000000 1.662270 
# 
# From -- ./inp_files/200355.got.cif
#   From: 2010.06.25/outbox.cif.g09.slc.cpg/sg15_101_cif.got.tgz:200355.got - 2010.06.28 07:06:18.
