data_PCOD8133751
_publ_section_title
;
Structure prediction by ZEFSAII (Michael W. Deem and Ramdas Pophale) SiO2 
 PCOD8133751
Probable space group: C 2/C
;
_chemical_formula_sum "Si O2"
_cell_formula_units_Z 56
_cell_length_a 12.178470
_cell_length_b 16.652963
_cell_length_c 19.262998
_cell_angle_alpha 90.000000
_cell_angle_beta 47.124956
_cell_angle_gamma 90.000000
_cell_volume 2862.970641
_symmetry_space_group_name_H-M "C 2/C"
_symmetry_group_IT_number 15
_symmetry_cell_setting 'monoclinic'
loop_
_space_group_symop_operation_xyz
x,y,z
-x,y,1/2-z
-x,-y,-z
x,-y,1/2+z
1/2+x,1/2+y,z
1/2-x,1/2+y,1/2-z
1/2-x,1/2-y,-z
1/2+x,1/2-y,1/2+z
loop_
_atom_site_type_symbol
_atom_site_label
_atom_site_fract_x
_atom_site_fract_y
_atom_site_fract_z
Si Si1 0.866638 0.661635 0.258468
Si Si2 0.164516 0.534528 0.919353
Si Si3 0.622020 0.782896 0.402099
Si Si4 0.259638 0.502226 0.235487
Si Si5 0.118970 0.340717 0.257902
Si Si6 0.555434 0.726181 0.891392
Si Si7 0.048248 0.079751 0.648177
O O1 0.775219 0.732769 0.334249
O O2 0.758779 0.584930 0.297334
O O3 0.933422 0.690351 0.155789
O O4 0.000000 0.633818 0.250000
O O5 0.166948 0.628585 0.904215
O O6 0.229425 0.481478 0.829335
O O7 0.290345 0.532680 0.926939
O O8 0.000000 0.500000 0.000000
O O9 0.556610 0.791906 0.352076
O O10 0.508704 0.742517 0.504492
O O11 0.138426 0.435846 0.262719
O O12 0.430900 0.473606 0.154821
O O13 0.280044 0.308017 0.166223
O O14 0.000000 0.324106 0.250000
O O15 0.450129 0.665906 0.891770
O O16 0.000000 0.091588 0.750000
#
# Coordination Sequence:
#
# PCOD8133751 Si02
#       7
#     8   8   8   8   8   8   8
#     4  11  21  35  57  84 112 143 184 231 276 322
#     4  10  19  34  56  83 110 142 186 228 269 323
#     4  10  22  36  55  85 111 139 186 232 278 329
#     4   9  19  35  54  77 107 145 185 222 271 329
#     4   9  19  38  57  75 109 150 184 223 272 331
#     4  10  20  36  56  82 113 144 181 230 282 325
#     4   9  18  36  57  77 111 151 181 223 277 328
#
# _framework density 19.560103999999999
#
# number of rings (size 3 to 8) (size 9 to 14) (size 15 to 20)
#    0.000    2.286    0.000    5.143    0.000    4.000 
#    0.000   17.143    0.000    0.000    0.000    0.000 
#    0.000    0.000    0.000    0.000    0.000    0.000 
#
# Total GULP energy -346949.313517 kJ/mol
# GULP energy per Si atom -12391.046911 kJ/mol
# Density = 1.951558 g / cm^3
# Si number density = 19.560104 Si / 1000 Ang^3
#
#
#
# Elastic Constant Matrix: (Units=GPa)
#
#
# Indices 1 2 3 4 5 6 
#
# 1 142.8596 46.4748 42.2181 -0.0001 -2.5869 -0.0001
# 2 46.4748 103.1554 31.5735 0.0000 -0.9376 -0.0001
# 3 42.2181 31.5735 101.3964 -0.0001 -1.2583 -0.0001
# 4 -0.0001 0.0000 -0.0001 21.8414 0.0001 -3.4713
# 5 -2.5869 -0.9376 -1.2583 0.0001 21.0223 0.0001
# 6 -0.0001 -0.0001 -0.0001 -3.4713 0.0001 18.4552
#
#
#
# Elastic Compliance Matrix: (Units=1/GPa)
#
#
# Indices 1 2 3 4 5 6 
#
# 1 0.008833 -0.003150 -0.002687 0.000000 0.000786 0.000000
# 2 -0.003150 0.011840 -0.002375 0.000000 -0.000002 0.000000
# 3 -0.002687 -0.002375 0.011724 0.000000 0.000265 0.000000
# 4 0.000000 0.000000 0.000000 0.047196 0.000000 0.008877
# 5 0.000786 -0.000002 0.000265 0.000000 0.047681 0.000000
# 6 0.000000 0.000000 0.000000 0.008877 0.000000 0.055855
#
#
# Mechanical properties :
#
#
# Convention : Reuss Voigt Hill
#
# Bulk Modulus (GPa) = 62.60816 65.32716 63.96766
# Shear Modulus (GPa) = 24.40476 27.40677 25.90577
#
# Velocity S-wave (km/s) = 3.53608 3.74726 3.64320
# Velocity P-wave (km/s) = 6.98208 7.22449 7.10432
#
# Compressibility (1/GPa) = 0.01597236
#
# Stress axis : x y z
#
# Youngs Moduli (GPa) = 113.21260 84.45742 85.29445
#
# Poissons Ratio (x) = 0.26603 0.22920
# Poissons Ratio (y) = 0.35661 0.20261
# Poissons Ratio (z) = 0.30422 0.20062
#
# Static dielectric constant tensor:
#      x y z
#    x 3.687760 0.000000 -0.046890 
#    y 0.000000 3.502860 0.000000 
#    z -0.046890 0.000000 3.540130 
# 
# 
# High freq. dielectric constant tensor:
#      x y z
#    x 1.763730 0.000000 -0.004450 
#    y 0.000000 1.757640 0.000000 
#    z -0.004450 0.000000 1.742790 
# 
# From -- ./inp_files/199425.got.cif
#   From: 2010.06.25/outbox.cif.g09.slc.cpg/sg15_100_cif.got.tgz:199425.got - 2010.06.28 07:06:18.
