data_PCOD8133206
_publ_section_title
;
Structure prediction by ZEFSAII (Michael W. Deem and Ramdas Pophale) SiO2 
 PCOD8133206
Probable space group: C 2/C
;
_chemical_formula_sum "Si O2"
_cell_formula_units_Z 56
_cell_length_a 16.865370
_cell_length_b 17.607139
_cell_length_c 27.877309
_cell_angle_alpha 90.000000
_cell_angle_beta 159.017235
_cell_angle_gamma 90.000000
_cell_volume 2964.313948
_symmetry_space_group_name_H-M "C 2/C"
_symmetry_group_IT_number 15
_symmetry_cell_setting 'monoclinic'
loop_
_space_group_symop_operation_xyz
x,y,z
-x,y,1/2-z
-x,-y,-z
x,-y,1/2+z
1/2+x,1/2+y,z
1/2-x,1/2+y,1/2-z
1/2-x,1/2-y,-z
1/2+x,1/2-y,1/2+z
loop_
_atom_site_type_symbol
_atom_site_label
_atom_site_fract_x
_atom_site_fract_y
_atom_site_fract_z
Si Si1 0.990583 0.909875 0.950834
Si Si2 0.733270 0.471007 0.400227
Si Si3 0.096883 0.379580 0.554903
Si Si4 0.564814 0.755274 0.465340
Si Si5 0.858355 0.517328 0.715982
Si Si6 0.491984 0.704473 0.168199
Si Si7 0.260788 0.557179 0.002013
O O1 0.973835 0.819679 0.939243
O O2 0.156035 0.927299 0.088222
O O3 0.071761 0.951920 0.948019
O O4 0.743529 0.939704 0.820684
O O5 0.500000 0.438639 0.250000
O O6 0.782149 0.548420 0.399333
O O7 0.718543 0.487234 0.448832
O O8 0.918330 0.407369 0.493215
O O9 0.981707 0.329125 0.448050
O O10 0.276056 0.324975 0.681210
O O11 0.466726 0.755356 0.355757
O O12 0.837458 0.749258 0.618625
O O13 0.000000 0.494091 0.750000
O O14 0.008718 0.559133 0.840564
O O15 0.320401 0.635505 0.061251
#
# Coordination Sequence:
#
# PCOD8133206 Si02
#       7
#     8   8   8   8   8   8   8
#     4   9  20  35  57  85 114 149 190 239 290 348
#     4  11  22  37  58  84 116 154 194 244 285 347
#     4  11  22  37  58  83 117 154 192 238 299 344
#     4  10  20  34  54  81 115 148 185 238 289 348
#     4   9  19  36  56  85 113 147 190 234 293 338
#     4  10  20  35  56  85 114 145 192 243 293 339
#     4  10  19  32  56  83 111 145 189 241 283 340
#
# _framework density 18.891386000000001
#
# number of rings (size 3 to 8) (size 9 to 14) (size 15 to 20)
#    0.000    2.000    2.857    0.429    4.000    6.857 
#    0.000    0.714    0.000    0.857    0.000    0.000 
#    0.000    0.000    0.000    0.000    0.000    0.000 
#
# Total GULP energy -347051.429441 kJ/mol
# GULP energy per Si atom -12394.693909 kJ/mol
# Density = 1.884839 g / cm^3
# Si number density = 18.891386 Si / 1000 Ang^3
#
#
#
# Elastic Constant Matrix: (Units=GPa)
#
#
# Indices 1 2 3 4 5 6 
#
# 1 62.0979 24.6085 21.8744 0.0006 -6.2000 0.0045
# 2 24.6085 54.2432 5.9901 0.0056 4.8778 0.0044
# 3 21.8744 5.9901 66.7651 -0.0558 -0.8386 0.0355
# 4 0.0006 0.0056 -0.0558 32.7770 0.0114 2.8228
# 5 -6.2000 4.8778 -0.8386 0.0114 25.0299 0.0009
# 6 0.0045 0.0044 0.0355 2.8228 0.0009 37.8848
#
#
#
# Elastic Compliance Matrix: (Units=1/GPa)
#
#
# Indices 1 2 3 4 5 6 
#
# 1 0.023382 -0.010563 -0.006617 -0.000013 0.007629 0.000005
# 2 -0.010563 0.023738 0.001241 0.000001 -0.007201 -0.000003
# 3 -0.006617 0.001241 0.017018 0.000031 -0.001311 -0.000018
# 4 -0.000013 0.000001 0.000031 0.030706 -0.000016 -0.002288
# 5 0.007629 -0.007201 -0.001311 -0.000016 0.043201 0.000001
# 6 0.000005 -0.000003 -0.000018 -0.002288 0.000001 0.026566
#
#
# Mechanical properties :
#
#
# Convention : Reuss Voigt Hill
#
# Bulk Modulus (GPa) = 30.99898 32.00579 31.50239
# Shear Modulus (GPa) = 24.12606 27.84724 25.98665
#
# Velocity S-wave (km/s) = 3.57752 3.84353 3.71291
# Velocity P-wave (km/s) = 5.78874 6.05605 5.92390
#
# Compressibility (1/GPa) = 0.03225913
#
# Stress axis : x y z
#
# Youngs Moduli (GPa) = 42.76758 42.12627 58.76074
#
# Poissons Ratio (x) = 0.44498 0.38883
# Poissons Ratio (y) = 0.45176 -0.07290
# Poissons Ratio (z) = 0.28300 -0.05226
#
# Static dielectric constant tensor:
#      x y z
#    x 3.661220 -0.000010 -0.141400 
#    y -0.000010 3.366440 0.000010 
#    z -0.141400 0.000010 3.403130 
# 
# 
# High freq. dielectric constant tensor:
#      x y z
#    x 1.735420 0.000000 -0.014800 
#    y 0.000000 1.711680 0.000000 
#    z -0.014800 0.000000 1.721650 
# 
# From -- ./inp_files/106639.got.cif
#   From: 2010.06.25/outbox.cif.g09.slc.cpg/sg15_54_cif.got.tgz:106639.got - 2010.06.28 07:06:18.
