data_PCOD8133529
_publ_section_title
;
Structure prediction by ZEFSAII (Michael W. Deem and Ramdas Pophale) SiO2 
 PCOD8133529
Probable space group: C 2/C
;
_chemical_formula_sum "Si O2"
_cell_formula_units_Z 56
_cell_length_a 19.882613
_cell_length_b 18.607087
_cell_length_c 8.859430
_cell_angle_alpha 90.000000
_cell_angle_beta 114.334593
_cell_angle_gamma 90.000000
_cell_volume 2986.412030
_symmetry_space_group_name_H-M "C 2/C"
_symmetry_group_IT_number 15
_symmetry_cell_setting 'monoclinic'
loop_
_space_group_symop_operation_xyz
x,y,z
-x,y,1/2-z
-x,-y,-z
x,-y,1/2+z
1/2+x,1/2+y,z
1/2-x,1/2+y,1/2-z
1/2-x,1/2-y,-z
1/2+x,1/2-y,1/2+z
loop_
_atom_site_type_symbol
_atom_site_label
_atom_site_fract_x
_atom_site_fract_y
_atom_site_fract_z
Si Si1 0.245126 0.405386 0.713933
Si Si2 0.221679 0.549171 0.860131
Si Si3 0.074224 0.379984 0.235704
Si Si4 0.841262 0.797244 0.967669
Si Si5 0.981325 0.288163 0.568661
Si Si6 0.226575 0.819470 0.281180
Si Si7 0.630783 0.210243 0.044330
O O1 0.240753 0.468853 0.830978
O O2 0.257284 0.434531 0.555960
O O3 0.315455 0.356785 0.823254
O O4 0.169842 0.358806 0.659181
O O5 0.132589 0.555314 0.786155
O O6 0.252803 0.602660 0.761781
O O7 0.111598 0.310856 0.354435
O O8 0.000000 0.406775 0.250000
O O9 0.055853 0.355052 0.050836
O O10 0.799886 0.721563 0.903062
O O11 0.928166 0.781685 0.026782
O O12 0.827483 0.825801 0.124940
O O13 0.000000 0.318045 0.750000
O O14 0.056628 0.265182 0.558091
O O15 0.187122 0.776831 0.106563
#
# Coordination Sequence:
#
# PCOD8133529 Si02
#       7
#     8   8   8   8   8   8   8
#     4  10  23  36  56  83 114 148 192 229 279 332
#     4  11  21  38  59  80 113 155 184 231 280 333
#     4   9  20  35  54  80 118 144 188 223 280 339
#     4  10  20  34  55  85 114 141 187 237 272 331
#     4  11  19  33  55  85 111 148 178 230 283 321
#     4  10  19  33  58  82 110 142 191 231 280 324
#     4   9  20  36  54  84 113 143 185 233 275 339
#
# _framework density 18.751598999999999
#
# number of rings (size 3 to 8) (size 9 to 14) (size 15 to 20)
#    0.000    2.000    2.857    0.857    2.000    2.857 
#    0.000    7.143    0.000    0.857    0.000    0.000 
#    0.000    0.000    0.000    0.000    0.000    0.000 
#
# Total GULP energy -347179.816559 kJ/mol
# GULP energy per Si atom -12399.279163 kJ/mol
# Density = 1.870892 g / cm^3
# Si number density = 18.751599 Si / 1000 Ang^3
#
#
#
# Elastic Constant Matrix: (Units=GPa)
#
#
# Indices 1 2 3 4 5 6 
#
# 1 78.6748 34.6471 23.3225 0.0000 -4.5136 0.0000
# 2 34.6471 82.6691 31.7875 0.0000 -0.9721 0.0000
# 3 23.3225 31.7875 110.5286 0.0000 -4.3620 0.0000
# 4 0.0000 0.0000 0.0000 25.2919 0.0000 -3.5391
# 5 -4.5136 -0.9721 -4.3620 0.0000 18.3959 0.0000
# 6 0.0000 0.0000 0.0000 -3.5391 0.0000 24.1942
#
#
#
# Elastic Compliance Matrix: (Units=1/GPa)
#
#
# Indices 1 2 3 4 5 6 
#
# 1 0.016029 -0.006104 -0.001499 0.000000 0.003255 0.000000
# 2 -0.006104 0.015925 -0.003349 0.000000 -0.001450 0.000000
# 3 -0.001499 -0.003349 0.010403 0.000000 0.001922 0.000000
# 4 0.000000 0.000000 0.000000 0.040365 0.000000 0.005905
# 5 0.003255 -0.001450 0.001922 0.000000 0.055538 0.000000
# 6 0.000000 0.000000 0.000000 0.005905 0.000000 0.042196
#
#
# Mechanical properties :
#
#
# Convention : Reuss Voigt Hill
#
# Bulk Modulus (GPa) = 48.88885 50.15409 49.52147
# Shear Modulus (GPa) = 23.90322 25.71742 24.81032
#
# Velocity S-wave (km/s) = 3.57421 3.70737 3.64140
# Velocity P-wave (km/s) = 6.56976 6.71794 6.64426
#
# Compressibility (1/GPa) = 0.02045456
#
# Stress axis : x y z
#
# Youngs Moduli (GPa) = 62.38523 62.79318 96.12840
#
# Poissons Ratio (x) = 0.38326 0.14405
# Poissons Ratio (y) = 0.38077 0.32197
# Poissons Ratio (z) = 0.09349 0.21032
#
# Static dielectric constant tensor:
#      x y z
#    x 3.446460 0.000000 0.021010 
#    y 0.000000 3.110290 0.000000 
#    z 0.021010 0.000000 3.792400 
# 
# 
# High freq. dielectric constant tensor:
#      x y z
#    x 1.719410 0.000000 -0.002050 
#    y 0.000000 1.693670 0.000000 
#    z -0.002050 0.000000 1.745920 
# 
# From -- ./inp_files/49128.got.cif
#   From: 2010.06.25/outbox.cif.g09.slc.cpg/sg15_25_cif.got.tgz:49128.got - 2010.06.28 07:06:18.
