data_PCOD8133313
_publ_section_title
;
Structure prediction by ZEFSAII (Michael W. Deem and Ramdas Pophale) SiO2 
 PCOD8133313
Probable space group: C 2/C
;
_chemical_formula_sum "Si O2"
_cell_formula_units_Z 60
_cell_length_a 13.623377
_cell_length_b 25.900281
_cell_length_c 11.197840
_cell_angle_alpha 90.000000
_cell_angle_beta 128.038048
_cell_angle_gamma 90.000000
_cell_volume 3111.932561
_symmetry_space_group_name_H-M "C 2/C"
_symmetry_group_IT_number 15
_symmetry_cell_setting 'monoclinic'
loop_
_space_group_symop_operation_xyz
x,y,z
-x,y,1/2-z
-x,-y,-z
x,-y,1/2+z
1/2+x,1/2+y,z
1/2-x,1/2+y,1/2-z
1/2-x,1/2-y,-z
1/2+x,1/2-y,1/2+z
loop_
_atom_site_type_symbol
_atom_site_label
_atom_site_fract_x
_atom_site_fract_y
_atom_site_fract_z
Si Si1 0.608737 0.139479 0.246743
Si Si2 0.500000 0.695210 0.750000
Si Si3 0.644212 0.939576 0.591227
Si Si4 0.152726 0.445074 0.127827
Si Si5 0.548916 0.763018 0.558888
Si Si6 0.853851 0.611844 0.646267
Si Si7 0.183037 0.713436 0.750185
Si Si8 0.254509 0.850697 0.430123
O O1 0.500000 0.116967 0.250000
O O2 0.680905 0.092436 0.236878
O O3 0.555256 0.177271 0.104568
O O4 0.701961 0.169052 0.406221
O O5 0.495147 0.730358 0.628687
O O6 0.391534 0.654153 0.678657
O O7 0.495420 0.942329 0.477992
O O8 0.701425 0.909367 0.519789
O O9 0.701306 0.996869 0.642413
O O10 0.205590 0.422723 0.292523
O O11 0.205325 0.410076 0.059818
O O12 0.692207 0.747150 0.631534
O O13 0.451849 0.756992 0.372390
O O14 0.823788 0.672455 0.645925
O O15 0.000000 0.603590 0.750000
O O16 0.188382 0.685621 0.627149
#
# Coordination Sequence:
#
# PCOD8133313 Si02
#       8
#     8   4   8   8   8   8   8   8
#     4  12  19  30  52  80 115 134 173 226 274 323
#     4  10  20  32  54  82 110 142 186 226 276 336
#     4  10  20  30  51  79 110 143 174 217 281 327
#     4   9  18  31  50  77 105 139 175 221 273 324
#     4  11  19  33  53  84 111 148 182 225 286 325
#     4   9  18  34  50  74 112 144 180 222 272 331
#     4  10  20  34  54  80 111 147 185 228 274 328
#     4  10  19  33  52  80 112 139 176 230 278 325
#
# _framework density 19.280624
#
# number of rings (size 3 to 8) (size 9 to 14) (size 15 to 20)
#    0.000    1.867    3.333    2.400    1.867    2.667 
#    0.000    2.667    0.000    0.800    3.467    0.000 
#    0.000    0.000    0.000    0.000    0.000    0.133 
#
# Total GULP energy -371718.897653 kJ/mol
# GULP energy per Si atom -12390.629922 kJ/mol
# Density = 1.923674 g / cm^3
# Si number density = 19.280624 Si / 1000 Ang^3
#
#
#
# Elastic Constant Matrix: (Units=GPa)
#
#
# Indices 1 2 3 4 5 6 
#
# 1 44.7341 31.8611 34.4074 0.0000 2.4833 0.0000
# 2 31.8611 72.5024 32.4791 0.0000 7.5289 0.0000
# 3 34.4074 32.4791 61.9599 0.0000 1.5158 0.0000
# 4 0.0000 0.0000 0.0000 16.9231 0.0000 -3.3757
# 5 2.4833 7.5289 1.5158 0.0000 25.4710 0.0000
# 6 0.0000 0.0000 0.0000 -3.3757 0.0000 18.5938
#
#
#
# Elastic Compliance Matrix: (Units=1/GPa)
#
#
# Indices 1 2 3 4 5 6 
#
# 1 0.045082 -0.011243 -0.019143 0.000000 0.000067 0.000000
# 2 -0.011243 0.021428 -0.004868 0.000000 -0.004948 0.000000
# 3 -0.019143 -0.004868 0.029284 0.000000 0.001563 0.000000
# 4 0.000000 0.000000 0.000000 0.061311 0.000000 0.011131
# 5 0.000067 -0.004948 0.001563 0.000000 0.040623 0.000000
# 6 0.000000 0.000000 0.000000 0.011131 0.000000 0.055802
#
#
# Mechanical properties :
#
#
# Convention : Reuss Voigt Hill
#
# Bulk Modulus (GPa) = 39.54803 41.85461 40.70132
# Shear Modulus (GPa) = 15.03911 17.56082 16.29997
#
# Velocity S-wave (km/s) = 2.79590 3.02122 2.91074
# Velocity P-wave (km/s) = 5.56588 5.82457 5.69670
#
# Compressibility (1/GPa) = 0.02528571
#
# Stress axis : x y z
#
# Youngs Moduli (GPa) = 22.18184 46.66839 34.14881
#
# Poissons Ratio (x) = 0.52467 0.65372
# Poissons Ratio (y) = 0.24938 0.16624
# Poissons Ratio (z) = 0.42463 0.22719
#
# Static dielectric constant tensor:
#      x y z
#    x 3.584070 0.000000 -0.255620 
#    y 0.000000 3.582350 0.000000 
#    z -0.255620 0.000000 3.675200 
# 
# 
# High freq. dielectric constant tensor:
#      x y z
#    x 1.727510 0.000000 -0.023190 
#    y 0.000000 1.740260 0.000000 
#    z -0.023190 0.000000 1.732420 
# 
# From -- ./inp_files/100690.got.cif
#   From: 2010.06.25/outbox.cif.g09.slc.cpg/sg15_51_cif.got.tgz:100690.got - 2010.06.28 07:06:18.
