data_PCOD8133746
_publ_section_title
;
Structure prediction by ZEFSAII (Michael W. Deem and Ramdas Pophale) SiO2 
 PCOD8133746
Probable space group: C 2/C
;
_chemical_formula_sum "Si O2"
_cell_formula_units_Z 40
_cell_length_a 10.560163
_cell_length_b 14.982619
_cell_length_c 13.988452
_cell_angle_alpha 90.000000
_cell_angle_beta 105.871214
_cell_angle_gamma 90.000000
_cell_volume 2128.866265
_symmetry_space_group_name_H-M "C 2/C"
_symmetry_group_IT_number 15
_symmetry_cell_setting 'monoclinic'
loop_
_space_group_symop_operation_xyz
x,y,z
-x,y,1/2-z
-x,-y,-z
x,-y,1/2+z
1/2+x,1/2+y,z
1/2-x,1/2+y,1/2-z
1/2-x,1/2-y,-z
1/2+x,1/2-y,1/2+z
loop_
_atom_site_type_symbol
_atom_site_label
_atom_site_fract_x
_atom_site_fract_y
_atom_site_fract_z
Si Si1 0.730932 0.238437 0.153354
Si Si2 0.715760 0.458659 0.797095
Si Si3 0.884663 0.625795 0.803300
Si Si4 0.960337 0.755791 0.547355
Si Si5 0.507171 0.550739 0.099335
O O1 0.728477 0.141489 0.202835
O O2 0.762879 0.314774 0.237947
O O3 0.840554 0.246436 0.095638
O O4 0.589617 0.252917 0.072806
O O5 0.834333 0.529059 0.825882
O O6 0.632160 0.462997 0.877118
O O7 0.625913 0.485221 0.688317
O O8 0.000000 0.613787 0.750000
O O9 0.942661 0.673409 0.910064
O O10 0.038746 0.846465 0.583339
O O11 0.500000 0.500000 0.000000
#
# Coordination Sequence:
#
# PCOD8133746 Si02
#       5
#     8   8   8   8   8
#     4   9  17  32  53  78 107 140 186 229 264 326
#     4  10  20  34  57  83 111 145 186 233 271 326
#     4  10  19  34  56  81 110 144 183 228 279 327
#     4   9  17  31  54  78 102 144 188 223 269 326
#     4  10  19  35  57  81 108 147 194 225 268 327
#
# _framework density 18.789344
#
# number of rings (size 3 to 8) (size 9 to 14) (size 15 to 20)
#    0.000    2.400    2.000    1.200    0.000    2.400 
#    0.000    1.000    8.800    0.000    0.000    0.000 
#    0.000    0.000    0.000    0.000    0.000    0.000 
#
# Total GULP energy -247939.141060 kJ/mol
# GULP energy per Si atom -12396.957053 kJ/mol
# Density = 1.874658 g / cm^3
# Si number density = 18.789344 Si / 1000 Ang^3
#
#
#
# Elastic Constant Matrix: (Units=GPa)
#
#
# Indices 1 2 3 4 5 6 
#
# 1 46.1957 43.2133 27.5033 0.0000 12.1229 0.0000
# 2 43.2133 119.1406 30.1585 0.0000 5.4566 0.0000
# 3 27.5033 30.1585 94.7785 0.0000 13.1294 0.0000
# 4 0.0000 0.0000 0.0000 31.3779 0.0000 7.6787
# 5 12.1229 5.4566 13.1294 0.0000 22.9325 0.0000
# 6 0.0000 0.0000 0.0000 7.6787 0.0000 35.8840
#
#
#
# Elastic Compliance Matrix: (Units=1/GPa)
#
#
# Indices 1 2 3 4 5 6 
#
# 1 0.040971 -0.012710 -0.005717 0.000000 -0.015362 0.000000
# 2 -0.012710 0.013078 -0.001057 0.000000 0.004212 0.000000
# 3 -0.005717 -0.001057 0.013134 0.000000 -0.004246 0.000000
# 4 0.000000 0.000000 0.000000 0.033631 0.000000 -0.007196
# 5 -0.015362 0.004212 -0.004246 0.000000 0.053156 0.000000
# 6 0.000000 0.000000 0.000000 -0.007196 0.000000 0.029408
#
#
# Mechanical properties :
#
#
# Convention : Reuss Voigt Hill
#
# Bulk Modulus (GPa) = 35.44023 51.31834 43.37928
# Shear Modulus (GPa) = 21.57494 28.65485 25.11489
#
# Velocity S-wave (km/s) = 3.39227 3.90944 3.66000
# Velocity P-wave (km/s) = 5.85202 6.91014 6.40297
#
# Compressibility (1/GPa) = 0.02821652
#
# Stress axis : x y z
#
# Youngs Moduli (GPa) = 24.40727 76.46421 76.13631
#
# Poissons Ratio (x) = 0.97186 0.43527
# Poissons Ratio (y) = 0.31022 0.08045
# Poissons Ratio (z) = 0.13954 0.08080
#
# Static dielectric constant tensor:
#      x y z
#    x 3.113380 0.000000 0.330750 
#    y 0.000000 3.655990 0.000000 
#    z 0.330750 0.000000 3.601030 
# 
# 
# High freq. dielectric constant tensor:
#      x y z
#    x 1.683400 0.000000 0.025660 
#    y 0.000000 1.738060 0.000000 
#    z 0.025660 0.000000 1.732930 
# 
# From -- ./inp_files/85985.got.cif
#   From: 2010.06.25/outbox.cif.g09.slc.cpg/sg15_43_cif.got.tgz:85985.got - 2010.06.28 07:06:18.
