data_PCOD8133558
_publ_section_title
;
Structure prediction by ZEFSAII (Michael W. Deem and Ramdas Pophale) SiO2 
 PCOD8133558
Probable space group: C 2/C
;
_chemical_formula_sum "Si O2"
_cell_formula_units_Z 64
_cell_length_a 19.005383
_cell_length_b 27.964447
_cell_length_c 13.204226
_cell_angle_alpha 90.000000
_cell_angle_beta 151.845553
_cell_angle_gamma 90.000000
_cell_volume 3311.309007
_symmetry_space_group_name_H-M "C 2/C"
_symmetry_group_IT_number 15
_symmetry_cell_setting 'monoclinic'
loop_
_space_group_symop_operation_xyz
x,y,z
-x,y,1/2-z
-x,-y,-z
x,-y,1/2+z
1/2+x,1/2+y,z
1/2-x,1/2+y,1/2-z
1/2-x,1/2-y,-z
1/2+x,1/2-y,1/2+z
loop_
_atom_site_type_symbol
_atom_site_label
_atom_site_fract_x
_atom_site_fract_y
_atom_site_fract_z
Si Si1 0.509267 0.798295 0.874167
Si Si2 0.903334 0.928629 0.383151
Si Si3 0.157241 0.582353 0.903876
Si Si4 0.303452 0.132155 0.753449
Si Si5 0.648994 0.646665 0.203689
Si Si6 0.406853 0.493423 0.728903
Si Si7 0.054344 0.208807 0.425677
Si Si8 0.260972 0.778332 0.703811
O O1 0.500000 0.820896 0.750000
O O2 0.344696 0.783833 0.702869
O O3 0.572195 0.836699 0.033062
O O4 0.610405 0.751045 0.995419
O O5 0.751307 0.908563 0.238350
O O6 0.013604 0.885848 0.491251
O O7 0.983388 0.960885 0.567405
O O8 0.859016 0.959100 0.228489
O O9 0.128453 0.609150 0.761246
O O10 0.000000 0.565330 0.750000
O O11 0.233966 0.617075 0.082056
O O12 0.258616 0.535860 0.011609
O O13 0.162474 0.164079 0.542125
O O14 0.587957 0.690981 0.191947
O O15 0.727190 0.669018 0.204396
O O16 0.500000 0.509940 0.750000
O O17 0.130606 0.251852 0.580604
O O18 0.000000 0.229795 0.250000
#
# Coordination Sequence:
#
# PCOD8133558 Si02
#       8
#     8   8   8   8   8   8   8   8
#     4  11  24  41  58  80 115 166 208 246 289 333
#     4   9  20  37  63  90 111 152 202 238 287 360
#     4  11  21  35  62  94 121 154 185 239 315 363
#     4  10  20  37  61  85 120 158 193 244 293 348
#     4  10  20  36  58  88 123 153 197 245 288 359
#     4  10  19  38  65  88 116 151 193 239 291 364
#     4  10  19  33  59  89 119 159 196 238 294 344
#     4  11  22  39  59  84 119 158 206 251 288 341
#
# _framework density 19.327703
#
# number of rings (size 3 to 8) (size 9 to 14) (size 15 to 20)
#    0.000    1.750    3.750    1.125    0.000    2.000 
#    2.250    1.250    0.000    0.000    0.000    0.000 
#    0.000    0.000    0.000    0.000    0.000    0.000 
#
# Total GULP energy -396914.386699 kJ/mol
# GULP energy per Si atom -12403.574584 kJ/mol
# Density = 1.928371 g / cm^3
# Si number density = 19.327703 Si / 1000 Ang^3
#
#
#
# Elastic Constant Matrix: (Units=GPa)
#
#
# Indices 1 2 3 4 5 6 
#
# 1 141.5754 40.6563 35.3544 0.0000 4.6279 0.0000
# 2 40.6563 71.4845 15.4172 0.0000 -2.0915 0.0000
# 3 35.3544 15.4172 53.1168 0.0000 -2.2594 0.0000
# 4 0.0000 0.0000 0.0000 17.0364 0.0000 -0.9913
# 5 4.6279 -2.0915 -2.2594 0.0000 31.2775 0.0000
# 6 0.0000 0.0000 0.0000 -0.9913 0.0000 36.2570
#
#
#
# Elastic Compliance Matrix: (Units=1/GPa)
#
#
# Indices 1 2 3 4 5 6 
#
# 1 0.009730 -0.004459 -0.005272 0.000000 -0.002119 0.000000
# 2 -0.004459 0.016981 -0.001891 0.000000 0.001659 0.000000
# 3 -0.005272 -0.001891 0.022983 0.000000 0.002314 0.000000
# 4 0.000000 0.000000 0.000000 0.058791 0.000000 0.001607
# 5 -0.002119 0.001659 0.002314 0.000000 0.032563 0.000000
# 6 0.000000 0.000000 0.000000 0.001607 0.000000 0.027625
#
#
# Mechanical properties :
#
#
# Convention : Reuss Voigt Hill
#
# Bulk Modulus (GPa) = 37.80580 49.89248 43.84914
# Shear Modulus (GPa) = 24.90882 28.56410 26.73646
#
# Velocity S-wave (km/s) = 3.59383 3.84850 3.72334
# Velocity P-wave (km/s) = 6.06825 6.75410 6.42034
#
# Compressibility (1/GPa) = 0.02645096
#
# Stress axis : x y z
#
# Youngs Moduli (GPa) = 102.78013 58.88905 43.51116
#
# Poissons Ratio (x) = 0.26256 0.22939
# Poissons Ratio (y) = 0.45825 0.08226
# Poissons Ratio (z) = 0.54185 0.11134
#
# Static dielectric constant tensor:
#      x y z
#    x 3.591400 0.000000 0.048380 
#    y 0.000000 3.471590 0.000000 
#    z 0.048380 0.000000 3.391460 
# 
# 
# High freq. dielectric constant tensor:
#      x y z
#    x 1.762910 0.000000 0.004410 
#    y 0.000000 1.741090 0.000000 
#    z 0.004410 0.000000 1.735820 
# 
# From -- ./inp_files/108647.got.cif
#   From: 2010.06.25/outbox.cif.g09.slc.cpg/sg15_55_cif.got.tgz:108647.got - 2010.06.28 07:06:18.
