data_PCOD8133153
_publ_section_title
;
Structure prediction by ZEFSAII (Michael W. Deem and Ramdas Pophale) SiO2 
 PCOD8133153
Probable space group: C 2/C
;
_chemical_formula_sum "Si O2"
_cell_formula_units_Z 56
_cell_length_a 20.123461
_cell_length_b 11.841404
_cell_length_c 22.016377
_cell_angle_alpha 90.000000
_cell_angle_beta 143.535042
_cell_angle_gamma 90.000000
_cell_volume 3118.028923
_symmetry_space_group_name_H-M "C 2/C"
_symmetry_group_IT_number 15
_symmetry_cell_setting 'monoclinic'
loop_
_space_group_symop_operation_xyz
x,y,z
-x,y,1/2-z
-x,-y,-z
x,-y,1/2+z
1/2+x,1/2+y,z
1/2-x,1/2+y,1/2-z
1/2-x,1/2-y,-z
1/2+x,1/2-y,1/2+z
loop_
_atom_site_type_symbol
_atom_site_label
_atom_site_fract_x
_atom_site_fract_y
_atom_site_fract_z
Si Si1 0.395377 0.503831 0.812491
Si Si2 0.917812 0.072128 0.636700
Si Si3 0.731648 0.012405 0.582187
Si Si4 0.957670 0.388887 0.003488
Si Si5 0.869771 0.792892 0.876605
Si Si6 0.892052 0.742265 0.027324
Si Si7 0.622991 0.250254 0.163576
O O1 0.509002 0.500940 0.856650
O O2 0.287383 0.498591 0.689184
O O3 0.406344 0.399005 0.864637
O O4 0.385884 0.614284 0.847203
O O5 0.822019 0.990357 0.595112
O O6 0.857946 0.177000 0.558119
O O7 0.000000 0.119326 0.750000
O O8 0.693693 0.140962 0.543491
O O9 0.624217 0.928339 0.501320
O O10 0.883225 0.306273 0.907065
O O11 0.000000 0.500000 0.000000
O O12 0.066651 0.317935 0.104860
O O13 0.737592 0.781153 0.779276
O O14 0.901250 0.810706 0.970181
O O15 0.021597 0.702276 0.131848
#
# Coordination Sequence:
#
# PCOD8133153 Si02
#       7
#     8   8   8   8   8   8   8
#     4  10  20  36  56  82 115 145 194 228 283 327
#     4   9  21  35  55  81 112 155 190 229 275 333
#     4  11  18  36  56  79 115 148 187 229 275 349
#     4  11  20  34  55  84 112 145 185 222 292 335
#     4  11  21  33  58  86 113 145 182 242 279 336
#     4  10  20  33  56  86 110 144 189 227 293 328
#     4  10  19  32  53  81 114 140 177 237 278 329
#
# _framework density 17.960065
#
# number of rings (size 3 to 8) (size 9 to 14) (size 15 to 20)
#    0.000    1.714    5.714    0.429    0.000    5.143 
#    0.000    0.714    0.000    0.000    0.000    0.000 
#    0.000    0.000    0.000    0.000    0.000    0.000 
#
# Total GULP energy -346944.616824 kJ/mol
# GULP energy per Si atom -12390.879172 kJ/mol
# Density = 1.791919 g / cm^3
# Si number density = 17.960065 Si / 1000 Ang^3
#
#
#
# Elastic Constant Matrix: (Units=GPa)
#
#
# Indices 1 2 3 4 5 6 
#
# 1 104.4003 42.8899 32.5198 0.0000 2.5370 0.0000
# 2 42.8899 88.4294 24.0428 0.0000 -7.2676 0.0000
# 3 32.5198 24.0428 68.8296 0.0000 7.1819 0.0000
# 4 0.0000 0.0000 0.0000 28.0410 0.0000 2.6852
# 5 2.5370 -7.2676 7.1819 0.0000 24.1006 0.0000
# 6 0.0000 0.0000 0.0000 2.6852 0.0000 31.7691
#
#
#
# Elastic Compliance Matrix: (Units=1/GPa)
#
#
# Indices 1 2 3 4 5 6 
#
# 1 0.013122 -0.005386 -0.004133 0.000000 -0.001774 0.000000
# 2 -0.005386 0.015380 -0.003479 0.000000 0.006241 0.000000
# 3 -0.004133 -0.003479 0.018331 0.000000 -0.006076 0.000000
# 4 0.000000 0.000000 0.000000 0.035953 0.000000 -0.003039
# 5 -0.001774 0.006241 -0.006076 0.000000 0.045372 0.000000
# 6 0.000000 0.000000 0.000000 -0.003039 0.000000 0.031734
#
#
# Mechanical properties :
#
#
# Convention : Reuss Voigt Hill
#
# Bulk Modulus (GPa) = 47.99399 51.17380 49.58390
# Shear Modulus (GPa) = 25.92918 27.59593 26.76256
#
# Velocity S-wave (km/s) = 3.80374 3.92409 3.86439
# Velocity P-wave (km/s) = 6.78763 7.00616 6.89776
#
# Compressibility (1/GPa) = 0.02083594
#
# Stress axis : x y z
#
# Youngs Moduli (GPa) = 76.20857 65.02073 54.55385
#
# Poissons Ratio (x) = 0.35023 0.22547
# Poissons Ratio (y) = 0.41049 0.18977
# Poissons Ratio (z) = 0.31497 0.22618
#
# Static dielectric constant tensor:
#      x y z
#    x 3.496320 0.000000 0.227930 
#    y 0.000000 3.229550 0.000000 
#    z 0.227930 0.000000 3.460360 
# 
# 
# High freq. dielectric constant tensor:
#      x y z
#    x 1.690300 0.000000 0.026470 
#    y 0.000000 1.672800 0.000000 
#    z 0.026470 0.000000 1.698210 
# 
# From -- ./inp_files/279817.got.cif
#   From: 2010.06.25/outbox.cif.g09.slc.cpg/sg15_140_cif.got.tgz:279817.got - 2010.06.28 07:06:18.
