data_PCOD8133135
_publ_section_title
;
Structure prediction by ZEFSAII (Michael W. Deem and Ramdas Pophale) SiO2 
 PCOD8133135
Probable space group: C 2/C
;
_chemical_formula_sum "Si O2"
_cell_formula_units_Z 64
_cell_length_a 8.735315
_cell_length_b 21.730441
_cell_length_c 18.503079
_cell_angle_alpha 90.000000
_cell_angle_beta 93.080146
_cell_angle_gamma 90.000000
_cell_volume 3507.221997
_symmetry_space_group_name_H-M "C 2/C"
_symmetry_group_IT_number 15
_symmetry_cell_setting 'monoclinic'
loop_
_space_group_symop_operation_xyz
x,y,z
-x,y,1/2-z
-x,-y,-z
x,-y,1/2+z
1/2+x,1/2+y,z
1/2-x,1/2+y,1/2-z
1/2-x,1/2-y,-z
1/2+x,1/2-y,1/2+z
loop_
_atom_site_type_symbol
_atom_site_label
_atom_site_fract_x
_atom_site_fract_y
_atom_site_fract_z
Si Si1 0.917087 0.623195 0.676459
Si Si2 0.585023 0.011679 0.615676
Si Si3 0.438111 0.635293 0.825650
Si Si4 0.043152 0.060194 0.046371
Si Si5 0.419371 0.506370 0.672612
Si Si6 0.612475 0.919813 0.967658
Si Si7 0.409568 0.681620 0.976926
Si Si8 0.946355 0.690328 0.532888
O O1 0.738276 0.617243 0.688338
O O2 0.965931 0.673029 0.617361
O O3 0.000000 0.646740 0.750000
O O4 0.967400 0.555069 0.654935
O O5 0.734408 0.002482 0.669563
O O6 0.629476 0.040231 0.540163
O O7 0.502674 0.947262 0.595444
O O8 0.500000 0.661735 0.750000
O O9 0.533843 0.575041 0.852010
O O10 0.449008 0.684508 0.891575
O O11 0.219448 0.078152 0.061391
O O12 0.961995 0.117574 0.009080
O O13 0.978499 0.048267 0.123968
O O14 0.000000 0.000000 0.000000
O O15 0.500000 0.493350 0.750000
O O16 0.554084 0.851633 0.985220
O O17 0.493277 0.738986 0.018057
O O18 0.230625 0.681756 0.991403
#
# Coordination Sequence:
#
# PCOD8133135 Si02
#       8
#     8   8   8   8   8   8   8   8
#     4  10  19  32  52  80 112 145 187 231 280 339
#     4  10  19  32  53  80 112 145 181 236 280 332
#     4  10  19  32  54  80 110 141 180 233 287 337
#     4  12  21  34  57  84 112 146 186 239 285 337
#     4  11  21  34  52  82 117 149 185 229 292 347
#     4  10  20  33  55  84 110 143 188 236 283 334
#     4  10  20  38  59  80 110 150 195 238 276 342
#     4   9  21  37  57  81 109 152 196 232 281 335
#
# _framework density 18.248061
#
# number of rings (size 3 to 8) (size 9 to 14) (size 15 to 20)
#    0.000    1.750    2.500    3.000    3.500    1.500 
#    0.000    0.625    0.000    5.250    0.000    0.000 
#    0.000    0.000    0.000    0.000    0.000    0.000 
#
# Total GULP energy -396685.804085 kJ/mol
# GULP energy per Si atom -12396.431378 kJ/mol
# Density = 1.820653 g / cm^3
# Si number density = 18.248061 Si / 1000 Ang^3
#
#
#
# Elastic Constant Matrix: (Units=GPa)
#
#
# Indices 1 2 3 4 5 6 
#
# 1 95.2609 33.0829 38.4700 0.0000 0.1869 0.0000
# 2 33.0829 113.1980 47.3148 0.0000 2.2218 0.0000
# 3 38.4700 47.3148 93.0991 0.0000 6.4178 0.0000
# 4 0.0000 0.0000 0.0000 16.0707 0.0000 0.5089
# 5 0.1869 2.2218 6.4178 0.0000 34.3065 0.0000
# 6 0.0000 0.0000 0.0000 0.5089 0.0000 21.8662
#
#
#
# Elastic Compliance Matrix: (Units=1/GPa)
#
#
# Indices 1 2 3 4 5 6 
#
# 1 0.012961 -0.001957 -0.004422 0.000000 0.000883 0.000000
# 2 -0.001957 0.011516 -0.005059 0.000000 0.000211 0.000000
# 3 -0.004422 -0.005059 0.015313 0.000000 -0.002513 0.000000
# 4 0.000000 0.000000 0.000000 0.062271 0.000000 -0.001449
# 5 0.000883 0.000211 -0.002513 0.000000 0.029601 0.000000
# 6 0.000000 0.000000 0.000000 -0.001449 0.000000 0.045766
#
#
# Mechanical properties :
#
#
# Convention : Reuss Voigt Hill
#
# Bulk Modulus (GPa) = 59.12043 59.92147 59.52095
# Shear Modulus (GPa) = 24.27872 26.62806 25.45339
#
# Velocity S-wave (km/s) = 3.65153 3.82413 3.73883
# Velocity P-wave (km/s) = 7.08850 7.23927 7.16428
#
# Compressibility (1/GPa) = 0.01691463
#
# Stress axis : x y z
#
# Youngs Moduli (GPa) = 77.15341 86.83318 65.30539
#
# Poissons Ratio (x) = 0.16993 0.28879
# Poissons Ratio (y) = 0.15099 0.33036
# Poissons Ratio (z) = 0.34118 0.43927
#
# Static dielectric constant tensor:
#      x y z
#    x 3.530350 0.000000 -0.171770 
#    y 0.000000 3.375350 0.000000 
#    z -0.171770 0.000000 3.862580 
# 
# 
# High freq. dielectric constant tensor:
#      x y z
#    x 1.720760 0.000000 0.001080 
#    y 0.000000 1.679350 0.000000 
#    z 0.001080 0.000000 1.704330 
# 
# From -- ./inp_files/193005.got.cif
#   From: 2010.06.25/outbox.cif.g09.slc.cpg/sg15_97_cif.got.tgz:193005.got - 2010.06.28 07:06:18.
