data_PCOD8133829
_publ_section_title
;
Structure prediction by ZEFSAII (Michael W. Deem and Ramdas Pophale) SiO2 
 PCOD8133829
Probable space group: C 2/C
;
_chemical_formula_sum "Si O2"
_cell_formula_units_Z 56
_cell_length_a 18.572378
_cell_length_b 32.877456
_cell_length_c 5.242148
_cell_angle_alpha 90.000000
_cell_angle_beta 112.530399
_cell_angle_gamma 90.000000
_cell_volume 2956.615358
_symmetry_space_group_name_H-M "C 2/C"
_symmetry_group_IT_number 15
_symmetry_cell_setting 'monoclinic'
loop_
_space_group_symop_operation_xyz
x,y,z
-x,y,1/2-z
-x,-y,-z
x,-y,1/2+z
1/2+x,1/2+y,z
1/2-x,1/2+y,1/2-z
1/2-x,1/2-y,-z
1/2+x,1/2-y,1/2+z
loop_
_atom_site_type_symbol
_atom_site_label
_atom_site_fract_x
_atom_site_fract_y
_atom_site_fract_z
Si Si1 0.524695 0.614126 0.533605
Si Si2 0.330478 0.337085 0.270862
Si Si3 0.954079 0.281999 0.437121
Si Si4 0.413107 0.982666 0.911325
Si Si5 0.915379 0.611757 0.531524
Si Si6 0.347894 0.851290 0.423901
Si Si7 0.905333 0.190523 0.372475
O O1 0.500000 0.588694 0.750000
O O2 0.616491 0.622235 0.660145
O O3 0.473882 0.656631 0.463664
O O4 0.500000 0.588712 0.250000
O O5 0.242225 0.350650 0.124685
O O6 0.346351 0.313511 0.555155
O O7 0.354180 0.309977 0.060031
O O8 0.873239 0.306766 0.353924
O O9 0.944684 0.233977 0.404964
O O10 0.000000 0.297575 0.250000
O O11 0.000000 0.294228 0.750000
O O12 0.369598 0.994962 0.589154
O O13 0.413894 0.934905 0.950431
O O14 0.500000 0.000000 0.000000
O O15 0.858276 0.618278 0.696706
O O16 0.000000 0.625236 0.750000
O O17 0.894063 0.636304 0.244565
#
# Coordination Sequence:
#
# PCOD8133829 Si02
#       7
#     8   8   8   8   8   8   8
#     4   8  14  27  48  70  84 115 162 219 272 291
#     4  10  20  35  50  75 101 125 179 213 277 336
#     4  12  23  38  52  72  97 130 192 230 274 322
#     4  10  19  34  58  88  97 121 177 244 239 262
#     4  12  23  39  57  74 110 141 180 212 258 305
#     4  12  26  36  50  76 110 152 162 205 282 346
#     4  10  19  34  58  71  89 127 177 248 268 298
#
# _framework density 18.940577999999999
#
# number of rings (size 3 to 8) (size 9 to 14) (size 15 to 20)
#    0.000    1.429    1.429    7.714    2.000    1.143 
#    0.000    0.000    0.000    0.000    0.000    0.000 
#    0.000    0.000    0.000    0.000    0.000  450.000 
#
# Total GULP energy -346961.618007 kJ/mol
# GULP energy per Si atom -12391.486357 kJ/mol
# Density = 1.889747 g / cm^3
# Si number density = 18.940578 Si / 1000 Ang^3
#
#
#
# Elastic Constant Matrix: (Units=GPa)
#
#
# Indices 1 2 3 4 5 6 
#
# 1 100.9362 15.6041 53.1159 0.0000 -6.4787 0.0000
# 2 15.6041 37.5542 14.5249 0.0000 -1.0289 0.0000
# 3 53.1159 14.5249 144.3231 0.0000 -36.4508 0.0000
# 4 0.0000 0.0000 0.0000 19.5789 0.0000 -8.9684
# 5 -6.4787 -1.0289 -36.4508 0.0000 42.2054 0.0000
# 6 0.0000 0.0000 0.0000 -8.9684 0.0000 12.2089
#
#
#
# Elastic Compliance Matrix: (Units=1/GPa)
#
#
# Indices 1 2 3 4 5 6 
#
# 1 0.012936 -0.003498 -0.005025 0.000000 -0.002439 0.000000
# 2 -0.003498 0.028816 -0.002009 0.000000 -0.001570 0.000000
# 3 -0.005025 -0.002009 0.011221 0.000000 0.008871 0.000000
# 4 0.000000 0.000000 0.000000 0.076977 0.000000 0.056545
# 5 -0.002439 -0.001570 0.008871 0.000000 0.030942 0.000000
# 6 0.000000 0.000000 0.000000 0.056545 0.000000 0.123445
#
#
# Mechanical properties :
#
#
# Convention : Reuss Voigt Hill
#
# Bulk Modulus (GPa) = 31.34003 49.92259 40.63131
# Shear Modulus (GPa) = 15.82100 28.10320 21.96210
#
# Velocity S-wave (km/s) = 2.89329 3.85613 3.40888
# Velocity P-wave (km/s) = 5.26725 6.80008 6.08214
#
# Compressibility (1/GPa) = 0.03190808
#
# Stress axis : x y z
#
# Youngs Moduli (GPa) = 77.30549 34.70325 89.12047
#
# Poissons Ratio (x) = 0.12140 0.44781
# Poissons Ratio (y) = 0.27044 0.17904
# Poissons Ratio (z) = 0.38844 0.06972
#
# Static dielectric constant tensor:
#      x y z
#    x 3.517000 0.000000 -0.612640 
#    y 0.000000 3.020860 0.000000 
#    z -0.612640 0.000000 4.357770 
# 
# 
# High freq. dielectric constant tensor:
#      x y z
#    x 1.725960 0.000000 -0.035950 
#    y 0.000000 1.687570 0.000000 
#    z -0.035950 0.000000 1.763040 
# 
# From -- ./inp_files/12229.got.cif
#   From: 2010.06.25/outbox.cif.g09.slc.cpg/sg15_7_cif.got.tgz:12229.got - 2010.06.28 07:06:18.
