data_PCOD8133695
_publ_section_title
;
Structure prediction by ZEFSAII (Michael W. Deem and Ramdas Pophale) SiO2 
 PCOD8133695
Probable space group: C 2/C
;
_chemical_formula_sum "Si O2"
_cell_formula_units_Z 56
_cell_length_a 21.471467
_cell_length_b 8.083228
_cell_length_c 22.721131
_cell_angle_alpha 90.000000
_cell_angle_beta 127.670602
_cell_angle_gamma 90.000000
_cell_volume 3121.388470
_symmetry_space_group_name_H-M "C 2/C"
_symmetry_group_IT_number 15
_symmetry_cell_setting 'monoclinic'
loop_
_space_group_symop_operation_xyz
x,y,z
-x,y,1/2-z
-x,-y,-z
x,-y,1/2+z
1/2+x,1/2+y,z
1/2-x,1/2+y,1/2-z
1/2-x,1/2-y,-z
1/2+x,1/2-y,1/2+z
loop_
_atom_site_type_symbol
_atom_site_label
_atom_site_fract_x
_atom_site_fract_y
_atom_site_fract_z
Si Si1 0.797865 0.636508 0.316363
Si Si2 0.128862 0.280577 0.012124
Si Si3 0.042261 0.202621 0.566622
Si Si4 0.157324 0.940072 0.964940
Si Si5 0.778076 0.389567 0.939158
Si Si6 0.998820 0.148850 0.080926
Si Si7 0.656524 0.780062 0.165471
O O1 0.874318 0.752293 0.356739
O O2 0.761778 0.620165 0.360605
O O3 0.729543 0.679299 0.231994
O O4 0.829296 0.466548 0.310117
O O5 0.162076 0.459073 0.010333
O O6 0.148463 0.246639 0.091427
O O7 0.034123 0.290426 0.947952
O O8 0.166335 0.123147 0.999043
O O9 0.044328 0.248285 0.497770
O O10 0.037304 0.008557 0.572032
O O11 0.195992 0.939212 0.923019
O O12 0.064354 0.896543 0.905324
O O13 0.195682 0.792991 0.025563
O O14 0.073603 0.243941 0.150805
#
# Coordination Sequence:
#
# PCOD8133695 Si02
#       7
#     8   8   8   8   8   8   8
#     4  11  21  34  50  79 107 135 178 214 270 318
#     4   9  20  35  54  81 105 136 176 217 267 310
#     4   9  17  30  54  74 105 131 167 223 259 311
#     4  10  19  34  55  76 107 137 169 220 254 303
#     4  10  21  32  53  80 104 138 175 211 256 314
#     4   9  17  32  51  77  99 136 172 210 271 303
#     4  10  22  31  53  77 106 141 165 224 272 313
#
# _framework density 17.940735
#
# number of rings (size 3 to 8) (size 9 to 14) (size 15 to 20)
#    0.000    2.286    1.429    2.143    4.000    1.714 
#    0.000    0.714    0.000    0.000    0.000    3.000 
#    0.000    0.000    0.000    0.000    0.000    0.000 
#
# Total GULP energy -346903.830646 kJ/mol
# GULP energy per Si atom -12389.422523 kJ/mol
# Density = 1.789990 g / cm^3
# Si number density = 17.940735 Si / 1000 Ang^3
#
#
#
# Elastic Constant Matrix: (Units=GPa)
#
#
# Indices 1 2 3 4 5 6 
#
# 1 94.7861 12.1891 20.7058 0.0000 9.5289 0.0000
# 2 12.1891 52.4228 -2.3280 0.0000 -4.0652 0.0000
# 3 20.7058 -2.3280 67.9191 0.0000 18.6100 0.0000
# 4 0.0000 0.0000 0.0000 30.2448 0.0000 7.1550
# 5 9.5289 -4.0652 18.6100 0.0000 18.1727 0.0000
# 6 0.0000 0.0000 0.0000 7.1550 0.0000 29.7936
#
#
#
# Elastic Compliance Matrix: (Units=1/GPa)
#
#
# Indices 1 2 3 4 5 6 
#
# 1 0.011965 -0.003235 -0.002559 0.000000 -0.004377 0.000000
# 2 -0.003235 0.020313 -0.000038 0.000000 0.006279 0.000000
# 3 -0.002559 -0.000038 0.021041 0.000000 -0.020214 0.000000
# 4 0.000000 0.000000 0.000000 0.035055 0.000000 -0.008419
# 5 -0.004377 0.006279 -0.020214 0.000000 0.079428 0.000000
# 6 0.000000 0.000000 0.000000 -0.008419 0.000000 0.035586
#
#
# Mechanical properties :
#
#
# Convention : Reuss Voigt Hill
#
# Bulk Modulus (GPa) = 24.00717 30.69575 27.35146
# Shear Modulus (GPa) = 21.83998 27.94627 24.89312
#
# Velocity S-wave (km/s) = 3.49283 3.95105 3.72898
# Velocity P-wave (km/s) = 5.44765 6.16126 5.81541
#
# Compressibility (1/GPa) = 0.04165422
#
# Stress axis : x y z
#
# Youngs Moduli (GPa) = 83.57589 49.22916 47.52635
#
# Poissons Ratio (x) = 0.15926 0.12164
# Poissons Ratio (y) = 0.27038 0.00181
# Poissons Ratio (z) = 0.21390 0.00187
#
# Static dielectric constant tensor:
#      x y z
#    x 3.498160 0.000000 0.202430 
#    y 0.000000 3.538110 0.000000 
#    z 0.202430 0.000000 2.475020 
# 
# 
# High freq. dielectric constant tensor:
#      x y z
#    x 1.695280 0.000000 0.025800 
#    y 0.000000 1.711740 0.000000 
#    z 0.025800 0.000000 1.655380 
# 
# From -- ./inp_files/213357.got.cif
#   From: 2010.06.25/outbox.cif.g09.slc.cpg/sg15_107_cif.got.tgz:213357.got - 2010.06.28 07:06:18.
