data_PCOD8133452
_publ_section_title
;
Structure prediction by ZEFSAII (Michael W. Deem and Ramdas Pophale) SiO2 
 PCOD8133452
Probable space group: C 2/C
;
_chemical_formula_sum "Si O2"
_cell_formula_units_Z 60
_cell_length_a 8.399253
_cell_length_b 14.421668
_cell_length_c 24.675795
_cell_angle_alpha 90.000000
_cell_angle_beta 102.541043
_cell_angle_gamma 90.000000
_cell_volume 2917.693965
_symmetry_space_group_name_H-M "C 2/C"
_symmetry_group_IT_number 15
_symmetry_cell_setting 'monoclinic'
loop_
_space_group_symop_operation_xyz
x,y,z
-x,y,1/2-z
-x,-y,-z
x,-y,1/2+z
1/2+x,1/2+y,z
1/2-x,1/2+y,1/2-z
1/2-x,1/2-y,-z
1/2+x,1/2-y,1/2+z
loop_
_atom_site_type_symbol
_atom_site_label
_atom_site_fract_x
_atom_site_fract_y
_atom_site_fract_z
Si Si1 0.000000 0.954391 0.750000
Si Si2 0.854580 0.783545 0.058805
Si Si3 0.166086 0.981819 0.160529
Si Si4 0.107130 0.384449 0.869122
Si Si5 0.139434 0.529241 0.967256
Si Si6 0.347817 0.511892 0.575181
Si Si7 0.766959 0.816618 0.405173
Si Si8 0.745476 0.369595 0.848331
O O1 0.088797 0.023663 0.714546
O O2 0.120016 0.886070 0.790696
O O3 0.818699 0.712046 0.104720
O O4 0.790808 0.881426 0.076295
O O5 0.048914 0.793932 0.059697
O O6 0.750000 0.750000 0.000000
O O7 0.293091 0.068083 0.172442
O O8 0.236978 0.882182 0.148930
O O9 0.036363 0.005664 0.103309
O O10 0.121293 0.458214 0.917991
O O11 0.924749 0.361306 0.835814
O O12 0.152855 0.634544 0.943236
O O13 0.312354 0.520132 0.011197
O O14 0.000000 0.500000 0.000000
O O15 0.239133 0.456501 0.610173
O O16 0.689321 0.719992 0.379235
#
# Coordination Sequence:
#
# PCOD8133452 Si02
#       8
#     4   8   8   8   8   8   8   8
#     4  10  22  44  64  80 108 152 202 252 326 338
#     4  10  19  33  55  87 120 163 196 228 282 358
#     4   9  21  40  62  86 114 156 195 257 295 359
#     4  10  20  36  57  88 124 151 201 239 294 361
#     4  11  20  35  57  88 127 168 191 236 297 362
#     4  10  20  35  56  86 125 159 197 234 288 353
#     4   9  22  38  58  87 125 154 201 246 294 362
#     4  10  21  42  59  86 118 152 202 260 295 365
#
# _framework density 20.564184000000001
#
# number of rings (size 3 to 8) (size 9 to 14) (size 15 to 20)
#    0.000    2.133    2.667    0.000    1.867    2.667 
#    4.800    8.000    0.000    0.000    0.000    0.000 
#    0.000    0.000    0.000    0.000    0.000    0.000 
#
# Total GULP energy -371682.316854 kJ/mol
# GULP energy per Si atom -12389.410562 kJ/mol
# Density = 2.051738 g / cm^3
# Si number density = 20.564184 Si / 1000 Ang^3
#
#
#
# Elastic Constant Matrix: (Units=GPa)
#
#
# Indices 1 2 3 4 5 6 
#
# 1 60.3202 41.4252 33.7236 0.0000 -5.4140 0.0000
# 2 41.4252 141.1456 45.7518 0.0000 0.5650 0.0000
# 3 33.7236 45.7518 95.2765 0.0000 7.1116 0.0000
# 4 0.0000 0.0000 0.0000 24.6794 0.0000 -0.0436
# 5 -5.4140 0.5650 7.1116 0.0000 33.3923 0.0000
# 6 0.0000 0.0000 0.0000 -0.0436 0.0000 30.9114
#
#
#
# Elastic Compliance Matrix: (Units=1/GPa)
#
#
# Indices 1 2 3 4 5 6 
#
# 1 0.024152 -0.004984 -0.006558 0.000000 0.005397 0.000000
# 2 -0.004984 0.009437 -0.002739 0.000000 -0.000385 0.000000
# 3 -0.006558 -0.002739 0.014438 0.000000 -0.004092 0.000000
# 4 0.000000 0.000000 0.000000 0.040520 0.000000 0.000057
# 5 0.005397 -0.000385 -0.004092 0.000000 0.031700 0.000000
# 6 0.000000 0.000000 0.000000 0.000057 0.000000 0.032351
#
#
# Mechanical properties :
#
#
# Convention : Reuss Voigt Hill
#
# Bulk Modulus (GPa) = 51.37583 59.83815 55.60699
# Shear Modulus (GPa) = 26.64573 29.51940 28.08256
#
# Velocity S-wave (km/s) = 3.60354 3.79288 3.69942
# Velocity P-wave (km/s) = 6.50779 6.95289 6.73402
#
# Compressibility (1/GPa) = 0.01946440
#
# Stress axis : x y z
#
# Youngs Moduli (GPa) = 41.40439 105.96561 69.26347
#
# Poissons Ratio (x) = 0.52816 0.45424
# Poissons Ratio (y) = 0.20637 0.18970
# Poissons Ratio (z) = 0.27153 0.29022
#
# Static dielectric constant tensor:
#      x y z
#    x 4.108180 0.000000 -0.049140 
#    y 0.000000 4.044710 0.000000 
#    z -0.049140 0.000000 3.644340 
# 
# 
# High freq. dielectric constant tensor:
#      x y z
#    x 1.796430 0.000000 0.011660 
#    y 0.000000 1.810090 0.000000 
#    z 0.011660 0.000000 1.783910 
# 
# From -- ./inp_files/288443.got.cif
#   From: 2010.06.25/outbox.cif.g09.slc.cpg/sg15_145_cif.got.tgz:288443.got - 2010.06.28 07:06:18.
