data_PCOD8133329
_publ_section_title
;
Structure prediction by ZEFSAII (Michael W. Deem and Ramdas Pophale) SiO2 
 PCOD8133329
Probable space group: C 2/C
;
_chemical_formula_sum "Si O2"
_cell_formula_units_Z 56
_cell_length_a 18.304079
_cell_length_b 28.110501
_cell_length_c 8.846751
_cell_angle_alpha 90.000000
_cell_angle_beta 138.739697
_cell_angle_gamma 90.000000
_cell_volume 3001.943817
_symmetry_space_group_name_H-M "C 2/C"
_symmetry_group_IT_number 15
_symmetry_cell_setting 'monoclinic'
loop_
_space_group_symop_operation_xyz
x,y,z
-x,y,1/2-z
-x,-y,-z
x,-y,1/2+z
1/2+x,1/2+y,z
1/2-x,1/2+y,1/2-z
1/2-x,1/2-y,-z
1/2+x,1/2-y,1/2+z
loop_
_atom_site_type_symbol
_atom_site_label
_atom_site_fract_x
_atom_site_fract_y
_atom_site_fract_z
Si Si1 0.815255 0.561947 0.799125
Si Si2 0.618423 0.882176 0.361472
Si Si3 0.884567 0.870661 0.491912
Si Si4 0.756764 0.480954 0.496307
Si Si5 0.690700 0.439031 0.689031
Si Si6 0.784991 0.803953 0.569732
Si Si7 0.032106 0.851902 0.465731
O O1 0.892540 0.600456 0.832652
O O2 0.689659 0.582345 0.605547
O O3 0.826784 0.514050 0.718302
O O4 0.840271 0.549508 0.014966
O O5 0.500000 0.877085 0.250000
O O6 0.690584 0.919447 0.570262
O O7 0.676602 0.831108 0.461416
O O8 0.822382 0.825385 0.467190
O O9 0.913903 0.856466 0.366261
O O10 0.000000 0.882674 0.750000
O O11 0.688216 0.446470 0.502840
O O12 0.674913 0.511469 0.258327
O O13 0.593640 0.402614 0.577288
O O14 0.750000 0.750000 0.500000
O O15 0.888349 0.810609 0.844920
O O16 0.000000 0.836177 0.250000
#
# Coordination Sequence:
#
# PCOD8133329 Si02
#       7
#     8   8   8   8   8   8   8
#     4   9  17  30  44  65  96 129 166 205 241 281
#     4   9  18  33  52  71  95 127 166 208 251 298
#     4   9  17  31  49  69  98 131 159 194 245 302
#     4   9  16  30  47  65  99 135 167 210 241 276
#     4   9  18  32  47  71 104 135 170 208 245 285
#     4   9  19  35  56  78  98 125 163 204 252 312
#     4  10  19  33  53  77 104 134 164 201 252 304
#
# _framework density 18.654578999999998
#
# number of rings (size 3 to 8) (size 9 to 14) (size 15 to 20)
#    0.000    2.857    0.000    3.429    0.000    1.714 
#    0.000   27.143    0.000    3.429    0.000    0.000 
#    0.000    0.000    0.000    0.000    0.000    0.000 
#
# Total GULP energy -346895.008724 kJ/mol
# GULP energy per Si atom -12389.107454 kJ/mol
# Density = 1.861212 g / cm^3
# Si number density = 18.654579 Si / 1000 Ang^3
#
#
#
# Elastic Constant Matrix: (Units=GPa)
#
#
# Indices 1 2 3 4 5 6 
#
# 1 152.2583 44.6459 50.7760 0.0000 -7.5986 0.0000
# 2 44.6459 95.0454 28.8345 0.0000 -2.2188 0.0000
# 3 50.7760 28.8345 46.8531 0.0000 -9.9059 0.0000
# 4 0.0000 0.0000 0.0000 10.8966 0.0000 -2.7626
# 5 -7.5986 -2.2188 -9.9059 0.0000 40.2960 0.0000
# 6 0.0000 0.0000 0.0000 -2.7626 0.0000 19.4530
#
#
#
# Elastic Compliance Matrix: (Units=1/GPa)
#
#
# Indices 1 2 3 4 5 6 
#
# 1 0.010554 -0.001795 -0.010478 0.000000 -0.000684 0.000000
# 2 -0.001795 0.013308 -0.006499 0.000000 -0.001203 0.000000
# 3 -0.010478 -0.006499 0.038190 0.000000 0.007054 0.000000
# 4 0.000000 0.000000 0.000000 0.095199 0.000000 0.013520
# 5 -0.000684 -0.001203 0.007054 0.000000 0.026355 0.000000
# 6 0.000000 0.000000 0.000000 0.013520 0.000000 0.053326
#
#
# Mechanical properties :
#
#
# Convention : Reuss Voigt Hill
#
# Bulk Modulus (GPa) = 40.80341 60.29662 50.55001
# Shear Modulus (GPa) = 17.68998 25.45582 21.57290
#
# Velocity S-wave (km/s) = 3.08277 3.69804 3.40434
# Velocity P-wave (km/s) = 5.88149 7.11526 6.52759
#
# Compressibility (1/GPa) = 0.02450776
#
# Stress axis : x y z
#
# Youngs Moduli (GPa) = 94.74912 75.14253 26.18489
#
# Poissons Ratio (x) = 0.13487 0.27436
# Poissons Ratio (y) = 0.17006 0.17019
# Poissons Ratio (z) = 0.99278 0.48838
#
# Static dielectric constant tensor:
#      x y z
#    x 3.966050 0.000000 -0.393560 
#    y 0.000000 3.232540 0.000000 
#    z -0.393560 0.000000 3.230010 
# 
# 
# High freq. dielectric constant tensor:
#      x y z
#    x 1.740930 0.000000 -0.019960 
#    y 0.000000 1.703300 0.000000 
#    z -0.019960 0.000000 1.686480 
# 
# From -- ./inp_files/34153.got.cif
#   From: 2010.06.25/outbox.cif.g09.slc.cpg/sg15_18_cif.got.tgz:34153.got - 2010.06.28 07:06:18.
