data_PCOD8133350
_publ_section_title
;
Structure prediction by ZEFSAII (Michael W. Deem and Ramdas Pophale) SiO2 
 PCOD8133350
Probable space group: C 2/C
;
_chemical_formula_sum "Si O2"
_cell_formula_units_Z 56
_cell_length_a 24.025587
_cell_length_b 10.778507
_cell_length_c 14.618918
_cell_angle_alpha 90.000000
_cell_angle_beta 138.568808
_cell_angle_gamma 90.000000
_cell_volume 2505.083416
_symmetry_space_group_name_H-M "C 2/C"
_symmetry_group_IT_number 15
_symmetry_cell_setting 'monoclinic'
loop_
_space_group_symop_operation_xyz
x,y,z
-x,y,1/2-z
-x,-y,-z
x,-y,1/2+z
1/2+x,1/2+y,z
1/2-x,1/2+y,1/2-z
1/2-x,1/2-y,-z
1/2+x,1/2-y,1/2+z
loop_
_atom_site_type_symbol
_atom_site_label
_atom_site_fract_x
_atom_site_fract_y
_atom_site_fract_z
Si Si1 0.425957 0.180979 0.219362
Si Si2 0.118413 0.072774 0.642406
Si Si3 0.128435 0.576663 0.640709
Si Si4 0.209016 0.976546 0.582040
Si Si5 0.072992 0.025847 0.776326
Si Si6 0.453631 0.835784 0.959800
Si Si7 0.215307 0.691789 0.584961
O O1 0.500000 0.119989 0.250000
O O2 0.436486 0.327719 0.229966
O O3 0.436428 0.128964 0.332945
O O4 0.332256 0.149602 0.066495
O O5 0.066051 0.995465 0.657088
O O6 0.071525 0.195719 0.545676
O O7 0.200130 0.113874 0.801220
O O8 0.143793 0.988465 0.588043
O O9 0.210488 0.564846 0.806562
O O10 0.103394 0.442951 0.563398
O O11 0.150106 0.670428 0.586484
O O12 0.052010 0.639855 0.603206
O O13 0.161018 0.017267 0.430331
O O14 0.239909 0.835637 0.615314
O O15 0.000000 0.964570 0.750000
#
# Coordination Sequence:
#
# PCOD8133350 Si02
#       7
#     8   8   8   8   8   8   8
#     4   9  16  29  52  80 109 135 178 246 284 316
#     4  10  21  35  58  85 113 154 190 232 294 336
#     4  10  20  33  52  79 114 147 182 235 276 346
#     4  10  21  36  57  86 114 150 187 240 287 340
#     4   9  20  35  54  85 115 141 193 239 284 332
#     4  10  19  33  53  83 110 147 189 229 293 336
#     4  10  19  34  54  83 114 146 190 236 286 337
#
# _framework density 22.354545000000002
#
# number of rings (size 3 to 8) (size 9 to 14) (size 15 to 20)
#    0.000    2.286    2.857    0.000    4.000    2.286 
#    0.000    0.000    0.000    5.143    0.000    0.000 
#    0.000    0.000    0.000    0.000    0.000    0.000 
#
# Total GULP energy -347000.547187 kJ/mol
# GULP energy per Si atom -12392.876685 kJ/mol
# Density = 2.230366 g / cm^3
# Si number density = 22.354545 Si / 1000 Ang^3
#
#
#
# Elastic Constant Matrix: (Units=GPa)
#
#
# Indices 1 2 3 4 5 6 
#
# 1 56.2887 2.0336 8.9025 0.0000 12.7029 0.0000
# 2 2.0336 28.0929 21.8042 0.0000 6.0851 0.0000
# 3 8.9025 21.8042 61.7229 0.0000 -4.5728 0.0000
# 4 0.0000 0.0000 0.0000 19.0341 0.0000 3.3112
# 5 12.7029 6.0851 -4.5728 0.0000 27.4675 0.0000
# 6 0.0000 0.0000 0.0000 3.3112 0.0000 23.6446
#
#
#
# Elastic Compliance Matrix: (Units=1/GPa)
#
#
# Indices 1 2 3 4 5 6 
#
# 1 0.021231 0.005719 -0.005978 0.000000 -0.012081 0.000000
# 2 0.005719 0.056472 -0.022170 0.000000 -0.018847 0.000000
# 3 -0.005978 -0.022170 0.025782 0.000000 0.011968 0.000000
# 4 0.000000 0.000000 0.000000 0.053849 0.000000 -0.007541
# 5 -0.012081 -0.018847 0.011968 0.000000 0.048161 0.000000
# 6 0.000000 0.000000 0.000000 -0.007541 0.000000 0.043349
#
#
# Mechanical properties :
#
#
# Convention : Reuss Voigt Hill
#
# Bulk Modulus (GPa) = 17.05685 23.50948 20.28316
# Shear Modulus (GPa) = 15.96198 21.58683 18.77440
#
# Velocity S-wave (km/s) = 2.67505 3.11087 2.90116
# Velocity P-wave (km/s) = 4.14583 4.84178 4.50726
#
# Compressibility (1/GPa) = 0.05862746
#
# Stress axis : x y z
#
# Youngs Moduli (GPa) = 47.10166 17.70792 38.78641
#
# Poissons Ratio (x) = -0.10128 0.23185
# Poissons Ratio (y) = -0.26939 0.85991
# Poissons Ratio (z) = 0.28156 0.39259
#
# Static dielectric constant tensor:
#      x y z
#    x 4.544670 0.000000 0.091620 
#    y 0.000000 3.594570 0.000000 
#    z 0.091620 0.000000 4.161480 
# 
# 
# High freq. dielectric constant tensor:
#      x y z
#    x 1.886930 0.000000 0.024170 
#    y 0.000000 1.831330 0.000000 
#    z 0.024170 0.000000 1.884660 
# 
# From -- ./inp_files/177599.got.cif
#   From: 2010.06.25/outbox.cif.g09.slc.cpg/sg15_89_cif.got.tgz:177599.got - 2010.06.28 07:06:18.
