data_PCOD8133675
_publ_section_title
;
Structure prediction by ZEFSAII (Michael W. Deem and Ramdas Pophale) SiO2 
 PCOD8133675
Probable space group: C 2/C
;
_chemical_formula_sum "Si O2"
_cell_formula_units_Z 56
_cell_length_a 23.217061
_cell_length_b 25.093030
_cell_length_c 11.964921
_cell_angle_alpha 90.000000
_cell_angle_beta 25.179844
_cell_angle_gamma 90.000000
_cell_volume 2965.718299
_symmetry_space_group_name_H-M "C 2/C"
_symmetry_group_IT_number 15
_symmetry_cell_setting 'monoclinic'
loop_
_space_group_symop_operation_xyz
x,y,z
-x,y,1/2-z
-x,-y,-z
x,-y,1/2+z
1/2+x,1/2+y,z
1/2-x,1/2+y,1/2-z
1/2-x,1/2-y,-z
1/2+x,1/2-y,1/2+z
loop_
_atom_site_type_symbol
_atom_site_label
_atom_site_fract_x
_atom_site_fract_y
_atom_site_fract_z
Si Si1 0.683796 0.109458 0.126950
Si Si2 0.644627 0.262322 0.867058
Si Si3 0.105193 0.643739 0.880715
Si Si4 0.650869 0.289865 0.113557
Si Si5 0.357197 0.939860 0.567287
Si Si6 0.641055 0.843422 0.063222
Si Si7 0.840886 0.444640 0.048120
O O1 0.554557 0.142946 0.308726
O O2 0.635572 0.071110 0.312684
O O3 0.733334 0.073485 0.935584
O O4 0.804454 0.148993 0.948209
O O5 0.666203 0.199691 0.812133
O O6 0.765064 0.291673 0.590316
O O7 0.656265 0.275964 0.975298
O O8 0.500110 0.281961 0.072524
O O9 0.115652 0.634050 0.730771
O O10 0.186067 0.597149 0.804231
O O11 0.750000 0.250000 0.000000
O O12 0.500000 0.938390 0.250000
O O13 0.279454 0.889662 0.646822
O O14 0.283495 0.996743 0.681073
O O15 0.500000 0.827318 0.250000
O O16 0.000000 0.450986 0.750000
#
# Coordination Sequence:
#
# PCOD8133675 Si02
#       7
#     8   8   8   8   8   8   8
#     4  11  19  36  56  83 113 149 182 236 289 332
#     4  11  23  35  56  88 110 156 193 226 285 342
#     4  11  20  35  54  82 119 141 187 235 286 338
#     4  11  21  35  58  81 119 150 190 236 279 338
#     4  10  19  34  54  81 111 147 189 231 285 341
#     4  11  21  38  56  81 115 153 186 230 284 343
#     4   9  22  31  55  87 111 144 186 240 290 332
#
# _framework density 18.882441
#
# number of rings (size 3 to 8) (size 9 to 14) (size 15 to 20)
#    0.000    1.429    5.714    1.286    6.000    1.714 
#    0.000    0.000    0.000    0.857    3.714    0.000 
#    0.000    0.000    0.000    0.000    0.000    0.000 
#
# Total GULP energy -347100.106057 kJ/mol
# GULP energy per Si atom -12396.432359 kJ/mol
# Density = 1.883946 g / cm^3
# Si number density = 18.882441 Si / 1000 Ang^3
#
#
#
# Elastic Constant Matrix: (Units=GPa)
#
#
# Indices 1 2 3 4 5 6 
#
# 1 102.8387 49.3531 23.8148 -0.0011 2.1861 0.0004
# 2 49.3531 153.4610 32.6343 -0.0001 -7.4892 0.0005
# 3 23.8148 32.6343 50.8954 0.0000 -5.6698 0.0032
# 4 -0.0011 -0.0001 0.0000 16.4525 0.0025 2.9021
# 5 2.1861 -7.4892 -5.6698 0.0025 20.4882 -0.0015
# 6 0.0004 0.0005 0.0032 2.9021 -0.0015 33.7414
#
#
#
# Elastic Compliance Matrix: (Units=1/GPa)
#
#
# Indices 1 2 3 4 5 6 
#
# 1 0.012314 -0.003272 -0.004069 0.000001 -0.003636 0.000000
# 2 -0.003272 0.008458 -0.003620 -0.000001 0.002439 0.000000
# 3 -0.004069 -0.003620 0.024530 -0.000001 0.005899 -0.000002
# 4 0.000001 -0.000001 -0.000001 0.061718 -0.000009 -0.005308
# 5 -0.003636 0.002439 0.005899 -0.000009 0.051721 0.000002
# 6 0.000000 0.000000 -0.000002 -0.005308 0.000002 0.030094
#
#
# Mechanical properties :
#
#
# Convention : Reuss Voigt Hill
#
# Bulk Modulus (GPa) = 42.77259 57.64440 50.20850
# Shear Modulus (GPa) = 22.87815 27.56261 25.22038
#
# Velocity S-wave (km/s) = 3.48459 3.82474 3.65862
# Velocity P-wave (km/s) = 6.23627 7.07808 6.67047
#
# Compressibility (1/GPa) = 0.02337946
#
# Stress axis : x y z
#
# Youngs Moduli (GPa) = 81.20902 118.23718 40.76584
#
# Poissons Ratio (x) = 0.38692 0.16586
# Poissons Ratio (y) = 0.26575 0.14758
# Poissons Ratio (z) = 0.33041 0.42803
#
# Static dielectric constant tensor:
#      x y z
#    x 3.409460 -0.000010 0.010350 
#    y -0.000010 3.865510 0.000010 
#    z 0.010350 0.000010 3.193770 
# 
# 
# High freq. dielectric constant tensor:
#      x y z
#    x 1.742690 0.000000 0.021180 
#    y 0.000000 1.747090 0.000000 
#    z 0.021180 0.000000 1.679600 
# 
# From -- ./inp_files/90916.got.cif
#   From: 2010.06.25/outbox.cif.g09.slc.cpg/sg15_46_cif.got.tgz:90916.got - 2010.06.28 07:06:18.
