data_PCOD8133145
_publ_section_title
;
Structure prediction by ZEFSAII (Michael W. Deem and Ramdas Pophale) SiO2 
 PCOD8133145
Probable space group: C 2/C
;
_chemical_formula_sum "Si O2"
_cell_formula_units_Z 56
_cell_length_a 25.789140
_cell_length_b 11.792005
_cell_length_c 20.043295
_cell_angle_alpha 90.000000
_cell_angle_beta 31.639288
_cell_angle_gamma 90.000000
_cell_volume 3197.399705
_symmetry_space_group_name_H-M "C 2/C"
_symmetry_group_IT_number 15
_symmetry_cell_setting 'monoclinic'
loop_
_space_group_symop_operation_xyz
x,y,z
-x,y,1/2-z
-x,-y,-z
x,-y,1/2+z
1/2+x,1/2+y,z
1/2-x,1/2+y,1/2-z
1/2-x,1/2-y,-z
1/2+x,1/2-y,1/2+z
loop_
_atom_site_type_symbol
_atom_site_label
_atom_site_fract_x
_atom_site_fract_y
_atom_site_fract_z
Si Si1 0.544672 0.887069 0.632802
Si Si2 0.037856 0.171663 0.841402
Si Si3 0.457228 0.960658 0.116129
Si Si4 0.425191 0.487372 0.020748
Si Si5 0.250998 0.785070 0.075723
Si Si6 0.224733 0.597787 0.213909
Si Si7 0.063841 0.257076 0.958225
O O1 0.500000 0.935071 0.750000
O O2 0.497805 0.763041 0.672982
O O3 0.662324 0.874500 0.506128
O O4 0.518078 0.978279 0.606918
O O5 0.152503 0.146170 0.702923
O O6 0.018419 0.224120 0.936142
O O7 0.977095 0.053368 0.901766
O O8 0.341844 0.995959 0.245045
O O9 0.480583 0.825926 0.091964
O O10 0.500000 0.000000 0.000000
O O11 0.318004 0.543994 0.150202
O O12 0.409781 0.353186 0.025898
O O13 0.500000 0.500000 0.000000
O O14 0.260968 0.675305 0.112522
O O15 0.250000 0.750000 0.000000
O O16 0.163435 0.670001 0.335743
#
# Coordination Sequence:
#
# PCOD8133145 Si02
#       7
#     8   8   8   8   8   8   8
#     4  12  20  33  59  83 112 144 190 239 278 331
#     4  10  19  34  49  82 109 140 186 228 277 324
#     4  10  19  35  54  79 108 148 189 229 278 333
#     4  10  21  33  49  79 114 145 180 229 283 341
#     4  11  20  33  54  82 111 144 184 235 288 326
#     4  10  19  32  53  77 107 143 191 225 275 339
#     4   9  20  35  53  78 112 146 182 225 285 329
#
# _framework density 17.514233000000001
#
# number of rings (size 3 to 8) (size 9 to 14) (size 15 to 20)
#    0.000    1.714    7.143    0.000    0.000    9.143 
#    0.000    0.000    0.000    2.571    0.000    4.000 
#    0.000    0.000    0.000    0.000    0.000    0.000 
#
# Total GULP energy -347000.225999 kJ/mol
# GULP energy per Si atom -12392.865214 kJ/mol
# Density = 1.747437 g / cm^3
# Si number density = 17.514233 Si / 1000 Ang^3
#
#
#
# Elastic Constant Matrix: (Units=GPa)
#
#
# Indices 1 2 3 4 5 6 
#
# 1 81.1702 33.6149 40.5785 0.0000 -7.0835 0.0000
# 2 33.6149 113.9175 54.2751 -0.0001 -5.2867 0.0001
# 3 40.5785 54.2751 95.9268 0.0000 -15.3786 0.0000
# 4 0.0000 -0.0001 0.0000 21.4598 0.0000 -1.7495
# 5 -7.0835 -5.2867 -15.3786 0.0000 36.6362 0.0000
# 6 0.0000 0.0001 0.0000 -1.7495 0.0000 24.5836
#
#
#
# Elastic Compliance Matrix: (Units=1/GPa)
#
#
# Indices 1 2 3 4 5 6 
#
# 1 0.015972 -0.002065 -0.005512 0.000000 0.000477 0.000000
# 2 -0.002065 0.012334 -0.006308 0.000000 -0.001267 0.000000
# 3 -0.005512 -0.006308 0.017164 0.000000 0.005229 0.000000
# 4 0.000000 0.000000 0.000000 0.046871 0.000000 0.003336
# 5 0.000477 -0.001267 0.005229 0.000000 0.029400 0.000000
# 6 0.000000 0.000000 0.000000 0.003336 0.000000 0.040915
#
#
# Mechanical properties :
#
#
# Convention : Reuss Voigt Hill
#
# Bulk Modulus (GPa) = 56.49734 60.88349 58.69042
# Shear Modulus (GPa) = 25.46796 27.37231 26.42014
#
# Velocity S-wave (km/s) = 3.81744 3.95759 3.88815
# Velocity P-wave (km/s) = 7.19434 7.46466 7.33074
#
# Compressibility (1/GPa) = 0.01769995
#
# Stress axis : x y z
#
# Youngs Moduli (GPa) = 62.60999 81.07408 58.26252
#
# Poissons Ratio (x) = 0.16741 0.32112
# Poissons Ratio (y) = 0.12928 0.36755
# Poissons Ratio (z) = 0.34508 0.51145
#
# Static dielectric constant tensor:
#      x y z
#    x 3.152470 0.000000 -0.188580 
#    y 0.000000 3.829550 0.000000 
#    z -0.188580 0.000000 3.401720 
# 
# 
# High freq. dielectric constant tensor:
#      x y z
#    x 1.661650 0.000000 -0.020550 
#    y 0.000000 1.663560 0.000000 
#    z -0.020550 0.000000 1.675510 
# 
# From -- ./inp_files/255291.got.cif
#   From: 2010.06.25/outbox.cif.g09.slc.cpg/sg15_128_cif.got.tgz:255291.got - 2010.06.28 07:06:18.
