data_PCOD8133119
_publ_section_title
;
Structure prediction by ZEFSAII (Michael W. Deem and Ramdas Pophale) SiO2 
 PCOD8133119
Probable space group: C 2/C
;
_chemical_formula_sum "Si O2"
_cell_formula_units_Z 40
_cell_length_a 18.512335
_cell_length_b 13.407877
_cell_length_c 20.628677
_cell_angle_alpha 90.000000
_cell_angle_beta 153.818515
_cell_angle_gamma 90.000000
_cell_volume 2259.143049
_symmetry_space_group_name_H-M "C 2/C"
_symmetry_group_IT_number 15
_symmetry_cell_setting 'monoclinic'
loop_
_space_group_symop_operation_xyz
x,y,z
-x,y,1/2-z
-x,-y,-z
x,-y,1/2+z
1/2+x,1/2+y,z
1/2-x,1/2+y,1/2-z
1/2-x,1/2-y,-z
1/2+x,1/2-y,1/2+z
loop_
_atom_site_type_symbol
_atom_site_label
_atom_site_fract_x
_atom_site_fract_y
_atom_site_fract_z
Si Si1 0.815333 0.033584 0.420821
Si Si2 0.172380 0.644831 0.422380
Si Si3 0.381903 0.853628 0.921504
Si Si4 0.526308 0.966416 0.920820
Si Si5 0.461100 0.646371 0.421499
O O1 0.791644 0.083176 0.471598
O O2 0.644042 0.003778 0.250001
O O3 0.913150 0.111949 0.455117
O O4 0.919773 0.934066 0.515457
O O5 0.250000 0.750000 0.500000
O O6 0.151549 0.583176 0.471597
O O7 0.000000 0.664890 0.250000
O O8 0.497086 0.888051 0.955119
O O9 0.195952 0.840777 0.750003
O O10 0.445473 0.750000 0.000003
O O11 0.388864 0.934065 0.984548
#
# Coordination Sequence:
#
# PCOD8133119 Si02
#       5
#     8   8   8   8   8
#     4   9  19  34  51  74 102 131 165 203 244 292
#     4  10  20  34  53  76 103 132 161 200 248 296
#     4  10  19  32  52  75 100 131 166 205 246 290
#     4   9  19  34  51  74 102 131 165 203 244 292
#     4  10  19  32  52  75 100 131 166 205 246 290
#
# _framework density 17.705828
#
# number of rings (size 3 to 8) (size 9 to 14) (size 15 to 20)
#    0.000    2.400    0.000    2.400    0.000    3.200 
#    0.000    1.000    0.000    0.000    0.000    0.000 
#    0.000    0.000    0.000    0.000    0.000    0.000 
#
# Total GULP energy -248087.064568 kJ/mol
# GULP energy per Si atom -12404.353228 kJ/mol
# Density = 1.766553 g / cm^3
# Si number density = 17.705828 Si / 1000 Ang^3
#
#
#
# Elastic Constant Matrix: (Units=GPa)
#
#
# Indices 1 2 3 4 5 6 
#
# 1 133.0454 82.8447 49.4107 0.0016 0.3531 -0.0001
# 2 82.8447 174.4083 87.4355 0.0005 -0.0423 -0.0007
# 3 49.4107 87.4355 86.1867 -0.0016 0.1028 -0.0007
# 4 0.0016 0.0005 -0.0016 40.3226 0.0008 -0.2168
# 5 0.3531 -0.0423 0.1028 0.0008 23.6480 0.0000
# 6 -0.0001 -0.0007 -0.0007 -0.2168 0.0000 17.8789
#
#
#
# Elastic Compliance Matrix: (Units=1/GPa)
#
#
# Indices 1 2 3 4 5 6 
#
# 1 0.010843 -0.004140 -0.002017 0.000000 -0.000161 0.000000
# 2 -0.004140 0.013248 -0.011067 0.000000 0.000134 0.000000
# 3 -0.002017 -0.011067 0.023986 0.000001 -0.000094 0.000001
# 4 0.000000 0.000000 0.000001 0.024802 -0.000001 0.000301
# 5 -0.000161 0.000134 -0.000094 -0.000001 0.042290 0.000000
# 6 0.000000 0.000000 0.000001 0.000301 0.000000 0.055935
#
#
# Mechanical properties :
#
#
# Convention : Reuss Voigt Hill
#
# Bulk Modulus (GPa) = 73.36116 92.55802 82.95959
# Shear Modulus (GPa) = 23.79867 27.96653 25.88260
#
# Velocity S-wave (km/s) = 3.67019 3.97862 3.82751
# Velocity P-wave (km/s) = 7.71257 8.57291 8.15409
#
# Compressibility (1/GPa) = 0.01363119
#
# Stress axis : x y z
#
# Youngs Moduli (GPa) = 92.22308 75.48122 41.69014
#
# Poissons Ratio (x) = 0.31247 0.08407
# Poissons Ratio (y) = 0.38177 0.46139
# Poissons Ratio (z) = 0.18598 0.83536
#
# Static dielectric constant tensor:
#      x y z
#    x 3.325970 0.000000 -0.000400 
#    y 0.000000 3.214050 -0.000010 
#    z -0.000400 -0.000010 3.369570 
# 
# 
# High freq. dielectric constant tensor:
#      x y z
#    x 1.676650 0.000000 -0.000120 
#    y 0.000000 1.689930 0.000000 
#    z -0.000120 0.000000 1.689420 
# 
# From -- ./inp_files/46180.got.cif
#   From: 2010.06.25/outbox.cif.g09.slc.cpg/sg15_24_cif.got.tgz:46180.got - 2010.06.28 07:06:18.
