data_PCOD8133087
_publ_section_title
;
Structure prediction by ZEFSAII (Michael W. Deem and Ramdas Pophale) SiO2 
 PCOD8133087
Probable space group: C 2/C
;
_chemical_formula_sum "Si O2"
_cell_formula_units_Z 48
_cell_length_a 15.790541
_cell_length_b 9.233157
_cell_length_c 18.262453
_cell_angle_alpha 90.000000
_cell_angle_beta 89.436023
_cell_angle_gamma 90.000000
_cell_volume 2662.473547
_symmetry_space_group_name_H-M "C 2/C"
_symmetry_group_IT_number 15
_symmetry_cell_setting 'monoclinic'
loop_
_space_group_symop_operation_xyz
x,y,z
-x,y,1/2-z
-x,-y,-z
x,-y,1/2+z
1/2+x,1/2+y,z
1/2-x,1/2+y,1/2-z
1/2-x,1/2-y,-z
1/2+x,1/2-y,1/2+z
loop_
_atom_site_type_symbol
_atom_site_label
_atom_site_fract_x
_atom_site_fract_y
_atom_site_fract_z
Si Si1 0.850028 0.350571 0.336567
Si Si2 0.985121 0.818713 0.922404
Si Si3 0.840863 0.145306 0.675905
Si Si4 0.506250 0.347546 0.084515
Si Si5 0.412345 0.349439 0.713207
Si Si6 0.584422 0.156302 0.206185
O O1 0.903881 0.275535 0.400089
O O2 0.751646 0.335478 0.358079
O O3 0.867888 0.278086 0.257866
O O4 0.872356 0.518166 0.329929
O O5 0.064442 0.787504 0.867617
O O6 0.960404 0.987964 0.918613
O O7 0.012376 0.775310 0.004179
O O8 0.852200 0.265580 0.738475
O O9 0.908741 0.161731 0.610571
O O10 0.850093 0.986211 0.711423
O O11 0.566012 0.264209 0.139764
O O12 0.500000 0.402424 0.750000
O O13 0.500000 0.109718 0.250000
#
# Coordination Sequence:
#
# PCOD8133087 Si02
#       6
#     8   8   8   8   8   8
#     4  11  20  30  50  77 102 122 154 207 249 278
#     4   9  18  34  54  71  93 131 170 194 231 290
#     4  10  19  32  51  74  99 126 158 200 245 286
#     4   9  19  35  54  69  93 133 169 194 229 293
#     4   9  17  33  53  70  93 131 168 192 230 293
#     4  10  19  32  50  74  98 126 163 199 238 284
#
# _framework density 18.028347
#
# number of rings (size 3 to 8) (size 9 to 14) (size 15 to 20)
#    0.000    2.333    0.000    6.000    0.000    1.333 
#    0.000    0.000    0.000   20.000    0.000    0.000 
#    0.000    0.000    0.000    0.000    0.000    0.000 
#
# Total GULP energy -297628.478431 kJ/mol
# GULP energy per Si atom -12401.186601 kJ/mol
# Density = 1.798731 g / cm^3
# Si number density = 18.028347 Si / 1000 Ang^3
#
#
#
# Elastic Constant Matrix: (Units=GPa)
#
#
# Indices 1 2 3 4 5 6 
#
# 1 66.4746 22.0095 0.7480 0.0000 6.9642 0.0000
# 2 22.0095 67.6148 11.7847 0.0000 3.0307 0.0000
# 3 0.7480 11.7847 85.5728 0.0000 -1.7055 0.0000
# 4 0.0000 0.0000 0.0000 17.5151 0.0000 -7.7209
# 5 6.9642 3.0307 -1.7055 0.0000 14.2153 0.0000
# 6 0.0000 0.0000 0.0000 -7.7209 0.0000 14.8233
#
#
#
# Elastic Compliance Matrix: (Units=1/GPa)
#
#
# Indices 1 2 3 4 5 6 
#
# 1 0.017631 -0.005486 0.000454 0.000000 -0.007414 0.000000
# 2 -0.005486 0.017035 -0.002322 0.000000 -0.001223 0.000000
# 3 0.000454 -0.002322 0.012036 0.000000 0.001717 0.000000
# 4 0.000000 0.000000 0.000000 0.074110 0.000000 0.038601
# 5 -0.007414 -0.001223 0.001717 0.000000 0.074446 0.000000
# 6 0.000000 0.000000 0.000000 0.038601 0.000000 0.087567
#
#
# Mechanical properties :
#
#
# Convention : Reuss Voigt Hill
#
# Bulk Modulus (GPa) = 31.25698 32.08296 31.66997
# Shear Modulus (GPa) = 16.22331 21.65207 18.93769
#
# Velocity S-wave (km/s) = 3.00305 3.46931 3.24456
# Velocity P-wave (km/s) = 5.42215 5.82088 5.62505
#
# Compressibility (1/GPa) = 0.03199285
#
# Stress axis : x y z
#
# Youngs Moduli (GPa) = 56.71722 58.70266 83.08377
#
# Poissons Ratio (x) = 0.32204 -0.03769
# Poissons Ratio (y) = 0.31115 0.19295
# Poissons Ratio (z) = -0.02573 0.13633
#
# Static dielectric constant tensor:
#      x y z
#    x 3.160440 0.000000 -0.055090 
#    y 0.000000 3.252100 0.000000 
#    z -0.055090 0.000000 3.442070 
# 
# 
# High freq. dielectric constant tensor:
#      x y z
#    x 1.680060 0.000000 -0.000930 
#    y 0.000000 1.698440 0.000000 
#    z -0.000930 0.000000 1.695340 
# 
# From -- ./inp_files/202987.got.cif
#   From: 2010.06.25/outbox.cif.g09.slc.cpg/sg15_102_cif.got.tgz:202987.got - 2010.06.28 07:06:18.
