data_PCOD8133079
_publ_section_title
;
Structure prediction by ZEFSAII (Michael W. Deem and Ramdas Pophale) SiO2 
 PCOD8133079
Probable space group: C 2/C
;
_chemical_formula_sum "Si O2"
_cell_formula_units_Z 56
_cell_length_a 19.972581
_cell_length_b 17.284624
_cell_length_c 26.077874
_cell_angle_alpha 90.000000
_cell_angle_beta 21.140369
_cell_angle_gamma 90.000000
_cell_volume 3246.811876
_symmetry_space_group_name_H-M "C 2/C"
_symmetry_group_IT_number 15
_symmetry_cell_setting 'monoclinic'
loop_
_space_group_symop_operation_xyz
x,y,z
-x,y,1/2-z
-x,-y,-z
x,-y,1/2+z
1/2+x,1/2+y,z
1/2-x,1/2+y,1/2-z
1/2-x,1/2-y,-z
1/2+x,1/2-y,1/2+z
loop_
_atom_site_type_symbol
_atom_site_label
_atom_site_fract_x
_atom_site_fract_y
_atom_site_fract_z
Si Si1 0.436401 0.727956 0.031130
Si Si2 0.476369 0.729711 0.647807
Si Si3 0.495197 0.891529 0.003894
Si Si4 0.189719 0.001013 0.229735
Si Si5 0.591701 0.410292 0.131455
Si Si6 0.620495 0.564825 0.387185
Si Si7 0.029460 0.401435 0.599823
O O1 0.227783 0.762139 0.181692
O O2 0.463232 0.650898 0.045577
O O3 0.516472 0.709023 0.917800
O O4 0.545722 0.801506 0.977885
O O5 0.592511 0.663821 0.593583
O O6 0.568452 0.813236 0.589055
O O7 0.665220 0.943020 0.903737
O O8 0.465564 0.907932 0.964706
O O9 0.301064 0.922317 0.167792
O O10 0.112190 0.047567 0.333285
O O11 0.019491 0.981194 0.314453
O O12 0.500000 0.383678 0.250000
O O13 0.798735 0.444062 0.994885
O O14 0.500000 0.500000 0.500000
O O15 0.830187 0.565237 0.260826
#
# Coordination Sequence:
#
# PCOD8133079 Si02
#       7
#     8   8   8   8   8   8   8
#     4  10  19  35  55  77 106 145 177 213 269 317
#     4  10  19  32  49  78 112 145 172 207 249 330
#     4   9  17  34  53  76 102 136 174 220 254 308
#     4  10  19  32  52  75 109 130 180 222 253 299
#     4  12  19  31  51  80 109 146 175 212 264 316
#     4  10  21  35  50  75 108 139 176 218 262 313
#     4   9  19  32  49  76 109 138 175 205 253 321
#
# _framework density 17.247688
#
# number of rings (size 3 to 8) (size 9 to 14) (size 15 to 20)
#    0.000    2.000    2.857    3.000    0.000    0.000 
#    0.000    5.714    0.000    0.000    0.000    4.000 
#    0.000    0.000    0.000    0.000    0.000    0.000 
#
# Total GULP energy -346923.546988 kJ/mol
# GULP energy per Si atom -12390.126678 kJ/mol
# Density = 1.720843 g / cm^3
# Si number density = 17.247688 Si / 1000 Ang^3
#
#
#
# Elastic Constant Matrix: (Units=GPa)
#
#
# Indices 1 2 3 4 5 6 
#
# 1 59.6617 44.8160 31.3459 -0.0044 -9.5447 0.0009
# 2 44.8160 119.9088 36.0913 -0.0182 -8.4220 -0.0055
# 3 31.3459 36.0913 76.8931 -0.0771 -5.5967 -0.0609
# 4 -0.0044 -0.0182 -0.0771 25.7791 -0.0788 3.4552
# 5 -9.5447 -8.4220 -5.5967 -0.0788 30.6701 0.0146
# 6 0.0009 -0.0055 -0.0609 3.4552 0.0146 28.5703
#
#
#
# Elastic Compliance Matrix: (Units=1/GPa)
#
#
# Indices 1 2 3 4 5 6 
#
# 1 0.026993 -0.007609 -0.007067 -0.000004 0.005021 -0.000019
# 2 -0.007609 0.011962 -0.002479 0.000002 0.000465 -0.000003
# 3 -0.007067 -0.002479 0.017067 0.000045 0.000234 0.000031
# 4 -0.000004 0.000002 0.000045 0.039431 0.000111 -0.004769
# 5 0.005021 0.000465 0.000234 0.000111 0.034338 -0.000031
# 6 -0.000019 -0.000003 0.000031 -0.004769 -0.000031 0.035578
#
#
# Mechanical properties :
#
#
# Convention : Reuss Voigt Hill
#
# Bulk Modulus (GPa) = 46.05743 53.44109 49.74926
# Shear Modulus (GPa) = 24.16433 26.61793 25.39113
#
# Velocity S-wave (km/s) = 3.74708 3.93272 3.84102
# Velocity P-wave (km/s) = 6.74406 7.18842 6.96978
#
# Compressibility (1/GPa) = 0.02171203
#
# Stress axis : x y z
#
# Youngs Moduli (GPa) = 37.04666 83.59589 58.59359
#
# Poissons Ratio (x) = 0.63607 0.41408
# Poissons Ratio (y) = 0.28188 0.14526
# Poissons Ratio (z) = 0.26181 0.20725
#
# Static dielectric constant tensor:
#      x y z
#    x 2.938950 -0.000340 0.102250 
#    y -0.000340 3.526260 0.000290 
#    z 0.102250 0.000290 3.625770 
# 
# 
# High freq. dielectric constant tensor:
#      x y z
#    x 1.623130 0.000000 0.013140 
#    y 0.000000 1.665670 0.000030 
#    z 0.013140 0.000030 1.674700 
# 
# From -- ./inp_files/113296.got.cif
#   From: 2010.06.25/outbox.cif.g09.slc.cpg/sg15_57_cif.got.tgz:113296.got - 2010.06.28 07:06:18.
