data_PCOD8133681
_publ_section_title
;
Structure prediction by ZEFSAII (Michael W. Deem and Ramdas Pophale) SiO2 
 PCOD8133681
Probable space group: C 2/C
;
_chemical_formula_sum "Si O2"
_cell_formula_units_Z 56
_cell_length_a 22.683382
_cell_length_b 24.871913
_cell_length_c 5.151609
_cell_angle_alpha 90.000000
_cell_angle_beta 67.611954
_cell_angle_gamma 90.000000
_cell_volume 2687.359483
_symmetry_space_group_name_H-M "C 2/C"
_symmetry_group_IT_number 15
_symmetry_cell_setting 'monoclinic'
loop_
_space_group_symop_operation_xyz
x,y,z
-x,y,1/2-z
-x,-y,-z
x,-y,1/2+z
1/2+x,1/2+y,z
1/2-x,1/2+y,1/2-z
1/2-x,1/2-y,-z
1/2+x,1/2-y,1/2+z
loop_
_atom_site_type_symbol
_atom_site_label
_atom_site_fract_x
_atom_site_fract_y
_atom_site_fract_z
Si Si1 0.280516 0.026665 0.914866
Si Si2 0.432200 0.687974 0.250395
Si Si3 0.130670 0.854915 0.140633
Si Si4 0.362027 0.520590 0.832553
Si Si5 0.542133 0.190403 0.921234
Si Si6 0.737048 0.190964 0.117720
Si Si7 0.823522 0.353583 0.294203
O O1 0.295224 0.089258 0.929887
O O2 0.313113 0.005324 0.597441
O O3 0.205257 0.012152 0.026960
O O4 0.500000 0.669888 0.250000
O O5 0.383436 0.676681 0.567934
O O6 0.429433 0.750481 0.180148
O O7 0.420072 0.653970 0.006910
O O8 0.142238 0.916306 0.195340
O O9 0.196210 0.834375 0.912289
O O10 0.400494 0.494970 0.527580
O O11 0.500000 0.170901 0.750000
O O12 0.599790 0.148211 0.858704
O O13 0.500000 0.191816 0.250000
O O14 0.695209 0.189376 0.450598
O O15 0.750000 0.250000 0.000000
O O16 0.703978 0.158731 0.941781
#
# Coordination Sequence:
#
# PCOD8133681 Si02
#       7
#     8   8   8   8   8   8   8
#     4  10  20  36  58  85 118 157 204 249 302 367
#     4  11  23  41  62  88 119 163 212 255 302 363
#     4  12  22  37  62  89 122 159 205 256 309 372
#     4  10  19  34  54  82 113 151 197 242 298 361
#     4  11  23  42  66  91 124 167 213 253 299 368
#     4  12  23  36  57  94 134 162 194 252 329 392
#     4  12  23  40  63  92 129 166 209 258 315 380
#
# _framework density 20.838298000000002
#
# number of rings (size 3 to 8) (size 9 to 14) (size 15 to 20)
#    0.000    0.857    0.000   11.143    0.000    0.000 
#    0.000    0.000    0.000   11.143    0.000    0.000 
#    0.000    0.000    0.000    0.000    0.000    0.000 
#
# Total GULP energy -347104.698811 kJ/mol
# GULP energy per Si atom -12396.596386 kJ/mol
# Density = 2.079087 g / cm^3
# Si number density = 20.838298 Si / 1000 Ang^3
#
#
#
# Elastic Constant Matrix: (Units=GPa)
#
#
# Indices 1 2 3 4 5 6 
#
# 1 85.1820 27.6873 34.0291 0.0000 8.8094 0.0000
# 2 27.6873 48.3885 3.0317 0.0000 4.6532 0.0000
# 3 34.0291 3.0317 131.4842 0.0000 27.4557 0.0000
# 4 0.0000 0.0000 0.0000 20.2755 0.0000 3.9555
# 5 8.8094 4.6532 27.4557 0.0000 34.6534 0.0000
# 6 0.0000 0.0000 0.0000 3.9555 0.0000 28.0639
#
#
#
# Elastic Compliance Matrix: (Units=1/GPa)
#
#
# Indices 1 2 3 4 5 6 
#
# 1 0.016290 -0.009095 -0.004070 0.000000 0.000305 0.000000
# 2 -0.009095 0.026016 0.002397 0.000000 -0.003081 0.000000
# 3 -0.004070 0.002397 0.010131 0.000000 -0.007314 0.000000
# 4 0.000000 0.000000 0.000000 0.050715 0.000000 -0.007148
# 5 0.000305 -0.003081 -0.007314 0.000000 0.034988 0.000000
# 6 0.000000 0.000000 0.000000 -0.007148 0.000000 0.036640
#
#
# Mechanical properties :
#
#
# Convention : Reuss Voigt Hill
#
# Bulk Modulus (GPa) = 32.36092 43.83899 38.09995
# Shear Modulus (GPa) = 24.19931 29.95235 27.07583
#
# Velocity S-wave (km/s) = 3.41147 3.79538 3.60853
# Velocity P-wave (km/s) = 5.57501 6.34743 5.97372
#
# Compressibility (1/GPa) = 0.03090147
#
# Stress axis : x y z
#
# Youngs Moduli (GPa) = 61.38618 38.43731 98.70929
#
# Poissons Ratio (x) = 0.34960 0.40174
# Poissons Ratio (y) = 0.55833 -0.23664
# Poissons Ratio (z) = 0.24984 -0.09215
#
# Static dielectric constant tensor:
#      x y z
#    x 4.027550 0.000000 0.749120 
#    y 0.000000 3.649620 0.000000 
#    z 0.749120 0.000000 4.938750 
# 
# 
# High freq. dielectric constant tensor:
#      x y z
#    x 1.801700 0.000000 0.030440 
#    y 0.000000 1.806510 0.000000 
#    z 0.030440 0.000000 1.838230 
# 
# From -- ./inp_files/16104.got.cif
#   From: 2010.06.25/outbox.cif.g09.slc.cpg/sg15_9_cif.got.tgz:16104.got - 2010.06.28 07:06:18.
