data_PCOD8133336
_publ_section_title
;
Structure prediction by ZEFSAII (Michael W. Deem and Ramdas Pophale) SiO2 
 PCOD8133336
Probable space group: C 2/C
;
_chemical_formula_sum "Si O2"
_cell_formula_units_Z 64
_cell_length_a 23.184581
_cell_length_b 8.650359
_cell_length_c 17.035359
_cell_angle_alpha 90.000000
_cell_angle_beta 90.462635
_cell_angle_gamma 90.000000
_cell_volume 3416.414180
_symmetry_space_group_name_H-M "C 2/C"
_symmetry_group_IT_number 15
_symmetry_cell_setting 'monoclinic'
loop_
_space_group_symop_operation_xyz
x,y,z
-x,y,1/2-z
-x,-y,-z
x,-y,1/2+z
1/2+x,1/2+y,z
1/2-x,1/2+y,1/2-z
1/2-x,1/2-y,-z
1/2+x,1/2-y,1/2+z
loop_
_atom_site_type_symbol
_atom_site_label
_atom_site_fract_x
_atom_site_fract_y
_atom_site_fract_z
Si Si1 0.242432 0.786873 0.333173
Si Si2 0.150945 0.604581 0.066662
Si Si3 0.874735 0.312646 0.346309
Si Si4 0.067744 0.174059 0.477661
Si Si5 0.434395 0.322127 0.991091
Si Si6 0.125231 0.313812 0.333231
Si Si7 0.850254 0.604901 0.077975
Si Si8 0.744242 0.353172 0.829832
O O1 0.308656 0.760040 0.357812
O O2 0.202421 0.714978 0.399681
O O3 0.228666 0.701472 0.251829
O O4 0.228184 0.967027 0.323867
O O5 0.119627 0.493014 0.129761
O O6 0.208088 0.681441 0.103399
O O7 0.106859 0.737148 0.041092
O O8 0.171380 0.503226 0.992869
O O9 0.914288 0.205439 0.401303
O O10 0.894401 0.289501 0.256672
O O11 0.079180 0.231379 0.389162
O O12 0.002066 0.209056 0.498480
O O13 0.082235 0.994164 0.483678
O O14 0.404455 0.205949 0.051152
O O15 0.128625 0.497243 0.350074
O O16 0.187874 0.242813 0.351347
#
# Coordination Sequence:
#
# PCOD8133336 Si02
#       8
#     8   8   8   8   8   8   8   8
#     4  10  19  33  53  79 112 142 174 217 267 322
#     4   9  20  34  54  79 107 139 178 220 264 321
#     4   9  20  36  55  81 109 142 180 217 267 321
#     4  10  22  39  57  78 106 141 184 227 270 318
#     4  10  22  39  57  78 106 142 182 227 272 317
#     4  10  21  36  56  83 110 142 181 220 268 323
#     4  10  20  34  55  79 108 141 177 220 268 320
#     4  10  20  34  53  80 112 142 174 216 266 319
#
# _framework density 18.733091000000002
#
# number of rings (size 3 to 8) (size 9 to 14) (size 15 to 20)
#    0.000    2.250    0.000    3.000    0.000   15.500 
#    0.000    1.250    0.000    5.250    0.000    0.000 
#    0.000    0.000    0.000    0.000    0.000    0.000 
#
# Total GULP energy -396884.188646 kJ/mol
# GULP energy per Si atom -12402.630895 kJ/mol
# Density = 1.869045 g / cm^3
# Si number density = 18.733091 Si / 1000 Ang^3
#
#
#
# Elastic Constant Matrix: (Units=GPa)
#
#
# Indices 1 2 3 4 5 6 
#
# 1 78.7174 60.5577 44.6245 0.0000 -2.9733 0.0000
# 2 60.5577 120.0908 56.1759 0.0000 0.4084 0.0000
# 3 44.6245 56.1759 83.0720 0.0000 2.0155 0.0000
# 4 0.0000 0.0000 0.0000 30.1195 0.0000 -2.4895
# 5 -2.9733 0.4084 2.0155 0.0000 20.7668 0.0000
# 6 0.0000 0.0000 0.0000 -2.4895 0.0000 28.1619
#
#
#
# Elastic Compliance Matrix: (Units=1/GPa)
#
#
# Indices 1 2 3 4 5 6 
#
# 1 0.023342 -0.008589 -0.006832 0.000000 0.004174 0.000000
# 2 -0.008589 0.015347 -0.005741 0.000000 -0.000974 0.000000
# 3 -0.006832 -0.005741 0.019657 0.000000 -0.002773 0.000000
# 4 0.000000 0.000000 0.000000 0.033445 0.000000 0.002957
# 5 0.004174 -0.000974 -0.002773 0.000000 0.049040 0.000000
# 6 0.000000 0.000000 0.000000 0.002957 0.000000 0.035770
#
#
# Mechanical properties :
#
#
# Convention : Reuss Voigt Hill
#
# Bulk Modulus (GPa) = 62.41112 67.17738 64.79425
# Shear Modulus (GPa) = 22.29512 23.84444 23.06978
#
# Velocity S-wave (km/s) = 3.45359 3.57157 3.51308
# Velocity P-wave (km/s) = 7.02078 7.27642 7.14974
#
# Compressibility (1/GPa) = 0.01602279
#
# Stress axis : x y z
#
# Youngs Moduli (GPa) = 42.84179 65.16069 50.87264
#
# Poissons Ratio (x) = 0.55965 0.34756
# Poissons Ratio (y) = 0.36796 0.29204
# Poissons Ratio (z) = 0.29269 0.37406
#
# Static dielectric constant tensor:
#      x y z
#    x 3.258860 0.000000 -0.017170 
#    y 0.000000 3.579590 0.000000 
#    z -0.017170 0.000000 3.569470 
# 
# 
# High freq. dielectric constant tensor:
#      x y z
#    x 1.715010 0.000000 -0.003000 
#    y 0.000000 1.735950 0.000000 
#    z -0.003000 0.000000 1.733220 
# 
# From -- ./inp_files/218259.got.cif
#   From: 2010.06.25/outbox.cif.g09.slc.cpg/sg15_110_cif.got.tgz:218259.got - 2010.06.28 07:06:18.
