data_PCOD8133041
_publ_section_title
;
Structure prediction by ZEFSAII (Michael W. Deem and Ramdas Pophale) SiO2 
 PCOD8133041
Probable space group: C 2/C
;
_chemical_formula_sum "Si O2"
_cell_formula_units_Z 56
_cell_length_a 27.341862
_cell_length_b 17.432547
_cell_length_c 13.508627
_cell_angle_alpha 90.000000
_cell_angle_beta 153.657715
_cell_angle_gamma 90.000000
_cell_volume 2857.074498
_symmetry_space_group_name_H-M "C 2/C"
_symmetry_group_IT_number 15
_symmetry_cell_setting 'monoclinic'
loop_
_space_group_symop_operation_xyz
x,y,z
-x,y,1/2-z
-x,-y,-z
x,-y,1/2+z
1/2+x,1/2+y,z
1/2-x,1/2+y,1/2-z
1/2-x,1/2-y,-z
1/2+x,1/2-y,1/2+z
loop_
_atom_site_type_symbol
_atom_site_label
_atom_site_fract_x
_atom_site_fract_y
_atom_site_fract_z
Si Si1 0.047584 0.204540 0.943167
Si Si2 0.739839 0.884203 0.700019
Si Si3 0.867667 0.240720 0.762070
Si Si4 0.873878 0.453163 0.182828
Si Si5 0.112490 0.410980 0.654490
Si Si6 0.790754 0.311406 0.155073
Si Si7 0.126029 0.777219 0.004414
O O1 0.000000 0.226388 0.750000
O O2 0.946908 0.188392 0.836815
O O3 0.129913 0.131348 0.082449
O O4 0.112005 0.277623 0.101446
O O5 0.694699 0.948319 0.542889
O O6 0.717383 0.912395 0.770829
O O7 0.670132 0.807064 0.556587
O O8 0.750000 0.250000 0.500000
O O9 0.918453 0.325459 0.866715
O O10 0.854845 0.201031 0.846144
O O11 0.853330 0.537433 0.190131
O O12 0.830160 0.389502 0.178745
O O13 0.004722 0.443270 0.402459
O O14 0.750000 0.250000 0.000000
O O15 0.691409 0.334314 0.049862
O O16 0.000000 0.782273 0.750000
#
# Coordination Sequence:
#
# PCOD8133041 Si02
#       7
#     8   8   8   8   8   8   8
#     4  11  21  36  60  89 116 153 203 252 303 357
#     4  10  20  36  60  82 117 164 197 240 303 368
#     4  11  21  38  58  86 119 150 199 249 310 355
#     4  11  20  37  60  86 123 157 198 243 303 371
#     4  10  22  37  56  89 123 156 191 247 306 372
#     4  11  19  34  57  90 117 152 202 247 294 358
#     4  10  19  31  57  84 115 148 192 246 290 348
#
# _framework density 19.600467999999999
#
# number of rings (size 3 to 8) (size 9 to 14) (size 15 to 20)
#    0.000    1.429    4.286    5.571    0.000    0.000 
#    5.143    0.000    0.000    6.000    0.000    0.000 
#    0.000    0.000    0.000    0.000    0.000    0.000 
#
# Total GULP energy -347149.476320 kJ/mol
# GULP energy per Si atom -12398.195583 kJ/mol
# Density = 1.955586 g / cm^3
# Si number density = 19.600468 Si / 1000 Ang^3
#
#
#
# Elastic Constant Matrix: (Units=GPa)
#
#
# Indices 1 2 3 4 5 6 
#
# 1 160.2683 19.5711 50.5218 0.0000 11.8372 0.0000
# 2 19.5711 36.0828 -4.0734 0.0000 0.9015 0.0000
# 3 50.5218 -4.0734 111.5733 0.0000 0.6725 0.0000
# 4 0.0000 0.0000 0.0000 22.2278 0.0000 -0.6764
# 5 11.8372 0.9015 0.6725 0.0000 43.0747 0.0000
# 6 0.0000 0.0000 0.0000 -0.6764 0.0000 27.6798
#
#
#
# Elastic Compliance Matrix: (Units=1/GPa)
#
#
# Indices 1 2 3 4 5 6 
#
# 1 0.008208 -0.004838 -0.003881 0.000000 -0.002094 0.000000
# 2 -0.004838 0.030696 0.003308 0.000000 0.000635 0.000000
# 3 -0.003881 0.003308 0.010836 0.000000 0.000828 0.000000
# 4 0.000000 0.000000 0.000000 0.045022 0.000000 0.001100
# 5 -0.002094 0.000635 0.000828 0.000000 0.023765 0.000000
# 6 0.000000 0.000000 0.000000 0.001100 0.000000 0.036154
#
#
# Mechanical properties :
#
#
# Convention : Reuss Voigt Hill
#
# Bulk Modulus (GPa) = 25.69561 48.88483 37.29022
# Shear Modulus (GPa) = 28.01499 34.72344 31.36922
#
# Velocity S-wave (km/s) = 3.78471 4.21356 4.00488
# Velocity P-wave (km/s) = 5.67775 6.97617 6.36018
#
# Compressibility (1/GPa) = 0.03891716
#
# Stress axis : x y z
#
# Youngs Moduli (GPa) = 121.82726 32.57792 92.28690
#
# Poissons Ratio (x) = 0.15761 0.35815
# Poissons Ratio (y) = 0.58940 -0.30524
# Poissons Ratio (z) = 0.47279 -0.10775
#
# Static dielectric constant tensor:
#      x y z
#    x 4.001010 0.000000 0.119480 
#    y 0.000000 3.331520 0.000000 
#    z 0.119480 0.000000 3.660370 
# 
# 
# High freq. dielectric constant tensor:
#      x y z
#    x 1.787140 0.000000 0.002050 
#    y 0.000000 1.708150 0.000000 
#    z 0.002050 0.000000 1.767970 
# 
# From -- ./inp_files/88944.got.cif
#   From: 2010.06.25/outbox.cif.g09.slc.cpg/sg15_45_cif.got.tgz:88944.got - 2010.06.28 07:06:18.
