data_PCOD8133223
_publ_section_title
;
Structure prediction by ZEFSAII (Michael W. Deem and Ramdas Pophale) SiO2 
 PCOD8133223
Probable space group: C 2/C
;
_chemical_formula_sum "Si O2"
_cell_formula_units_Z 56
_cell_length_a 26.030878
_cell_length_b 14.786658
_cell_length_c 15.675754
_cell_angle_alpha 90.000000
_cell_angle_beta 29.497694
_cell_angle_gamma 90.000000
_cell_volume 2970.949107
_symmetry_space_group_name_H-M "C 2/C"
_symmetry_group_IT_number 15
_symmetry_cell_setting 'monoclinic'
loop_
_space_group_symop_operation_xyz
x,y,z
-x,y,1/2-z
-x,-y,-z
x,-y,1/2+z
1/2+x,1/2+y,z
1/2-x,1/2+y,1/2-z
1/2-x,1/2-y,-z
1/2+x,1/2-y,1/2+z
loop_
_atom_site_type_symbol
_atom_site_label
_atom_site_fract_x
_atom_site_fract_y
_atom_site_fract_z
Si Si1 0.864628 0.546943 0.117781
Si Si2 0.164210 0.231973 0.194828
Si Si3 0.616242 0.185176 0.261129
Si Si4 0.747018 0.554062 0.117096
Si Si5 0.245712 0.649761 0.906103
Si Si6 0.947811 0.370455 0.240551
Si Si7 0.372613 0.157859 0.598503
O O1 0.846225 0.610891 0.224843
O O2 0.779204 0.569540 0.168951
O O3 0.859141 0.443168 0.154863
O O4 0.979858 0.557532 0.911560
O O5 0.153764 0.124261 0.227599
O O6 0.061331 0.282218 0.307787
O O7 0.194053 0.278565 0.241733
O O8 0.250000 0.250000 0.000000
O O9 0.655643 0.283384 0.236032
O O10 0.492821 0.189033 0.425360
O O11 0.670641 0.162241 0.094200
O O12 0.708276 0.452036 0.159477
O O13 0.842497 0.576264 0.915296
O O14 0.173285 0.666806 0.929119
O O15 0.000000 0.331327 0.250000
#
# Coordination Sequence:
#
# PCOD8133223 Si02
#       7
#     8   8   8   8   8   8   8
#     4  10  19  32  57  83 104 135 178 237 271 318
#     4  10  20  32  54  81 109 144 173 222 271 327
#     4  11  21  35  58  82 110 143 182 229 270 321
#     4   9  19  35  52  77 113 142 176 218 274 322
#     4  10  23  37  54  81 111 147 182 224 267 326
#     4   9  17  31  52  81 108 135 178 228 275 312
#     4  11  21  36  58  83 110 141 182 227 280 315
#
# _framework density 18.849195000000002
#
# number of rings (size 3 to 8) (size 9 to 14) (size 15 to 20)
#    0.000    2.000    1.429    2.571    4.000    2.286 
#    0.000    0.714    0.000    3.429    0.000    0.000 
#    0.000    0.000    0.000    0.000    0.000    0.000 
#
# Total GULP energy -347080.921450 kJ/mol
# GULP energy per Si atom -12395.747195 kJ/mol
# Density = 1.880629 g / cm^3
# Si number density = 18.849195 Si / 1000 Ang^3
#
#
#
# Elastic Constant Matrix: (Units=GPa)
#
#
# Indices 1 2 3 4 5 6 
#
# 1 90.3052 69.7521 24.4700 0.0000 15.6535 0.0000
# 2 69.7521 161.4987 38.3340 0.0000 4.2491 0.0000
# 3 24.4700 38.3340 43.7662 0.0000 13.6411 0.0000
# 4 0.0000 0.0000 0.0000 25.2052 0.0000 0.1103
# 5 15.6535 4.2491 13.6411 0.0000 27.4585 0.0000
# 6 0.0000 0.0000 0.0000 0.1103 0.0000 35.1734
#
#
#
# Elastic Compliance Matrix: (Units=1/GPa)
#
#
# Indices 1 2 3 4 5 6 
#
# 1 0.018827 -0.007656 -0.000999 0.000000 -0.009052 0.000000
# 2 -0.007656 0.011090 -0.007405 0.000000 0.006327 0.000000
# 3 -0.000999 -0.007405 0.034737 0.000000 -0.015542 0.000000
# 4 0.000000 0.000000 0.000000 0.039675 0.000000 -0.000124
# 5 -0.009052 0.006327 -0.015542 0.000000 0.048321 0.000000
# 6 0.000000 0.000000 0.000000 -0.000124 0.000000 0.028431
#
#
# Mechanical properties :
#
#
# Convention : Reuss Voigt Hill
#
# Bulk Modulus (GPa) = 30.73744 62.29803 46.51774
# Shear Modulus (GPa) = 22.31689 28.43502 25.37596
#
# Velocity S-wave (km/s) = 3.44462 3.88822 3.67312
# Velocity P-wave (km/s) = 5.67124 7.29933 6.53618
#
# Compressibility (1/GPa) = 0.03253361
#
# Stress axis : x y z
#
# Youngs Moduli (GPa) = 53.11526 90.17204 28.78759
#
# Poissons Ratio (x) = 0.69037 0.02876
# Poissons Ratio (y) = 0.40666 0.21317
# Poissons Ratio (z) = 0.05307 0.66772
#
# Static dielectric constant tensor:
#      x y z
#    x 3.915060 0.000000 0.067860 
#    y 0.000000 3.803680 0.000000 
#    z 0.067860 0.000000 3.314820 
# 
# 
# High freq. dielectric constant tensor:
#      x y z
#    x 1.744330 0.000000 0.025950 
#    y 0.000000 1.737300 0.000000 
#    z 0.025950 0.000000 1.706040 
# 
# From -- ./inp_files/161876.got.cif
#   From: 2010.06.25/outbox.cif.g09.slc.cpg/sg15_81_cif.got.tgz:161876.got - 2010.06.28 07:06:18.
