data_PCOD8133585
_publ_section_title
;
Structure prediction by ZEFSAII (Michael W. Deem and Ramdas Pophale) SiO2 
 PCOD8133585
Probable space group: C 2/C
;
_chemical_formula_sum "Si O2"
_cell_formula_units_Z 52
_cell_length_a 14.429345
_cell_length_b 11.410098
_cell_length_c 26.295184
_cell_angle_alpha 90.000000
_cell_angle_beta 140.741088
_cell_angle_gamma 90.000000
_cell_volume 2739.658078
_symmetry_space_group_name_H-M "C 2/C"
_symmetry_group_IT_number 15
_symmetry_cell_setting 'monoclinic'
loop_
_space_group_symop_operation_xyz
x,y,z
-x,y,1/2-z
-x,-y,-z
x,-y,1/2+z
1/2+x,1/2+y,z
1/2-x,1/2+y,1/2-z
1/2-x,1/2-y,-z
1/2+x,1/2-y,1/2+z
loop_
_atom_site_type_symbol
_atom_site_label
_atom_site_fract_x
_atom_site_fract_y
_atom_site_fract_z
Si Si1 0.667671 0.269535 0.384253
Si Si2 0.000000 0.411873 0.750000
Si Si3 0.037642 0.269481 0.933324
Si Si4 0.214951 0.749935 0.830498
Si Si5 0.740434 0.003541 0.115784
Si Si6 0.034134 0.540435 0.940338
Si Si7 0.514990 0.874519 0.324049
O O1 0.629004 0.173195 0.324976
O O2 0.829930 0.234649 0.472746
O O3 0.556912 0.280167 0.384819
O O4 0.650799 0.399907 0.353697
O O5 0.960637 0.497521 0.780587
O O6 0.886637 0.224574 0.894258
O O7 0.039369 0.407101 0.925620
O O8 0.181107 0.888762 0.822657
O O9 0.121104 0.714036 0.741097
O O10 0.156918 0.672148 0.853338
O O11 0.621057 0.935306 0.099249
O O12 0.663731 0.067093 0.034867
O O13 0.055512 0.622306 0.900402
#
# Coordination Sequence:
#
# PCOD8133585 Si02
#       7
#     8   4   8   8   8   8   8
#     4  10  19  33  61  84 115 138 185 232 289 323
#     4  10  20  34  54  86 108 148 180 224 286 346
#     4   9  18  36  60  83 108 150 183 233 274 335
#     4   9  20  37  55  79 117 147 190 226 274 337
#     4   9  19  34  58  86 106 142 188 238 270 335
#     4   9  17  36  60  78 110 151 187 216 293 341
#     4  10  21  38  57  75 117 159 179 228 285 330
#
# _framework density 18.980471000000001
#
# number of rings (size 3 to 8) (size 9 to 14) (size 15 to 20)
#    0.000    2.769    1.538    0.923    0.000    3.077 
#    0.000    6.154    3.385    0.000    0.000    0.000 
#    0.000    0.000    0.000    0.000    0.000    0.000 
#
# Total GULP energy -322193.555100 kJ/mol
# GULP energy per Si atom -12392.059812 kJ/mol
# Density = 1.893727 g / cm^3
# Si number density = 18.980471 Si / 1000 Ang^3
#
#
#
# Elastic Constant Matrix: (Units=GPa)
#
#
# Indices 1 2 3 4 5 6 
#
# 1 92.5200 31.4875 34.2849 0.0000 9.7038 0.0000
# 2 31.4875 95.0180 33.7493 0.0000 6.1929 0.0000
# 3 34.2849 33.7493 66.4198 0.0000 10.7886 0.0000
# 4 0.0000 0.0000 0.0000 23.4830 0.0000 -5.4982
# 5 9.7038 6.1929 10.7886 0.0000 26.4782 0.0000
# 6 0.0000 0.0000 0.0000 -5.4982 0.0000 23.6880
#
#
#
# Elastic Compliance Matrix: (Units=1/GPa)
#
#
# Indices 1 2 3 4 5 6 
#
# 1 0.013960 -0.002501 -0.005568 0.000000 -0.002263 0.000000
# 2 -0.002501 0.013294 -0.005469 0.000000 0.000036 0.000000
# 3 -0.005568 -0.005469 0.021599 0.000000 -0.005481 0.000000
# 4 0.000000 0.000000 0.000000 0.045031 0.000000 0.010452
# 5 -0.002263 0.000036 -0.005481 0.000000 0.040821 0.000000
# 6 0.000000 0.000000 0.000000 0.010452 0.000000 0.044641
#
#
# Mechanical properties :
#
#
# Convention : Reuss Voigt Hill
#
# Bulk Modulus (GPa) = 45.92162 50.33346 48.12754
# Shear Modulus (GPa) = 23.39928 25.02557 24.21243
#
# Velocity S-wave (km/s) = 3.51495 3.63504 3.57550
# Velocity P-wave (km/s) = 6.38121 6.64787 6.51590
#
# Compressibility (1/GPa) = 0.02177624
#
# Stress axis : x y z
#
# Youngs Moduli (GPa) = 71.63217 75.22458 46.29819
#
# Poissons Ratio (x) = 0.18815 0.25777
# Poissons Ratio (y) = 0.17916 0.25323
# Poissons Ratio (z) = 0.39882 0.41144
#
# Static dielectric constant tensor:
#      x y z
#    x 3.491080 0.000000 -0.042190 
#    y 0.000000 3.418840 0.000000 
#    z -0.042190 0.000000 3.502920 
# 
# 
# High freq. dielectric constant tensor:
#      x y z
#    x 1.728300 0.000000 -0.010430 
#    y 0.000000 1.729620 0.000000 
#    z -0.010430 0.000000 1.730340 
# 
# From -- ./inp_files/295782.got.cif
#   From: 2010.06.25/outbox.cif.g09.slc.cpg/sg15_148_cif.got.tgz:295782.got - 2010.06.28 07:06:18.
