data_PCOD8133668
_publ_section_title
;
Structure prediction by ZEFSAII (Michael W. Deem and Ramdas Pophale) SiO2 
 PCOD8133668
Probable space group: C 2/C
;
_chemical_formula_sum "Si O2"
_cell_formula_units_Z 56
_cell_length_a 13.404510
_cell_length_b 13.533026
_cell_length_c 23.567292
_cell_angle_alpha 90.000000
_cell_angle_beta 137.829828
_cell_angle_gamma 90.000000
_cell_volume 2870.084788
_symmetry_space_group_name_H-M "C 2/C"
_symmetry_group_IT_number 15
_symmetry_cell_setting 'monoclinic'
loop_
_space_group_symop_operation_xyz
x,y,z
-x,y,1/2-z
-x,-y,-z
x,-y,1/2+z
1/2+x,1/2+y,z
1/2-x,1/2+y,1/2-z
1/2-x,1/2-y,-z
1/2+x,1/2-y,1/2+z
loop_
_atom_site_type_symbol
_atom_site_label
_atom_site_fract_x
_atom_site_fract_y
_atom_site_fract_z
Si Si1 0.535634 0.782112 0.409033
Si Si2 0.399399 0.925365 0.922289
Si Si3 0.193789 0.892962 0.934916
Si Si4 0.450443 0.273396 0.994991
Si Si5 0.232160 0.420002 0.203660
Si Si6 0.637998 0.702619 0.840518
Si Si7 0.982683 0.084345 0.608059
O O1 0.665757 0.863977 0.466350
O O2 0.575035 0.696731 0.380957
O O3 0.529819 0.726751 0.467613
O O4 0.382143 0.833687 0.326294
O O5 0.247723 0.908260 0.893395
O O6 0.493199 0.826138 0.948812
O O7 0.354633 0.977105 0.844176
O O8 0.500000 0.000000 0.000000
O O9 0.118032 0.987343 0.931937
O O10 0.489344 0.370725 0.047456
O O11 0.273382 0.276005 0.909690
O O12 0.311626 0.388874 0.178187
O O13 0.348366 0.439611 0.302666
O O14 0.500000 0.756791 0.750000
O O15 0.585754 0.665654 0.879485
#
# Coordination Sequence:
#
# PCOD8133668 Si02
#       7
#     8   8   8   8   8   8   8
#     4   9  20  37  57  78 109 151 186 229 280 339
#     4  11  17  34  60  83 103 141 192 239 277 327
#     4  10  19  34  59  82 102 145 195 225 282 333
#     4  10  20  33  53  80 115 148 179 225 290 345
#     4  10  19  34  54  79 116 138 182 244 277 317
#     4   9  17  31  51  77 109 139 182 236 273 317
#     4  11  21  31  52  86 113 143 183 233 283 337
#
# _framework density 19.511619
#
# number of rings (size 3 to 8) (size 9 to 14) (size 15 to 20)
#    0.000    2.000    5.714    0.429    0.000    1.714 
#    0.000    1.429    0.000    2.571    0.000    0.000 
#    0.000    0.000    0.000    0.000    0.000    0.000 
#
# Total GULP energy -347093.840503 kJ/mol
# GULP energy per Si atom -12396.208589 kJ/mol
# Density = 1.946721 g / cm^3
# Si number density = 19.511619 Si / 1000 Ang^3
#
#
#
# Elastic Constant Matrix: (Units=GPa)
#
#
# Indices 1 2 3 4 5 6 
#
# 1 71.5625 42.5394 40.2385 0.0000 18.5179 0.0000
# 2 42.5394 86.4483 49.9161 0.0000 7.4166 0.0000
# 3 40.2385 49.9161 120.8577 0.0000 17.6855 0.0000
# 4 0.0000 0.0000 0.0000 17.4033 0.0000 3.0446
# 5 18.5179 7.4166 17.6855 0.0000 22.8913 0.0000
# 6 0.0000 0.0000 0.0000 3.0446 0.0000 35.3517
#
#
#
# Elastic Compliance Matrix: (Units=1/GPa)
#
#
# Indices 1 2 3 4 5 6 
#
# 1 0.024901 -0.009778 -0.001993 0.000000 -0.015436 0.000000
# 2 -0.009778 0.019030 -0.005479 0.000000 0.005977 0.000000
# 3 -0.001993 -0.005479 0.012069 0.000000 -0.005937 0.000000
# 4 0.000000 0.000000 0.000000 0.058339 0.000000 -0.005024
# 5 -0.015436 0.005977 -0.005937 0.000000 0.058822 0.000000
# 6 0.000000 0.000000 0.000000 -0.005024 0.000000 0.028720
#
#
# Mechanical properties :
#
#
# Convention : Reuss Voigt Hill
#
# Bulk Modulus (GPa) = 46.51126 60.47294 53.49210
# Shear Modulus (GPa) = 20.52970 24.87423 22.70197
#
# Velocity S-wave (km/s) = 3.24725 3.57437 3.41473
# Velocity P-wave (km/s) = 6.16027 6.93508 6.55913
#
# Compressibility (1/GPa) = 0.02150017
#
# Stress axis : x y z
#
# Youngs Moduli (GPa) = 40.15826 52.54880 82.85363
#
# Poissons Ratio (x) = 0.51383 0.16516
# Poissons Ratio (y) = 0.39268 0.45394
# Poissons Ratio (z) = 0.08005 0.28790
#
# Static dielectric constant tensor:
#      x y z
#    x 3.548660 0.000000 0.293150 
#    y 0.000000 3.444390 0.000000 
#    z 0.293150 0.000000 3.610970 
# 
# 
# High freq. dielectric constant tensor:
#      x y z
#    x 1.747810 0.000000 0.029310 
#    y 0.000000 1.739380 0.000000 
#    z 0.029310 0.000000 1.748760 
# 
# From -- ./inp_files/295967.got.cif
#   From: 2010.06.25/outbox.cif.g09.slc.cpg/sg15_148_cif.got.tgz:295967.got - 2010.06.28 07:06:18.
