data_PCOD8133778
_publ_section_title
;
Structure prediction by ZEFSAII (Michael W. Deem and Ramdas Pophale) SiO2 
 PCOD8133778
Probable space group: C 2/C
;
_chemical_formula_sum "Si O2"
_cell_formula_units_Z 56
_cell_length_a 17.446520
_cell_length_b 12.118523
_cell_length_c 22.239711
_cell_angle_alpha 90.000000
_cell_angle_beta 140.892221
_cell_angle_gamma 90.000000
_cell_volume 2965.967311
_symmetry_space_group_name_H-M "C 2/C"
_symmetry_group_IT_number 15
_symmetry_cell_setting 'monoclinic'
loop_
_space_group_symop_operation_xyz
x,y,z
-x,y,1/2-z
-x,-y,-z
x,-y,1/2+z
1/2+x,1/2+y,z
1/2-x,1/2+y,1/2-z
1/2-x,1/2-y,-z
1/2+x,1/2-y,1/2+z
loop_
_atom_site_type_symbol
_atom_site_label
_atom_site_fract_x
_atom_site_fract_y
_atom_site_fract_z
Si Si1 0.508682 0.376685 0.818325
Si Si2 0.588595 0.341300 0.549270
Si Si3 0.689760 0.729024 0.228045
Si Si4 0.868758 0.060145 0.989495
Si Si5 0.006842 0.576053 0.594902
Si Si6 0.559756 0.154887 0.075057
Si Si7 0.842647 0.672686 0.590392
O O1 0.500000 0.445855 0.750000
O O2 0.379548 0.357971 0.771417
O O3 0.595432 0.439526 0.918103
O O4 0.557373 0.257381 0.824997
O O5 0.692237 0.318561 0.661595
O O6 0.636497 0.435283 0.535055
O O7 0.462431 0.369241 0.507215
O O8 0.558771 0.233720 0.490539
O O9 0.623723 0.848529 0.183774
O O10 0.825774 0.731673 0.336522
O O11 0.732070 0.110771 0.901752
O O12 0.051304 0.450366 0.613850
O O13 0.936972 0.617221 0.492532
O O14 0.906902 0.582050 0.586636
O O15 0.750000 0.750000 0.500000
#
# Coordination Sequence:
#
# PCOD8133778 Si02
#       7
#     8   8   8   8   8   8   8
#     4   9  18  28  46  83 106 125 179 220 264 322
#     4   9  19  35  50  78 105 140 187 205 266 332
#     4   9  19  32  51  76 106 137 172 219 262 317
#     4   9  18  32  53  72 106 143 169 220 270 314
#     4   9  20  35  51  85 105 136 185 214 271 322
#     4  10  19  34  57  73 112 143 170 230 260 312
#     4   9  17  32  51  73 106 137 166 224 275 304
#
# _framework density 18.880855
#
# number of rings (size 3 to 8) (size 9 to 14) (size 15 to 20)
#    0.000    2.857    0.000    2.571    6.000    3.429 
#    2.571    0.714    0.000    0.000    0.000    0.000 
#    0.000    0.000    0.000    0.000    0.000    0.000 
#
# Total GULP energy -346895.949808 kJ/mol
# GULP energy per Si atom -12389.141065 kJ/mol
# Density = 1.883788 g / cm^3
# Si number density = 18.880855 Si / 1000 Ang^3
#
#
#
# Elastic Constant Matrix: (Units=GPa)
#
#
# Indices 1 2 3 4 5 6 
#
# 1 68.2414 28.5598 21.0721 0.0000 -0.5683 0.0000
# 2 28.5598 80.9647 22.2097 0.0000 -5.1139 0.0000
# 3 21.0721 22.2097 91.2397 0.0000 -4.2287 0.0000
# 4 0.0000 0.0000 0.0000 20.5200 0.0000 -1.6740
# 5 -0.5683 -5.1139 -4.2287 0.0000 22.7641 0.0000
# 6 0.0000 0.0000 0.0000 -1.6740 0.0000 28.2913
#
#
#
# Elastic Compliance Matrix: (Units=1/GPa)
#
#
# Indices 1 2 3 4 5 6 
#
# 1 0.017862 -0.005611 -0.002821 0.000000 -0.001339 0.000000
# 2 -0.005611 0.015128 -0.002255 0.000000 0.002840 0.000000
# 3 -0.002821 -0.002255 0.012239 0.000000 0.001697 0.000000
# 4 0.000000 0.000000 0.000000 0.048969 0.000000 0.002898
# 5 -0.001339 0.002840 0.001697 0.000000 0.044848 0.000000
# 6 0.000000 0.000000 0.000000 0.002898 0.000000 0.035518
#
#
# Mechanical properties :
#
#
# Convention : Reuss Voigt Hill
#
# Bulk Modulus (GPa) = 41.92119 42.68100 42.30110
# Shear Modulus (GPa) = 24.52265 25.55536 25.03901
#
# Velocity S-wave (km/s) = 3.60781 3.68299 3.64560
# Velocity P-wave (km/s) = 6.29335 6.38282 6.33825
#
# Compressibility (1/GPa) = 0.02385428
#
# Stress axis : x y z
#
# Youngs Moduli (GPa) = 55.98349 66.10088 81.70397
#
# Poissons Ratio (x) = 0.37092 0.23053
# Poissons Ratio (y) = 0.31415 0.18424
# Poissons Ratio (z) = 0.15796 0.14906
#
# Static dielectric constant tensor:
#      x y z
#    x 3.525030 0.000000 0.043430 
#    y 0.000000 3.440950 0.000000 
#    z 0.043430 0.000000 3.529120 
# 
# 
# High freq. dielectric constant tensor:
#      x y z
#    x 1.708510 0.000000 -0.009370 
#    y 0.000000 1.707100 0.000000 
#    z -0.009370 0.000000 1.739640 
# 
# From -- ./inp_files/277140.got.cif
#   From: 2010.06.25/outbox.cif.g09.slc.cpg/sg15_139_cif.got.tgz:277140.got - 2010.06.28 07:06:18.
