data_PCOD8133507
_publ_section_title
;
Structure prediction by ZEFSAII (Michael W. Deem and Ramdas Pophale) SiO2 
 PCOD8133507
Probable space group: C 2/C
;
_chemical_formula_sum "Si O2"
_cell_formula_units_Z 64
_cell_length_a 14.158605
_cell_length_b 18.302505
_cell_length_c 13.388160
_cell_angle_alpha 90.000000
_cell_angle_beta 100.722337
_cell_angle_gamma 90.000000
_cell_volume 3408.805985
_symmetry_space_group_name_H-M "C 2/C"
_symmetry_group_IT_number 15
_symmetry_cell_setting 'monoclinic'
loop_
_space_group_symop_operation_xyz
x,y,z
-x,y,1/2-z
-x,-y,-z
x,-y,1/2+z
1/2+x,1/2+y,z
1/2-x,1/2+y,1/2-z
1/2-x,1/2-y,-z
1/2+x,1/2-y,1/2+z
loop_
_atom_site_type_symbol
_atom_site_label
_atom_site_fract_x
_atom_site_fract_y
_atom_site_fract_z
Si Si1 0.749649 0.369584 0.524388
Si Si2 0.580270 0.702308 0.457675
Si Si3 0.992446 0.951244 0.595557
Si Si4 0.390934 0.793314 0.223389
Si Si5 0.283665 0.486988 0.597627
Si Si6 0.800538 0.972286 0.814602
Si Si7 0.239754 0.885225 0.082831
Si Si8 0.614632 0.761400 0.049168
O O1 0.730371 0.429410 0.435736
O O2 0.758584 0.414725 0.629372
O O3 0.662374 0.312381 0.515530
O O4 0.847537 0.328311 0.511790
O O5 0.514926 0.631948 0.437966
O O6 0.618230 0.725100 0.355043
O O7 0.670548 0.685174 0.548493
O O8 0.502352 0.761127 0.485184
O O9 0.897446 0.975297 0.634398
O O10 0.088262 0.951056 0.680906
O O11 0.000000 0.000000 0.500000
O O12 0.500000 0.821348 0.250000
O O13 0.331522 0.859499 0.162819
O O14 0.354825 0.771441 0.327440
O O15 0.241160 0.475516 0.699936
O O16 0.234326 0.425605 0.517050
O O17 0.812397 0.052496 0.864484
#
# Coordination Sequence:
#
# PCOD8133507 Si02
#       8
#     8   8   8   8   8   8   8   8
#     4  10  20  34  52  80 114 153 193 224 278 343
#     4  10  19  33  57  83 115 146 182 237 284 331
#     4  11  17  33  51  82 120 145 186 238 289 342
#     4  10  22  37  59  87 108 150 196 228 285 346
#     4  10  21  32  56  83 112 152 191 243 287 329
#     4  11  20  33  57  82 115 153 190 231 289 348
#     4  10  21  36  56  87 116 140 186 247 281 331
#     4  10  20  34  56  77 117 155 186 227 273 353
#
# _framework density 18.774902999999998
#
# number of rings (size 3 to 8) (size 9 to 14) (size 15 to 20)
#    0.000    1.750    5.000    1.500    3.500    2.000 
#    0.000    0.000    0.000   18.750    0.000    0.000 
#    0.000    0.000    0.000    0.000    0.000    0.000 
#
# Total GULP energy -396424.923047 kJ/mol
# GULP energy per Si atom -12388.278845 kJ/mol
# Density = 1.873217 g / cm^3
# Si number density = 18.774903 Si / 1000 Ang^3
#
#
#
# Elastic Constant Matrix: (Units=GPa)
#
#
# Indices 1 2 3 4 5 6 
#
# 1 58.8824 43.2755 20.3091 0.0000 7.0394 0.0000
# 2 43.2755 93.7288 40.7553 0.0000 -1.5379 0.0000
# 3 20.3091 40.7553 92.8342 0.0000 -0.5782 0.0000
# 4 0.0000 0.0000 0.0000 14.8435 0.0000 6.9700
# 5 7.0394 -1.5379 -0.5782 0.0000 27.0980 0.0000
# 6 0.0000 0.0000 0.0000 6.9700 0.0000 29.5380
#
#
#
# Elastic Compliance Matrix: (Units=1/GPa)
#
#
# Indices 1 2 3 4 5 6 
#
# 1 0.027282 -0.012493 -0.000532 0.000000 -0.007807 0.000000
# 2 -0.012493 0.018917 -0.005546 0.000000 0.004201 0.000000
# 3 -0.000532 -0.005546 0.013324 0.000000 0.000108 0.000000
# 4 0.000000 0.000000 0.000000 0.075764 0.000000 -0.017878
# 5 -0.007807 0.004201 0.000108 0.000000 0.039172 0.000000
# 6 0.000000 0.000000 0.000000 -0.017878 0.000000 0.038073
#
#
# Mechanical properties :
#
#
# Convention : Reuss Voigt Hill
#
# Bulk Modulus (GPa) = 44.68140 50.45836 47.56988
# Shear Modulus (GPa) = 19.44509 23.70295 21.57402
#
# Velocity S-wave (km/s) = 3.22171 3.55699 3.39350
# Velocity P-wave (km/s) = 6.13917 6.61841 6.38329
#
# Compressibility (1/GPa) = 0.02238068
#
# Stress axis : x y z
#
# Youngs Moduli (GPa) = 36.65481 52.86124 75.05403
#
# Poissons Ratio (x) = 0.66038 0.03997
# Poissons Ratio (y) = 0.45792 0.41624
# Poissons Ratio (z) = 0.01952 0.29316
#
# Static dielectric constant tensor:
#      x y z
#    x 3.457560 0.000000 -0.107360 
#    y 0.000000 3.619680 0.000000 
#    z -0.107360 0.000000 3.483370 
# 
# 
# High freq. dielectric constant tensor:
#      x y z
#    x 1.703530 0.000000 -0.012710 
#    y 0.000000 1.731870 0.000000 
#    z -0.012710 0.000000 1.726990 
# 
# From -- ./inp_files/154873.got.cif
#   From: 2010.06.25/outbox.cif.g09.slc.cpg/sg15_78_cif.got.tgz:154873.got - 2010.06.28 07:06:18.
