data_PCOD8133674
_publ_section_title
;
Structure prediction by ZEFSAII (Michael W. Deem and Ramdas Pophale) SiO2 
 PCOD8133674
Probable space group: C 2/C
;
_chemical_formula_sum "Si O2"
_cell_formula_units_Z 48
_cell_length_a 23.673731
_cell_length_b 11.674269
_cell_length_c 26.828782
_cell_angle_alpha 90.000000
_cell_angle_beta 18.554842
_cell_angle_gamma 90.000000
_cell_volume 2359.468677
_symmetry_space_group_name_H-M "C 2/C"
_symmetry_group_IT_number 15
_symmetry_cell_setting 'monoclinic'
loop_
_space_group_symop_operation_xyz
x,y,z
-x,y,1/2-z
-x,-y,-z
x,-y,1/2+z
1/2+x,1/2+y,z
1/2-x,1/2+y,1/2-z
1/2-x,1/2-y,-z
1/2+x,1/2-y,1/2+z
loop_
_atom_site_type_symbol
_atom_site_label
_atom_site_fract_x
_atom_site_fract_y
_atom_site_fract_z
Si Si1 0.067991 0.099929 0.339510
Si Si2 0.285190 0.355984 0.251624
Si Si3 0.416939 0.506369 0.369514
Si Si4 0.368019 0.850678 0.921631
Si Si5 0.668995 0.704666 0.678314
Si Si6 0.082430 0.736131 0.454548
O O1 0.237721 0.172756 0.180418
O O2 0.949679 0.161739 0.479704
O O3 0.139082 0.982216 0.303569
O O4 0.941189 0.087020 0.397175
O O5 0.288437 0.282166 0.299418
O O6 0.404543 0.291173 0.111190
O O7 0.078618 0.355703 0.407607
O O8 0.500000 0.564261 0.250000
O O9 0.207916 0.473240 0.534371
O O10 0.519004 0.389538 0.295006
O O11 0.578258 0.826636 0.734862
O O12 0.250000 0.750000 0.000000
O O13 0.343420 0.834221 0.002419
#
# Coordination Sequence:
#
# PCOD8133674 Si02
#       6
#     8   8   8   8   8   8
#     4  10  20  36  55  75 105 141 181 226 269 313
#     4  10  19  34  54  81 111 140 172 219 273 327
#     4   8  16  30  49  69  94 133 171 208 258 305
#     4   9  15  26  44  71 104 137 163 197 252 318
#     4   9  16  26  47  74 104 135 162 199 260 326
#     4  10  21  34  54  80 105 142 183 219 265 321
#
# _framework density 20.343563
#
# number of rings (size 3 to 8) (size 9 to 14) (size 15 to 20)
#    0.000    2.667    0.000    3.500    0.000    0.000 
#    0.000    0.833    0.000   36.000    0.000    0.000 
#    0.000    0.000    0.000    0.000    0.000    0.000 
#
# Total GULP energy -297317.712348 kJ/mol
# GULP energy per Si atom -12388.238015 kJ/mol
# Density = 2.029726 g / cm^3
# Si number density = 20.343563 Si / 1000 Ang^3
#
#
#
# Elastic Constant Matrix: (Units=GPa)
#
#
# Indices 1 2 3 4 5 6 
#
# 1 114.7265 30.8694 19.6199 0.0131 12.5605 -0.0057
# 2 30.8694 61.4621 19.8965 0.0230 -3.0131 0.0005
# 3 19.6199 19.8965 70.9556 0.0690 -1.3978 -0.0155
# 4 0.0131 0.0230 0.0690 22.7564 -0.0067 0.2450
# 5 12.5605 -3.0131 -1.3978 -0.0067 20.1758 0.0003
# 6 -0.0057 0.0005 -0.0155 0.2450 0.0003 28.6226
#
#
#
# Elastic Compliance Matrix: (Units=1/GPa)
#
#
# Indices 1 2 3 4 5 6 
#
# 1 0.011389 -0.005547 -0.001752 0.000002 -0.008040 0.000001
# 2 -0.005547 0.020706 -0.004149 -0.000003 0.006258 -0.000004
# 3 -0.001752 -0.004149 0.015772 -0.000042 0.001564 0.000009
# 4 0.000002 -0.000003 -0.000042 0.043948 0.000010 -0.000376
# 5 -0.008040 0.006258 0.001564 0.000010 0.055612 -0.000002
# 6 0.000001 -0.000004 0.000009 -0.000376 -0.000002 0.034941
#
#
# Mechanical properties :
#
#
# Convention : Reuss Voigt Hill
#
# Bulk Modulus (GPa) = 40.04696 43.10174 41.57435
# Shear Modulus (GPa) = 23.40959 26.09486 24.75222
#
# Velocity S-wave (km/s) = 3.39590 3.58538 3.49192
# Velocity P-wave (km/s) = 5.92488 6.19458 6.06123
#
# Compressibility (1/GPa) = 0.02497068
#
# Stress axis : x y z
#
# Youngs Moduli (GPa) = 87.80593 48.29490 63.40318
#
# Poissons Ratio (x) = 0.26789 0.11109
# Poissons Ratio (y) = 0.48706 0.26307
# Poissons Ratio (z) = 0.15384 0.20038
#
# Static dielectric constant tensor:
#      x y z
#    x 4.189560 0.000070 0.588970 
#    y 0.000070 3.422950 0.001020 
#    z 0.588970 0.001020 10.825270 
# 
# 
# High freq. dielectric constant tensor:
#      x y z
#    x 1.804420 0.000000 0.014660 
#    y 0.000000 1.744060 0.000010 
#    z 0.014660 0.000010 1.793770 
# 
# From -- ./inp_files/60516.got.cif
#   From: 2010.06.25/outbox.cif.g09.slc.cpg/sg15_31_cif.got.tgz:60516.got - 2010.06.28 07:06:18.
