data_PCOD8133318
_publ_section_title
;
Structure prediction by ZEFSAII (Michael W. Deem and Ramdas Pophale) SiO2 
 PCOD8133318
Probable space group: C 2/C
;
_chemical_formula_sum "Si O2"
_cell_formula_units_Z 48
_cell_length_a 16.578210
_cell_length_b 17.532429
_cell_length_c 15.797091
_cell_angle_alpha 90.000000
_cell_angle_beta 144.527822
_cell_angle_gamma 90.000000
_cell_volume 2664.496028
_symmetry_space_group_name_H-M "C 2/C"
_symmetry_group_IT_number 15
_symmetry_cell_setting 'monoclinic'
loop_
_space_group_symop_operation_xyz
x,y,z
-x,y,1/2-z
-x,-y,-z
x,-y,1/2+z
1/2+x,1/2+y,z
1/2-x,1/2+y,1/2-z
1/2-x,1/2-y,-z
1/2+x,1/2-y,1/2+z
loop_
_atom_site_type_symbol
_atom_site_label
_atom_site_fract_x
_atom_site_fract_y
_atom_site_fract_z
Si Si1 0.535377 0.041233 0.685115
Si Si2 0.167972 0.267101 0.708387
Si Si3 0.271747 0.904108 0.615774
Si Si4 0.925684 0.672755 0.909383
Si Si5 0.685412 0.072895 0.538939
Si Si6 0.969088 0.126232 0.817378
O O1 0.500000 0.066288 0.750000
O O2 0.585638 0.114864 0.677907
O O3 0.659341 0.979410 0.785100
O O4 0.395764 0.007180 0.522309
O O5 0.184418 0.329877 0.795212
O O6 0.317751 0.241436 0.800814
O O7 0.080324 0.196686 0.669329
O O8 0.083136 0.297568 0.554346
O O9 0.327329 0.895292 0.567528
O O10 0.104311 0.913347 0.474089
O O11 0.888201 0.635745 0.967091
O O12 0.845869 0.062704 0.705318
O O13 0.000000 0.157819 0.750000
#
# Coordination Sequence:
#
# PCOD8133318 Si02
#       6
#     8   8   8   8   8   8
#     4  10  21  38  59  76 102 143 186 223 261 311
#     4  11  21  32  53  79 116 143 175 211 268 319
#     4  10  19  33  52  82 111 146 171 215 264 322
#     4  11  22  36  53  81 108 141 181 220 265 318
#     4   9  19  32  54  80 111 139 176 212 264 318
#     4   9  19  30  48  79 116 142 167 208 265 326
#
# _framework density 18.014662999999999
#
# number of rings (size 3 to 8) (size 9 to 14) (size 15 to 20)
#    0.000    2.000    3.333    0.500    2.333    2.000 
#    0.000    5.833    0.000    0.000    0.000    0.000 
#    0.000    0.000    0.000    0.000    0.000    0.000 
#
# Total GULP energy -297547.404725 kJ/mol
# GULP energy per Si atom -12397.808530 kJ/mol
# Density = 1.797366 g / cm^3
# Si number density = 18.014663 Si / 1000 Ang^3
#
#
#
# Elastic Constant Matrix: (Units=GPa)
#
#
# Indices 1 2 3 4 5 6 
#
# 1 51.1485 47.8780 49.8223 0.0003 6.2830 0.0001
# 2 47.8780 74.8232 48.5385 0.0004 -4.0307 0.0002
# 3 49.8223 48.5385 123.4774 0.0000 15.8188 0.0001
# 4 0.0003 0.0004 0.0000 24.4653 0.0003 3.3838
# 5 6.2830 -4.0307 15.8188 0.0003 18.4998 0.0002
# 6 0.0001 0.0002 0.0001 3.3838 0.0002 26.9607
#
#
#
# Elastic Compliance Matrix: (Units=1/GPa)
#
#
# Indices 1 2 3 4 5 6 
#
# 1 0.067112 -0.038379 -0.008985 0.000000 -0.023472 0.000000
# 2 -0.038379 0.042205 -0.004439 0.000000 0.026026 0.000000
# 3 -0.008985 -0.004439 0.014826 0.000000 -0.010593 0.000000
# 4 0.000000 0.000000 0.000000 0.041596 -0.000001 -0.005221
# 5 -0.023472 0.026026 -0.010593 -0.000001 0.076754 0.000000
# 6 0.000000 0.000000 0.000000 -0.005221 0.000000 0.037746
#
#
# Mechanical properties :
#
#
# Convention : Reuss Voigt Hill
#
# Bulk Modulus (GPa) = 48.69601 60.21408 54.45505
# Shear Modulus (GPa) = 12.79779 20.86585 16.83182
#
# Velocity S-wave (km/s) = 2.66824 3.40703 3.06001
# Velocity P-wave (km/s) = 6.04836 6.99819 6.54054
#
# Compressibility (1/GPa) = 0.02053556
#
# Stress axis : x y z
#
# Youngs Moduli (GPa) = 14.90046 23.69409 67.44803
#
# Poissons Ratio (x) = 0.90936 0.60605
# Poissons Ratio (y) = 0.57187 0.29940
# Poissons Ratio (z) = 0.13389 0.10518
#
# Static dielectric constant tensor:
#      x y z
#    x 3.183390 0.000000 0.300620 
#    y 0.000000 3.048850 0.000000 
#    z 0.300620 0.000000 3.716290 
# 
# 
# High freq. dielectric constant tensor:
#      x y z
#    x 1.677590 0.000000 0.015700 
#    y 0.000000 1.666620 0.000000 
#    z 0.015700 0.000000 1.716430 
# 
# From -- ./inp_files/48703.got.cif
#   From: 2010.06.25/outbox.cif.g09.slc.cpg/sg15_25_cif.got.tgz:48703.got - 2010.06.28 07:06:18.
