data_PCOD8133201
_publ_section_title
;
Structure prediction by ZEFSAII (Michael W. Deem and Ramdas Pophale) SiO2 
 PCOD8133201
Probable space group: C 2/C
;
_chemical_formula_sum "Si O2"
_cell_formula_units_Z 64
_cell_length_a 27.346206
_cell_length_b 20.854263
_cell_length_c 5.351690
_cell_angle_alpha 90.000000
_cell_angle_beta 95.828650
_cell_angle_gamma 90.000000
_cell_volume 3036.209762
_symmetry_space_group_name_H-M "C 2/C"
_symmetry_group_IT_number 15
_symmetry_cell_setting 'monoclinic'
loop_
_space_group_symop_operation_xyz
x,y,z
-x,y,1/2-z
-x,-y,-z
x,-y,1/2+z
1/2+x,1/2+y,z
1/2-x,1/2+y,1/2-z
1/2-x,1/2-y,-z
1/2+x,1/2-y,1/2+z
loop_
_atom_site_type_symbol
_atom_site_label
_atom_site_fract_x
_atom_site_fract_y
_atom_site_fract_z
Si Si1 0.151159 0.968572 0.083047
Si Si2 0.443674 0.246070 0.717263
Si Si3 0.092770 0.679998 0.308001
Si Si4 0.225902 0.155696 0.100260
Si Si5 0.639676 0.336316 0.884266
Si Si6 0.191930 0.262692 0.720470
Si Si7 0.740636 0.980765 0.931720
Si Si8 0.442745 0.960629 0.721139
O O1 0.127767 0.000509 0.319189
O O2 0.209935 0.978477 0.107951
O O3 0.137402 0.892465 0.090893
O O4 0.500000 0.266239 0.750000
O O5 0.432096 0.210852 0.450043
O O6 0.414189 0.313597 0.728302
O O7 0.433576 0.201062 0.949968
O O8 0.149720 0.701302 0.358346
O O9 0.089779 0.603441 0.287641
O O10 0.173370 0.133872 0.183836
O O11 0.264618 0.186631 0.321456
O O12 0.249778 0.092645 0.996986
O O13 0.217582 0.205018 0.877343
O O14 0.666987 0.269377 0.967654
O O15 0.711245 0.988085 0.651942
O O16 0.500000 0.941183 0.750000
O O17 0.429595 0.998827 0.461523
#
# Coordination Sequence:
#
# PCOD8133201 Si02
#       8
#     8   8   8   8   8   8   8   8
#     4  10  19  32  56  81 108 146 195 234 275 330
#     4  11  23  38  62  90 117 151 189 238 297 349
#     4  11  22  41  60  86 122 151 191 241 291 345
#     4  11  20  37  57  83 118 153 195 241 279 346
#     4  11  21  36  60  83 120 150 194 244 289 341
#     4  10  23  36  56  86 115 159 191 233 296 342
#     4  10  19  33  54  79 107 145 197 233 271 325
#     4  10  20  35  59  84 109 148 193 236 285 344
#
# _framework density 21.078911000000002
#
# number of rings (size 3 to 8) (size 9 to 14) (size 15 to 20)
#    0.000    1.500    3.750    3.750    0.000    1.000 
#    0.000    1.250    0.000    0.750    0.000    0.000 
#    0.000    0.000    0.000    0.000    0.000    0.000 
#
# Total GULP energy -396579.453975 kJ/mol
# GULP energy per Si atom -12393.107937 kJ/mol
# Density = 2.103093 g / cm^3
# Si number density = 21.078911 Si / 1000 Ang^3
#
#
#
# Elastic Constant Matrix: (Units=GPa)
#
#
# Indices 1 2 3 4 5 6 
#
# 1 68.7169 27.0593 15.8845 0.0000 1.3302 0.0000
# 2 27.0593 113.1739 28.8675 0.0000 6.7838 0.0000
# 3 15.8845 28.8675 135.2808 0.0000 -1.4644 0.0000
# 4 0.0000 0.0000 0.0000 27.1251 0.0000 0.0734
# 5 1.3302 6.7838 -1.4644 0.0000 16.8156 0.0000
# 6 0.0000 0.0000 0.0000 0.0734 0.0000 8.7608
#
#
#
# Elastic Compliance Matrix: (Units=1/GPa)
#
#
# Indices 1 2 3 4 5 6 
#
# 1 0.016230 -0.003594 -0.001138 0.000000 0.000067 0.000000
# 2 -0.003594 0.010410 -0.001843 0.000000 -0.004076 0.000000
# 3 -0.001138 -0.001843 0.007936 0.000000 0.001525 0.000000
# 4 0.000000 0.000000 0.000000 0.036867 0.000000 -0.000309
# 5 0.000067 -0.004076 0.001525 0.000000 0.061240 0.000000
# 6 0.000000 0.000000 0.000000 -0.000309 0.000000 0.114147
#
#
# Mechanical properties :
#
#
# Convention : Reuss Voigt Hill
#
# Bulk Modulus (GPa) = 46.67718 51.19935 48.93827
# Shear Modulus (GPa) = 18.71806 26.89767 22.80786
#
# Velocity S-wave (km/s) = 2.98316 3.57605 3.29298
# Velocity P-wave (km/s) = 5.83591 6.43374 6.14210
#
# Compressibility (1/GPa) = 0.02142374
#
# Stress axis : x y z
#
# Youngs Moduli (GPa) = 61.61615 96.06320 126.01553
#
# Poissons Ratio (x) = 0.34526 0.14340
# Poissons Ratio (y) = 0.22146 0.23230
# Poissons Ratio (z) = 0.07012 0.17709
#
# Static dielectric constant tensor:
#      x y z
#    x 3.724060 0.000000 0.127480 
#    y 0.000000 3.944860 0.000000 
#    z 0.127480 0.000000 4.206010 
# 
# 
# High freq. dielectric constant tensor:
#      x y z
#    x 1.781980 0.000000 0.003470 
#    y 0.000000 1.835340 0.000000 
#    z 0.003470 0.000000 1.836450 
# 
# From -- ./inp_files/17454.got.cif
#   From: 2010.06.25/outbox.cif.g09.slc.cpg/sg15_9_cif.got.tgz:17454.got - 2010.06.28 07:06:18.
