data_PCOD8133666
_publ_section_title
;
Structure prediction by ZEFSAII (Michael W. Deem and Ramdas Pophale) SiO2 
 PCOD8133666
Probable space group: C 2/C
;
_chemical_formula_sum "Si O2"
_cell_formula_units_Z 64
_cell_length_a 9.021616
_cell_length_b 14.711745
_cell_length_c 29.045430
_cell_angle_alpha 90.000000
_cell_angle_beta 60.297383
_cell_angle_gamma 90.000000
_cell_volume 3348.502313
_symmetry_space_group_name_H-M "C 2/C"
_symmetry_group_IT_number 15
_symmetry_cell_setting 'monoclinic'
loop_
_space_group_symop_operation_xyz
x,y,z
-x,y,1/2-z
-x,-y,-z
x,-y,1/2+z
1/2+x,1/2+y,z
1/2-x,1/2+y,1/2-z
1/2-x,1/2-y,-z
1/2+x,1/2-y,1/2+z
loop_
_atom_site_type_symbol
_atom_site_label
_atom_site_fract_x
_atom_site_fract_y
_atom_site_fract_z
Si Si1 0.988949 0.736420 0.176111
Si Si2 0.442376 0.867105 0.367884
Si Si3 0.718649 0.739230 0.294056
Si Si4 0.062140 0.115423 0.889936
Si Si5 0.164816 0.164078 0.491238
Si Si6 0.421701 0.725840 0.449018
Si Si7 0.930825 0.919174 0.630747
Si Si8 0.382065 0.932605 0.889351
O O1 0.812242 0.742221 0.230857
O O2 0.006860 0.807696 0.132655
O O3 0.150001 0.752372 0.184279
O O4 0.985473 0.639222 0.151726
O O5 0.583736 0.822490 0.312369
O O6 0.258163 0.861964 0.371969
O O7 0.464434 0.812636 0.411745
O O8 0.481466 0.971615 0.374731
O O9 0.629238 0.640034 0.315631
O O10 0.020453 0.023610 0.866586
O O11 0.958583 0.112349 0.954032
O O12 0.250000 0.250000 0.500000
O O13 0.310953 0.094157 0.451063
O O14 0.066916 0.206861 0.463299
O O15 0.250000 0.750000 0.500000
O O16 0.413632 0.636477 0.417306
O O17 0.779436 0.936611 0.618550
#
# Coordination Sequence:
#
# PCOD8133666 Si02
#       8
#     8   8   8   8   8   8   8   8
#     4  10  20  38  61  79 108 146 184 229 278 327
#     4  10  21  36  57  85 111 142 187 227 271 327
#     4   9  20  40  59  79 108 146 182 229 282 328
#     4  11  21  34  58  87 109 142 187 230 271 320
#     4  11  21  35  55  81 116 148 182 223 269 326
#     4  10  19  34  54  78 113 149 178 219 273 321
#     4   8  19  34  55  80 108 141 187 223 264 331
#     4   9  19  35  56  81 110 147 186 221 265 331
#
# _framework density 19.113022999999998
#
# number of rings (size 3 to 8) (size 9 to 14) (size 15 to 20)
#    0.000    2.250    2.500    0.750    1.750    3.000 
#    0.000    6.875    0.000    0.000    0.000    0.000 
#    0.000    0.000    0.000    0.000    0.000    0.000 
#
# Total GULP energy -396527.915592 kJ/mol
# GULP energy per Si atom -12391.497362 kJ/mol
# Density = 1.906952 g / cm^3
# Si number density = 19.113023 Si / 1000 Ang^3
#
#
#
# Elastic Constant Matrix: (Units=GPa)
#
#
# Indices 1 2 3 4 5 6 
#
# 1 34.1470 29.0830 24.4450 0.0000 -8.8118 0.0000
# 2 29.0830 152.6613 45.8664 0.0000 -9.1919 0.0000
# 3 24.4450 45.8664 117.7986 0.0000 -18.9927 0.0000
# 4 0.0000 0.0000 0.0000 17.6760 0.0000 -6.0416
# 5 -8.8118 -9.1919 -18.9927 0.0000 30.5255 0.0000
# 6 0.0000 0.0000 0.0000 -6.0416 0.0000 20.7242
#
#
#
# Elastic Compliance Matrix: (Units=1/GPa)
#
#
# Indices 1 2 3 4 5 6 
#
# 1 0.039277 -0.005613 -0.004901 0.000000 0.006598 0.000000
# 2 -0.005613 0.008227 -0.002112 0.000000 -0.000457 0.000000
# 3 -0.004901 -0.002112 0.011113 0.000000 0.004863 0.000000
# 4 0.000000 0.000000 0.000000 0.062835 0.000000 0.018318
# 5 0.006598 -0.000457 0.004863 0.000000 0.037552 0.000000
# 6 0.000000 0.000000 0.000000 0.018318 0.000000 0.053593
#
#
# Mechanical properties :
#
#
# Convention : Reuss Voigt Hill
#
# Bulk Modulus (GPa) = 29.97242 55.93288 42.95265
# Shear Modulus (GPa) = 20.08269 27.46596 23.77433
#
# Velocity S-wave (km/s) = 3.24502 3.79493 3.53070
# Velocity P-wave (km/s) = 5.45490 6.96633 6.25642
#
# Compressibility (1/GPa) = 0.03336401
#
# Stress axis : x y z
#
# Youngs Moduli (GPa) = 25.46023 121.55435 89.98718
#
# Poissons Ratio (x) = 0.68224 0.44106
# Poissons Ratio (y) = 0.14290 0.19007
# Poissons Ratio (z) = 0.12479 0.25675
#
# Static dielectric constant tensor:
#      x y z
#    x 3.080990 0.000000 -0.207170 
#    y 0.000000 3.978860 0.000000 
#    z -0.207170 0.000000 3.784650 
# 
# 
# High freq. dielectric constant tensor:
#      x y z
#    x 1.712610 0.000000 -0.009530 
#    y 0.000000 1.753050 0.000000 
#    z -0.009530 0.000000 1.751050 
# 
# From -- ./inp_files/308019.got.cif
#   From: 2010.06.25/outbox.cif.g09.slc.cpg/sg15_155_cif.got.tgz:308019.got - 2010.06.28 07:06:18.
