data_PCOD8133999
_publ_section_title
;
Structure prediction by ZEFSAII (Michael W. Deem and Ramdas Pophale) SiO2 
 PCOD8133999
Probable space group: C 2/C
;
_chemical_formula_sum "Si O2"
_cell_formula_units_Z 48
_cell_length_a 17.110164
_cell_length_b 22.273504
_cell_length_c 15.071678
_cell_angle_alpha 90.000000
_cell_angle_beta 28.432810
_cell_angle_gamma 90.000000
_cell_volume 2734.814750
_symmetry_space_group_name_H-M "C 2/C"
_symmetry_group_IT_number 15
_symmetry_cell_setting 'monoclinic'
loop_
_space_group_symop_operation_xyz
x,y,z
-x,y,1/2-z
-x,-y,-z
x,-y,1/2+z
1/2+x,1/2+y,z
1/2-x,1/2+y,1/2-z
1/2-x,1/2-y,-z
1/2+x,1/2-y,1/2+z
loop_
_atom_site_type_symbol
_atom_site_label
_atom_site_fract_x
_atom_site_fract_y
_atom_site_fract_z
Si Si1 0.000000 0.004797 0.250000
Si Si2 0.205147 0.333636 0.607515
Si Si3 0.166567 0.442904 0.540189
Si Si4 0.497815 0.559027 0.063308
Si Si5 0.000000 0.229949 0.750000
Si Si6 0.330562 0.055254 0.672148
Si Si7 0.326244 0.919347 0.695435
O O1 0.008434 0.047106 0.326760
O O2 0.833403 0.965844 0.421369
O O3 0.162497 0.370661 0.559962
O O4 0.394110 0.313595 0.418326
O O5 0.167273 0.377910 0.725466
O O6 0.103859 0.271855 0.712839
O O7 0.175761 0.456809 0.427195
O O8 0.000000 0.471539 0.750000
O O9 0.334421 0.597487 0.202376
O O10 0.500000 0.500000 0.000000
O O11 0.670167 0.592481 0.866122
O O12 0.498681 0.090391 0.530513
O O13 0.325575 0.989695 0.724360
#
# Coordination Sequence:
#
# PCOD8133999 Si02
#       7
#     4   8   8   8   4   8   8
#     4  12  23  32  50  78 114 148 186 213 260 324
#     4  11  21  36  53  74 109 144 194 223 283 305
#     4  12  21  32  53  78 106 157 184 214 270 325
#     4  10  20  33  46  73 106 143 181 216 255 320
#     4  10  23  36  52  76 100 144 196 249 252 328
#     4  10  20  31  50  76 109 136 192 214 254 335
#     4  10  19  35  48  73 103 144 174 226 259 329
#
# _framework density 17.551462999999998
#
# number of rings (size 3 to 8) (size 9 to 14) (size 15 to 20)
#    0.000    1.333    5.833    2.500    4.667    0.000 
#    0.000    0.000    0.000    0.000    0.000    0.000 
#    0.000    1.333    0.000    0.333    0.000    0.000 
#
# Total GULP energy -297325.621116 kJ/mol
# GULP energy per Si atom -12388.567547 kJ/mol
# Density = 1.751152 g / cm^3
# Si number density = 17.551463 Si / 1000 Ang^3
#
#
#
# Elastic Constant Matrix: (Units=GPa)
#
#
# Indices 1 2 3 4 5 6 
#
# 1 76.5821 15.7396 51.2561 -0.0067 -9.3494 0.0037
# 2 15.7396 47.5827 31.7977 0.0314 1.8445 -0.0227
# 3 51.2561 31.7977 159.3128 -0.0139 -33.5917 0.0176
# 4 -0.0067 0.0314 -0.0139 21.9161 0.0095 3.1719
# 5 -9.3494 1.8445 -33.5917 0.0095 45.5818 -0.0009
# 6 0.0037 -0.0227 0.0176 3.1719 -0.0009 14.5998
#
#
#
# Elastic Compliance Matrix: (Units=1/GPa)
#
#
# Indices 1 2 3 4 5 6 
#
# 1 0.016848 -0.002221 -0.005008 0.000006 -0.000145 -0.000003
# 2 -0.002221 0.025714 -0.005604 -0.000047 -0.005626 0.000057
# 3 -0.005008 -0.005604 0.010464 0.000013 0.006911 -0.000022
# 4 0.000006 -0.000047 0.000013 0.047110 0.000003 -0.010235
# 5 -0.000145 -0.005626 0.006911 0.000003 0.027230 -0.000016
# 6 -0.000003 0.000057 -0.000022 -0.010235 -0.000016 0.070718
#
#
# Mechanical properties :
#
#
# Convention : Reuss Voigt Hill
#
# Bulk Modulus (GPa) = 36.54929 53.45159 45.00044
# Shear Modulus (GPa) = 21.47127 28.73183 25.10155
#
# Velocity S-wave (km/s) = 3.50141 4.05038 3.78586
# Velocity P-wave (km/s) = 6.10047 7.23840 6.69366
#
# Compressibility (1/GPa) = 0.02736031
#
# Stress axis : x y z
#
# Youngs Moduli (GPa) = 59.35261 38.88971 95.56667
#
# Poissons Ratio (x) = 0.08637 0.47859
# Poissons Ratio (y) = 0.13182 0.53555
# Poissons Ratio (z) = 0.29724 0.21794
#
# Static dielectric constant tensor:
#      x y z
#    x 3.423390 0.000010 -0.654490 
#    y 0.000010 2.856070 0.000040 
#    z -0.654490 0.000040 4.096350 
# 
# 
# High freq. dielectric constant tensor:
#      x y z
#    x 1.673340 0.000000 -0.035380 
#    y 0.000000 1.608070 0.000010 
#    z -0.035380 0.000010 1.710770 
# 
# From -- ./inp_files/40732.got.cif
#   From: 2010.06.25/outbox.cif.g09.slc.cpg/sg15_21_cif.got.tgz:40732.got - 2010.06.28 07:06:18.
