data_PCOD8133326
_publ_section_title
;
Structure prediction by ZEFSAII (Michael W. Deem and Ramdas Pophale) SiO2 
 PCOD8133326
Probable space group: C 2/C
;
_chemical_formula_sum "Si O2"
_cell_formula_units_Z 60
_cell_length_a 10.102484
_cell_length_b 13.517505
_cell_length_c 27.961559
_cell_angle_alpha 90.000000
_cell_angle_beta 55.748112
_cell_angle_gamma 90.000000
_cell_volume 3156.213426
_symmetry_space_group_name_H-M "C 2/C"
_symmetry_group_IT_number 15
_symmetry_cell_setting 'monoclinic'
loop_
_space_group_symop_operation_xyz
x,y,z
-x,y,1/2-z
-x,-y,-z
x,-y,1/2+z
1/2+x,1/2+y,z
1/2-x,1/2+y,1/2-z
1/2-x,1/2-y,-z
1/2+x,1/2-y,1/2+z
loop_
_atom_site_type_symbol
_atom_site_label
_atom_site_fract_x
_atom_site_fract_y
_atom_site_fract_z
Si Si1 0.500000 0.956768 0.250000
Si Si2 0.148013 0.376381 0.131530
Si Si3 0.169439 0.654563 0.332616
Si Si4 0.744034 0.968287 0.436780
Si Si5 0.040141 0.512177 0.069777
Si Si6 0.798535 0.949287 0.716557
Si Si7 0.566702 0.631830 0.853922
Si Si8 0.902265 0.161893 0.367854
O O1 0.349897 0.029621 0.287987
O O2 0.507127 0.888564 0.200718
O O3 0.323139 0.383938 0.121011
O O4 0.123132 0.272862 0.107781
O O5 0.131458 0.456249 0.093411
O O6 0.029398 0.613318 0.394641
O O7 0.217086 0.575066 0.283279
O O8 0.103868 0.759042 0.325544
O O9 0.333217 0.667060 0.328317
O O10 0.669800 0.957667 0.504129
O O11 0.880423 0.884175 0.404922
O O12 0.607065 0.950521 0.424308
O O13 0.815592 0.079588 0.417880
O O14 0.908414 0.861374 0.674291
O O15 0.897001 0.053149 0.696180
#
# Coordination Sequence:
#
# PCOD8133326 Si02
#       8
#     4   8   8   8   8   8   8   8
#     4  10  20  34  50  76 116 134 174 228 272 324
#     4  10  20  35  57  82 106 145 183 227 271 326
#     4  10  19  34  57  80 103 147 187 216 282 335
#     4   9  20  40  54  81 114 145 186 233 275 328
#     4  10  20  36  60  79 112 148 185 232 279 324
#     4  10  19  33  53  75 109 140 174 226 267 324
#     4   9  21  37  55  79 113 141 186 230 267 333
#     4   9  20  34  57  78 106 146 185 220 271 334
#
# _framework density 19.010123
#
# number of rings (size 3 to 8) (size 9 to 14) (size 15 to 20)
#    0.000    2.400    1.333    0.400    5.600    1.600 
#    2.400    0.000    2.933    0.000    0.000    0.000 
#    0.000    0.000    0.000    0.000    0.000    0.000 
#
# Total GULP energy -371715.099998 kJ/mol
# GULP energy per Si atom -12390.503333 kJ/mol
# Density = 1.896685 g / cm^3
# Si number density = 19.010123 Si / 1000 Ang^3
#
#
#
# Elastic Constant Matrix: (Units=GPa)
#
#
# Indices 1 2 3 4 5 6 
#
# 1 61.1882 28.6611 29.7696 0.0000 -17.1203 0.0000
# 2 28.6611 91.8077 36.1471 0.0000 -3.5776 0.0000
# 3 29.7696 36.1471 110.3182 0.0000 -11.0101 0.0000
# 4 0.0000 0.0000 0.0000 18.7717 0.0000 0.8380
# 5 -17.1203 -3.5776 -11.0101 0.0000 33.1579 0.0000
# 6 0.0000 0.0000 0.0000 0.8380 0.0000 26.6212
#
#
#
# Elastic Compliance Matrix: (Units=1/GPa)
#
#
# Indices 1 2 3 4 5 6 
#
# 1 0.023566 -0.005576 -0.003494 0.000000 0.010406 0.000000
# 2 -0.005576 0.013825 -0.003272 0.000000 -0.002474 0.000000
# 3 -0.003494 -0.003272 0.011237 0.000000 0.001574 0.000000
# 4 0.000000 0.000000 0.000000 0.053347 0.000000 -0.001679
# 5 0.010406 -0.002474 0.001574 0.000000 0.035787 0.000000
# 6 0.000000 0.000000 0.000000 -0.001679 0.000000 0.037617
#
#
# Mechanical properties :
#
#
# Convention : Reuss Voigt Hill
#
# Bulk Modulus (GPa) = 41.76378 50.27443 46.01910
# Shear Modulus (GPa) = 24.03334 26.95925 25.49629
#
# Velocity S-wave (km/s) = 3.55947 3.76992 3.66621
# Velocity P-wave (km/s) = 6.23779 6.74191 6.49474
#
# Compressibility (1/GPa) = 0.02394419
#
# Stress axis : x y z
#
# Youngs Moduli (GPa) = 42.43354 72.33269 88.99352
#
# Poissons Ratio (x) = 0.40332 0.31093
# Poissons Ratio (y) = 0.23661 0.29120
# Poissons Ratio (z) = 0.14825 0.23668
#
# Static dielectric constant tensor:
#      x y z
#    x 3.511510 0.000000 -0.179450 
#    y 0.000000 3.563710 0.000000 
#    z -0.179450 0.000000 3.407450 
# 
# 
# High freq. dielectric constant tensor:
#      x y z
#    x 1.730370 0.000000 -0.017410 
#    y 0.000000 1.732770 0.000000 
#    z -0.017410 0.000000 1.729350 
# 
# From -- ./inp_files/268800.got.cif
#   From: 2010.06.25/outbox.cif.g09.slc.cpg/sg15_135_cif.got.tgz:268800.got - 2010.06.28 07:06:18.
