data_PCOD8133043
_publ_section_title
;
Structure prediction by ZEFSAII (Michael W. Deem and Ramdas Pophale) SiO2 
 PCOD8133043
Probable space group: C 2/C
;
_chemical_formula_sum "Si O2"
_cell_formula_units_Z 52
_cell_length_a 10.272043
_cell_length_b 14.904952
_cell_length_c 22.397453
_cell_angle_alpha 90.000000
_cell_angle_beta 139.903435
_cell_angle_gamma 90.000000
_cell_volume 2208.637056
_symmetry_space_group_name_H-M "C 2/C"
_symmetry_group_IT_number 15
_symmetry_cell_setting 'monoclinic'
loop_
_space_group_symop_operation_xyz
x,y,z
-x,y,1/2-z
-x,-y,-z
x,-y,1/2+z
1/2+x,1/2+y,z
1/2-x,1/2+y,1/2-z
1/2-x,1/2-y,-z
1/2+x,1/2-y,1/2+z
loop_
_atom_site_type_symbol
_atom_site_label
_atom_site_fract_x
_atom_site_fract_y
_atom_site_fract_z
Si Si1 0.537816 0.409059 0.173430
Si Si2 0.263021 0.623147 0.881003
Si Si3 0.000000 0.753846 0.250000
Si Si4 0.500000 0.722913 0.250000
Si Si5 0.273813 0.922026 0.786296
Si Si6 0.000000 0.529010 0.250000
Si Si7 0.152309 0.198276 0.053630
Si Si8 0.630876 0.875045 0.985149
O O1 0.663832 0.384555 0.160426
O O2 0.553512 0.316003 0.213476
O O3 0.635372 0.490183 0.243976
O O4 0.306230 0.436079 0.076349
O O5 0.133193 0.531910 0.843389
O O6 0.129451 0.712980 0.839575
O O7 0.457262 0.631902 0.993762
O O8 0.196740 0.692711 0.336465
O O9 0.361321 0.664723 0.246161
O O10 0.438746 0.933209 0.897316
O O11 0.369979 0.912439 0.752691
O O12 0.286888 0.171389 0.045143
O O13 0.067893 0.298602 0.011261
#
# Coordination Sequence:
#
# PCOD8133043 Si02
#       8
#     8   8   4   4   8   4   8   8
#     4   9  20  38  57  85 127 161 193 243 319 362
#     4   9  18  40  62  83 118 174 192 241 310 378
#     4  10  19  31  57  93 122 150 198 264 297 343
#     4  11  21  34  66  92 118 154 220 239 293 366
#     4  11  21  39  59  95 115 164 202 253 289 376
#     4   9  22  39  65  83 134 156 202 245 316 347
#     4   9  17  34  58  89 114 156 203 253 295 359
#     4   9  18  35  59  82 120 161 200 235 313 368
#
# _framework density 23.543932999999999
#
# number of rings (size 3 to 8) (size 9 to 14) (size 15 to 20)
#    0.000    2.462    1.538    1.385    0.000    0.615 
#    2.769   10.769    0.000    2.769    0.000    0.000 
#    0.000    0.000    0.000    0.000    0.000    0.000 
#
# Total GULP energy -322123.238099 kJ/mol
# GULP energy per Si atom -12389.355312 kJ/mol
# Density = 2.349035 g / cm^3
# Si number density = 23.543933 Si / 1000 Ang^3
#
#
#
# Elastic Constant Matrix: (Units=GPa)
#
#
# Indices 1 2 3 4 5 6 
#
# 1 66.0812 33.6213 20.0926 0.0000 9.8669 0.0001
# 2 33.6213 79.0041 56.7003 -0.0001 7.5261 -0.0001
# 3 20.0926 56.7003 203.0434 0.0001 26.0329 0.0001
# 4 0.0000 -0.0001 0.0001 -304.0901 0.0001 -449.2698
# 5 9.8669 7.5261 26.0329 0.0001 24.1962 0.0001
# 6 0.0001 -0.0001 0.0001 -449.2698 0.0001 -564.2324
#
#
#
# Elastic Compliance Matrix: (Units=1/GPa)
#
#
# Indices 1 2 3 4 5 6 
#
# 1 0.020324 -0.008983 0.001394 0.000000 -0.006994 0.000000
# 2 -0.008983 0.019802 -0.005012 0.000000 0.002897 0.000000
# 3 0.001394 -0.005012 0.007029 0.000000 -0.006573 0.000000
# 4 0.000000 0.000000 0.000000 0.018643 0.000000 -0.014844
# 5 -0.006994 0.002897 -0.006573 0.000000 0.050351 0.000000
# 6 0.000000 0.000000 0.000000 -0.014844 0.000000 0.010047
#
#
# Mechanical properties :
#
#
# Convention : Reuss Voigt Hill
#
# Bulk Modulus (GPa) = 45.55340 63.21744 54.38542
# Shear Modulus (GPa) = 31.50273 -152.97763 -60.73745
#
# Velocity S-wave (km/s) = 3.66189 -8.06948 -5.08463
# Velocity P-wave (km/s) = 6.10488 7.74034 3.36476
#
# Compressibility (1/GPa) = 0.02195226
#
# Stress axis : x y z
#
# Youngs Moduli (GPa) = 49.20312 50.50046 142.25907
#
# Poissons Ratio (x) = 0.45367 -0.19833
# Poissons Ratio (y) = 0.44201 0.71302
# Poissons Ratio (z) = -0.06860 0.25311
#
# Static dielectric constant tensor:
#      x y z
#    x 4.330600 0.000000 0.657380 
#    y 0.000000 4.421470 0.000000 
#    z 0.657380 0.000000 5.049530 
# 
# 
# High freq. dielectric constant tensor:
#      x y z
#    x 1.902070 0.000000 0.021440 
#    y 0.000000 1.931280 0.000000 
#    z 0.021440 0.000000 1.942080 
# 
# From -- ./inp_files/270016.got.cif
#   From: 2010.06.25/outbox.cif.g09.slc.cpg/sg15_136_cif.got.tgz:270016.got - 2010.06.28 07:06:18.
