data_PCOD8133436
_publ_section_title
;
Structure prediction by ZEFSAII (Michael W. Deem and Ramdas Pophale) SiO2 
 PCOD8133436
Probable space group: C 2/C
;
_chemical_formula_sum "Si O2"
_cell_formula_units_Z 64
_cell_length_a 8.642374
_cell_length_b 13.581053
_cell_length_c 27.048484
_cell_angle_alpha 90.000000
_cell_angle_beta 87.640897
_cell_angle_gamma 90.000000
_cell_volume 3172.058544
_symmetry_space_group_name_H-M "C 2/C"
_symmetry_group_IT_number 15
_symmetry_cell_setting 'monoclinic'
loop_
_space_group_symop_operation_xyz
x,y,z
-x,y,1/2-z
-x,-y,-z
x,-y,1/2+z
1/2+x,1/2+y,z
1/2-x,1/2+y,1/2-z
1/2-x,1/2-y,-z
1/2+x,1/2-y,1/2+z
loop_
_atom_site_type_symbol
_atom_site_label
_atom_site_fract_x
_atom_site_fract_y
_atom_site_fract_z
Si Si1 0.127926 0.532274 0.413688
Si Si2 0.321691 0.399262 0.762589
Si Si3 0.331010 0.210708 0.152624
Si Si4 0.677673 0.201086 0.174037
Si Si5 0.720267 0.577227 0.671472
Si Si6 0.132900 0.065467 0.520952
Si Si7 0.722276 0.084835 0.078041
Si Si8 0.567585 0.407072 0.389054
O O1 0.191151 0.636211 0.392539
O O2 0.150263 0.449684 0.370953
O O3 0.230621 0.504197 0.459628
O O4 0.948065 0.541282 0.429550
O O5 0.500000 0.405552 0.750000
O O6 0.296201 0.313112 0.803831
O O7 0.235460 0.377692 0.712627
O O8 0.258189 0.505129 0.782005
O O9 0.493318 0.198106 0.178631
O O10 0.318708 0.320025 0.130222
O O11 0.743800 0.309080 0.186348
O O12 0.728656 0.172151 0.117767
O O13 0.545717 0.559242 0.653561
O O14 0.209711 0.127562 0.474830
O O15 0.049302 0.130276 0.565030
O O16 0.000000 0.000000 0.500000
O O17 0.828483 0.996806 0.095919
#
# Coordination Sequence:
#
# PCOD8133436 Si02
#       8
#     8   8   8   8   8   8   8   8
#     4   9  18  35  55  78 110 143 181 230 275 314
#     4  11  22  35  56  83 107 138 180 227 274 324
#     4   9  20  38  57  78 109 146 182 224 274 330
#     4  10  21  37  56  80 110 147 184 222 272 329
#     4   9  20  38  55  75 108 146 181 219 272 336
#     4   9  18  34  55  81 112 150 185 220 270 329
#     4  10  19  33  55  83 112 141 184 236 272 311
#     4   9  18  36  59  80 109 149 185 220 273 331
#
# _framework density 20.176172000000001
#
# number of rings (size 3 to 8) (size 9 to 14) (size 15 to 20)
#    0.000    2.500    0.000    1.500    0.000    5.000 
#    0.000   16.250    0.000    0.000    0.000    0.000 
#    0.000    0.000    0.000    0.000    0.000    0.000 
#
# Total GULP energy -396639.423119 kJ/mol
# GULP energy per Si atom -12394.981972 kJ/mol
# Density = 2.013025 g / cm^3
# Si number density = 20.176172 Si / 1000 Ang^3
#
#
#
# Elastic Constant Matrix: (Units=GPa)
#
#
# Indices 1 2 3 4 5 6 
#
# 1 59.8749 17.4625 29.2115 0.0000 -7.6150 0.0000
# 2 17.4625 88.6274 37.8310 0.0000 0.3856 0.0000
# 3 29.2115 37.8310 92.4315 0.0000 -1.3340 0.0000
# 4 0.0000 0.0000 0.0000 19.8641 0.0000 -0.4492
# 5 -7.6150 0.3856 -1.3340 0.0000 35.5494 0.0000
# 6 0.0000 0.0000 0.0000 -0.4492 0.0000 22.8304
#
#
#
# Elastic Compliance Matrix: (Units=1/GPa)
#
#
# Indices 1 2 3 4 5 6 
#
# 1 0.020516 -0.001598 -0.005769 0.000000 0.004195 0.000000
# 2 -0.001598 0.013801 -0.005153 0.000000 -0.000685 0.000000
# 3 -0.005769 -0.005153 0.014742 0.000000 -0.000627 0.000000
# 4 0.000000 0.000000 0.000000 0.050364 0.000000 0.000991
# 5 0.004195 -0.000685 -0.000627 0.000000 0.029013 0.000000
# 6 0.000000 0.000000 0.000000 0.000991 0.000000 0.043821
#
#
# Mechanical properties :
#
#
# Convention : Reuss Voigt Hill
#
# Bulk Modulus (GPa) = 41.63565 45.54932 43.59249
# Shear Modulus (GPa) = 24.35423 26.07736 25.21579
#
# Velocity S-wave (km/s) = 3.47807 3.59901 3.53906
# Velocity P-wave (km/s) = 6.06714 6.31627 6.19296
#
# Compressibility (1/GPa) = 0.02401788
#
# Stress axis : x y z
#
# Youngs Moduli (GPa) = 48.74309 72.45976 67.83250
#
# Poissons Ratio (x) = 0.11579 0.39133
# Poissons Ratio (y) = 0.07789 0.34956
# Poissons Ratio (z) = 0.28120 0.37341
#
# Static dielectric constant tensor:
#      x y z
#    x 3.728480 0.000000 -0.225000 
#    y 0.000000 3.511140 0.000000 
#    z -0.225000 0.000000 4.043500 
# 
# 
# High freq. dielectric constant tensor:
#      x y z
#    x 1.785030 0.000000 -0.008810 
#    y 0.000000 1.766160 0.000000 
#    z -0.008810 0.000000 1.798340 
# 
# From -- ./inp_files/264720.got.cif
#   From: 2010.06.25/outbox.cif.g09.slc.cpg/sg15_133_cif.got.tgz:264720.got - 2010.06.28 07:06:18.
