data_PCOD8133783
_publ_section_title
;
Structure prediction by ZEFSAII (Michael W. Deem and Ramdas Pophale) SiO2 
 PCOD8133783
Probable space group: C 2/C
;
_chemical_formula_sum "Si O2"
_cell_formula_units_Z 40
_cell_length_a 19.853383
_cell_length_b 6.901966
_cell_length_c 20.837177
_cell_angle_alpha 90.000000
_cell_angle_beta 131.379304
_cell_angle_gamma 90.000000
_cell_volume 2142.446785
_symmetry_space_group_name_H-M "C 2/C"
_symmetry_group_IT_number 15
_symmetry_cell_setting 'monoclinic'
loop_
_space_group_symop_operation_xyz
x,y,z
-x,y,1/2-z
-x,-y,-z
x,-y,1/2+z
1/2+x,1/2+y,z
1/2-x,1/2+y,1/2-z
1/2-x,1/2-y,-z
1/2+x,1/2-y,1/2+z
loop_
_atom_site_type_symbol
_atom_site_label
_atom_site_fract_x
_atom_site_fract_y
_atom_site_fract_z
Si Si1 0.204095 0.668218 0.908276
Si Si2 0.469201 0.341418 0.389821
Si Si3 0.571218 0.384436 0.744359
Si Si4 0.886179 0.861775 0.470641
Si Si5 0.046495 0.558223 0.888159
O O1 0.163919 0.842387 0.839600
O O2 0.282702 0.568744 0.915732
O O3 0.122369 0.527622 0.879915
O O4 0.250000 0.750000 0.000000
O O5 0.413262 0.454620 0.300246
O O6 0.401267 0.310399 0.405798
O O7 0.554487 0.461472 0.467416
O O8 0.505581 0.142284 0.384748
O O9 0.500000 0.470845 0.750000
O O10 0.534651 0.185546 0.690583
O O11 0.907858 0.666316 0.523087
#
# Coordination Sequence:
#
# PCOD8133783 Si02
#       5
#     8   8   8   8   8
#     4   9  18  36  55  75 109 144 176 227 272 314
#     4  10  19  34  57  79 105 144 180 219 272 334
#     4   9  19  35  53  74 107 138 176 225 274 317
#     4   9  19  35  54  80 112 139 176 224 275 323
#     4   9  18  34  57  78 103 145 182 218 268 329
#
# _framework density 18.670241000000001
#
# number of rings (size 3 to 8) (size 9 to 14) (size 15 to 20)
#    0.000    2.800    0.000    1.800    0.000    3.200 
#    3.600    4.000    0.000    0.000    0.000    0.000 
#    0.000    0.000    0.000    0.000    0.000    0.000 
#
# Total GULP energy -247889.262108 kJ/mol
# GULP energy per Si atom -12394.463105 kJ/mol
# Density = 1.862775 g / cm^3
# Si number density = 18.670241 Si / 1000 Ang^3
#
#
#
# Elastic Constant Matrix: (Units=GPa)
#
#
# Indices 1 2 3 4 5 6 
#
# 1 151.8557 54.7097 49.5620 0.0000 -13.4886 0.0000
# 2 54.7097 93.5971 34.3901 -0.0002 -11.2874 -0.0001
# 3 49.5620 34.3901 109.5468 0.0000 -11.8558 0.0000
# 4 0.0000 -0.0002 0.0000 16.9810 0.0000 -5.2839
# 5 -13.4886 -11.2874 -11.8558 0.0000 28.4306 0.0000
# 6 0.0000 -0.0001 0.0000 -5.2839 0.0000 19.2831
#
#
#
# Elastic Compliance Matrix: (Units=1/GPa)
#
#
# Indices 1 2 3 4 5 6 
#
# 1 0.009079 -0.004150 -0.002636 0.000000 0.001561 0.000000
# 2 -0.004150 0.014290 -0.002312 0.000000 0.002740 0.000000
# 3 -0.002636 -0.002312 0.011323 0.000000 0.002553 0.000000
# 4 0.000000 0.000000 0.000000 0.064378 0.000000 0.017641
# 5 0.001561 0.002740 0.002553 0.000000 0.038066 0.000000
# 6 0.000000 0.000000 0.000000 0.017641 0.000000 0.056693
#
#
# Mechanical properties :
#
#
# Convention : Reuss Voigt Hill
#
# Bulk Modulus (GPa) = 60.61936 70.25813 65.43875
# Shear Modulus (GPa) = 22.98583 27.36146 25.17365
#
# Velocity S-wave (km/s) = 3.51258 3.83235 3.67595
# Velocity P-wave (km/s) = 6.99928 7.56937 7.28990
#
# Compressibility (1/GPa) = 0.01649638
#
# Stress axis : x y z
#
# Youngs Moduli (GPa) = 110.13929 69.97922 88.31454
#
# Poissons Ratio (x) = 0.29044 0.23279
# Poissons Ratio (y) = 0.45712 0.20416
# Poissons Ratio (z) = 0.29032 0.16177
#
# Static dielectric constant tensor:
#      x y z
#    x 3.894030 0.000000 -0.110550 
#    y 0.000000 3.044060 0.000000 
#    z -0.110550 0.000000 3.593620 
# 
# 
# High freq. dielectric constant tensor:
#      x y z
#    x 1.732530 0.000000 -0.012770 
#    y 0.000000 1.691380 0.000000 
#    z -0.012770 0.000000 1.730800 
# 
# From -- ./inp_files/212732.got.cif
#   From: 2010.06.25/outbox.cif.g09.slc.cpg/sg15_107_cif.got.tgz:212732.got - 2010.06.28 07:06:18.
