data_PCOD8133599
_publ_section_title
;
Structure prediction by ZEFSAII (Michael W. Deem and Ramdas Pophale) SiO2 
 PCOD8133599
Probable space group: C 2/C
;
_chemical_formula_sum "Si O2"
_cell_formula_units_Z 56
_cell_length_a 17.418276
_cell_length_b 8.811866
_cell_length_c 28.478554
_cell_angle_alpha 90.000000
_cell_angle_beta 143.473313
_cell_angle_gamma 90.000000
_cell_volume 2601.667679
_symmetry_space_group_name_H-M "C 2/C"
_symmetry_group_IT_number 15
_symmetry_cell_setting 'monoclinic'
loop_
_space_group_symop_operation_xyz
x,y,z
-x,y,1/2-z
-x,-y,-z
x,-y,1/2+z
1/2+x,1/2+y,z
1/2-x,1/2+y,1/2-z
1/2-x,1/2-y,-z
1/2+x,1/2-y,1/2+z
loop_
_atom_site_type_symbol
_atom_site_label
_atom_site_fract_x
_atom_site_fract_y
_atom_site_fract_z
Si Si1 0.800915 0.217111 0.682080
Si Si2 0.617455 0.843815 0.935982
Si Si3 0.723037 0.004243 0.071502
Si Si4 0.504919 0.439427 0.344848
Si Si5 0.856153 0.166184 0.936586
Si Si6 0.610609 0.981449 0.835162
Si Si7 0.406437 0.566485 0.386308
O O1 0.895350 0.098605 0.753560
O O2 0.881453 0.318419 0.685618
O O3 0.719915 0.326244 0.676603
O O4 0.704994 0.117319 0.603625
O O5 0.516314 0.706960 0.884840
O O6 0.577134 0.951037 0.872690
O O7 0.750000 0.750000 0.000000
O O8 0.615820 0.955069 0.980112
O O9 0.690508 0.161757 0.080880
O O10 0.865967 0.000261 0.117787
O O11 0.454086 0.566214 0.355971
O O12 0.745083 0.065692 0.905019
O O13 0.873780 0.101470 0.892011
O O14 0.986971 0.145621 0.029215
O O15 0.500000 0.071046 0.750000
#
# Coordination Sequence:
#
# PCOD8133599 Si02
#       7
#     8   8   8   8   8   8   8
#     4  11  22  42  66  93 133 173 214 261 332 395
#     4  10  19  33  64  94 122 156 212 268 325 374
#     4  11  23  40  70  98 120 166 231 274 308 381
#     4  11  22  41  67  96 128 165 218 276 320 379
#     4  10  24  43  64  94 135 175 218 265 325 389
#     4  11  19  38  64  96 127 169 215 273 330 381
#     4  10  25  44  64  89 142 179 204 261 338 395
#
# _framework density 21.524654000000002
#
# number of rings (size 3 to 8) (size 9 to 14) (size 15 to 20)
#    0.000    1.429    4.286    2.143    4.000    5.143 
#    2.571    1.429    0.000    0.000    0.000    0.000 
#    0.000    0.000    0.000    0.000    0.000    0.000 
#
# Total GULP energy -346870.045106 kJ/mol
# GULP energy per Si atom -12388.215897 kJ/mol
# Density = 2.147566 g / cm^3
# Si number density = 21.524654 Si / 1000 Ang^3
#
#
#
# Elastic Constant Matrix: (Units=GPa)
#
#
# Indices 1 2 3 4 5 6 
#
# 1 61.7734 38.3362 14.4309 0.0000 -8.7062 0.0000
# 2 38.3362 64.9597 7.0847 0.0000 -0.2744 0.0000
# 3 14.4309 7.0847 86.8546 0.0000 -5.1222 0.0000
# 4 0.0000 0.0000 0.0000 26.4414 0.0000 -1.7693
# 5 -8.7062 -0.2744 -5.1222 0.0000 26.6862 0.0000
# 6 0.0000 0.0000 0.0000 -1.7693 0.0000 15.0695
#
#
#
# Elastic Compliance Matrix: (Units=1/GPa)
#
#
# Indices 1 2 3 4 5 6 
#
# 1 0.028137 -0.016259 -0.002849 0.000000 0.008465 0.000000
# 2 -0.016259 0.024927 0.000375 0.000000 -0.004976 0.000000
# 3 -0.002849 0.000375 0.012038 0.000000 0.001385 0.000000
# 4 0.000000 0.000000 0.000000 0.038119 0.000000 0.004476
# 5 0.008465 -0.004976 0.001385 0.000000 0.040449 0.000000
# 6 0.000000 0.000000 0.000000 0.004476 0.000000 0.066885
#
#
# Mechanical properties :
#
#
# Convention : Reuss Voigt Hill
#
# Bulk Modulus (GPa) = 36.18555 37.03237 36.60896
# Shear Modulus (GPa) = 19.43758 23.88848 21.66303
#
# Velocity S-wave (km/s) = 3.00832 3.33501 3.17587
# Velocity P-wave (km/s) = 5.37721 5.66319 5.52205
#
# Compressibility (1/GPa) = 0.02763534
#
# Stress axis : x y z
#
# Youngs Moduli (GPa) = 35.54051 40.11661 83.06990
#
# Poissons Ratio (x) = 0.65224 0.23671
# Poissons Ratio (y) = 0.57784 -0.03112
# Poissons Ratio (z) = 0.10127 -0.01503
#
# Static dielectric constant tensor:
#      x y z
#    x 3.866860 0.000000 -0.064880 
#    y 0.000000 3.802180 0.000000 
#    z -0.064880 0.000000 4.196710 
# 
# 
# High freq. dielectric constant tensor:
#      x y z
#    x 1.831280 0.000000 -0.000760 
#    y 0.000000 1.828810 0.000000 
#    z -0.000760 0.000000 1.853990 
# 
# From -- ./inp_files/298592.got.cif
#   From: 2010.06.25/outbox.cif.g09.slc.cpg/sg15_150_cif.got.tgz:298592.got - 2010.06.28 07:06:18.
