data_PCOD8133330
_publ_section_title
;
Structure prediction by ZEFSAII (Michael W. Deem and Ramdas Pophale) SiO2 
 PCOD8133330
Probable space group: C 2/C
;
_chemical_formula_sum "Si O2"
_cell_formula_units_Z 40
_cell_length_a 23.179395
_cell_length_b 18.843460
_cell_length_c 12.458331
_cell_angle_alpha 90.000000
_cell_angle_beta 23.255852
_cell_angle_gamma 90.000000
_cell_volume 2148.529007
_symmetry_space_group_name_H-M "C 2/C"
_symmetry_group_IT_number 15
_symmetry_cell_setting 'monoclinic'
loop_
_space_group_symop_operation_xyz
x,y,z
-x,y,1/2-z
-x,-y,-z
x,-y,1/2+z
1/2+x,1/2+y,z
1/2-x,1/2+y,1/2-z
1/2-x,1/2-y,-z
1/2+x,1/2-y,1/2+z
loop_
_atom_site_type_symbol
_atom_site_label
_atom_site_fract_x
_atom_site_fract_y
_atom_site_fract_z
Si Si1 0.833130 0.810930 0.916824
Si Si2 0.176693 0.919788 0.165251
Si Si3 0.168456 0.928318 0.742798
Si Si4 0.824977 0.796308 0.172476
Si Si5 0.174351 0.146730 0.449744
O O1 0.790303 0.884136 0.933178
O O2 0.001583 0.790108 0.617505
O O3 0.750000 0.750000 0.000000
O O4 0.779396 0.818414 0.130510
O O5 0.229246 0.857219 0.154007
O O6 0.004560 0.930532 0.452533
O O7 0.240233 0.993998 0.102611
O O8 0.229706 0.901648 0.954239
O O9 0.229531 0.891780 0.746856
O O10 0.750009 0.722861 0.332668
O O11 0.000000 0.158138 0.750000
#
# Coordination Sequence:
#
# PCOD8133330 Si02
#       5
#     8   8   8   8   8
#     4  10  19  34  54  77 101 134 173 213 248 305
#     4   9  19  31  50  77 104 129 168 216 255 303
#     4   9  18  32  50  76 103 132 168 212 260 294
#     4  10  20  33  54  79 101 134 172 211 259 300
#     4  10  19  33  53  77 106 135 167 213 261 305
#
# _framework density 18.617388999999999
#
# number of rings (size 3 to 8) (size 9 to 14) (size 15 to 20)
#    0.000    2.400    2.000    0.600    2.800    0.000 
#    0.000    0.000    0.000    3.600    0.000    0.000 
#    0.000    0.000    0.000    0.000    0.000    0.000 
#
# Total GULP energy -247934.493056 kJ/mol
# GULP energy per Si atom -12396.724653 kJ/mol
# Density = 1.857501 g / cm^3
# Si number density = 18.617389 Si / 1000 Ang^3
#
#
#
# Elastic Constant Matrix: (Units=GPa)
#
#
# Indices 1 2 3 4 5 6 
#
# 1 155.9244 81.0199 20.5700 -0.0024 15.0891 0.0004
# 2 81.0199 175.0334 24.5225 -0.0084 6.5452 0.0034
# 3 20.5700 24.5225 11.1389 -0.0116 6.7824 0.0059
# 4 -0.0024 -0.0084 -0.0116 21.2626 0.0062 -0.4145
# 5 15.0891 6.5452 6.7824 0.0062 18.6539 -0.0020
# 6 0.0004 0.0034 0.0059 -0.4145 -0.0020 38.5013
#
#
#
# Elastic Compliance Matrix: (Units=1/GPa)
#
#
# Indices 1 2 3 4 5 6 
#
# 1 0.009473 -0.003034 -0.008729 -0.000004 -0.003424 0.000001
# 2 -0.003034 0.009577 -0.019175 -0.000009 0.006065 0.000002
# 3 -0.008729 -0.019175 0.179439 0.000104 -0.051453 -0.000027
# 4 -0.000004 -0.000009 0.000104 0.047041 -0.000047 0.000506
# 5 -0.003424 0.006065 -0.051453 -0.000047 0.072957 0.000011
# 6 0.000001 0.000002 -0.000027 0.000506 0.000011 0.025979
#
#
# Mechanical properties :
#
#
# Convention : Reuss Voigt Hill
#
# Bulk Modulus (GPa) = 7.31996 66.03571 36.67783
# Shear Modulus (GPa) = 11.06489 30.08252 20.57371
#
# Velocity S-wave (km/s) = 2.44054 4.02410 3.32788
# Velocity P-wave (km/s) = 3.44702 7.55897 5.87452
#
# Compressibility (1/GPa) = 0.13661280
#
# Stress axis : x y z
#
# Youngs Moduli (GPa) = 105.56697 104.41609 5.57292
#
# Poissons Ratio (x) = 0.31677 0.04865
# Poissons Ratio (y) = 0.32026 0.10686
# Poissons Ratio (z) = 0.92154 2.00218
#
# Static dielectric constant tensor:
#      x y z
#    x 3.720060 0.000000 0.120290 
#    y 0.000000 3.404540 0.000000 
#    z 0.120290 0.000000 2.972080 
# 
# 
# High freq. dielectric constant tensor:
#      x y z
#    x 1.742990 0.000000 0.014040 
#    y 0.000000 1.732250 0.000000 
#    z 0.014040 0.000000 1.669690 
# 
# From -- ./inp_files/225556.got.cif
#   From: 2010.06.25/outbox.cif.g09.slc.cpg/sg15_113_cif.got.tgz:225556.got - 2010.06.28 07:06:18.
