data_PCOD8133541
_publ_section_title
;
Structure prediction by ZEFSAII (Michael W. Deem and Ramdas Pophale) SiO2 
 PCOD8133541
Probable space group: C 2/C
;
_chemical_formula_sum "Si O2"
_cell_formula_units_Z 60
_cell_length_a 24.664474
_cell_length_b 8.420869
_cell_length_c 21.186277
_cell_angle_alpha 90.000000
_cell_angle_beta 138.562284
_cell_angle_gamma 90.000000
_cell_volume 2912.150296
_symmetry_space_group_name_H-M "C 2/C"
_symmetry_group_IT_number 15
_symmetry_cell_setting 'monoclinic'
loop_
_space_group_symop_operation_xyz
x,y,z
-x,y,1/2-z
-x,-y,-z
x,-y,1/2+z
1/2+x,1/2+y,z
1/2-x,1/2+y,1/2-z
1/2-x,1/2-y,-z
1/2+x,1/2-y,1/2+z
loop_
_atom_site_type_symbol
_atom_site_label
_atom_site_fract_x
_atom_site_fract_y
_atom_site_fract_z
Si Si1 0.959583 0.882204 0.581422
Si Si2 0.370673 0.873924 0.495298
Si Si3 0.690583 0.563566 0.007319
Si Si4 0.500000 0.269716 0.750000
Si Si5 0.428918 0.887762 0.959593
Si Si6 0.086350 0.817796 0.303445
Si Si7 0.040533 0.807716 0.128889
Si Si8 0.633524 0.985262 0.379086
O O1 0.002047 0.870612 0.687261
O O2 0.962292 0.716623 0.546987
O O3 0.865211 0.932731 0.507936
O O4 0.006427 0.017325 0.581229
O O5 0.308208 0.725594 0.448799
O O6 0.463282 0.803209 0.580751
O O7 0.354055 0.001700 0.535363
O O8 0.359242 0.985247 0.422427
O O9 0.658943 0.605659 0.908662
O O10 0.779756 0.486915 0.081512
O O11 0.415282 0.173387 0.679354
O O12 0.405844 0.770226 0.881301
O O13 0.500000 0.000000 0.000000
O O14 0.100683 0.835351 0.241001
O O15 0.079514 0.631572 0.309482
O O16 0.000000 0.895387 0.250000
#
# Coordination Sequence:
#
# PCOD8133541 Si02
#       8
#     8   8   8   4   8   8   8   8
#     4  11  21  37  55  89 124 154 197 253 301 353
#     4   9  16  35  53  85 119 155 197 241 292 358
#     4  10  22  35  61  89 125 156 191 253 326 362
#     4  12  22  34  62  90 130 150 204 262 300 366
#     4  10  21  34  56  86 117 158 208 246 291 358
#     4  11  16  33  61  89 119 149 193 245 300 359
#     4  10  19  33  58  86 118 159 201 244 289 358
#     4  11  20  35  59  92 122 154 195 249 317 360
#
# _framework density 20.603332000000002
#
# number of rings (size 3 to 8) (size 9 to 14) (size 15 to 20)
#    0.000    1.600    6.000    2.800    1.867    0.533 
#    0.000    0.000    0.000    3.200    0.000    0.000 
#    0.000    0.000    0.000    0.000    0.000    0.000 
#
# Total GULP energy -371642.515348 kJ/mol
# GULP energy per Si atom -12388.083845 kJ/mol
# Density = 2.055644 g / cm^3
# Si number density = 20.603332 Si / 1000 Ang^3
#
#
#
# Elastic Constant Matrix: (Units=GPa)
#
#
# Indices 1 2 3 4 5 6 
#
# 1 105.7579 57.6927 40.9876 0.0000 -9.0790 0.0000
# 2 57.6927 106.3785 28.2616 0.0000 -8.4617 0.0000
# 3 40.9876 28.2616 53.2007 0.0000 -4.5506 0.0000
# 4 0.0000 0.0000 0.0000 14.3760 0.0000 -7.9713
# 5 -9.0790 -8.4617 -4.5506 0.0000 32.6165 0.0000
# 6 0.0000 0.0000 0.0000 -7.9713 0.0000 35.7223
#
#
#
# Elastic Compliance Matrix: (Units=1/GPa)
#
#
# Indices 1 2 3 4 5 6 
#
# 1 0.016740 -0.006470 -0.009316 0.000000 0.001681 0.000000
# 2 -0.006470 0.013583 -0.002109 0.000000 0.001429 0.000000
# 3 -0.009316 -0.002109 0.027150 0.000000 0.000648 0.000000
# 4 0.000000 0.000000 0.000000 0.079382 0.000000 0.017714
# 5 0.001681 0.001429 0.000648 0.000000 0.031588 0.000000
# 6 0.000000 0.000000 0.000000 0.017714 0.000000 0.031946
#
#
# Mechanical properties :
#
#
# Convention : Reuss Voigt Hill
#
# Bulk Modulus (GPa) = 46.11897 57.69121 51.90509
# Shear Modulus (GPa) = 20.54165 25.76932 23.15549
#
# Velocity S-wave (km/s) = 3.16097 3.54041 3.35606
# Velocity P-wave (km/s) = 5.97956 6.69137 6.34545
#
# Compressibility (1/GPa) = 0.02168305
#
# Stress axis : x y z
#
# Youngs Moduli (GPa) = 59.73747 73.62071 36.83243
#
# Poissons Ratio (x) = 0.47631 0.34314
# Poissons Ratio (y) = 0.38649 0.07768
# Poissons Ratio (z) = 0.55653 0.15526
#
# Static dielectric constant tensor:
#      x y z
#    x 4.007740 0.000000 -0.318220 
#    y 0.000000 4.003430 0.000000 
#    z -0.318220 0.000000 3.363280 
# 
# 
# High freq. dielectric constant tensor:
#      x y z
#    x 1.797270 0.000000 -0.017310 
#    y 0.000000 1.825150 0.000000 
#    z -0.017310 0.000000 1.754420 
# 
# From -- ./inp_files/252124.got.cif
#   From: 2010.06.25/outbox.cif.g09.slc.cpg/sg15_127_cif.got.tgz:252124.got - 2010.06.28 07:06:18.
