data_PCOD8133590
_publ_section_title
;
Structure prediction by ZEFSAII (Michael W. Deem and Ramdas Pophale) SiO2 
 PCOD8133590
Probable space group: C 2/C
;
_chemical_formula_sum "Si O2"
_cell_formula_units_Z 48
_cell_length_a 21.347625
_cell_length_b 11.869241
_cell_length_c 11.638390
_cell_angle_alpha 90.000000
_cell_angle_beta 59.465482
_cell_angle_gamma 90.000000
_cell_volume 2539.987522
_symmetry_space_group_name_H-M "C 2/C"
_symmetry_group_IT_number 15
_symmetry_cell_setting 'monoclinic'
loop_
_space_group_symop_operation_xyz
x,y,z
-x,y,1/2-z
-x,-y,-z
x,-y,1/2+z
1/2+x,1/2+y,z
1/2-x,1/2+y,1/2-z
1/2-x,1/2-y,-z
1/2+x,1/2-y,1/2+z
loop_
_atom_site_type_symbol
_atom_site_label
_atom_site_fract_x
_atom_site_fract_y
_atom_site_fract_z
Si Si1 0.156201 0.539068 0.713243
Si Si2 0.702049 0.828472 0.965095
Si Si3 0.082471 0.328175 0.709856
Si Si4 0.172545 0.296292 0.401616
Si Si5 0.295774 0.556961 0.190436
Si Si6 0.160930 0.176720 0.802279
O O1 0.149542 0.598867 0.595342
O O2 0.096076 0.440243 0.773525
O O3 0.139875 0.629829 0.827912
O O4 0.236433 0.484470 0.652224
O O5 0.753252 0.913089 0.846794
O O6 0.654780 0.750987 0.923735
O O7 0.750000 0.750000 0.000000
O O8 0.135358 0.337336 0.551838
O O9 0.100983 0.218277 0.767906
O O10 0.000000 0.318687 0.750000
O O11 0.157177 0.163270 0.396869
O O12 0.259217 0.310439 0.327929
O O13 0.352587 0.455172 0.159302
#
# Coordination Sequence:
#
# PCOD8133590 Si02
#       6
#     8   8   8   8   8   8
#     4  11  20  37  59  89 122 151 193 243 298 348
#     4  11  18  33  57  95 122 139 190 250 299 339
#     4  12  26  40  57  84 125 165 196 236 290 362
#     4  10  21  38  61  88 116 149 203 245 293 344
#     4  10  19  33  61  93 115 146 189 256 297 334
#     4  10  21  37  61  93 117 150 196 246 296 349
#
# _framework density 18.897729999999999
#
# number of rings (size 3 to 8) (size 9 to 14) (size 15 to 20)
#    0.000    1.333    8.333    2.500    2.333    0.667 
#    0.000    0.833    0.000    1.000    0.000    0.000 
#    0.000    0.000    0.000    0.000    0.000    0.000 
#
# Total GULP energy -297588.787410 kJ/mol
# GULP energy per Si atom -12399.532809 kJ/mol
# Density = 1.885472 g / cm^3
# Si number density = 18.897730 Si / 1000 Ang^3
#
#
#
# Elastic Constant Matrix: (Units=GPa)
#
#
# Indices 1 2 3 4 5 6 
#
# 1 98.8967 51.7975 20.3347 0.0000 9.7549 0.0000
# 2 51.7975 154.6383 22.5954 0.0000 13.2189 0.0000
# 3 20.3347 22.5954 54.6418 0.0000 22.0354 0.0000
# 4 0.0000 0.0000 0.0000 27.5209 0.0000 16.3698
# 5 9.7549 13.2189 22.0354 0.0000 19.6711 0.0000
# 6 0.0000 0.0000 0.0000 16.3698 0.0000 36.1687
#
#
#
# Elastic Compliance Matrix: (Units=1/GPa)
#
#
# Indices 1 2 3 4 5 6 
#
# 1 0.012761 -0.003800 -0.003019 0.000000 -0.000392 0.000000
# 2 -0.003800 0.008089 -0.000910 0.000000 -0.002532 0.000000
# 3 -0.003019 -0.000910 0.034565 0.000000 -0.036611 0.000000
# 4 0.000000 0.000000 0.000000 0.049721 0.000000 -0.022504
# 5 -0.000392 -0.002532 -0.036611 0.000000 0.093744 0.000000
# 6 0.000000 0.000000 0.000000 -0.022504 0.000000 0.037833
#
#
# Mechanical properties :
#
#
# Convention : Reuss Voigt Hill
#
# Bulk Modulus (GPa) = 25.02665 55.29244 40.15954
# Shear Modulus (GPa) = 18.83309 30.90210 24.86759
#
# Velocity S-wave (km/s) = 3.16029 4.04818 3.63147
# Velocity P-wave (km/s) = 5.15641 7.15351 6.23543
#
# Compressibility (1/GPa) = 0.03995741
#
# Stress axis : x y z
#
# Youngs Moduli (GPa) = 78.36214 123.62701 28.93107
#
# Poissons Ratio (x) = 0.46975 0.08736
# Poissons Ratio (y) = 0.29776 0.02631
# Poissons Ratio (z) = 0.23661 0.11245
#
# Static dielectric constant tensor:
#      x y z
#    x 3.131650 0.000000 0.462220 
#    y 0.000000 4.247610 0.000000 
#    z 0.462220 0.000000 3.534740 
# 
# 
# High freq. dielectric constant tensor:
#      x y z
#    x 1.685730 0.000000 0.043510 
#    y 0.000000 1.762600 0.000000 
#    z 0.043510 0.000000 1.718970 
# 
# From -- ./inp_files/103836.got.cif
#   From: 2010.06.25/outbox.cif.g09.slc.cpg/sg15_52_cif.got.tgz:103836.got - 2010.06.28 07:06:18.
