data_PCOD8133518
_publ_section_title
;
Structure prediction by ZEFSAII (Michael W. Deem and Ramdas Pophale) SiO2 
 PCOD8133518
Probable space group: C 2/C
;
_chemical_formula_sum "Si O2"
_cell_formula_units_Z 48
_cell_length_a 25.595626
_cell_length_b 15.767639
_cell_length_c 14.148514
_cell_angle_alpha 90.000000
_cell_angle_beta 25.167538
_cell_angle_gamma 90.000000
_cell_volume 2428.312099
_symmetry_space_group_name_H-M "C 2/C"
_symmetry_group_IT_number 15
_symmetry_cell_setting 'monoclinic'
loop_
_space_group_symop_operation_xyz
x,y,z
-x,y,1/2-z
-x,-y,-z
x,-y,1/2+z
1/2+x,1/2+y,z
1/2-x,1/2+y,1/2-z
1/2-x,1/2-y,-z
1/2+x,1/2-y,1/2+z
loop_
_atom_site_type_symbol
_atom_site_label
_atom_site_fract_x
_atom_site_fract_y
_atom_site_fract_z
Si Si1 0.284649 0.373996 0.447063
Si Si2 0.740166 0.567991 0.995531
Si Si3 0.856429 0.736369 0.466149
Si Si4 0.509846 0.644217 0.036665
Si Si5 0.875198 0.713401 0.836783
Si Si6 0.686740 0.327491 0.403128
O O1 0.239146 0.468400 0.542112
O O2 0.178740 0.332458 0.556198
O O3 0.302954 0.326276 0.516797
O O4 0.418167 0.371162 0.177932
O O5 0.613477 0.588265 0.259045
O O6 0.858271 0.611293 0.856659
O O7 0.737821 0.604058 0.893334
O O8 0.796600 0.713540 0.663922
O O9 0.000000 0.739995 0.250000
O O10 0.482545 0.745868 0.095378
O O11 0.594858 0.619372 0.986733
O O12 0.884687 0.749241 0.928266
O O13 0.750000 0.750000 0.000000
#
# Coordination Sequence:
#
# PCOD8133518 Si02
#       6
#     8   8   8   8   8   8
#     4  10  22  39  56  88 114 148 197 241 290 342
#     4  10  19  33  57  88 115 139 188 247 296 332
#     4  10  23  39  59  74 116 159 198 228 292 358
#     4   9  17  33  59  82 117 147 182 242 289 352
#     4   8  16  29  54  79 111 143 181 216 298 342
#     4   9  18  35  54  81 111 150 193 233 283 354
#
# _framework density 19.766817
#
# number of rings (size 3 to 8) (size 9 to 14) (size 15 to 20)
#    0.000    3.000    0.000    2.500    7.000    1.333 
#    6.000    2.500    0.000    0.000    0.000    0.000 
#    0.000    0.000    0.000    0.000    0.000    0.000 
#
# Total GULP energy -297360.862355 kJ/mol
# GULP energy per Si atom -12390.035931 kJ/mol
# Density = 1.972183 g / cm^3
# Si number density = 19.766817 Si / 1000 Ang^3
#
#
#
# Elastic Constant Matrix: (Units=GPa)
#
#
# Indices 1 2 3 4 5 6 
#
# 1 54.8843 32.9333 18.5909 0.0000 6.6907 0.0000
# 2 32.9333 160.1727 28.1816 0.0000 6.3461 0.0000
# 3 18.5909 28.1816 41.9374 0.0000 9.0629 0.0000
# 4 0.0000 0.0000 0.0000 21.2844 0.0000 -2.2442
# 5 6.6907 6.3461 9.0629 0.0000 28.6764 0.0000
# 6 0.0000 0.0000 0.0000 -2.2442 0.0000 19.3774
#
#
#
# Elastic Compliance Matrix: (Units=1/GPa)
#
#
# Indices 1 2 3 4 5 6 
#
# 1 0.023028 -0.003329 -0.007481 0.000000 -0.002272 0.000000
# 2 -0.003329 0.007562 -0.003662 0.000000 0.000261 0.000000
# 3 -0.007481 -0.003662 0.031201 0.000000 -0.007305 0.000000
# 4 0.000000 0.000000 0.000000 0.047564 0.000000 0.005509
# 5 -0.002272 0.000261 -0.007305 0.000000 0.037653 0.000000
# 6 0.000000 0.000000 0.000000 0.005509 0.000000 0.052245
#
#
# Mechanical properties :
#
#
# Convention : Reuss Voigt Hill
#
# Bulk Modulus (GPa) = 30.44325 46.26733 38.35529
# Shear Modulus (GPa) = 20.90787 25.68688 23.29737
#
# Velocity S-wave (km/s) = 3.25580 3.60876 3.43681
# Velocity P-wave (km/s) = 5.43767 6.38918 5.93253
#
# Compressibility (1/GPa) = 0.03284800
#
# Stress axis : x y z
#
# Youngs Moduli (GPa) = 43.42453 132.24579 32.05043
#
# Poissons Ratio (x) = 0.44021 0.23976
# Poissons Ratio (y) = 0.14455 0.11737
# Poissons Ratio (z) = 0.32485 0.48430
#
# Static dielectric constant tensor:
#      x y z
#    x 3.888770 0.000000 -0.073560 
#    y 0.000000 3.889630 0.000000 
#    z -0.073560 0.000000 3.597490 
# 
# 
# High freq. dielectric constant tensor:
#      x y z
#    x 1.771380 0.000000 0.000430 
#    y 0.000000 1.745540 0.000000 
#    z 0.000430 0.000000 1.762830 
# 
# From -- ./inp_files/178134.got.cif
#   From: 2010.06.25/outbox.cif.g09.slc.cpg/sg15_90_cif.got.tgz:178134.got - 2010.06.28 07:06:18.
