data_PCOD8133392
_publ_section_title
;
Structure prediction by ZEFSAII (Michael W. Deem and Ramdas Pophale) SiO2 
 PCOD8133392
Probable space group: C 2/C
;
_chemical_formula_sum "Si O2"
_cell_formula_units_Z 56
_cell_length_a 15.584890
_cell_length_b 18.041579
_cell_length_c 14.004246
_cell_angle_alpha 90.000000
_cell_angle_beta 128.113039
_cell_angle_gamma 90.000000
_cell_volume 3098.128141
_symmetry_space_group_name_H-M "C 2/C"
_symmetry_group_IT_number 15
_symmetry_cell_setting 'monoclinic'
loop_
_space_group_symop_operation_xyz
x,y,z
-x,y,1/2-z
-x,-y,-z
x,-y,1/2+z
1/2+x,1/2+y,z
1/2-x,1/2+y,1/2-z
1/2-x,1/2-y,-z
1/2+x,1/2-y,1/2+z
loop_
_atom_site_type_symbol
_atom_site_label
_atom_site_fract_x
_atom_site_fract_y
_atom_site_fract_z
Si Si1 0.162626 0.876153 0.114281
Si Si2 0.522538 0.644074 0.155328
Si Si3 0.978041 0.867336 0.129556
Si Si4 0.661414 0.838028 0.791642
Si Si5 0.576797 0.200101 0.428544
Si Si6 0.662693 0.549490 0.115835
Si Si7 0.326645 0.226569 0.812150
O O1 0.276595 0.831210 0.200836
O O2 0.094788 0.856876 0.161633
O O3 0.184633 0.963116 0.127215
O O4 0.095587 0.849390 0.975671
O O5 0.500000 0.629025 0.250000
O O6 0.590771 0.575077 0.157977
O O7 0.588239 0.720385 0.183970
O O8 0.919306 0.788098 0.087897
O O9 0.000000 0.897381 0.250000
O O10 0.903617 0.926544 0.023861
O O11 0.541971 0.835259 0.664777
O O12 0.657187 0.834181 0.904229
O O13 0.717700 0.914760 0.800222
O O14 0.730824 0.771746 0.796026
O O15 0.613983 0.181569 0.561688
#
# Coordination Sequence:
#
# PCOD8133392 Si02
#       7
#     8   8   8   8   8   8   8
#     4  11  22  37  53  83 117 146 186 230 281 339
#     4  10  21  39  58  77 109 148 194 241 266 312
#     4  11  18  31  58  90 113 140 175 235 288 330
#     4  10  19  33  54  85 118 140 180 226 285 341
#     4  11  18  31  57  88 112 138 178 238 277 334
#     4  10  23  36  53  82 122 148 177 229 285 342
#     4  11  19  34  58  81 109 147 191 230 274 321
#
# _framework density 18.075430999999998
#
# number of rings (size 3 to 8) (size 9 to 14) (size 15 to 20)
#    0.000    1.429    7.143    2.143    2.000    2.857 
#    0.000    0.714    3.143    0.000    0.000    0.000 
#    0.000    0.000    0.000    0.000    0.000    0.000 
#
# Total GULP energy -347176.132795 kJ/mol
# GULP energy per Si atom -12399.147600 kJ/mol
# Density = 1.803429 g / cm^3
# Si number density = 18.075431 Si / 1000 Ang^3
#
#
#
# Elastic Constant Matrix: (Units=GPa)
#
#
# Indices 1 2 3 4 5 6 
#
# 1 78.9972 34.6968 56.1025 0.0000 -11.0721 0.0000
# 2 34.6968 97.4169 67.4760 0.0000 11.8648 0.0000
# 3 56.1025 67.4760 124.5135 0.0000 -12.7410 0.0000
# 4 0.0000 0.0000 0.0000 38.4149 0.0000 -5.7075
# 5 -11.0721 11.8648 -12.7410 0.0000 28.5358 0.0000
# 6 0.0000 0.0000 0.0000 -5.7075 0.0000 23.3162
#
#
#
# Elastic Compliance Matrix: (Units=1/GPa)
#
#
# Indices 1 2 3 4 5 6 
#
# 1 0.019474 -0.003239 -0.006401 0.000000 0.006045 0.000000
# 2 -0.003239 0.021409 -0.011718 0.000000 -0.015390 0.000000
# 3 -0.006401 -0.011718 0.018348 0.000000 0.010581 0.000000
# 4 0.000000 0.000000 0.000000 0.027014 0.000000 0.006613
# 5 0.006045 -0.015390 0.010581 0.000000 0.048512 0.000000
# 6 0.000000 0.000000 0.000000 0.006613 0.000000 0.044507
#
#
# Mechanical properties :
#
#
# Convention : Reuss Voigt Hill
#
# Bulk Modulus (GPa) = 60.54347 68.60866 64.57607
# Shear Modulus (GPa) = 21.97939 27.56353 24.77146
#
# Velocity S-wave (km/s) = 3.49088 3.90926 3.70597
# Velocity P-wave (km/s) = 7.05804 7.64301 7.35634
#
# Compressibility (1/GPa) = 0.01651706
#
# Stress axis : x y z
#
# Youngs Moduli (GPa) = 51.34995 46.70841 54.50178
#
# Poissons Ratio (x) = 0.15128 0.34886
# Poissons Ratio (y) = 0.16631 0.63863
# Poissons Ratio (z) = 0.32869 0.54731
#
# Static dielectric constant tensor:
#      x y z
#    x 3.484260 0.000000 -0.268840 
#    y 0.000000 3.209260 0.000000 
#    z -0.268840 0.000000 4.285310 
# 
# 
# High freq. dielectric constant tensor:
#      x y z
#    x 1.689170 0.000000 0.005340 
#    y 0.000000 1.678680 0.000000 
#    z 0.005340 0.000000 1.706570 
# 
# From -- ./inp_files/155241.got.cif
#   From: 2010.06.25/outbox.cif.g09.slc.cpg/sg15_78_cif.got.tgz:155241.got - 2010.06.28 07:06:18.
