data_PCOD8133003
_publ_section_title
;
Structure prediction by ZEFSAII (Michael W. Deem and Ramdas Pophale) SiO2 
 PCOD8133003
Probable space group: C 2/C
;
_chemical_formula_sum "Si O2"
_cell_formula_units_Z 64
_cell_length_a 10.772166
_cell_length_b 18.697386
_cell_length_c 23.548277
_cell_angle_alpha 90.000000
_cell_angle_beta 46.276714
_cell_angle_gamma 90.000000
_cell_volume 3427.621740
_symmetry_space_group_name_H-M "C 2/C"
_symmetry_group_IT_number 15
_symmetry_cell_setting 'monoclinic'
loop_
_space_group_symop_operation_xyz
x,y,z
-x,y,1/2-z
-x,-y,-z
x,-y,1/2+z
1/2+x,1/2+y,z
1/2-x,1/2+y,1/2-z
1/2-x,1/2-y,-z
1/2+x,1/2-y,1/2+z
loop_
_atom_site_type_symbol
_atom_site_label
_atom_site_fract_x
_atom_site_fract_y
_atom_site_fract_z
Si Si1 0.405653 0.939039 0.693603
Si Si2 0.978425 0.586237 0.627875
Si Si3 0.748864 0.074318 0.139716
Si Si4 0.704585 0.325679 0.689327
Si Si5 0.321430 0.575430 0.591950
Si Si6 0.029353 0.177482 0.041719
Si Si7 0.823803 0.331925 0.271817
Si Si8 0.643900 0.170159 0.481460
O O1 0.338559 0.959344 0.776964
O O2 0.602218 0.910637 0.638387
O O3 0.279356 0.879523 0.710812
O O4 0.392835 0.007865 0.655817
O O5 0.854483 0.646434 0.695974
O O6 0.143022 0.582408 0.615546
O O7 0.027061 0.608502 0.547783
O O8 0.848819 0.148295 0.124007
O O9 0.872630 0.008512 0.080102
O O10 0.500000 0.336184 0.750000
O O11 0.753985 0.247395 0.697175
O O12 0.802517 0.344502 0.599736
O O13 0.457875 0.622102 0.514503
O O14 0.305379 0.610834 0.659409
O O15 0.178609 0.175230 0.040726
O O16 0.027364 0.258275 0.019914
O O17 0.000000 0.331515 0.250000
#
# Coordination Sequence:
#
# PCOD8133003 Si02
#       8
#     8   8   8   8   8   8   8   8
#     4  10  21  35  53  75 104 143 178 211 262 314
#     4   9  18  32  52  75 104 142 174 209 263 319
#     4  10  19  33  53  79 105 134 173 223 267 310
#     4  11  22  35  55  81 107 139 175 219 259 312
#     4   9  15  30  52  78 105 127 169 224 272 304
#     4  10  19  31  52  84 109 129 172 227 266 306
#     4   9  16  29  52  77 102 132 169 221 269 303
#     4  10  21  33  52  81 111 141 173 211 267 315
#
# _framework density 18.671838999999999
#
# number of rings (size 3 to 8) (size 9 to 14) (size 15 to 20)
#    0.000    2.250    2.500    1.125    7.000    0.500 
#    0.000    0.625    0.000    1.500    0.000    0.000 
#    0.000    0.000    0.000    0.000    0.000    0.000 
#
# Total GULP energy -396460.696667 kJ/mol
# GULP energy per Si atom -12389.396771 kJ/mol
# Density = 1.862934 g / cm^3
# Si number density = 18.671839 Si / 1000 Ang^3
#
#
#
# Elastic Constant Matrix: (Units=GPa)
#
#
# Indices 1 2 3 4 5 6 
#
# 1 38.0336 44.1288 13.3018 0.0017 -3.6704 -0.0015
# 2 44.1288 113.1466 28.5989 0.0014 -5.8406 -0.0009
# 3 13.3018 28.5989 79.4602 0.0036 6.1652 -0.0027
# 4 0.0017 0.0014 0.0036 32.3934 -0.0029 -6.7223
# 5 -3.6704 -5.8406 6.1652 -0.0029 17.6130 0.0022
# 6 -0.0015 -0.0009 -0.0027 -6.7223 0.0022 24.7158
#
#
#
# Elastic Compliance Matrix: (Units=1/GPa)
#
#
# Indices 1 2 3 4 5 6 
#
# 1 0.048544 -0.018195 -0.001947 -0.000001 0.004764 0.000001
# 2 -0.018195 0.016914 -0.003272 0.000001 0.002963 -0.000001
# 3 -0.001947 -0.003272 0.014601 -0.000002 -0.006602 0.000001
# 4 -0.000001 0.000001 -0.000002 0.032717 0.000005 0.008899
# 5 0.004764 0.002963 -0.006602 0.000005 0.061062 -0.000004
# 6 0.000001 -0.000001 0.000001 0.008899 -0.000004 0.042880
#
#
# Mechanical properties :
#
#
# Convention : Reuss Voigt Hill
#
# Bulk Modulus (GPa) = 30.09232 44.74439 37.41835
# Shear Modulus (GPa) = 18.20679 24.58517 21.39598
#
# Velocity S-wave (km/s) = 3.12604 3.63257 3.38878
# Velocity P-wave (km/s) = 5.40193 6.45056 5.94939
#
# Compressibility (1/GPa) = 0.03323107
#
# Stress axis : x y z
#
# Youngs Moduli (GPa) = 20.59994 59.12211 68.49002
#
# Poissons Ratio (x) = 1.07571 0.13338
# Poissons Ratio (y) = 0.37481 0.22408
# Poissons Ratio (z) = 0.04012 0.19343
#
# Static dielectric constant tensor:
#      x y z
#    x 2.883110 0.000000 -0.056300 
#    y 0.000000 3.583990 0.000000 
#    z -0.056300 0.000000 3.667930 
# 
# 
# High freq. dielectric constant tensor:
#      x y z
#    x 1.661020 0.000000 -0.002000 
#    y 0.000000 1.731400 0.000000 
#    z -0.002000 0.000000 1.738770 
# 
# From -- ./inp_files/239797.got.cif
#   From: 2010.06.25/outbox.cif.g09.slc.cpg/sg15_120_cif.got.tgz:239797.got - 2010.06.28 07:06:18.
