data_PCOD8133339
_publ_section_title
;
Structure prediction by ZEFSAII (Michael W. Deem and Ramdas Pophale) SiO2 
 PCOD8133339
Probable space group: C 2/C
;
_chemical_formula_sum "Si O2"
_cell_formula_units_Z 60
_cell_length_a 13.435735
_cell_length_b 18.684235
_cell_length_c 11.363853
_cell_angle_alpha 90.000000
_cell_angle_beta 76.149478
_cell_angle_gamma 90.000000
_cell_volume 2769.793562
_symmetry_space_group_name_H-M "C 2/C"
_symmetry_group_IT_number 15
_symmetry_cell_setting 'monoclinic'
loop_
_space_group_symop_operation_xyz
x,y,z
-x,y,1/2-z
-x,-y,-z
x,-y,1/2+z
1/2+x,1/2+y,z
1/2-x,1/2+y,1/2-z
1/2-x,1/2-y,-z
1/2+x,1/2-y,1/2+z
loop_
_atom_site_type_symbol
_atom_site_label
_atom_site_fract_x
_atom_site_fract_y
_atom_site_fract_z
Si Si1 0.773166 0.881815 0.268348
Si Si2 0.000000 0.502145 0.250000
Si Si3 0.933899 0.891262 0.024597
Si Si4 0.182714 0.582626 0.112636
Si Si5 0.346475 0.765898 0.806596
Si Si6 0.522308 0.762055 0.948848
Si Si7 0.628256 0.470956 0.062724
Si Si8 0.937983 0.395906 0.090723
O O1 0.831691 0.881325 0.130064
O O2 0.781188 0.806528 0.336812
O O3 0.819580 0.947582 0.330990
O O4 0.651174 0.888489 0.284340
O O5 0.895674 0.549628 0.268556
O O6 0.011594 0.455699 0.126658
O O7 0.966986 0.811211 0.977331
O O8 0.025794 0.924899 0.074457
O O9 0.904380 0.944755 0.925696
O O10 0.215889 0.662894 0.140350
O O11 0.289475 0.539982 0.067419
O O12 0.116281 0.580139 0.012893
O O13 0.435050 0.755284 0.876196
O O14 0.378735 0.776266 0.660721
O O15 0.503954 0.824383 0.049049
#
# Coordination Sequence:
#
# PCOD8133339 Si02
#       8
#     8   4   8   8   8   8   8   8
#     4  10  19  34  56  83 108 139 183 225 273 309
#     4  12  22  40  54  76 116 140 178 224 274 328
#     4  10  19  33  53  79 118 144 172 221 271 319
#     4  10  21  34  56  83 108 138 184 227 273 314
#     4   9  17  31  55  83 108 132 175 238 267 305
#     4   9  17  32  54  81 106 144 177 215 276 314
#     4  10  20  31  53  82 109 146 174 216 274 323
#     4  10  22  34  59  78 104 145 182 223 268 325
#
# _framework density 21.662265999999999
#
# number of rings (size 3 to 8) (size 9 to 14) (size 15 to 20)
#    0.000    2.133    1.333    3.200    1.867    1.600 
#    0.000    0.000    5.867    8.800    0.000    0.000 
#    0.000    0.000    0.000    0.000    0.000    0.000 
#
# Total GULP energy -371719.614854 kJ/mol
# GULP energy per Si atom -12390.653828 kJ/mol
# Density = 2.161296 g / cm^3
# Si number density = 21.662266 Si / 1000 Ang^3
#
#
#
# Elastic Constant Matrix: (Units=GPa)
#
#
# Indices 1 2 3 4 5 6 
#
# 1 30.9458 17.1052 5.9468 0.0000 -14.4453 0.0000
# 2 17.1052 131.7384 25.3759 0.0000 7.2742 0.0000
# 3 5.9468 25.3759 38.2441 0.0000 -8.0049 0.0000
# 4 0.0000 0.0000 0.0000 28.8533 0.0000 -2.4726
# 5 -14.4453 7.2742 -8.0049 0.0000 32.0236 0.0000
# 6 0.0000 0.0000 0.0000 -2.4726 0.0000 24.4126
#
#
#
# Elastic Compliance Matrix: (Units=1/GPa)
#
#
# Indices 1 2 3 4 5 6 
#
# 1 0.047363 -0.008046 0.002985 0.000000 0.023938 0.000000
# 2 -0.008046 0.010484 -0.007348 0.000000 -0.007848 0.000000
# 3 0.002985 -0.007348 0.032913 0.000000 0.011243 0.000000
# 4 0.000000 0.000000 0.000000 0.034962 0.000000 0.003541
# 5 0.023938 -0.007848 0.011243 0.000000 0.046618 0.000000
# 6 0.000000 0.000000 0.000000 0.003541 0.000000 0.041321
#
#
# Mechanical properties :
#
#
# Convention : Reuss Voigt Hill
#
# Bulk Modulus (GPa) = 15.16520 33.08712 24.12616
# Shear Modulus (GPa) = 19.19681 27.22459 23.21070
#
# Velocity S-wave (km/s) = 2.98012 3.54895 3.27690
# Velocity P-wave (km/s) = 4.34251 5.66574 5.04767
#
# Compressibility (1/GPa) = 0.06594044
#
# Stress axis : x y z
#
# Youngs Moduli (GPa) = 21.11359 95.38046 30.38354
#
# Poissons Ratio (x) = 0.76748 -0.09069
# Poissons Ratio (y) = 0.16989 0.22326
# Poissons Ratio (z) = -0.06302 0.70086
#
# Static dielectric constant tensor:
#      x y z
#    x 3.746970 0.000000 -0.456560 
#    y 0.000000 4.232190 0.000000 
#    z -0.456560 0.000000 3.674680 
# 
# 
# High freq. dielectric constant tensor:
#      x y z
#    x 1.825900 0.000000 -0.031940 
#    y 0.000000 1.865070 0.000000 
#    z -0.031940 0.000000 1.822260 
# 
# From -- ./inp_files/98730.got.cif
#   From: 2010.06.25/outbox.cif.g09.slc.cpg/sg15_50_cif.got.tgz:98730.got - 2010.06.28 07:06:18.
