data_PCOD8133992
_publ_section_title
;
Structure prediction by ZEFSAII (Michael W. Deem and Ramdas Pophale) SiO2 
 PCOD8133992
Probable space group: C 2/C
;
_chemical_formula_sum "Si O2"
_cell_formula_units_Z 48
_cell_length_a 15.402763
_cell_length_b 16.809851
_cell_length_c 11.508860
_cell_angle_alpha 90.000000
_cell_angle_beta 50.149468
_cell_angle_gamma 90.000000
_cell_volume 2287.688622
_symmetry_space_group_name_H-M "C 2/C"
_symmetry_group_IT_number 15
_symmetry_cell_setting 'monoclinic'
loop_
_space_group_symop_operation_xyz
x,y,z
-x,y,1/2-z
-x,-y,-z
x,-y,1/2+z
1/2+x,1/2+y,z
1/2-x,1/2+y,1/2-z
1/2-x,1/2-y,-z
1/2+x,1/2-y,1/2+z
loop_
_atom_site_type_symbol
_atom_site_label
_atom_site_fract_x
_atom_site_fract_y
_atom_site_fract_z
Si Si1 0.174313 0.935379 0.465214
Si Si2 0.879034 0.616476 0.910469
Si Si3 0.874001 0.786091 0.849494
Si Si4 0.365999 0.611775 0.972322
Si Si5 0.213266 0.324789 0.792660
Si Si6 0.386358 0.657449 0.696049
O O1 0.300638 0.946567 0.410076
O O2 0.111747 0.863621 0.583434
O O3 0.172828 0.911401 0.330670
O O4 0.109084 0.017475 0.543724
O O5 0.812901 0.703126 0.947551
O O6 0.000000 0.603211 0.750000
O O7 0.868361 0.614464 0.061127
O O8 0.831395 0.806029 0.757270
O O9 0.000000 0.748987 0.750000
O O10 0.341267 0.642071 0.864031
O O11 0.477789 0.653679 0.926638
O O12 0.252825 0.631023 0.142147
O O13 0.146368 0.244910 0.819872
#
# Coordination Sequence:
#
# PCOD8133992 Si02
#       6
#     8   8   8   8   8   8
#     4  11  21  39  62  93 129 159 203 267 309 360
#     4  10  21  39  65  94 120 162 215 255 305 359
#     4  10  19  34  64  96 120 160 209 254 307 361
#     4  11  27  37  63  92 128 167 202 257 315 375
#     4  11  21  41  62  89 127 166 210 254 304 371
#     4  11  23  42  59  91 130 167 209 246 310 375
#
# _framework density 20.981876
#
# number of rings (size 3 to 8) (size 9 to 14) (size 15 to 20)
#    0.000    1.333    3.333    3.000    9.333    0.000 
#    0.000    0.833    7.333    0.000    0.000    0.000 
#    0.000    0.000    0.000    0.000    0.000    0.000 
#
# Total GULP energy -297438.622727 kJ/mol
# GULP energy per Si atom -12393.275947 kJ/mol
# Density = 2.093412 g / cm^3
# Si number density = 20.981876 Si / 1000 Ang^3
#
#
#
# Elastic Constant Matrix: (Units=GPa)
#
#
# Indices 1 2 3 4 5 6 
#
# 1 98.4092 34.1281 48.4218 0.0000 16.5604 0.0000
# 2 34.1281 71.1466 20.1441 0.0000 4.6875 0.0000
# 3 48.4218 20.1441 146.3451 0.0000 11.1871 0.0000
# 4 0.0000 0.0000 0.0000 24.7525 0.0000 -0.2876
# 5 16.5604 4.6875 11.1871 0.0000 29.1929 0.0000
# 6 0.0000 0.0000 0.0000 -0.2876 0.0000 15.0166
#
#
#
# Elastic Compliance Matrix: (Units=1/GPa)
#
#
# Indices 1 2 3 4 5 6 
#
# 1 0.015018 -0.005748 -0.003706 0.000000 -0.006176 0.000000
# 2 -0.005748 0.016900 -0.000480 0.000000 0.000731 0.000000
# 3 -0.003706 -0.000480 0.008199 0.000000 -0.000963 0.000000
# 4 0.000000 0.000000 0.000000 0.040409 0.000000 0.000774
# 5 -0.006176 0.000731 -0.000963 0.000000 0.038010 0.000000
# 6 0.000000 0.000000 0.000000 0.000774 0.000000 0.066608
#
#
# Mechanical properties :
#
#
# Convention : Reuss Voigt Hill
#
# Bulk Modulus (GPa) = 49.38380 57.92100 53.65240
# Shear Modulus (GPa) = 23.61151 28.00619 25.80885
#
# Velocity S-wave (km/s) = 3.35823 3.65743 3.51102
# Velocity P-wave (km/s) = 6.21486 6.74543 6.48557
#
# Compressibility (1/GPa) = 0.02024956
#
# Stress axis : x y z
#
# Youngs Moduli (GPa) = 66.58854 59.17017 121.96615
#
# Poissons Ratio (x) = 0.34009 0.45197
# Poissons Ratio (y) = 0.38273 0.05860
# Poissons Ratio (z) = 0.24675 0.02843
#
# Static dielectric constant tensor:
#      x y z
#    x 3.874130 0.000000 0.055870 
#    y 0.000000 3.543750 0.000000 
#    z 0.055870 0.000000 3.860210 
# 
# 
# High freq. dielectric constant tensor:
#      x y z
#    x 1.822590 0.000000 0.000110 
#    y 0.000000 1.807930 0.000000 
#    z 0.000110 0.000000 1.831020 
# 
# From -- ./inp_files/96857.got.cif
#   From: 2010.06.25/outbox.cif.g09.slc.cpg/sg15_49_cif.got.tgz:96857.got - 2010.06.28 07:06:18.
