data_PCOD8133693
_publ_section_title
;
Structure prediction by ZEFSAII (Michael W. Deem and Ramdas Pophale) SiO2 
 PCOD8133693
Probable space group: C 2/C
;
_chemical_formula_sum "Si O2"
_cell_formula_units_Z 56
_cell_length_a 12.977797
_cell_length_b 8.047033
_cell_length_c 30.220294
_cell_angle_alpha 90.000000
_cell_angle_beta 88.971036
_cell_angle_gamma 90.000000
_cell_volume 3155.479813
_symmetry_space_group_name_H-M "C 2/C"
_symmetry_group_IT_number 15
_symmetry_cell_setting 'monoclinic'
loop_
_space_group_symop_operation_xyz
x,y,z
-x,y,1/2-z
-x,-y,-z
x,-y,1/2+z
1/2+x,1/2+y,z
1/2-x,1/2+y,1/2-z
1/2-x,1/2-y,-z
1/2+x,1/2-y,1/2+z
loop_
_atom_site_type_symbol
_atom_site_label
_atom_site_fract_x
_atom_site_fract_y
_atom_site_fract_z
Si Si1 0.375763 0.031332 0.196263
Si Si2 0.131329 0.499907 0.906947
Si Si3 0.636228 0.528622 0.200178
Si Si4 0.132729 0.001321 0.097806
Si Si5 0.970545 0.181227 0.051448
Si Si6 0.978627 0.187897 0.548413
Si Si7 0.500000 0.279693 0.250000
Si Si8 0.000000 0.279582 0.250000
O O1 0.392833 0.996410 0.144667
O O2 0.256206 0.068906 0.208209
O O3 0.411194 0.875732 0.224728
O O4 0.451664 0.179271 0.209592
O O5 0.250229 0.478116 0.916590
O O6 0.100504 0.677312 0.927393
O O7 0.080211 0.339488 0.929085
O O8 0.617654 0.479370 0.149910
O O9 0.598054 0.379346 0.231224
O O10 0.562821 0.681614 0.212274
O O11 0.086270 0.837391 0.074063
O O12 0.073947 0.166774 0.080597
O O13 0.918748 0.993501 0.050995
O O14 0.999792 0.238022 0.002052
#
# Coordination Sequence:
#
# PCOD8133693 Si02
#       8
#     8   8   8   8   8   8   4   4
#     4  10  21  34  51  79 104 131 181 213 249 327
#     4  11  20  36  59  76 109 146 171 220 274 303
#     4  10  19  34  55  75 104 137 173 213 261 305
#     4   9  20  36  53  82 109 136 183 220 254 327
#     4   9  20  39  53  81 112 135 180 222 255 322
#     4   9  20  39  53  81 112 135 180 222 255 322
#     4  10  20  34  54  74 104 142 164 218 266 296
#     4  10  20  34  54  74 104 142 164 218 266 296
#
# _framework density 17.746904000000001
#
# number of rings (size 3 to 8) (size 9 to 14) (size 15 to 20)
#    0.857    1.429    0.000    3.000    0.000    1.143 
#    2.571    0.000   12.571    0.000    0.000    0.000 
#    0.000    0.000    0.000    0.000    0.000    0.000 
#
# Total GULP energy -346925.938598 kJ/mol
# GULP energy per Si atom -12390.212093 kJ/mol
# Density = 1.770651 g / cm^3
# Si number density = 17.746904 Si / 1000 Ang^3
#
#
#
# Elastic Constant Matrix: (Units=GPa)
#
#
# Indices 1 2 3 4 5 6 
#
# 1 60.5381 9.9908 31.3961 0.0000 2.2053 0.0000
# 2 9.9908 62.8575 21.4795 0.0000 -1.7350 0.0000
# 3 31.3961 21.4795 90.0797 0.0000 -1.9469 0.0000
# 4 0.0000 0.0000 0.0000 27.2653 0.0000 13.1693
# 5 2.2053 -1.7350 -1.9469 0.0000 14.3293 0.0000
# 6 0.0000 0.0000 0.0000 13.1693 0.0000 36.3631
#
#
#
# Elastic Compliance Matrix: (Units=1/GPa)
#
#
# Indices 1 2 3 4 5 6 
#
# 1 0.020458 -0.000980 -0.006988 0.000000 -0.004217 0.000000
# 2 -0.000980 0.017401 -0.003770 0.000000 0.001746 0.000000
# 3 -0.006988 -0.003770 0.014492 0.000000 0.002588 0.000000
# 4 0.000000 0.000000 0.000000 0.044453 0.000000 -0.016099
# 5 -0.004217 0.001746 0.002588 0.000000 0.070999 0.000000
# 6 0.000000 0.000000 0.000000 -0.016099 0.000000 0.033331
#
#
# Mechanical properties :
#
#
# Convention : Reuss Voigt Hill
#
# Bulk Modulus (GPa) = 34.63210 37.68979 36.16095
# Shear Modulus (GPa) = 21.34617 25.63213 23.48915
#
# Velocity S-wave (km/s) = 3.47192 3.80454 3.64203
# Velocity P-wave (km/s) = 5.96901 6.37047 6.17300
#
# Compressibility (1/GPa) = 0.02887494
#
# Stress axis : x y z
#
# Youngs Moduli (GPa) = 48.88103 57.46715 69.00532
#
# Poissons Ratio (x) = 0.05633 0.48219
# Poissons Ratio (y) = 0.04791 0.26015
# Poissons Ratio (z) = 0.34157 0.21665
#
# Static dielectric constant tensor:
#      x y z
#    x 3.212690 0.000000 0.077870 
#    y 0.000000 3.240820 0.000000 
#    z 0.077870 0.000000 3.501460 
# 
# 
# High freq. dielectric constant tensor:
#      x y z
#    x 1.679490 0.000000 0.005410 
#    y 0.000000 1.681470 0.000000 
#    z 0.005410 0.000000 1.703140 
# 
# From -- ./inp_files/312550.got.cif
#   From: 2010.06.25/outbox.cif.g09.slc.cpg/sg15_157_cif.got.tgz:312550.got - 2010.06.28 07:06:18.
