data_PCOD8133089
_publ_section_title
;
Structure prediction by ZEFSAII (Michael W. Deem and Ramdas Pophale) SiO2 
 PCOD8133089
Probable space group: C 2/C
;
_chemical_formula_sum "Si O2"
_cell_formula_units_Z 52
_cell_length_a 29.492956
_cell_length_b 16.728037
_cell_length_c 5.166305
_cell_angle_alpha 90.000000
_cell_angle_beta 68.816622
_cell_angle_gamma 90.000000
_cell_volume 2376.615607
_symmetry_space_group_name_H-M "C 2/C"
_symmetry_group_IT_number 15
_symmetry_cell_setting 'monoclinic'
loop_
_space_group_symop_operation_xyz
x,y,z
-x,y,1/2-z
-x,-y,-z
x,-y,1/2+z
1/2+x,1/2+y,z
1/2-x,1/2+y,1/2-z
1/2-x,1/2-y,-z
1/2+x,1/2-y,1/2+z
loop_
_atom_site_type_symbol
_atom_site_label
_atom_site_fract_x
_atom_site_fract_y
_atom_site_fract_z
Si Si1 0.945444 0.225347 0.398472
Si Si2 0.500000 0.056168 0.250000
Si Si3 0.809159 0.292962 0.088933
Si Si4 0.296897 0.303781 0.110317
Si Si5 0.085552 0.684361 0.037743
Si Si6 0.059788 0.037452 0.021831
Si Si7 0.830297 0.034754 0.702526
O O1 0.925947 0.251738 0.716726
O O2 0.944077 0.130024 0.392758
O O3 0.000000 0.257057 0.250000
O O4 0.915221 0.268397 0.232938
O O5 0.548713 0.109948 0.133344
O O6 0.500000 0.000000 0.500000
O O7 0.758712 0.338136 0.261608
O O8 0.810282 0.218255 0.288023
O O9 0.805706 0.267985 0.794879
O O10 0.858304 0.345057 0.033963
O O11 0.332804 0.372473 0.128545
O O12 0.114654 0.005934 0.871632
O O13 0.034037 0.013125 0.804977
O O14 0.803408 0.985085 0.528437
#
# Coordination Sequence:
#
# PCOD8133089 Si02
#       7
#     8   4   8   8   8   8   8
#     4  12  23  39  62  88 119 160 207 257 294 351
#     4  12  26  46  68  92 124 158 202 270 334 400
#     4  10  21  36  63  85 120 150 192 248 301 359
#     4  10  20  37  56  92 117 153 196 243 295 350
#     4  12  23  43  65  93 118 159 206 256 316 383
#     4  10  21  34  52  82 121 163 202 236 285 336
#     4  10  19  32  50  75 110 152 189 226 271 336
#
# _framework density 21.879852
#
# number of rings (size 3 to 8) (size 9 to 14) (size 15 to 20)
#    0.000    1.231    1.538    5.538    0.000    3.077 
#    0.000    1.538    0.000    0.000    0.000    0.000 
#    0.000    0.000    0.000    0.000    0.000    0.000 
#
# Total GULP energy -322200.416699 kJ/mol
# GULP energy per Si atom -12392.323719 kJ/mol
# Density = 2.183005 g / cm^3
# Si number density = 21.879852 Si / 1000 Ang^3
#
#
#
# Elastic Constant Matrix: (Units=GPa)
#
#
# Indices 1 2 3 4 5 6 
#
# 1 118.9113 15.8508 33.4885 0.0000 -2.8693 0.0000
# 2 15.8508 76.0136 28.2334 0.0000 10.1546 0.0000
# 3 33.4885 28.2334 109.9294 0.0000 28.9507 0.0000
# 4 0.0000 0.0000 0.0000 33.0207 0.0000 4.5855
# 5 -2.8693 10.1546 28.9507 0.0000 40.9556 0.0000
# 6 0.0000 0.0000 0.0000 4.5855 0.0000 34.9996
#
#
#
# Elastic Compliance Matrix: (Units=1/GPa)
#
#
# Indices 1 2 3 4 5 6 
#
# 1 0.009650 -0.001155 -0.003559 0.000000 0.003478 0.000000
# 2 -0.001155 0.014728 -0.003008 0.000000 -0.001607 0.000000
# 3 -0.003559 -0.003008 0.013298 0.000000 -0.008904 0.000000
# 4 0.000000 0.000000 0.000000 0.030845 0.000000 -0.004041
# 5 0.003478 -0.001607 -0.008904 0.000000 0.031353 0.000000
# 6 0.000000 0.000000 0.000000 -0.004041 0.000000 0.029101
#
#
# Mechanical properties :
#
#
# Convention : Reuss Voigt Hill
#
# Bulk Modulus (GPa) = 44.97857 51.11109 48.04483
# Shear Modulus (GPa) = 32.93155 36.94728 34.93942
#
# Velocity S-wave (km/s) = 3.88378 4.11377 4.00043
# Velocity P-wave (km/s) = 6.38070 6.78047 6.58362
#
# Compressibility (1/GPa) = 0.02223281
#
# Stress axis : x y z
#
# Youngs Moduli (GPa) = 103.62865 67.89729 75.19714
#
# Poissons Ratio (x) = 0.07842 0.26763
# Poissons Ratio (y) = 0.11969 0.22617
# Poissons Ratio (z) = 0.36882 0.20422
#
# Static dielectric constant tensor:
#      x y z
#    x 4.432940 0.000000 0.068190 
#    y 0.000000 3.454790 0.000000 
#    z 0.068190 0.000000 4.409910 
# 
# 
# High freq. dielectric constant tensor:
#      x y z
#    x 1.879560 0.000000 0.010250 
#    y 0.000000 1.810130 0.000000 
#    z 0.010250 0.000000 1.890440 
# 
# From -- ./inp_files/18197.got.cif
#   From: 2010.06.25/outbox.cif.g09.slc.cpg/sg15_10_cif.got.tgz:18197.got - 2010.06.28 07:06:18.
