data_PCOD8133000
_publ_section_title
;
Structure prediction by ZEFSAII (Michael W. Deem and Ramdas Pophale) SiO2 
 PCOD8133000
Probable space group: C 2/C
;
_chemical_formula_sum "Si O2"
_cell_formula_units_Z 40
_cell_length_a 19.288962
_cell_length_b 5.084645
_cell_length_c 25.549020
_cell_angle_alpha 90.000000
_cell_angle_beta 129.687852
_cell_angle_gamma 90.000000
_cell_volume 1928.288900
_symmetry_space_group_name_H-M "C 2/C"
_symmetry_group_IT_number 15
_symmetry_cell_setting 'monoclinic'
loop_
_space_group_symop_operation_xyz
x,y,z
-x,y,1/2-z
-x,-y,-z
x,-y,1/2+z
1/2+x,1/2+y,z
1/2-x,1/2+y,1/2-z
1/2-x,1/2-y,-z
1/2+x,1/2-y,1/2+z
loop_
_atom_site_type_symbol
_atom_site_label
_atom_site_fract_x
_atom_site_fract_y
_atom_site_fract_z
Si Si1 0.452347 0.965559 0.280805
Si Si2 0.657774 0.240984 0.638614
Si Si3 0.087856 0.035861 0.008114
Si Si4 0.658086 0.520582 0.746693
Si Si5 0.034283 0.452775 0.427486
O O1 0.500000 0.039981 0.250000
O O2 0.392485 0.703859 0.244484
O O3 0.388222 0.199387 0.268362
O O4 0.527607 0.918069 0.361630
O O5 0.667737 0.392657 0.587565
O O6 0.656880 0.453708 0.684676
O O7 0.564901 0.075330 0.594209
O O8 0.739414 0.036702 0.684088
O O9 0.103630 0.766880 0.983487
O O10 0.075173 0.264375 0.959427
O O11 0.000000 0.000000 0.000000
#
# Coordination Sequence:
#
# PCOD8133000 Si02
#       5
#     8   8   8   8   8
#     4  11  23  40  58  78 109 152 198 230 263 320
#     4  10  20  35  55  87 118 135 174 227 292 338
#     4  10  19  31  52  80 114 143 169 216 279 340
#     4  11  23  35  58  86 114 146 178 233 285 330
#     4  10  20  33  54  81 107 144 181 221 271 328
#
# _framework density 20.743780000000001
#
# number of rings (size 3 to 8) (size 9 to 14) (size 15 to 20)
#    0.000    1.600    0.000    9.000    0.000    8.000 
#    0.000    0.000    0.000    7.200    0.000    0.000 
#    0.000    0.000    0.000    0.000    0.000    0.000 
#
# Total GULP energy -248003.687468 kJ/mol
# GULP energy per Si atom -12400.184373 kJ/mol
# Density = 2.069657 g / cm^3
# Si number density = 20.743780 Si / 1000 Ang^3
#
#
#
# Elastic Constant Matrix: (Units=GPa)
#
#
# Indices 1 2 3 4 5 6 
#
# 1 43.1497 5.7577 32.5070 0.0020 -13.0997 -0.0041
# 2 5.7577 96.0248 18.7732 0.0066 -0.8036 -0.0084
# 3 32.5070 18.7732 96.9194 0.0025 -6.9183 0.0032
# 4 0.0020 0.0066 0.0025 31.9586 0.0005 -0.6097
# 5 -13.0997 -0.8036 -6.9183 0.0005 25.0376 -0.0015
# 6 -0.0041 -0.0084 0.0032 -0.6097 -0.0015 21.6430
#
#
#
# Elastic Compliance Matrix: (Units=1/GPa)
#
#
# Indices 1 2 3 4 5 6 
#
# 1 0.036348 0.000119 -0.011075 -0.000002 0.015961 0.000010
# 2 0.000119 0.010826 -0.002150 -0.000002 -0.000184 0.000004
# 3 -0.011075 -0.002150 0.014313 0.000000 -0.001909 -0.000005
# 4 -0.000002 -0.000002 0.000000 0.031307 -0.000001 0.000882
# 5 0.015961 -0.000184 -0.001909 -0.000001 0.047757 0.000007
# 6 0.000010 0.000004 -0.000005 0.000882 0.000007 0.046229
#
#
# Mechanical properties :
#
#
# Convention : Reuss Voigt Hill
#
# Bulk Modulus (GPa) = 28.34877 38.90772 33.62825
# Shear Modulus (GPa) = 22.24688 27.66490 24.95589
#
# Velocity S-wave (km/s) = 3.27840 3.65588 3.47227
# Velocity P-wave (km/s) = 5.29399 6.05125 5.68524
#
# Compressibility (1/GPa) = 0.03527490
#
# Stress axis : x y z
#
# Youngs Moduli (GPa) = 27.51162 92.37336 69.86814
#
# Poissons Ratio (x) = -0.01102 0.77379
# Poissons Ratio (y) = -0.00328 0.15022
# Poissons Ratio (z) = 0.30469 0.19861
#
# Static dielectric constant tensor:
#      x y z
#    x 3.211260 -0.000010 -0.107020 
#    y -0.000010 3.994080 0.000000 
#    z -0.107020 0.000000 4.501020 
# 
# 
# High freq. dielectric constant tensor:
#      x y z
#    x 1.741520 0.000000 -0.009650 
#    y 0.000000 1.831100 0.000000 
#    z -0.009650 0.000000 1.828100 
# 
# From -- ./inp_files/278531.got.cif
#   From: 2010.06.25/outbox.cif.g09.slc.cpg/sg15_140_cif.got.tgz:278531.got - 2010.06.28 07:06:18.
