data_PCOD8133279
_publ_section_title
;
Structure prediction by ZEFSAII (Michael W. Deem and Ramdas Pophale) SiO2 
 PCOD8133279
Probable space group: C 2/C
;
_chemical_formula_sum "Si O2"
_cell_formula_units_Z 64
_cell_length_a 23.873293
_cell_length_b 24.805463
_cell_length_c 11.420915
_cell_angle_alpha 90.000000
_cell_angle_beta 146.317257
_cell_angle_gamma 90.000000
_cell_volume 3750.900940
_symmetry_space_group_name_H-M "C 2/C"
_symmetry_group_IT_number 15
_symmetry_cell_setting 'monoclinic'
loop_
_space_group_symop_operation_xyz
x,y,z
-x,y,1/2-z
-x,-y,-z
x,-y,1/2+z
1/2+x,1/2+y,z
1/2-x,1/2+y,1/2-z
1/2-x,1/2-y,-z
1/2+x,1/2-y,1/2+z
loop_
_atom_site_type_symbol
_atom_site_label
_atom_site_fract_x
_atom_site_fract_y
_atom_site_fract_z
Si Si1 0.197574 0.723009 0.581707
Si Si2 0.113460 0.560591 0.200328
Si Si3 0.901942 0.358080 0.008061
Si Si4 0.123828 0.559720 0.695070
Si Si5 0.616292 0.112103 0.447954
Si Si6 0.401429 0.761173 0.840657
Si Si7 0.293131 0.164957 0.544729
Si Si8 0.117984 0.234008 0.174677
O O1 0.185550 0.662168 0.606599
O O2 0.316900 0.732404 0.772837
O O3 0.140089 0.725884 0.359210
O O4 0.147734 0.764168 0.588452
O O5 0.153242 0.591997 0.154249
O O6 0.159871 0.500677 0.287723
O O7 0.149572 0.590201 0.380113
O O8 0.992943 0.563981 0.973347
O O9 0.934638 0.315596 0.964790
O O10 0.823842 0.331984 0.962117
O O11 0.000000 0.377906 0.250000
O O12 0.135288 0.565494 0.575580
O O13 0.191339 0.604164 0.880365
O O14 0.500000 0.131072 0.250000
O O15 0.499469 0.723364 0.992196
O O16 0.176709 0.185470 0.343056
O O17 0.357352 0.207171 0.730810
#
# Coordination Sequence:
#
# PCOD8133279 Si02
#       8
#     8   8   8   8   8   8   8   8
#     4  11  21  34  54  76 107 140 178 216 266 317
#     4  10  21  31  50  72 103 140 173 212 265 315
#     4  12  20  33  50  74 110 144 169 213 262 318
#     4  10  20  33  48  74 102 137 177 214 256 323
#     4  10  19  33  50  71 104 139 171 213 263 315
#     4  11  22  35  52  79 107 141 180 217 260 320
#     4  11  22  33  51  74 109 139 175 208 265 316
#     4  11  21  36  53  77 106 146 175 217 262 318
#
# _framework density 17.062567999999999
#
# number of rings (size 3 to 8) (size 9 to 14) (size 15 to 20)
#    0.000    1.250    6.250    1.125    1.750    0.500 
#    0.000    0.000    0.000    0.000    0.000    0.875 
#    3.750    0.000    0.000    0.000    0.000    0.000 
#
# Total GULP energy -396681.385920 kJ/mol
# GULP energy per Si atom -12396.293310 kJ/mol
# Density = 1.702373 g / cm^3
# Si number density = 17.062568 Si / 1000 Ang^3
#
#
#
# Elastic Constant Matrix: (Units=GPa)
#
#
# Indices 1 2 3 4 5 6 
#
# 1 88.6019 24.2542 36.8278 0.0000 -5.2566 0.0000
# 2 24.2542 91.4868 33.8740 0.0000 -1.9314 0.0000
# 3 36.8278 33.8740 67.1093 0.0000 3.8433 0.0000
# 4 0.0000 0.0000 0.0000 26.6195 0.0000 -3.5005
# 5 -5.2566 -1.9314 3.8433 0.0000 30.7377 0.0000
# 6 0.0000 0.0000 0.0000 -3.5005 0.0000 17.8593
#
#
#
# Elastic Compliance Matrix: (Units=1/GPa)
#
#
# Indices 1 2 3 4 5 6 
#
# 1 0.015080 -0.000965 -0.007990 0.000000 0.003517 0.000000
# 2 -0.000965 0.013594 -0.006417 0.000000 0.001491 0.000000
# 3 -0.007990 -0.006417 0.022789 0.000000 -0.004619 0.000000
# 4 0.000000 0.000000 0.000000 0.038560 0.000000 0.007558
# 5 0.003517 0.001491 -0.004619 0.000000 0.033806 0.000000
# 6 0.000000 0.000000 0.000000 0.007558 0.000000 0.057475
#
#
# Mechanical properties :
#
#
# Convention : Reuss Voigt Hill
#
# Bulk Modulus (GPa) = 48.26561 48.56775 48.41668
# Shear Modulus (GPa) = 22.83557 25.19275 24.01416
#
# Velocity S-wave (km/s) = 3.66231 3.84668 3.75563
# Velocity P-wave (km/s) = 6.79942 6.94663 6.87342
#
# Compressibility (1/GPa) = 0.02071868
#
# Stress axis : x y z
#
# Youngs Moduli (GPa) = 66.31115 73.56157 43.88001
#
# Poissons Ratio (x) = 0.07102 0.35060
# Poissons Ratio (y) = 0.06402 0.28159
# Poissons Ratio (z) = 0.52982 0.47207
#
# Static dielectric constant tensor:
#      x y z
#    x 3.358990 0.000000 -0.148740 
#    y 0.000000 3.087100 0.000000 
#    z -0.148740 0.000000 3.005260 
# 
# 
# High freq. dielectric constant tensor:
#      x y z
#    x 1.668780 0.000000 -0.030390 
#    y 0.000000 1.640460 0.000000 
#    z -0.030390 0.000000 1.629760 
# 
# From -- ./inp_files/120257.got.cif
#   From: 2010.06.25/outbox.cif.g09.slc.cpg/sg15_61_cif.got.tgz:120257.got - 2010.06.28 07:06:18.
