data_PCOD8133567
_publ_section_title
;
Structure prediction by ZEFSAII (Michael W. Deem and Ramdas Pophale) SiO2 
 PCOD8133567
Probable space group: C 2/C
;
_chemical_formula_sum "Si O2"
_cell_formula_units_Z 60
_cell_length_a 21.138364
_cell_length_b 11.797910
_cell_length_c 17.850475
_cell_angle_alpha 90.000000
_cell_angle_beta 39.742020
_cell_angle_gamma 90.000000
_cell_volume 2846.116098
_symmetry_space_group_name_H-M "C 2/C"
_symmetry_group_IT_number 15
_symmetry_cell_setting 'monoclinic'
loop_
_space_group_symop_operation_xyz
x,y,z
-x,y,1/2-z
-x,-y,-z
x,-y,1/2+z
1/2+x,1/2+y,z
1/2-x,1/2+y,1/2-z
1/2-x,1/2-y,-z
1/2+x,1/2-y,1/2+z
loop_
_atom_site_type_symbol
_atom_site_label
_atom_site_fract_x
_atom_site_fract_y
_atom_site_fract_z
Si Si1 0.165233 0.213369 0.969411
Si Si2 0.607112 0.360377 0.893568
Si Si3 0.175314 0.601491 0.055784
Si Si4 0.943927 0.762249 0.706999
Si Si5 0.000000 0.444070 0.250000
Si Si6 0.783297 0.108222 0.432707
Si Si7 0.614248 0.621111 0.860011
Si Si8 0.241090 0.737293 0.132701
O O1 0.200696 0.343792 0.948427
O O2 0.175771 0.167231 0.875800
O O3 0.237952 0.148930 0.961852
O O4 0.053558 0.192196 0.095815
O O5 0.612682 0.267908 0.821166
O O6 0.622376 0.485680 0.845595
O O7 0.698492 0.338678 0.864465
O O8 0.501804 0.346792 0.031200
O O9 0.079002 0.523013 0.136279
O O10 0.178910 0.654580 0.135353
O O11 0.272948 0.526959 0.946794
O O12 0.175689 0.697973 0.992182
O O13 0.944550 0.635041 0.739348
O O14 0.892528 0.850762 0.810351
O O15 0.663386 0.678685 0.743029
#
# Coordination Sequence:
#
# PCOD8133567 Si02
#       8
#     8   8   8   8   4   8   8   8
#     4  10  19  33  59  96 125 164 213 263 314 373
#     4  10  23  41  66  96 130 170 215 265 329 385
#     4  11  26  41  66  91 131 173 220 261 325 388
#     4  11  20  37  64  98 128 164 211 271 314 372
#     4  12  22  44  66  98 132 168 218 278 322 374
#     4  11  18  35  61  93 132 169 208 266 312 377
#     4  10  22  42  65  91 131 169 214 269 322 384
#     4  11  25  46  62  96 127 176 217 263 324 398
#
# _framework density 21.081361000000001
#
# number of rings (size 3 to 8) (size 9 to 14) (size 15 to 20)
#    0.000    1.333    2.667    3.200    1.867    1.067 
#    0.000    0.667    0.000    0.000    0.000    0.000 
#    0.000    0.000    0.000    0.000    0.000    0.000 
#
# Total GULP energy -371848.405113 kJ/mol
# GULP energy per Si atom -12394.946837 kJ/mol
# Density = 2.103338 g / cm^3
# Si number density = 21.081361 Si / 1000 Ang^3
#
#
#
# Elastic Constant Matrix: (Units=GPa)
#
#
# Indices 1 2 3 4 5 6 
#
# 1 82.4570 31.8594 38.8043 0.0000 9.9641 0.0000
# 2 31.8594 98.6473 46.3460 0.0000 1.1874 0.0000
# 3 38.8043 46.3460 93.3129 0.0000 3.6296 0.0000
# 4 0.0000 0.0000 0.0000 33.9330 0.0000 2.6584
# 5 9.9641 1.1874 3.6296 0.0000 24.6487 0.0000
# 6 0.0000 0.0000 0.0000 2.6584 0.0000 27.0188
#
#
#
# Elastic Compliance Matrix: (Units=1/GPa)
#
#
# Indices 1 2 3 4 5 6 
#
# 1 0.016330 -0.002764 -0.005196 0.000000 -0.005703 0.000000
# 2 -0.002764 0.013693 -0.005702 0.000000 0.001297 0.000000
# 3 -0.005196 -0.005702 0.015707 0.000000 0.000062 0.000000
# 4 0.000000 0.000000 0.000000 0.029699 0.000000 -0.002922
# 5 -0.005703 0.001297 0.000062 0.000000 0.042804 0.000000
# 6 0.000000 0.000000 0.000000 -0.002922 0.000000 0.037299
#
#
# Mechanical properties :
#
#
# Convention : Reuss Voigt Hill
#
# Bulk Modulus (GPa) = 54.33118 56.49294 55.41206
# Shear Modulus (GPa) = 26.45625 27.61394 27.03509
#
# Velocity S-wave (km/s) = 3.54638 3.62315 3.58497
# Velocity P-wave (km/s) = 6.52665 6.66023 6.59378
#
# Compressibility (1/GPa) = 0.01840564
#
# Stress axis : x y z
#
# Youngs Moduli (GPa) = 61.23700 73.02953 63.66556
#
# Poissons Ratio (x) = 0.20186 0.33082
# Poissons Ratio (y) = 0.16926 0.36302
# Poissons Ratio (z) = 0.31820 0.41641
#
# Static dielectric constant tensor:
#      x y z
#    x 3.891420 0.000000 0.123010 
#    y 0.000000 3.773740 0.000000 
#    z 0.123010 0.000000 3.868970 
# 
# 
# High freq. dielectric constant tensor:
#      x y z
#    x 1.820600 0.000000 0.002650 
#    y 0.000000 1.815530 0.000000 
#    z 0.002650 0.000000 1.835100 
# 
# From -- ./inp_files/215193.got.cif
#   From: 2010.06.25/outbox.cif.g09.slc.cpg/sg15_108_cif.got.tgz:215193.got - 2010.06.28 07:06:18.
