data_PCOD8133049
_publ_section_title
;
Structure prediction by ZEFSAII (Michael W. Deem and Ramdas Pophale) SiO2 
 PCOD8133049
Probable space group: C 2/C
;
_chemical_formula_sum "Si O2"
_cell_formula_units_Z 40
_cell_length_a 14.178802
_cell_length_b 11.939005
_cell_length_c 15.913020
_cell_angle_alpha 90.000000
_cell_angle_beta 51.530103
_cell_angle_gamma 90.000000
_cell_volume 2109.046003
_symmetry_space_group_name_H-M "C 2/C"
_symmetry_group_IT_number 15
_symmetry_cell_setting 'monoclinic'
loop_
_space_group_symop_operation_xyz
x,y,z
-x,y,1/2-z
-x,-y,-z
x,-y,1/2+z
1/2+x,1/2+y,z
1/2-x,1/2+y,1/2-z
1/2-x,1/2-y,-z
1/2+x,1/2-y,1/2+z
loop_
_atom_site_type_symbol
_atom_site_label
_atom_site_fract_x
_atom_site_fract_y
_atom_site_fract_z
Si Si1 0.537527 0.395608 0.821821
Si Si2 0.233386 0.744198 0.652344
Si Si3 0.727230 0.406771 0.510066
Si Si4 0.672377 0.652442 0.581234
Si Si5 0.898797 0.867157 0.193213
O O1 0.500000 0.443249 0.750000
O O2 0.618016 0.283449 0.771510
O O3 0.410930 0.368192 0.936545
O O4 0.609513 0.499339 0.824616
O O5 0.196238 0.640119 0.611745
O O6 0.272141 0.848894 0.571743
O O7 0.340623 0.708547 0.653650
O O8 0.736829 0.539167 0.513561
O O9 0.750000 0.750000 0.500000
O O10 0.672800 0.658536 0.681591
O O11 0.538311 0.665432 0.620066
#
# Coordination Sequence:
#
# PCOD8133049 Si02
#       5
#     8   8   8   8   8
#     4   9  16  36  58  74 112 149 179 227 267 327
#     4  10  19  31  61  82 108 138 192 233 263 323
#     4   9  19  37  56  82 108 148 188 222 275 331
#     4  10  20  38  59  76 116 150 179 231 277 328
#     4  10  19  35  56  84 105 146 193 219 271 334
#
# _framework density 18.965921000000002
#
# number of rings (size 3 to 8) (size 9 to 14) (size 15 to 20)
#    0.000    2.400    6.000    0.000    0.000    6.400 
#    0.000    1.000   39.600    0.000    0.000    0.000 
#    0.000    0.000    0.000    0.000    0.000    0.000 
#
# Total GULP energy -247857.885290 kJ/mol
# GULP energy per Si atom -12392.894264 kJ/mol
# Density = 1.892275 g / cm^3
# Si number density = 18.965921 Si / 1000 Ang^3
#
#
#
# Elastic Constant Matrix: (Units=GPa)
#
#
# Indices 1 2 3 4 5 6 
#
# 1 89.0052 58.3715 22.7452 0.0000 10.3010 0.0000
# 2 58.3715 150.7221 63.4343 0.0000 -2.8589 0.0000
# 3 22.7452 63.4343 70.4845 0.0000 -3.1766 0.0000
# 4 0.0000 0.0000 0.0000 26.0380 0.0000 -6.1036
# 5 10.3010 -2.8589 -3.1766 0.0000 15.3019 0.0000
# 6 0.0000 0.0000 0.0000 -6.1036 0.0000 36.8381
#
#
#
# Elastic Compliance Matrix: (Units=1/GPa)
#
#
# Indices 1 2 3 4 5 6 
#
# 1 0.017283 -0.006996 0.000137 0.000000 -0.012913 0.000000
# 2 -0.006996 0.013512 -0.009667 0.000000 0.005227 0.000000
# 3 0.000137 -0.009667 0.022973 0.000000 0.002871 0.000000
# 4 0.000000 0.000000 0.000000 0.039957 0.000000 0.006620
# 5 -0.012913 0.005227 0.002871 0.000000 0.075617 0.000000
# 6 0.000000 0.000000 0.000000 0.006620 0.000000 0.028243
#
#
# Mechanical properties :
#
#
# Convention : Reuss Voigt Hill
#
# Bulk Modulus (GPa) = 48.27304 66.59041 57.43173
# Shear Modulus (GPa) = 21.04891 26.67965 23.86428
#
# Velocity S-wave (km/s) = 3.33502 3.75469 3.55106
# Velocity P-wave (km/s) = 6.35119 7.34736 6.86736
#
# Compressibility (1/GPa) = 0.02071549
#
# Stress axis : x y z
#
# Youngs Moduli (GPa) = 57.86076 74.00890 43.52949
#
# Poissons Ratio (x) = 0.51776 -0.00597
# Poissons Ratio (y) = 0.40479 0.42081
# Poissons Ratio (z) = -0.00793 0.71546
#
# Static dielectric constant tensor:
#      x y z
#    x 3.201960 0.000000 0.016950 
#    y 0.000000 3.444090 0.000000 
#    z 0.016950 0.000000 3.630870 
# 
# 
# High freq. dielectric constant tensor:
#      x y z
#    x 1.708650 0.000000 0.009350 
#    y 0.000000 1.734810 0.000000 
#    z 0.009350 0.000000 1.732080 
# 
# From -- ./inp_files/151203.got.cif
#   From: 2010.06.25/outbox.cif.g09.slc.cpg/sg15_76_cif.got.tgz:151203.got - 2010.06.28 07:06:18.
