data_PCOD8133176
_publ_section_title
;
Structure prediction by ZEFSAII (Michael W. Deem and Ramdas Pophale) SiO2 
 PCOD8133176
Probable space group: C 2/C
;
_chemical_formula_sum "Si O2"
_cell_formula_units_Z 64
_cell_length_a 11.900718
_cell_length_b 22.055222
_cell_length_c 17.034649
_cell_angle_alpha 90.000000
_cell_angle_beta 134.199944
_cell_angle_gamma 90.000000
_cell_volume 3205.407187
_symmetry_space_group_name_H-M "C 2/C"
_symmetry_group_IT_number 15
_symmetry_cell_setting 'monoclinic'
loop_
_space_group_symop_operation_xyz
x,y,z
-x,y,1/2-z
-x,-y,-z
x,-y,1/2+z
1/2+x,1/2+y,z
1/2-x,1/2+y,1/2-z
1/2-x,1/2-y,-z
1/2+x,1/2-y,1/2+z
loop_
_atom_site_type_symbol
_atom_site_label
_atom_site_fract_x
_atom_site_fract_y
_atom_site_fract_z
Si Si1 0.678416 0.896169 0.670601
Si Si2 0.186856 0.653511 0.335824
Si Si3 0.810582 0.388757 0.500112
Si Si4 0.314925 0.291710 0.170838
Si Si5 0.653161 0.133002 0.720862
Si Si6 0.686403 0.173171 0.902795
Si Si7 0.166405 0.478069 0.112840
Si Si8 0.162191 0.187362 0.366688
O O1 0.754098 0.877874 0.790658
O O2 0.493960 0.901653 0.591860
O O3 0.702844 0.845253 0.617009
O O4 0.755454 0.960806 0.683068
O O5 0.256682 0.615893 0.444207
O O6 0.243936 0.722784 0.362296
O O7 0.000000 0.652960 0.250000
O O8 0.776608 0.324597 0.443606
O O9 0.738774 0.443556 0.411663
O O10 0.500000 0.298721 0.250000
O O11 0.266684 0.320943 0.230372
O O12 0.714040 0.128986 0.841281
O O13 0.477466 0.159108 0.634453
O O14 0.650922 0.066767 0.680013
O O15 0.683173 0.241102 0.867465
O O16 0.823272 0.166947 0.034699
O O17 0.000000 0.500000 0.000000
O O18 0.000000 0.164942 0.250000
#
# Coordination Sequence:
#
# PCOD8133176 Si02
#       8
#     8   8   8   8   8   8   8   8
#     4  10  20  37  53  81 113 148 187 233 288 341
#     4   9  18  31  50  78 109 134 177 225 275 332
#     4   9  18  35  54  78 109 146 189 229 277 340
#     4  10  19  32  54  83 115 147 180 226 293 347
#     4  10  19  38  58  86 116 150 202 248 284 352
#     4  10  21  37  60  90 114 152 201 244 301 349
#     4   9  18  34  57  80 111 149 197 238 288 333
#     4  11  21  37  57  85 120 151 190 239 304 360
#
# _framework density 19.966262
#
# number of rings (size 3 to 8) (size 9 to 14) (size 15 to 20)
#    0.000    2.250    1.250    3.375    0.000    0.000 
#   15.750    2.500    0.000    0.750    0.000    0.000 
#    0.000    0.000    0.000    0.000    0.000    0.000 
#
# Total GULP energy -396576.828468 kJ/mol
# GULP energy per Si atom -12393.025890 kJ/mol
# Density = 1.992082 g / cm^3
# Si number density = 19.966262 Si / 1000 Ang^3
#
#
#
# Elastic Constant Matrix: (Units=GPa)
#
#
# Indices 1 2 3 4 5 6 
#
# 1 72.0627 40.8940 35.8704 -0.0003 -27.1029 -0.0002
# 2 40.8940 136.1419 46.7798 0.0000 -26.2336 0.0000
# 3 35.8704 46.7798 116.0004 -0.0007 -40.7976 -0.0006
# 4 -0.0003 0.0000 -0.0007 26.9540 -0.0005 -1.0503
# 5 -27.1029 -26.2336 -40.7976 -0.0005 35.6363 -0.0004
# 6 -0.0002 0.0000 -0.0006 -1.0503 -0.0004 19.7521
#
#
#
# Elastic Compliance Matrix: (Units=1/GPa)
#
#
# Indices 1 2 3 4 5 6 
#
# 1 0.020988 -0.003680 -0.000577 0.000000 0.012593 0.000001
# 2 -0.003680 0.009512 -0.002042 0.000000 0.001866 0.000000
# 3 -0.000577 -0.002042 0.014965 0.000001 0.015190 0.000001
# 4 0.000000 0.000000 0.000001 0.037177 0.000002 0.001977
# 5 0.012593 0.001866 0.015190 0.000002 0.056403 0.000002
# 6 0.000001 0.000000 0.000001 0.001977 0.000002 0.050733
#
#
# Mechanical properties :
#
#
# Convention : Reuss Voigt Hill
#
# Bulk Modulus (GPa) = 30.42463 63.47706 46.95084
# Shear Modulus (GPa) = 23.43776 29.84589 26.64182
#
# Velocity S-wave (km/s) = 3.42989 3.87048 3.65683
# Velocity P-wave (km/s) = 5.56387 7.19968 6.43397
#
# Compressibility (1/GPa) = 0.03286811
#
# Stress axis : x y z
#
# Youngs Moduli (GPa) = 47.64525 105.13417 66.82241
#
# Poissons Ratio (x) = 0.38684 0.03858
# Poissons Ratio (y) = 0.17531 0.13643
# Poissons Ratio (z) = 0.02751 0.21464
#
# Static dielectric constant tensor:
#      x y z
#    x 3.601160 0.000000 -0.457950 
#    y 0.000000 4.009600 0.000000 
#    z -0.457950 0.000000 3.783940 
# 
# 
# High freq. dielectric constant tensor:
#      x y z
#    x 1.757810 0.000000 -0.032630 
#    y 0.000000 1.774530 0.000000 
#    z -0.032630 0.000000 1.775550 
# 
# From -- ./inp_files/200384.got.cif
#   From: 2010.06.25/outbox.cif.g09.slc.cpg/sg15_101_cif.got.tgz:200384.got - 2010.06.28 07:06:18.
