data_PCOD8133753
_publ_section_title
;
Structure prediction by ZEFSAII (Michael W. Deem and Ramdas Pophale) SiO2 
 PCOD8133753
Probable space group: C 2/C
;
_chemical_formula_sum "Si O2"
_cell_formula_units_Z 56
_cell_length_a 16.260028
_cell_length_b 16.938581
_cell_length_c 19.843319
_cell_angle_alpha 90.000000
_cell_angle_beta 151.603210
_cell_angle_gamma 90.000000
_cell_volume 2599.151398
_symmetry_space_group_name_H-M "C 2/C"
_symmetry_group_IT_number 15
_symmetry_cell_setting 'monoclinic'
loop_
_space_group_symop_operation_xyz
x,y,z
-x,y,1/2-z
-x,-y,-z
x,-y,1/2+z
1/2+x,1/2+y,z
1/2-x,1/2+y,1/2-z
1/2-x,1/2-y,-z
1/2+x,1/2-y,1/2+z
loop_
_atom_site_type_symbol
_atom_site_label
_atom_site_fract_x
_atom_site_fract_y
_atom_site_fract_z
Si Si1 0.037011 0.619646 0.563430
Si Si2 0.462874 0.054172 0.649334
Si Si3 0.266939 0.474128 0.704810
Si Si4 0.249584 0.435275 0.837675
Si Si5 0.295975 0.260688 0.892248
Si Si6 0.881634 0.975905 0.075932
Si Si7 0.423262 0.699934 0.618535
O O1 0.028415 0.614557 0.638959
O O2 0.844337 0.602743 0.396338
O O3 0.158675 0.554274 0.616975
O O4 0.112430 0.704483 0.596518
O O5 0.500000 0.091811 0.750000
O O6 0.557016 0.969741 0.709590
O O7 0.261616 0.033104 0.495072
O O8 0.330776 0.469323 0.827930
O O9 0.435399 0.481106 0.778948
O O10 0.231471 0.341781 0.813009
O O11 0.361958 0.463420 0.981599
O O12 0.111050 0.223358 0.788871
O O13 0.445461 0.285278 0.053743
O O14 0.880912 0.889670 0.108973
O O15 0.250000 0.750000 0.500000
#
# Coordination Sequence:
#
# PCOD8133753 Si02
#       7
#     8   8   8   8   8   8   8
#     4  10  21  35  56  82 122 157 202 245 300 359
#     4   9  19  37  57  85 118 154 200 251 296 356
#     4  10  19  35  54  85 114 150 196 248 293 351
#     4   9  19  34  58  81 115 152 194 242 292 362
#     4  11  21  38  56  86 122 161 196 240 303 357
#     4  10  19  34  56  83 113 152 197 236 296 354
#     4  11  22  35  55  88 125 155 191 236 302 371
#
# _framework density 21.545494999999999
#
# number of rings (size 3 to 8) (size 9 to 14) (size 15 to 20)
#    0.000    2.000    1.429    2.571    0.000    5.143 
#    2.571    0.000    0.000    0.857    0.000    0.000 
#    0.000    0.000    0.000    0.000    0.000    0.000 
#
# Total GULP energy -346974.663438 kJ/mol
# GULP energy per Si atom -12391.952266 kJ/mol
# Density = 2.149646 g / cm^3
# Si number density = 21.545495 Si / 1000 Ang^3
#
#
#
# Elastic Constant Matrix: (Units=GPa)
#
#
# Indices 1 2 3 4 5 6 
#
# 1 61.8760 17.1281 21.3097 0.0003 14.6906 0.0026
# 2 17.1281 51.2231 9.5950 -0.0289 12.1622 -0.0030
# 3 21.3097 9.5950 102.5755 -0.0603 12.5796 -0.0079
# 4 0.0003 -0.0289 -0.0603 20.9443 -0.0032 6.0778
# 5 14.6906 12.1622 12.5796 -0.0032 44.3770 0.0053
# 6 0.0026 -0.0030 -0.0079 6.0778 0.0053 34.4587
#
#
#
# Elastic Compliance Matrix: (Units=1/GPa)
#
#
# Indices 1 2 3 4 5 6 
#
# 1 0.019610 -0.004969 -0.003087 -0.000017 -0.004255 0.000001
# 2 -0.004969 0.022308 -0.000525 0.000029 -0.004320 -0.000002
# 3 -0.003087 -0.000525 0.010667 0.000030 -0.001858 -0.000002
# 4 -0.000017 0.000029 0.000030 0.050321 -0.000006 -0.008876
# 5 -0.004255 -0.004320 -0.001858 -0.000006 0.025653 -0.000003
# 6 0.000001 -0.000002 -0.000002 -0.008876 -0.000003 0.030586
#
#
# Mechanical properties :
#
#
# Convention : Reuss Voigt Hill
#
# Bulk Modulus (GPa) = 28.22946 34.63777 31.43361
# Shear Modulus (GPa) = 26.57941 31.13214 28.85578
#
# Velocity S-wave (km/s) = 3.51613 3.80537 3.66361
# Velocity P-wave (km/s) = 5.44196 5.95141 5.70238
#
# Compressibility (1/GPa) = 0.03542399
#
# Stress axis : x y z
#
# Youngs Moduli (GPa) = 50.99378 44.82699 93.74472
#
# Poissons Ratio (x) = 0.22273 0.28942
# Poissons Ratio (y) = 0.25338 0.04918
# Poissons Ratio (z) = 0.15744 0.02352
#
# Static dielectric constant tensor:
#      x y z
#    x 4.334590 -0.000050 -0.703500 
#    y -0.000050 3.467160 -0.000060 
#    z -0.703500 -0.000060 4.742450 
# 
# 
# High freq. dielectric constant tensor:
#      x y z
#    x 1.851520 0.000000 -0.012560 
#    y 0.000000 1.800700 -0.000010 
#    z -0.012560 -0.000010 1.861640 
# 
# From -- ./inp_files/245161.got.cif
#   From: 2010.06.25/outbox.cif.g09.slc.cpg/sg15_123_cif.got.tgz:245161.got - 2010.06.28 07:06:18.
