data_PCOD8133505
_publ_section_title
;
Structure prediction by ZEFSAII (Michael W. Deem and Ramdas Pophale) SiO2 
 PCOD8133505
Probable space group: C 2/C
;
_chemical_formula_sum "Si O2"
_cell_formula_units_Z 56
_cell_length_a 26.320101
_cell_length_b 12.004423
_cell_length_c 11.808870
_cell_angle_alpha 90.000000
_cell_angle_beta 132.322604
_cell_angle_gamma 90.000000
_cell_volume 2758.648578
_symmetry_space_group_name_H-M "C 2/C"
_symmetry_group_IT_number 15
_symmetry_cell_setting 'monoclinic'
loop_
_space_group_symop_operation_xyz
x,y,z
-x,y,1/2-z
-x,-y,-z
x,-y,1/2+z
1/2+x,1/2+y,z
1/2-x,1/2+y,1/2-z
1/2-x,1/2-y,-z
1/2+x,1/2-y,1/2+z
loop_
_atom_site_type_symbol
_atom_site_label
_atom_site_fract_x
_atom_site_fract_y
_atom_site_fract_z
Si Si1 0.599650 0.918857 0.301667
Si Si2 0.698801 0.108058 0.512926
Si Si3 0.844524 0.822879 0.172539
Si Si4 0.500000 0.245710 0.750000
Si Si5 0.043054 0.905925 0.997559
Si Si6 0.423997 0.602345 0.584829
Si Si7 0.000000 0.423252 0.750000
Si Si8 0.611326 0.185805 0.572696
O O1 0.571421 0.825804 0.348674
O O2 0.611079 0.868565 0.194906
O O3 0.668748 0.982633 0.447728
O O4 0.537687 0.007367 0.207246
O O5 0.781019 0.107615 0.628364
O O6 0.671057 0.192371 0.373343
O O7 0.681854 0.152090 0.614575
O O8 0.908858 0.831231 0.352320
O O9 0.864444 0.880918 0.085857
O O10 0.502872 0.318118 0.639803
O O11 0.085965 0.975555 0.969685
O O12 0.000000 0.000000 0.000000
O O13 0.500000 0.624540 0.750000
O O14 0.405469 0.682126 0.448653
O O15 0.945860 0.351167 0.602497
#
# Coordination Sequence:
#
# PCOD8133505 Si02
#       8
#     8   8   8   4   8   8   4   8
#     4  10  21  34  56  86 125 153 188 250 309 359
#     4   9  22  41  58  85 116 164 208 238 294 381
#     4  10  22  40  62  83 117 158 206 250 292 372
#     4  11  24  37  56 100 128 147 200 261 320 364
#     4  12  22  38  62  87 121 157 197 257 314 356
#     4  11  20  35  58  88 111 149 205 251 300 368
#     4   9  18  31  50  84 118 151 198 235 290 366
#     4  10  19  33  57  82 117 159 200 242 299 362
#
# _framework density 20.299793999999999
#
# number of rings (size 3 to 8) (size 9 to 14) (size 15 to 20)
#    0.000    1.714    2.857    1.286    0.000    4.571 
#    0.000    2.857    0.000    5.143    0.000    0.000 
#    0.000    0.000    0.000    0.000    0.000    0.000 
#
# Total GULP energy -346904.467335 kJ/mol
# GULP energy per Si atom -12389.445262 kJ/mol
# Density = 2.025359 g / cm^3
# Si number density = 20.299794 Si / 1000 Ang^3
#
#
#
# Elastic Constant Matrix: (Units=GPa)
#
#
# Indices 1 2 3 4 5 6 
#
# 1 102.5408 21.4885 17.7679 0.0000 1.5864 0.0000
# 2 21.4885 87.5751 20.2365 0.0000 -2.6143 0.0000
# 3 17.7679 20.2365 55.9465 0.0000 -5.0292 0.0000
# 4 0.0000 0.0000 0.0000 27.0486 0.0000 -3.6569
# 5 1.5864 -2.6143 -5.0292 0.0000 25.7699 0.0000
# 6 0.0000 0.0000 0.0000 -3.6569 0.0000 35.3923
#
#
#
# Elastic Compliance Matrix: (Units=1/GPa)
#
#
# Indices 1 2 3 4 5 6 
#
# 1 0.010680 -0.002018 -0.002788 0.000000 -0.001406 0.000000
# 2 -0.002018 0.012846 -0.003946 0.000000 0.000657 0.000000
# 3 -0.002788 -0.003946 0.020527 0.000000 0.003777 0.000000
# 4 0.000000 0.000000 0.000000 0.037494 0.000000 0.003874
# 5 -0.001406 0.000657 0.003777 0.000000 0.039695 0.000000
# 6 0.000000 0.000000 0.000000 0.003874 0.000000 0.028655
#
#
# Mechanical properties :
#
#
# Convention : Reuss Voigt Hill
#
# Bulk Modulus (GPa) = 37.66956 40.56090 39.11523
# Shear Modulus (GPa) = 28.36857 30.08014 29.22436
#
# Velocity S-wave (km/s) = 3.74235 3.85359 3.79837
# Velocity P-wave (km/s) = 6.10495 6.31066 6.20866
#
# Compressibility (1/GPa) = 0.02654663
#
# Stress axis : x y z
#
# Youngs Moduli (GPa) = 93.63239 77.84818 48.71701
#
# Poissons Ratio (x) = 0.15712 0.13584
# Poissons Ratio (y) = 0.18898 0.19225
# Poissons Ratio (z) = 0.26107 0.30721
#
# Static dielectric constant tensor:
#      x y z
#    x 4.050850 0.000000 -0.092100 
#    y 0.000000 4.024360 0.000000 
#    z -0.092100 0.000000 3.288570 
# 
# 
# High freq. dielectric constant tensor:
#      x y z
#    x 1.806570 0.000000 -0.011510 
#    y 0.000000 1.801080 0.000000 
#    z -0.011510 0.000000 1.752830 
# 
# From -- ./inp_files/111154.got.cif
#   From: 2010.06.25/outbox.cif.g09.slc.cpg/sg15_56_cif.got.tgz:111154.got - 2010.06.28 07:06:18.
