data_PCOD8133935
_publ_section_title
;
Structure prediction by ZEFSAII (Michael W. Deem and Ramdas Pophale) SiO2 
 PCOD8133935
Probable space group: C 2/C
;
_chemical_formula_sum "Si O2"
_cell_formula_units_Z 64
_cell_length_a 27.203498
_cell_length_b 20.825135
_cell_length_c 17.340628
_cell_angle_alpha 90.000000
_cell_angle_beta 19.050465
_cell_angle_gamma 90.000000
_cell_volume 3206.480796
_symmetry_space_group_name_H-M "C 2/C"
_symmetry_group_IT_number 15
_symmetry_cell_setting 'monoclinic'
loop_
_space_group_symop_operation_xyz
x,y,z
-x,y,1/2-z
-x,-y,-z
x,-y,1/2+z
1/2+x,1/2+y,z
1/2-x,1/2+y,1/2-z
1/2-x,1/2-y,-z
1/2+x,1/2-y,1/2+z
loop_
_atom_site_type_symbol
_atom_site_label
_atom_site_fract_x
_atom_site_fract_y
_atom_site_fract_z
Si Si1 0.331822 0.016635 0.003265
Si Si2 0.865198 0.167336 0.784884
Si Si3 0.857563 0.483679 0.294417
Si Si4 0.377872 0.568484 0.059895
Si Si5 0.704702 0.877072 0.374167
Si Si6 0.393462 0.096424 0.134633
Si Si7 0.367110 0.564633 0.497741
Si Si8 0.942832 0.308144 0.678287
O O1 0.212357 0.060468 0.225743
O O2 0.346090 0.947007 0.021455
O O3 0.500000 0.046408 0.750000
O O4 0.273197 0.012707 0.001696
O O5 0.801689 0.160258 0.793204
O O6 0.965307 0.231775 0.640805
O O7 0.969713 0.107350 0.652292
O O8 0.727904 0.172384 0.047604
O O9 0.895758 0.555473 0.211028
O O10 0.766427 0.450320 0.362042
O O11 0.010728 0.440911 0.073309
O O12 0.272946 0.605914 0.153968
O O13 0.424677 0.499631 0.955642
O O14 0.557379 0.835854 0.571941
O O15 0.810641 0.882933 0.142147
O O16 0.465111 0.163456 0.058161
O O17 0.500000 0.595243 0.250000
#
# Coordination Sequence:
#
# PCOD8133935 Si02
#       8
#     8   8   8   8   8   8   8   8
#     4  11  20  35  63  91 123 158 190 239 303 371
#     4  11  26  40  62  89 119 159 202 258 296 346
#     4  10  19  34  60  91 119 156 198 238 300 363
#     4  10  24  37  56  95 125 149 195 251 306 347
#     4  11  23  42  62  88 123 162 203 244 301 371
#     4  10  19  37  60  87 119 155 197 245 292 360
#     4  10  23  37  60  92 124 159 190 247 314 365
#     4  11  24  43  63  84 116 167 209 240 297 361
#
# _framework density 19.959576999999999
#
# number of rings (size 3 to 8) (size 9 to 14) (size 15 to 20)
#    0.000    1.500    2.500    2.625    8.750    1.000 
#    0.000    0.000    0.000    3.750    0.000    0.000 
#    0.000    0.000    0.000    0.000    0.000    0.000 
#
# Total GULP energy -396810.307062 kJ/mol
# GULP energy per Si atom -12400.322096 kJ/mol
# Density = 1.991415 g / cm^3
# Si number density = 19.959577 Si / 1000 Ang^3
#
#
#
# Elastic Constant Matrix: (Units=GPa)
#
#
# Indices 1 2 3 4 5 6 
#
# 1 100.2362 26.6875 28.3878 -0.0025 1.3095 -0.0008
# 2 26.6875 69.9455 23.4486 -0.0299 -11.0552 0.0028
# 3 28.3878 23.4486 76.7872 -0.0282 0.8563 0.0022
# 4 -0.0025 -0.0299 -0.0282 25.7870 -0.0025 -1.5104
# 5 1.3095 -11.0552 0.8563 -0.0025 42.1256 0.0027
# 6 -0.0008 0.0028 0.0022 -1.5104 0.0027 24.9292
#
#
#
# Elastic Compliance Matrix: (Units=1/GPa)
#
#
# Indices 1 2 3 4 5 6 
#
# 1 0.011888 -0.003638 -0.003270 -0.000007 -0.001258 0.000001
# 2 -0.003638 0.017852 -0.004161 0.000016 0.004883 -0.000001
# 3 -0.003270 -0.004161 0.015517 0.000012 -0.001306 0.000000
# 4 -0.000007 0.000016 0.000012 0.038917 0.000006 0.002358
# 5 -0.001258 0.004883 -0.001306 0.000006 0.025086 -0.000003
# 6 0.000001 -0.000001 0.000000 0.002358 -0.000003 0.040256
#
#
# Mechanical properties :
#
#
# Convention : Reuss Voigt Hill
#
# Bulk Modulus (GPa) = 43.25529 44.89073 44.07301
# Shear Modulus (GPa) = 27.87701 29.79803 28.83752
#
# Velocity S-wave (km/s) = 3.74126 3.86802 3.80517
# Velocity P-wave (km/s) = 6.35462 6.51832 6.43699
#
# Compressibility (1/GPa) = 0.02311856
#
# Stress axis : x y z
#
# Youngs Moduli (GPa) = 84.12149 56.01732 64.44575
#
# Poissons Ratio (x) = 0.20381 0.21072
# Poissons Ratio (y) = 0.30606 0.26814
# Poissons Ratio (z) = 0.27505 0.23307
#
# Static dielectric constant tensor:
#      x y z
#    x 3.753110 0.000000 0.080430 
#    y 0.000000 3.393630 0.000060 
#    z 0.080430 0.000060 3.771770 
# 
# 
# High freq. dielectric constant tensor:
#      x y z
#    x 1.796710 0.000000 -0.005690 
#    y 0.000000 1.738670 0.000000 
#    z -0.005690 0.000000 1.777040 
# 
# From -- ./inp_files/124248.got.cif
#   From: 2010.06.25/outbox.cif.g09.slc.cpg/sg15_63_cif.got.tgz:124248.got - 2010.06.28 07:06:18.
