data_PCOD8133987
_publ_section_title
;
Structure prediction by ZEFSAII (Michael W. Deem and Ramdas Pophale) SiO2 
 PCOD8133987
Probable space group: C 2/C
;
_chemical_formula_sum "Si O2"
_cell_formula_units_Z 48
_cell_length_a 8.114070
_cell_length_b 13.690129
_cell_length_c 25.534397
_cell_angle_alpha 90.000000
_cell_angle_beta 134.197738
_cell_angle_gamma 90.000000
_cell_volume 2033.544011
_symmetry_space_group_name_H-M "C 2/C"
_symmetry_group_IT_number 15
_symmetry_cell_setting 'monoclinic'
loop_
_space_group_symop_operation_xyz
x,y,z
-x,y,1/2-z
-x,-y,-z
x,-y,1/2+z
1/2+x,1/2+y,z
1/2-x,1/2+y,1/2-z
1/2-x,1/2-y,-z
1/2+x,1/2-y,1/2+z
loop_
_atom_site_type_symbol
_atom_site_label
_atom_site_fract_x
_atom_site_fract_y
_atom_site_fract_z
Si Si1 0.071118 0.110776 0.452107
Si Si2 0.429549 0.762075 0.965073
Si Si3 0.759408 0.621831 0.212298
Si Si4 0.518253 0.200548 0.812704
Si Si5 0.579688 0.954598 0.963689
Si Si6 0.729921 0.973970 0.196259
O O1 0.259843 0.173703 0.463344
O O2 0.961883 0.176158 0.475036
O O3 0.865667 0.082835 0.367766
O O4 0.185582 0.010738 0.500774
O O5 0.618289 0.837131 0.981694
O O6 0.285278 0.711240 0.886760
O O7 0.604660 0.694765 0.211657
O O8 0.820484 0.529736 0.261386
O O9 0.000000 0.672824 0.250000
O O10 0.500000 0.159621 0.750000
O O11 0.395628 0.130304 0.827572
O O12 0.375866 0.968169 0.876415
O O13 0.500000 0.000000 0.000000
O O14 0.000000 0.957807 0.250000
#
# Coordination Sequence:
#
# PCOD8133987 Si02
#       6
#     8   8   8   8   8   8
#     4   9  18  36  59  93 128 175 217 280 346 405
#     4   9  17  33  61  91 131 170 221 279 338 409
#     4  11  24  43  64  95 135 174 224 285 340 412
#     4  11  22  40  66  96 134 178 223 278 348 412
#     4  10  19  34  63  97 128 176 230 281 346 414
#     4  12  23  40  65  97 131 180 229 279 344 415
#
# _framework density 23.604109999999999
#
# number of rings (size 3 to 8) (size 9 to 14) (size 15 to 20)
#    0.000    1.667    1.667    5.500    2.333    0.000 
#    3.000    0.833    3.667    2.000    0.000    0.000 
#    0.000    0.000    0.000    0.000    0.000    0.000 
#
# Total GULP energy -297611.246258 kJ/mol
# GULP energy per Si atom -12400.468594 kJ/mol
# Density = 2.355039 g / cm^3
# Si number density = 23.604110 Si / 1000 Ang^3
#
#
#
# Elastic Constant Matrix: (Units=GPa)
#
#
# Indices 1 2 3 4 5 6 
#
# 1 54.3571 22.9606 32.4698 0.0000 -7.6306 0.0000
# 2 22.9606 119.4009 55.6664 0.0000 -11.9946 0.0000
# 3 32.4698 55.6664 167.7245 0.0000 -23.0021 0.0000
# 4 0.0000 0.0000 0.0000 31.3853 0.0000 -6.7791
# 5 -7.6306 -11.9946 -23.0021 0.0000 26.3353 0.0000
# 6 0.0000 0.0000 0.0000 -6.7791 0.0000 40.3866
#
#
#
# Elastic Compliance Matrix: (Units=1/GPa)
#
#
# Indices 1 2 3 4 5 6 
#
# 1 0.021601 -0.002500 -0.003010 0.000000 0.002491 0.000000
# 2 -0.002500 0.010279 -0.002709 0.000000 0.001591 0.000000
# 3 -0.003010 -0.002709 0.008129 0.000000 0.004994 0.000000
# 4 0.000000 0.000000 0.000000 0.033061 0.000000 0.005549
# 5 0.002491 0.001591 0.004994 0.000000 0.043780 0.000000
# 6 0.000000 0.000000 0.000000 0.005549 0.000000 0.025692
#
#
# Mechanical properties :
#
#
# Convention : Reuss Voigt Hill
#
# Bulk Modulus (GPa) = 42.42843 62.63066 52.52954
# Shear Modulus (GPa) = 29.96932 34.98048 32.47490
#
# Velocity S-wave (km/s) = 3.56710 3.85381 3.71322
# Velocity P-wave (km/s) = 5.91436 6.81130 6.37862
#
# Compressibility (1/GPa) = 0.02356910
#
# Stress axis : x y z
#
# Youngs Moduli (GPa) = 46.29461 97.28735 123.01631
#
# Poissons Ratio (x) = 0.24323 0.37032
# Poissons Ratio (y) = 0.11574 0.33329
# Poissons Ratio (z) = 0.13936 0.26358
#
# Static dielectric constant tensor:
#      x y z
#    x 4.007290 0.000000 -0.077950 
#    y 0.000000 4.509160 0.000000 
#    z -0.077950 0.000000 4.321160 
# 
# 
# High freq. dielectric constant tensor:
#      x y z
#    x 1.918680 0.000000 -0.011530 
#    y 0.000000 1.939400 0.000000 
#    z -0.011530 0.000000 1.939900 
# 
# From -- ./inp_files/289138.got.cif
#   From: 2010.06.25/outbox.cif.g09.slc.cpg/sg15_145_cif.got.tgz:289138.got - 2010.06.28 07:06:18.
