data_PCOD8133394
_publ_section_title
;
Structure prediction by ZEFSAII (Michael W. Deem and Ramdas Pophale) SiO2 
 PCOD8133394
Probable space group: C 2/C
;
_chemical_formula_sum "Si O2"
_cell_formula_units_Z 60
_cell_length_a 14.701523
_cell_length_b 15.867395
_cell_length_c 25.984123
_cell_angle_alpha 90.000000
_cell_angle_beta 152.261720
_cell_angle_gamma 90.000000
_cell_volume 2821.198525
_symmetry_space_group_name_H-M "C 2/C"
_symmetry_group_IT_number 15
_symmetry_cell_setting 'monoclinic'
loop_
_space_group_symop_operation_xyz
x,y,z
-x,y,1/2-z
-x,-y,-z
x,-y,1/2+z
1/2+x,1/2+y,z
1/2-x,1/2+y,1/2-z
1/2-x,1/2-y,-z
1/2+x,1/2-y,1/2+z
loop_
_atom_site_type_symbol
_atom_site_label
_atom_site_fract_x
_atom_site_fract_y
_atom_site_fract_z
Si Si1 0.189762 0.593508 0.379561
Si Si2 0.415243 0.312204 0.908501
Si Si3 0.223947 0.586641 0.940684
Si Si4 0.001348 0.511233 0.914630
Si Si5 0.270840 0.501406 0.137804
Si Si6 0.000000 0.304871 0.250000
Si Si7 0.555418 0.841364 0.660335
Si Si8 0.861962 0.692370 0.410794
O O1 0.361729 0.631118 0.431108
O O2 0.270778 0.507146 0.444182
O O3 0.000000 0.575175 0.250000
O O4 0.135288 0.661368 0.397808
O O5 0.234278 0.296766 0.779840
O O6 0.576581 0.360823 0.955311
O O7 0.495629 0.224226 0.972104
O O8 0.118098 0.584166 0.943312
O O9 0.070550 0.634527 0.829594
O O10 0.821455 0.547409 0.859006
O O11 0.910261 0.442469 0.829765
O O12 0.163080 0.465837 0.033074
O O13 0.500000 0.485073 0.250000
O O14 0.212391 0.599170 0.113959
O O15 0.171444 0.249751 0.311961
O O16 0.531233 0.800626 0.591665
#
# Coordination Sequence:
#
# PCOD8133394 Si02
#       8
#     8   8   8   8   8   4   8   8
#     4   9  17  35  55  78 111 157 196 253 297 344
#     4  10  21  33  59  86 116 163 198 244 309 360
#     4  10  19  33  54  85 120 147 200 249 302 359
#     4   9  21  36  59  88 111 157 203 249 299 356
#     4  10  20  39  62  83 121 159 198 254 300 358
#     4  10  20  34  52  88 122 150 186 254 300 366
#     4   9  20  38  57  81 118 156 205 250 297 363
#     4  10  21  36  55  84 119 158 198 240 312 367
#
# _framework density 21.267555999999999
#
# number of rings (size 3 to 8) (size 9 to 14) (size 15 to 20)
#    0.000    2.400    1.333    0.400    3.733    1.600 
#    0.000    2.667    0.000   23.200    0.000    0.000 
#    0.000    0.000    0.000    0.000    0.000    0.000 
#
# Total GULP energy -371777.212935 kJ/mol
# GULP energy per Si atom -12392.573764 kJ/mol
# Density = 2.121915 g / cm^3
# Si number density = 21.267556 Si / 1000 Ang^3
#
#
#
# Elastic Constant Matrix: (Units=GPa)
#
#
# Indices 1 2 3 4 5 6 
#
# 1 152.0822 30.7375 29.2811 0.0210 10.0396 -0.0032
# 2 30.7375 43.8248 8.7806 -0.0702 3.2272 0.0117
# 3 29.2811 8.7806 73.4237 -0.1203 10.5776 0.0199
# 4 0.0210 -0.0702 -0.1203 -382.9100 0.0409 66.0809
# 5 10.0396 3.2272 10.5776 0.0409 29.7312 -0.0068
# 6 -0.0032 0.0117 0.0199 66.0809 -0.0068 13.4115
#
#
#
# Elastic Compliance Matrix: (Units=1/GPa)
#
#
# Indices 1 2 3 4 5 6 
#
# 1 0.008175 -0.005144 -0.002454 0.000002 -0.001329 0.000000
# 2 -0.005144 0.026690 -0.001026 -0.000005 -0.000795 0.000001
# 3 -0.002454 -0.001026 0.015373 -0.000005 -0.004530 0.000001
# 4 0.000002 -0.000005 -0.000005 -0.001411 0.000005 0.006954
# 5 -0.001329 -0.000795 -0.004530 0.000005 0.035781 -0.000001
# 6 0.000000 0.000001 0.000001 0.006954 -0.000001 0.040298
#
#
# Mechanical properties :
#
#
# Convention : Reuss Voigt Hill
#
# Bulk Modulus (GPa) = 30.31093 45.21435 37.76264
# Shear Modulus (GPa) = 32.64751 -54.58470 -10.96860
#
# Velocity S-wave (km/s) = 3.92227 -5.07163 -2.27346
# Velocity P-wave (km/s) = 5.89876 3.60407 3.30197
#
# Compressibility (1/GPa) = 0.03299140
#
# Stress axis : x y z
#
# Youngs Moduli (GPa) = 122.31985 37.46673 65.04808
#
# Poissons Ratio (x) = 0.19275 0.15960
# Poissons Ratio (y) = 0.62927 0.06672
# Poissons Ratio (z) = 0.30012 0.03843
#
# Static dielectric constant tensor:
#      x y z
#    x 4.247880 0.000000 0.064050 
#    y 0.000000 3.633350 0.000000 
#    z 0.064050 0.000000 3.677850 
# 
# 
# High freq. dielectric constant tensor:
#      x y z
#    x 1.857460 0.000000 -0.001860 
#    y 0.000000 1.807870 0.000000 
#    z -0.001860 0.000000 1.817790 
# 
# From -- ./inp_files/296731.got.cif
#   From: 2010.06.25/outbox.cif.g09.slc.cpg/sg15_149_cif.got.tgz:296731.got - 2010.06.28 07:06:18.
