data_PCOD8133358
_publ_section_title
;
Structure prediction by ZEFSAII (Michael W. Deem and Ramdas Pophale) SiO2 
 PCOD8133358
Probable space group: C 2/C
;
_chemical_formula_sum "Si O2"
_cell_formula_units_Z 56
_cell_length_a 15.715686
_cell_length_b 28.459597
_cell_length_c 9.689348
_cell_angle_alpha 90.000000
_cell_angle_beta 125.908217
_cell_angle_gamma 90.000000
_cell_volume 3510.095196
_symmetry_space_group_name_H-M "C 2/C"
_symmetry_group_IT_number 15
_symmetry_cell_setting 'monoclinic'
loop_
_space_group_symop_operation_xyz
x,y,z
-x,y,1/2-z
-x,-y,-z
x,-y,1/2+z
1/2+x,1/2+y,z
1/2-x,1/2+y,1/2-z
1/2-x,1/2-y,-z
1/2+x,1/2-y,1/2+z
loop_
_atom_site_type_symbol
_atom_site_label
_atom_site_fract_x
_atom_site_fract_y
_atom_site_fract_z
Si Si1 0.224984 0.680478 0.965873
Si Si2 0.993287 0.453309 0.405847
Si Si3 0.901759 0.226805 0.564516
Si Si4 0.148745 0.625111 0.659730
Si Si5 0.304981 0.175028 0.062945
Si Si6 0.417356 0.860127 0.937012
Si Si7 0.401352 0.265873 0.749782
O O1 0.145848 0.670840 0.015146
O O2 0.342415 0.687505 0.135909
O O3 0.226422 0.637778 0.859127
O O4 0.186150 0.725265 0.840870
O O5 0.087039 0.416257 0.532513
O O6 0.000000 0.464962 0.250000
O O7 0.000000 0.500000 0.500000
O O8 0.882301 0.429525 0.347199
O O9 0.810895 0.188017 0.495517
O O10 0.863963 0.278124 0.572511
O O11 0.938819 0.226613 0.441455
O O12 0.000000 0.211032 0.750000
O O13 0.205265 0.636807 0.569445
O O14 0.039768 0.655955 0.562896
O O15 0.372396 0.149179 0.243453
O O16 0.500000 0.253688 0.750000
#
# Coordination Sequence:
#
# PCOD8133358 Si02
#       7
#     8   8   8   8   8   8   8
#     4  11  20  36  50  71 100 140 189 210 257 304
#     4  10  22  34  52  81 110 135 167 218 265 319
#     4  11  24  35  47  72 107 134 180 232 254 296
#     4  10  19  33  54  74  99 141 170 208 250 325
#     4  11  22  34  50  73 100 144 181 209 265 306
#     4  10  19  35  52  72 103 139 173 206 251 324
#     4  11  24  33  51  71 101 139 181 232 251 293
#
# _framework density 15.953982999999999
#
# number of rings (size 3 to 8) (size 9 to 14) (size 15 to 20)
#    0.857    0.571    4.286    2.571    6.000    0.000 
#    0.000    0.000    0.000    0.000    0.000    0.000 
#    0.000    6.857    0.000    0.000    0.000    0.000 
#
# Total GULP energy -347071.895328 kJ/mol
# GULP energy per Si atom -12395.424833 kJ/mol
# Density = 1.591767 g / cm^3
# Si number density = 15.953983 Si / 1000 Ang^3
#
#
#
# Elastic Constant Matrix: (Units=GPa)
#
#
# Indices 1 2 3 4 5 6 
#
# 1 46.3408 11.4629 24.5653 0.0000 -14.1679 0.0000
# 2 11.4629 69.3410 31.3756 0.0000 -6.0382 0.0000
# 3 24.5653 31.3756 114.0896 0.0000 -15.5701 0.0000
# 4 0.0000 0.0000 0.0000 27.4021 0.0000 -2.2061
# 5 -14.1679 -6.0382 -15.5701 0.0000 33.4037 0.0000
# 6 0.0000 0.0000 0.0000 -2.2061 0.0000 16.4687
#
#
#
# Elastic Compliance Matrix: (Units=1/GPa)
#
#
# Indices 1 2 3 4 5 6 
#
# 1 0.027002 -0.001826 -0.004051 0.000000 0.009234 0.000000
# 2 -0.001826 0.016621 -0.004137 0.000000 0.000302 0.000000
# 3 -0.004051 -0.004137 0.011148 0.000000 0.002730 0.000000
# 4 0.000000 0.000000 0.000000 0.036891 0.000000 0.004942
# 5 0.009234 0.000302 0.002730 0.000000 0.035180 0.000000
# 6 0.000000 0.000000 0.000000 0.004942 0.000000 0.061383
#
#
# Mechanical properties :
#
#
# Convention : Reuss Voigt Hill
#
# Bulk Modulus (GPa) = 28.78372 40.50879 34.64625
# Shear Modulus (GPa) = 22.74429 26.27941 24.51185
#
# Velocity S-wave (km/s) = 3.77983 4.06297 3.92396
# Velocity P-wave (km/s) = 6.09347 6.88887 6.50334
#
# Compressibility (1/GPa) = 0.03474187
#
# Stress axis : x y z
#
# Youngs Moduli (GPa) = 37.03452 60.16330 89.70589
#
# Poissons Ratio (x) = 0.10988 0.36344
# Poissons Ratio (y) = 0.06764 0.37108
# Poissons Ratio (z) = 0.15004 0.24887
#
# Static dielectric constant tensor:
#      x y z
#    x 2.909800 0.000000 -0.093200 
#    y 0.000000 2.762120 0.000000 
#    z -0.093200 0.000000 3.186420 
# 
# 
# High freq. dielectric constant tensor:
#      x y z
#    x 1.597650 0.000000 -0.021820 
#    y 0.000000 1.576450 0.000000 
#    z -0.021820 0.000000 1.627180 
# 
# From -- ./inp_files/44331.got.cif
#   From: 2010.06.25/outbox.cif.g09.slc.cpg/sg15_23_cif.got.tgz:44331.got - 2010.06.28 07:06:18.
