data_PCOD8133864
_publ_section_title
;
Structure prediction by ZEFSAII (Michael W. Deem and Ramdas Pophale) SiO2 
 PCOD8133864
Probable space group: C 2/C
;
_chemical_formula_sum "Si O2"
_cell_formula_units_Z 48
_cell_length_a 20.222742
_cell_length_b 11.966596
_cell_length_c 25.377209
_cell_angle_alpha 90.000000
_cell_angle_beta 158.414196
_cell_angle_gamma 90.000000
_cell_volume 2259.318386
_symmetry_space_group_name_H-M "C 2/C"
_symmetry_group_IT_number 15
_symmetry_cell_setting 'monoclinic'
loop_
_space_group_symop_operation_xyz
x,y,z
-x,y,1/2-z
-x,-y,-z
x,-y,1/2+z
1/2+x,1/2+y,z
1/2-x,1/2+y,1/2-z
1/2-x,1/2-y,-z
1/2+x,1/2-y,1/2+z
loop_
_atom_site_type_symbol
_atom_site_label
_atom_site_fract_x
_atom_site_fract_y
_atom_site_fract_z
Si Si1 0.287953 0.370226 0.995697
Si Si2 0.362411 0.249362 0.211261
Si Si3 0.641532 0.913048 0.584871
Si Si4 0.293321 0.529820 0.606568
Si Si5 0.487043 0.674230 0.495629
Si Si6 0.467966 0.496752 0.891725
O O1 0.429398 0.267827 0.115411
O O2 0.200753 0.424558 0.984189
O O3 0.377731 0.478452 0.036038
O O4 0.141504 0.318550 0.847149
O O5 0.286241 0.373395 0.145657
O O6 0.229504 0.190355 0.155262
O O7 0.581422 0.788012 0.550634
O O8 0.812398 0.934446 0.746849
O O9 0.500000 0.000000 0.500000
O O10 0.683298 0.929089 0.552909
O O11 0.500000 0.495204 0.750000
O O12 0.575660 0.618877 0.614070
O O13 0.535268 0.588163 0.485620
#
# Coordination Sequence:
#
# PCOD8133864 Si02
#       6
#     8   8   8   8   8   8
#     4  10  20  37  59  87 124 162 203 248 313 358
#     4  10  19  34  58  89 118 161 199 251 304 356
#     4  12  22  36  63  91 119 156 208 243 302 368
#     4  10  19  36  55  88 119 156 199 245 302 362
#     4  10  23  37  59  89 120 160 199 252 306 355
#     4  10  22  40  58  86 126 153 197 255 306 358
#
# _framework density 21.245346999999999
#
# number of rings (size 3 to 8) (size 9 to 14) (size 15 to 20)
#    0.000    1.667    5.000    0.500    7.000    0.000 
#    0.000    0.833    0.000    0.000    0.000    0.000 
#    0.000    0.000    0.000    0.000    0.000    0.000 
#
# Total GULP energy -297344.006242 kJ/mol
# GULP energy per Si atom -12389.333593 kJ/mol
# Density = 2.119699 g / cm^3
# Si number density = 21.245347 Si / 1000 Ang^3
#
#
#
# Elastic Constant Matrix: (Units=GPa)
#
#
# Indices 1 2 3 4 5 6 
#
# 1 122.0009 53.4845 23.7220 0.0174 3.1432 0.0276
# 2 53.4845 120.8511 24.7615 -0.0693 5.8530 0.0355
# 3 23.7220 24.7615 68.9935 -0.0074 1.3707 0.0149
# 4 0.0174 -0.0693 -0.0074 22.2648 0.0158 1.1955
# 5 3.1432 5.8530 1.3707 0.0158 22.2344 0.0042
# 6 0.0276 0.0355 0.0149 1.1955 0.0042 16.0232
#
#
#
# Elastic Compliance Matrix: (Units=1/GPa)
#
#
# Indices 1 2 3 4 5 6 
#
# 1 0.010442 -0.004182 -0.002084 -0.000021 -0.000247 -0.000005
# 2 -0.004182 0.010711 -0.002365 0.000038 -0.002083 -0.000017
# 3 -0.002084 -0.002365 0.016061 0.000000 -0.000073 -0.000006
# 4 -0.000021 0.000038 0.000000 0.045095 -0.000038 -0.003365
# 5 -0.000247 -0.002083 -0.000073 -0.000038 0.045563 -0.000004
# 6 -0.000005 -0.000017 -0.000006 -0.003365 -0.000004 0.062661
#
#
# Mechanical properties :
#
#
# Convention : Reuss Voigt Hill
#
# Bulk Modulus (GPa) = 50.12256 57.30905 53.71581
# Shear Modulus (GPa) = 23.31600 26.09630 24.70615
#
# Velocity S-wave (km/s) = 3.31639 3.50856 3.41383
# Velocity P-wave (km/s) = 6.18935 6.59141 6.39354
#
# Compressibility (1/GPa) = 0.01995110
#
# Stress axis : x y z
#
# Youngs Moduli (GPa) = 95.76964 93.36251 62.26285
#
# Poissons Ratio (x) = 0.39046 0.12978
# Poissons Ratio (y) = 0.40052 0.14724
# Poissons Ratio (z) = 0.19961 0.22078
#
# Static dielectric constant tensor:
#      x y z
#    x 4.245260 0.000280 -0.030550 
#    y 0.000280 3.881700 -0.000440 
#    z -0.030550 -0.000440 3.711920 
# 
# 
# High freq. dielectric constant tensor:
#      x y z
#    x 1.856440 0.000000 -0.005280 
#    y 0.000000 1.813770 -0.000010 
#    z -0.005280 -0.000010 1.814940 
# 
# From -- ./inp_files/300970.got.cif
#   From: 2010.06.25/outbox.cif.g09.slc.cpg/sg15_151_cif.got.tgz:300970.got - 2010.06.28 07:06:18.
