data_PCOD8133195
_publ_section_title
;
Structure prediction by ZEFSAII (Michael W. Deem and Ramdas Pophale) SiO2 
 PCOD8133195
Probable space group: C 2/C
;
_chemical_formula_sum "Si O2"
_cell_formula_units_Z 56
_cell_length_a 10.526714
_cell_length_b 27.279957
_cell_length_c 14.118424
_cell_angle_alpha 90.000000
_cell_angle_beta 49.879431
_cell_angle_gamma 90.000000
_cell_volume 3100.331985
_symmetry_space_group_name_H-M "C 2/C"
_symmetry_group_IT_number 15
_symmetry_cell_setting 'monoclinic'
loop_
_space_group_symop_operation_xyz
x,y,z
-x,y,1/2-z
-x,-y,-z
x,-y,1/2+z
1/2+x,1/2+y,z
1/2-x,1/2+y,1/2-z
1/2-x,1/2-y,-z
1/2+x,1/2-y,1/2+z
loop_
_atom_site_type_symbol
_atom_site_label
_atom_site_fract_x
_atom_site_fract_y
_atom_site_fract_z
Si Si1 0.489708 0.655935 0.055823
Si Si2 0.199173 0.610728 0.504908
Si Si3 0.667319 0.838820 0.832604
Si Si4 0.067494 0.978445 0.610825
Si Si5 0.500000 0.887528 0.750000
Si Si6 0.150649 0.934813 0.946327
Si Si7 0.000000 0.334976 0.250000
Si Si8 0.204390 0.763430 0.414374
O O1 0.341308 0.653034 0.199475
O O2 0.456477 0.615393 0.990121
O O3 0.652507 0.647041 0.040258
O O4 0.525486 0.708969 0.993754
O O5 0.145452 0.620441 0.423672
O O6 0.267320 0.555208 0.482300
O O7 0.042650 0.626721 0.645093
O O8 0.521161 0.850540 0.828572
O O9 0.666887 0.783904 0.870552
O O10 0.000000 0.978215 0.750000
O O11 0.916387 0.961480 0.616339
O O12 0.123232 0.032849 0.553280
O O13 0.344318 0.923279 0.840320
O O14 0.846091 0.298522 0.299863
O O15 0.250000 0.750000 0.500000
#
# Coordination Sequence:
#
# PCOD8133195 Si02
#       8
#     8   8   8   8   4   8   4   8
#     4   9  18  33  55  79 107 145 183 232 285 319
#     4  10  19  32  55  86 112 138 182 238 286 326
#     4  11  20  34  55  78 113 151 187 228 275 349
#     4  10  19  37  65  84 102 145 194 229 284 341
#     4  10  22  39  54  78 116 152 185 224 284 336
#     4   9  20  38  57  81 114 143 187 234 273 340
#     4  10  20  31  48  90 120 132 171 244 302 312
#     4  11  19  31  56  83 112 145 187 238 286 324
#
# _framework density 18.062581000000002
#
# number of rings (size 3 to 8) (size 9 to 14) (size 15 to 20)
#    0.000    2.000    2.857    3.857    0.000    0.571 
#    0.000   11.429    1.571    0.000    0.000    0.000 
#    0.000    0.000    0.000    0.000    0.000    0.000 
#
# Total GULP energy -346958.450170 kJ/mol
# GULP energy per Si atom -12391.373220 kJ/mol
# Density = 1.802147 g / cm^3
# Si number density = 18.062581 Si / 1000 Ang^3
#
#
#
# Elastic Constant Matrix: (Units=GPa)
#
#
# Indices 1 2 3 4 5 6 
#
# 1 88.1638 43.4418 47.7017 0.0000 4.0948 0.0000
# 2 43.4418 129.3608 62.8839 0.0000 7.6704 0.0000
# 3 47.7017 62.8839 107.6550 0.0000 1.7032 0.0000
# 4 0.0000 0.0000 0.0000 33.7920 0.0000 -0.5642
# 5 4.0948 7.6704 1.7032 0.0000 21.6941 0.0000
# 6 0.0000 0.0000 0.0000 -0.5642 0.0000 23.9959
#
#
#
# Elastic Compliance Matrix: (Units=1/GPa)
#
#
# Indices 1 2 3 4 5 6 
#
# 1 0.015582 -0.002503 -0.005417 0.000000 -0.001631 0.000000
# 2 -0.002503 0.011443 -0.005525 0.000000 -0.003140 0.000000
# 3 -0.005417 -0.005525 0.014888 0.000000 0.001807 0.000000
# 4 0.000000 0.000000 0.000000 0.029604 0.000000 0.000696
# 5 -0.001631 -0.003140 0.001807 0.000000 0.047371 0.000000
# 6 0.000000 0.000000 0.000000 0.000696 0.000000 0.041690
#
#
# Mechanical properties :
#
#
# Convention : Reuss Voigt Hill
#
# Bulk Modulus (GPa) = 66.56366 70.35939 68.46152
# Shear Modulus (GPa) = 25.97711 27.30655 26.64183
#
# Velocity S-wave (km/s) = 3.79644 3.89237 3.84470
# Velocity P-wave (km/s) = 7.49326 7.69665 7.59564
#
# Compressibility (1/GPa) = 0.01502321
#
# Stress axis : x y z
#
# Youngs Moduli (GPa) = 64.17524 87.38962 67.16852
#
# Poissons Ratio (x) = 0.21874 0.36382
# Poissons Ratio (y) = 0.16063 0.37113
# Poissons Ratio (z) = 0.34761 0.48286
#
# Static dielectric constant tensor:
#      x y z
#    x 3.340480 0.000000 -0.014100 
#    y 0.000000 3.844620 0.000000 
#    z -0.014100 0.000000 3.427660 
# 
# 
# High freq. dielectric constant tensor:
#      x y z
#    x 1.677560 0.000000 -0.005760 
#    y 0.000000 1.710170 0.000000 
#    z -0.005760 0.000000 1.693820 
# 
# From -- ./inp_files/82539.got.cif
#   From: 2010.06.25/outbox.cif.g09.slc.cpg/sg15_42_cif.got.tgz:82539.got - 2010.06.28 07:06:18.
