data_PCOD8133292
_publ_section_title
;
Structure prediction by ZEFSAII (Michael W. Deem and Ramdas Pophale) SiO2 
 PCOD8133292
Probable space group: C 2/C
;
_chemical_formula_sum "Si O2"
_cell_formula_units_Z 40
_cell_length_a 18.614600
_cell_length_b 11.711786
_cell_length_c 18.749532
_cell_angle_alpha 90.000000
_cell_angle_beta 147.486282
_cell_angle_gamma 90.000000
_cell_volume 2197.085543
_symmetry_space_group_name_H-M "C 2/C"
_symmetry_group_IT_number 15
_symmetry_cell_setting 'monoclinic'
loop_
_space_group_symop_operation_xyz
x,y,z
-x,y,1/2-z
-x,-y,-z
x,-y,1/2+z
1/2+x,1/2+y,z
1/2-x,1/2+y,1/2-z
1/2-x,1/2-y,-z
1/2+x,1/2-y,1/2+z
loop_
_atom_site_type_symbol
_atom_site_label
_atom_site_fract_x
_atom_site_fract_y
_atom_site_fract_z
Si Si1 0.952999 0.536376 0.787261
Si Si2 0.520730 0.668748 0.485731
Si Si3 0.079928 0.804347 0.749014
Si Si4 0.352049 0.099642 0.432763
Si Si5 0.719466 0.472965 0.682251
O O1 0.915253 0.668314 0.748469
O O2 0.822536 0.465954 0.702768
O O3 0.000000 0.487269 0.750000
O O4 0.065896 0.522058 0.942877
O O5 0.498542 0.643260 0.383625
O O6 0.555826 0.801415 0.525859
O O7 0.639944 0.591825 0.615131
O O8 0.381265 0.635082 0.408389
O O9 0.232674 0.845111 0.878868
O O10 0.000000 0.851131 0.750000
O O11 0.299242 0.022954 0.323845
#
# Coordination Sequence:
#
# PCOD8133292 Si02
#       5
#     8   8   8   8   8
#     4  10  20  30  50  76 106 133 160 207 251 306
#     4   9  19  32  51  74 104 132 166 208 244 299
#     4   9  18  29  50  78 110 132 150 200 262 312
#     4  10  19  33  51  78 102 136 166 200 252 299
#     4  10  19  34  50  74 103 132 173 203 247 295
#
# _framework density 18.205938
#
# number of rings (size 3 to 8) (size 9 to 14) (size 15 to 20)
#    0.000    2.400    2.000    0.600    2.800    2.400 
#    0.000    0.000    0.000    1.200    0.000    0.000 
#    0.000    0.000    0.000    0.000    0.000    0.000 
#
# Total GULP energy -247959.308215 kJ/mol
# GULP energy per Si atom -12397.965411 kJ/mol
# Density = 1.816450 g / cm^3
# Si number density = 18.205938 Si / 1000 Ang^3
#
#
#
# Elastic Constant Matrix: (Units=GPa)
#
#
# Indices 1 2 3 4 5 6 
#
# 1 157.6038 34.8804 58.1625 0.0001 10.2337 0.0000
# 2 34.8804 32.8306 33.4442 0.0001 -2.7597 0.0001
# 3 58.1625 33.4442 113.6070 0.0002 3.6857 0.0002
# 4 0.0001 0.0001 0.0002 29.5617 0.0001 1.5184
# 5 10.2337 -2.7597 3.6857 0.0001 22.7443 0.0001
# 6 0.0000 0.0001 0.0002 1.5184 0.0001 24.9605
#
#
#
# Elastic Compliance Matrix: (Units=1/GPa)
#
#
# Indices 1 2 3 4 5 6 
#
# 1 0.009235 -0.007930 -0.002239 0.000000 -0.004755 0.000000
# 2 -0.007930 0.051589 -0.011506 0.000000 0.011693 0.000000
# 3 -0.002239 -0.011506 0.013419 0.000000 -0.002563 0.000000
# 4 0.000000 0.000000 0.000000 0.033934 0.000000 -0.002064
# 5 -0.004755 0.011693 -0.002563 0.000000 0.047940 0.000000
# 6 0.000000 0.000000 0.000000 -0.002064 0.000000 0.040189
#
#
# Mechanical properties :
#
#
# Convention : Reuss Voigt Hill
#
# Bulk Modulus (GPa) = 32.37130 61.89061 47.13095
# Shear Modulus (GPa) = 20.00352 27.29025 23.64689
#
# Velocity S-wave (km/s) = 3.31831 3.87586 3.60787
# Velocity P-wave (km/s) = 5.70095 7.35515 6.58024
#
# Compressibility (1/GPa) = 0.03089157
#
# Stress axis : x y z
#
# Youngs Moduli (GPa) = 108.28023 19.38387 74.52051
#
# Poissons Ratio (x) = 0.15372 0.16687
# Poissons Ratio (y) = 0.85872 0.85746
# Poissons Ratio (z) = 0.24247 0.22304
#
# Static dielectric constant tensor:
#      x y z
#    x 3.578350 0.000000 0.109150 
#    y 0.000000 2.989850 0.000000 
#    z 0.109150 0.000000 3.576800 
# 
# 
# High freq. dielectric constant tensor:
#      x y z
#    x 1.703580 0.000000 0.013810 
#    y 0.000000 1.658460 0.000000 
#    z 0.013810 0.000000 1.723580 
# 
# From -- ./inp_files/46241.got.cif
#   From: 2010.06.25/outbox.cif.g09.slc.cpg/sg15_24_cif.got.tgz:46241.got - 2010.06.28 07:06:18.
