data_PCOD8133247
_publ_section_title
;
Structure prediction by ZEFSAII (Michael W. Deem and Ramdas Pophale) SiO2 
 PCOD8133247
Probable space group: C 2/C
;
_chemical_formula_sum "Si O2"
_cell_formula_units_Z 44
_cell_length_a 11.706773
_cell_length_b 18.575533
_cell_length_c 12.582574
_cell_angle_alpha 90.000000
_cell_angle_beta 53.064035
_cell_angle_gamma 90.000000
_cell_volume 2187.066175
_symmetry_space_group_name_H-M "C 2/C"
_symmetry_group_IT_number 15
_symmetry_cell_setting 'monoclinic'
loop_
_space_group_symop_operation_xyz
x,y,z
-x,y,1/2-z
-x,-y,-z
x,-y,1/2+z
1/2+x,1/2+y,z
1/2-x,1/2+y,1/2-z
1/2-x,1/2-y,-z
1/2+x,1/2-y,1/2+z
loop_
_atom_site_type_symbol
_atom_site_label
_atom_site_fract_x
_atom_site_fract_y
_atom_site_fract_z
Si Si1 0.077419 0.745845 0.593853
Si Si2 0.980805 0.582296 0.883181
Si Si3 0.931915 0.195459 0.975335
Si Si4 0.500000 0.412147 0.250000
Si Si5 0.123275 0.339387 0.609303
Si Si6 0.297943 0.968106 0.084198
O O1 0.250000 0.750000 0.500000
O O2 0.030131 0.666393 0.582598
O O3 0.000000 0.764082 0.750000
O O4 0.021178 0.801894 0.535605
O O5 0.000000 0.570472 0.750000
O O6 0.118221 0.541111 0.852840
O O7 0.837828 0.542737 0.004620
O O8 0.946651 0.270352 0.906395
O O9 0.992117 0.135049 0.861782
O O10 0.765383 0.181204 0.096640
O O11 0.629396 0.467258 0.195407
O O12 0.161617 0.397451 0.502119
O O13 0.000000 0.373988 0.750000
#
# Coordination Sequence:
#
# PCOD8133247 Si02
#       6
#     8   8   8   4   8   8
#     4  11  26  41  63  90 131 172 204 249 307 382
#     4  10  22  40  63  85 121 162 209 246 302 373
#     4  10  21  34  58  94 120 154 200 251 310 358
#     4  10  22  38  66  92 128 148 204 268 316 348
#     4  10  19  32  60  88 118 147 197 258 300 351
#     4  10  21  40  62  89 115 162 200 256 306 365
#
# _framework density 20.118276000000002
#
# number of rings (size 3 to 8) (size 9 to 14) (size 15 to 20)
#    0.000    1.818    2.727    0.545    7.636    0.000 
#    1.636    0.909    0.000    0.000    0.000    0.000 
#    0.000    0.000    0.000    0.000    0.000    0.000 
#
# Total GULP energy -272733.719498 kJ/mol
# GULP energy per Si atom -12396.987250 kJ/mol
# Density = 2.007249 g / cm^3
# Si number density = 20.118276 Si / 1000 Ang^3
#
#
#
# Elastic Constant Matrix: (Units=GPa)
#
#
# Indices 1 2 3 4 5 6 
#
# 1 130.0795 21.2924 70.4868 0.0000 -5.6401 0.0000
# 2 21.2924 46.8088 23.6130 0.0000 6.1869 0.0000
# 3 70.4868 23.6130 113.0898 0.0000 -12.5940 0.0000
# 4 0.0000 0.0000 0.0000 18.6477 0.0000 -1.3589
# 5 -5.6401 6.1869 -12.5940 0.0000 35.9227 0.0000
# 6 0.0000 0.0000 0.0000 -1.3589 0.0000 34.7419
#
#
#
# Elastic Compliance Matrix: (Units=1/GPa)
#
#
# Indices 1 2 3 4 5 6 
#
# 1 0.011752 -0.001783 -0.006986 0.000000 -0.000297 0.000000
# 2 -0.001783 0.025506 -0.004927 0.000000 -0.006400 0.000000
# 3 -0.006986 -0.004927 0.014775 0.000000 0.004932 0.000000
# 4 0.000000 0.000000 0.000000 0.053779 0.000000 0.002104
# 5 -0.000297 -0.006400 0.004932 0.000000 0.030622 0.000000
# 6 0.000000 0.000000 0.000000 0.002104 0.000000 0.028866
#
#
# Mechanical properties :
#
#
# Convention : Reuss Voigt Hill
#
# Bulk Modulus (GPa) = 40.58211 57.86249 49.22230
# Shear Modulus (GPa) = 24.88749 29.50151 27.19450
#
# Velocity S-wave (km/s) = 3.52100 3.83352 3.68058
# Velocity P-wave (km/s) = 6.06180 6.95831 6.52547
#
# Compressibility (1/GPa) = 0.02464140
#
# Stress axis : x y z
#
# Youngs Moduli (GPa) = 85.09328 39.20669 67.68408
#
# Poissons Ratio (x) = 0.06989 0.47281
# Poissons Ratio (y) = 0.15168 0.33350
# Poissons Ratio (z) = 0.59443 0.19318
#
# Static dielectric constant tensor:
#      x y z
#    x 4.222790 0.000000 -0.402410 
#    y 0.000000 3.626140 0.000000 
#    z -0.402410 0.000000 3.884800 
# 
# 
# High freq. dielectric constant tensor:
#      x y z
#    x 1.791210 0.000000 -0.002900 
#    y 0.000000 1.774610 0.000000 
#    z -0.002900 0.000000 1.786100 
# 
# From -- ./inp_files/87738.got.cif
#   From: 2010.06.25/outbox.cif.g09.slc.cpg/sg15_44_cif.got.tgz:87738.got - 2010.06.28 07:06:18.
