data_PCOD8133412
_publ_section_title
;
Structure prediction by ZEFSAII (Michael W. Deem and Ramdas Pophale) SiO2 
 PCOD8133412
Probable space group: C 2/C
;
_chemical_formula_sum "Si O2"
_cell_formula_units_Z 56
_cell_length_a 8.878906
_cell_length_b 28.244681
_cell_length_c 12.691314
_cell_angle_alpha 90.000000
_cell_angle_beta 71.157220
_cell_angle_gamma 90.000000
_cell_volume 3012.182609
_symmetry_space_group_name_H-M "C 2/C"
_symmetry_group_IT_number 15
_symmetry_cell_setting 'monoclinic'
loop_
_space_group_symop_operation_xyz
x,y,z
-x,y,1/2-z
-x,-y,-z
x,-y,1/2+z
1/2+x,1/2+y,z
1/2-x,1/2+y,1/2-z
1/2-x,1/2-y,-z
1/2+x,1/2-y,1/2+z
loop_
_atom_site_type_symbol
_atom_site_label
_atom_site_fract_x
_atom_site_fract_y
_atom_site_fract_z
Si Si1 0.247476 0.695693 0.971435
Si Si2 0.064766 0.562353 0.933815
Si Si3 0.967482 0.869307 0.137388
Si Si4 0.633051 0.884830 0.632250
Si Si5 0.068754 0.060576 0.438658
Si Si6 0.761946 0.016410 0.473165
Si Si7 0.856192 0.347126 0.214088
O O1 0.423554 0.674187 0.924879
O O2 0.166056 0.689754 0.875782
O O3 0.250000 0.750000 0.000000
O O4 0.149953 0.668348 0.084373
O O5 0.080019 0.581355 0.049100
O O6 0.882422 0.548671 0.950810
O O7 0.186145 0.517266 0.899058
O O8 0.117450 0.600235 0.836596
O O9 0.788826 0.849849 0.170741
O O10 0.000000 0.884460 0.250000
O O11 0.999839 0.915374 0.060459
O O12 0.500000 0.885503 0.750000
O O13 0.801925 0.903646 0.642932
O O14 0.913851 0.048638 0.399510
O O15 0.164398 0.012879 0.445904
O O16 0.000000 0.327604 0.250000
#
# Coordination Sequence:
#
# PCOD8133412 Si02
#       7
#     8   8   8   8   8   8   8
#     4   9  19  35  56  79 100 126 162 206 255 311
#     4   9  18  32  47  71 104 132 166 208 248 289
#     4   9  17  31  51  74 101 131 167 207 254 304
#     4   9  18  33  50  68  96 133 166 199 247 302
#     4   9  17  30  46  67  98 135 173 210 244 284
#     4   9  16  30  47  66 100 135 168 213 245 279
#     4  10  19  33  55  79 103 130 164 208 258 303
#
# _framework density 18.591170000000002
#
# number of rings (size 3 to 8) (size 9 to 14) (size 15 to 20)
#    0.000    2.857    0.000    3.429    0.000    1.714 
#    0.000   26.429    0.000    3.429    0.000    0.000 
#    0.000    0.000    0.000    0.000    0.000    0.000 
#
# Total GULP energy -346976.577138 kJ/mol
# GULP energy per Si atom -12392.020612 kJ/mol
# Density = 1.854886 g / cm^3
# Si number density = 18.591170 Si / 1000 Ang^3
#
#
#
# Elastic Constant Matrix: (Units=GPa)
#
#
# Indices 1 2 3 4 5 6 
#
# 1 143.0349 49.1309 42.1578 0.0000 -26.1141 0.0000
# 2 49.1309 111.6792 39.3812 0.0000 -6.8599 0.0000
# 3 42.1578 39.3812 94.6160 0.0000 -22.1798 0.0000
# 4 0.0000 0.0000 0.0000 12.0500 0.0000 -6.4588
# 5 -26.1141 -6.8599 -22.1798 0.0000 20.8811 0.0000
# 6 0.0000 0.0000 0.0000 -6.4588 0.0000 13.3727
#
#
#
# Elastic Compliance Matrix: (Units=1/GPa)
#
#
# Indices 1 2 3 4 5 6 
#
# 1 0.010499 -0.003765 -0.000430 0.000000 0.011437 0.000000
# 2 -0.003765 0.011884 -0.004604 0.000000 -0.005694 0.000000
# 3 -0.000430 -0.004604 0.016240 0.000000 0.015200 0.000000
# 4 0.000000 0.000000 0.000000 0.111977 0.000000 0.054083
# 5 0.011437 -0.005694 0.015200 0.000000 0.076467 0.000000
# 6 0.000000 0.000000 0.000000 0.054083 0.000000 0.100901
#
#
# Mechanical properties :
#
#
# Convention : Reuss Voigt Hill
#
# Bulk Modulus (GPa) = 47.56023 67.85220 57.70622
# Shear Modulus (GPa) = 14.18142 23.83811 19.00976
#
# Velocity S-wave (km/s) = 2.76489 3.58470 3.20115
# Velocity P-wave (km/s) = 5.98586 7.32869 6.69105
#
# Compressibility (1/GPa) = 0.02102597
#
# Stress axis : x y z
#
# Youngs Moduli (GPa) = 95.24495 84.14613 61.57633
#
# Poissons Ratio (x) = 0.31679 0.02649
# Poissons Ratio (y) = 0.35857 0.28348
# Poissons Ratio (z) = 0.04097 0.38739
#
# Static dielectric constant tensor:
#      x y z
#    x 3.911150 0.000000 -0.282240 
#    y 0.000000 3.247540 0.000000 
#    z -0.282240 0.000000 3.245260 
# 
# 
# High freq. dielectric constant tensor:
#      x y z
#    x 1.731290 0.000000 -0.025050 
#    y 0.000000 1.702610 0.000000 
#    z -0.025050 0.000000 1.694690 
# 
# From -- ./inp_files/138537.got.cif
#   From: 2010.06.25/outbox.cif.g09.slc.cpg/sg15_70_cif.got.tgz:138537.got - 2010.06.28 07:06:18.
