data_PCOD8133035
_publ_section_title
;
Structure prediction by ZEFSAII (Michael W. Deem and Ramdas Pophale) SiO2 
 PCOD8133035
Probable space group: C 2/C
;
_chemical_formula_sum "Si O2"
_cell_formula_units_Z 64
_cell_length_a 14.943733
_cell_length_b 12.146585
_cell_length_c 24.582653
_cell_angle_alpha 90.000000
_cell_angle_beta 45.288230
_cell_angle_gamma 90.000000
_cell_volume 3171.033556
_symmetry_space_group_name_H-M "C 2/C"
_symmetry_group_IT_number 15
_symmetry_cell_setting 'monoclinic'
loop_
_space_group_symop_operation_xyz
x,y,z
-x,y,1/2-z
-x,-y,-z
x,-y,1/2+z
1/2+x,1/2+y,z
1/2-x,1/2+y,1/2-z
1/2-x,1/2-y,-z
1/2+x,1/2-y,1/2+z
loop_
_atom_site_type_symbol
_atom_site_label
_atom_site_fract_x
_atom_site_fract_y
_atom_site_fract_z
Si Si1 0.224463 0.815869 0.090525
Si Si2 0.840640 0.041268 0.413319
Si Si3 0.881339 0.779201 0.102879
Si Si4 0.429794 0.843598 0.909025
Si Si5 0.405907 0.906600 0.422280
Si Si6 0.380435 0.753459 0.335813
Si Si7 0.568263 0.747920 0.421647
Si Si8 0.969045 0.009700 0.076008
O O1 0.119171 0.722936 0.123060
O O2 0.296633 0.787061 0.114868
O O3 0.160986 0.935382 0.125491
O O4 0.324056 0.827361 0.999565
O O5 0.701691 0.087052 0.485938
O O6 0.913655 0.138179 0.351090
O O7 0.904126 0.002248 0.442539
O O8 0.739715 0.740961 0.151970
O O9 0.937319 0.702858 0.126606
O O10 0.880423 0.904825 0.126424
O O11 0.964936 0.765875 0.013026
O O12 0.451200 0.971650 0.885926
O O13 0.350419 0.847285 0.392887
O O14 0.521092 0.835537 0.397291
O O15 0.500000 0.790655 0.250000
O O16 0.593710 0.627874 0.383899
O O17 0.000000 0.000000 0.000000
#
# Coordination Sequence:
#
# PCOD8133035 Si02
#       8
#     8   8   8   8   8   8   8   8
#     4   9  19  31  54  92 124 143 184 237 294 346
#     4  11  20  38  62  87 118 155 196 241 293 349
#     4  10  20  36  56  83 118 154 187 235 294 341
#     4   9  19  32  55  89 123 148 180 239 294 344
#     4  11  21  35  60  89 118 149 189 242 292 348
#     4  12  26  41  57  83 118 158 199 244 292 346
#     4  10  19  31  55  92 120 144 185 237 293 343
#     4  10  19  31  56  89 119 147 187 236 289 346
#
# _framework density 20.182694999999999
#
# number of rings (size 3 to 8) (size 9 to 14) (size 15 to 20)
#    0.000    1.750    3.750    1.875    8.750    1.500 
#    0.000    1.250    0.000    0.750    0.000    0.000 
#    0.000    0.000    0.000    0.000    0.000    0.000 
#
# Total GULP energy -396754.524821 kJ/mol
# GULP energy per Si atom -12398.578901 kJ/mol
# Density = 2.013676 g / cm^3
# Si number density = 20.182695 Si / 1000 Ang^3
#
#
#
# Elastic Constant Matrix: (Units=GPa)
#
#
# Indices 1 2 3 4 5 6 
#
# 1 136.6028 58.2576 13.0398 0.0000 -28.3063 0.0000
# 2 58.2576 173.2807 17.0934 0.0000 -7.5761 0.0000
# 3 13.0398 17.0934 23.3769 0.0000 -8.0394 0.0000
# 4 0.0000 0.0000 0.0000 5.7491 0.0000 -7.2495
# 5 -28.3063 -7.5761 -8.0394 0.0000 14.4956 0.0000
# 6 0.0000 0.0000 0.0000 -7.2495 0.0000 38.8278
#
#
#
# Elastic Compliance Matrix: (Units=1/GPa)
#
#
# Indices 1 2 3 4 5 6 
#
# 1 0.014666 -0.004136 0.004880 0.000000 0.029183 0.000000
# 2 -0.004136 0.007396 -0.005621 0.000000 -0.007329 0.000000
# 3 0.004880 -0.005621 0.057376 0.000000 0.038412 0.000000
# 4 0.000000 0.000000 0.000000 0.227502 0.000000 0.042477
# 5 0.029183 -0.007329 0.038412 0.000000 0.143447 0.000000
# 6 0.000000 0.000000 0.000000 0.042477 0.000000 0.033685
#
#
# Mechanical properties :
#
#
# Convention : Reuss Voigt Hill
#
# Bulk Modulus (GPa) = 14.35081 56.67134 35.51108
# Shear Modulus (GPa) = 9.67017 28.13916 18.90466
#
# Velocity S-wave (km/s) = 2.19128 3.73798 3.06384
# Velocity P-wave (km/s) = 3.67807 6.83887 5.49082
#
# Compressibility (1/GPa) = 0.06968248
#
# Stress axis : x y z
#
# Youngs Moduli (GPa) = 68.18529 135.21492 17.42902
#
# Poissons Ratio (x) = 0.55927 -0.08505
# Poissons Ratio (y) = 0.28203 0.09797
# Poissons Ratio (z) = -0.33274 0.76005
#
# Static dielectric constant tensor:
#      x y z
#    x 3.810080 0.000000 -0.161320 
#    y 0.000000 4.183450 0.000000 
#    z -0.161320 0.000000 2.865690 
# 
# 
# High freq. dielectric constant tensor:
#      x y z
#    x 1.803000 0.000000 -0.017080 
#    y 0.000000 1.812950 0.000000 
#    z -0.017080 0.000000 1.701920 
# 
# From -- ./inp_files/313574.got.cif
#   From: 2010.06.25/outbox.cif.g09.slc.cpg/sg15_157_cif.got.tgz:313574.got - 2010.06.28 07:06:18.
