data_PCOD8133067
_publ_section_title
;
Structure prediction by ZEFSAII (Michael W. Deem and Ramdas Pophale) SiO2 
 PCOD8133067
Probable space group: C 2/C
;
_chemical_formula_sum "Si O2"
_cell_formula_units_Z 64
_cell_length_a 24.190749
_cell_length_b 20.501099
_cell_length_c 7.958751
_cell_angle_alpha 90.000000
_cell_angle_beta 93.913373
_cell_angle_gamma 90.000000
_cell_volume 3937.835611
_symmetry_space_group_name_H-M "C 2/C"
_symmetry_group_IT_number 15
_symmetry_cell_setting 'monoclinic'
loop_
_space_group_symop_operation_xyz
x,y,z
-x,y,1/2-z
-x,-y,-z
x,-y,1/2+z
1/2+x,1/2+y,z
1/2-x,1/2+y,1/2-z
1/2-x,1/2-y,-z
1/2+x,1/2-y,1/2+z
loop_
_atom_site_type_symbol
_atom_site_label
_atom_site_fract_x
_atom_site_fract_y
_atom_site_fract_z
Si Si1 0.463218 0.579828 0.093765
Si Si2 0.709592 0.433659 0.019819
Si Si3 0.613596 0.645104 0.643826
Si Si4 0.783823 0.330086 0.158841
Si Si5 0.771978 0.678281 0.025950
Si Si6 0.071700 0.940331 0.424505
Si Si7 0.685329 0.425613 0.626177
Si Si8 0.680068 0.766743 0.649830
O O1 0.500000 0.607473 0.250000
O O2 0.424263 0.516600 0.132167
O O3 0.422867 0.638552 0.032462
O O4 0.507748 0.563567 0.960611
O O5 0.667592 0.399902 0.140604
O O6 0.768158 0.399981 0.074460
O O7 0.713811 0.509775 0.058397
O O8 0.692555 0.419256 0.825782
O O9 0.577978 0.612912 0.782431
O O10 0.626844 0.721154 0.677744
O O11 0.804272 0.340197 0.357411
O O12 0.732682 0.280376 0.151577
O O13 0.828641 0.300562 0.035586
O O14 0.718236 0.632816 0.042282
O O15 0.812540 0.679460 0.198497
O O16 0.750000 0.750000 0.000000
O O17 0.119408 0.924902 0.572528
#
# Coordination Sequence:
#
# PCOD8133067 Si02
#       8
#     8   8   8   8   8   8   8   8
#     4  11  22  35  47  65  93 125 165 219 262 288
#     4  11  21  31  47  70  96 124 164 212 243 293
#     4  11  21  35  49  66  91 123 170 209 255 302
#     4   9  17  32  47  67  94 118 152 202 250 290
#     4  10  19  32  49  69  94 122 160 204 247 299
#     4  11  21  33  48  65  91 129 165 211 259 290
#     4  12  21  32  48  72  96 129 172 206 248 295
#     4   9  18  33  49  67  90 121 155 206 247 299
#
# _framework density 16.252583000000001
#
# number of rings (size 3 to 8) (size 9 to 14) (size 15 to 20)
#    0.000    1.500    2.500    6.375    1.750    0.000 
#    2.250    0.000    0.000    0.000    0.000    0.000 
#    0.000    0.000    0.000    0.000    0.000   17.500 
#
# Total GULP energy -396437.299313 kJ/mol
# GULP energy per Si atom -12388.665604 kJ/mol
# Density = 1.621559 g / cm^3
# Si number density = 16.252583 Si / 1000 Ang^3
#
#
#
# Elastic Constant Matrix: (Units=GPa)
#
#
# Indices 1 2 3 4 5 6 
#
# 1 41.8691 32.4696 16.4079 0.0000 2.7266 0.0000
# 2 32.4696 63.4286 14.1697 0.0000 4.4119 0.0000
# 3 16.4079 14.1697 82.3516 0.0000 0.8140 0.0000
# 4 0.0000 0.0000 0.0000 23.8469 0.0000 -3.9199
# 5 2.7266 4.4119 0.8140 0.0000 23.6114 0.0000
# 6 0.0000 0.0000 0.0000 -3.9199 0.0000 19.6555
#
#
#
# Elastic Compliance Matrix: (Units=1/GPa)
#
#
# Indices 1 2 3 4 5 6 
#
# 1 0.041358 -0.020043 -0.004783 0.000000 -0.000866 0.000000
# 2 -0.020043 0.026319 -0.000510 0.000000 -0.002586 0.000000
# 3 -0.004783 -0.000510 0.013182 0.000000 0.000193 0.000000
# 4 0.000000 0.000000 0.000000 0.043355 0.000000 0.008646
# 5 -0.000866 -0.002586 0.000193 0.000000 0.042929 0.000000
# 6 0.000000 0.000000 0.000000 0.008646 0.000000 0.052601
#
#
# Mechanical properties :
#
#
# Convention : Reuss Voigt Hill
#
# Bulk Modulus (GPa) = 33.12540 34.86041 33.99290
# Shear Modulus (GPa) = 17.82672 21.72957 19.77814
#
# Velocity S-wave (km/s) = 3.31547 3.66046 3.49223
# Velocity P-wave (km/s) = 5.92303 6.27383 6.10096
#
# Compressibility (1/GPa) = 0.03018831
#
# Stress axis : x y z
#
# Youngs Moduli (GPa) = 24.17917 37.99467 75.86193
#
# Poissons Ratio (x) = 0.76151 0.36285
# Poissons Ratio (y) = 0.48462 0.03867
# Poissons Ratio (z) = 0.11565 0.01937
#
# Static dielectric constant tensor:
#      x y z
#    x 2.904420 0.000000 -0.078240 
#    y 0.000000 3.098300 0.000000 
#    z -0.078240 0.000000 3.744520 
# 
# 
# High freq. dielectric constant tensor:
#      x y z
#    x 1.570240 0.000000 -0.009410 
#    y 0.000000 1.598530 0.000000 
#    z -0.009410 0.000000 1.653340 
# 
# From -- ./inp_files/63111.got.cif
#   From: 2010.06.25/outbox.cif.g09.slc.cpg/sg15_32_cif.got.tgz:63111.got - 2010.06.28 07:06:18.
