data_PCOD8133477
_publ_section_title
;
Structure prediction by ZEFSAII (Michael W. Deem and Ramdas Pophale) SiO2 
 PCOD8133477
Probable space group: C 2/C
;
_chemical_formula_sum "Si O2"
_cell_formula_units_Z 64
_cell_length_a 27.115925
_cell_length_b 12.165188
_cell_length_c 17.336418
_cell_angle_alpha 90.000000
_cell_angle_beta 35.127331
_cell_angle_gamma 90.000000
_cell_volume 3290.554190
_symmetry_space_group_name_H-M "C 2/C"
_symmetry_group_IT_number 15
_symmetry_cell_setting 'monoclinic'
loop_
_space_group_symop_operation_xyz
x,y,z
-x,y,1/2-z
-x,-y,-z
x,-y,1/2+z
1/2+x,1/2+y,z
1/2-x,1/2+y,1/2-z
1/2-x,1/2-y,-z
1/2+x,1/2-y,1/2+z
loop_
_atom_site_type_symbol
_atom_site_label
_atom_site_fract_x
_atom_site_fract_y
_atom_site_fract_z
Si Si1 0.767191 0.493121 0.926979
Si Si2 0.088070 0.742331 0.984459
Si Si3 0.398549 0.795612 0.732694
Si Si4 0.762226 0.164962 0.418170
Si Si5 0.257341 0.837105 0.307283
Si Si6 0.925262 0.899554 0.636463
Si Si7 0.890089 0.874668 0.115877
Si Si8 0.098476 0.140194 0.627528
O O1 0.837667 0.398693 0.827245
O O2 0.787535 0.584321 0.837222
O O3 0.776059 0.548233 0.002140
O O4 0.669036 0.455886 0.038342
O O5 0.162620 0.669100 0.852915
O O6 0.075078 0.851172 0.949834
O O7 0.116181 0.779295 0.033338
O O8 0.999468 0.671635 0.101008
O O9 0.373343 0.738687 0.683577
O O10 0.384392 0.708771 0.817975
O O11 0.750000 0.250000 0.500000
O O12 0.726818 0.217523 0.382518
O O13 0.864299 0.159298 0.275030
O O14 0.181558 0.891641 0.356463
O O15 0.020871 0.880318 0.545764
O O16 0.893767 0.025490 0.672336
O O17 0.000000 0.094297 0.750000
#
# Coordination Sequence:
#
# PCOD8133477 Si02
#       8
#     8   8   8   8   8   8   8   8
#     4  11  21  34  55  78 105 142 180 217 265 320
#     4   9  19  36  55  76 106 139 174 217 262 315
#     4  10  21  35  53  78 108 140 173 216 268 320
#     4   9  20  37  53  73 107 147 179 216 263 315
#     4  10  21  36  55  77 105 142 182 222 261 312
#     4   9  18  34  56  80 108 138 172 220 272 315
#     4  10  19  33  56  84 107 133 175 225 272 314
#     4  10  20  35  55  81 108 134 170 219 271 317
#
# _framework density 19.449611000000001
#
# number of rings (size 3 to 8) (size 9 to 14) (size 15 to 20)
#    0.000    2.250    0.000    2.625    0.000    5.500 
#    0.000    1.875    0.000   12.000    0.000    0.000 
#    0.000    0.000    0.000    0.000    0.000    0.000 
#
# Total GULP energy -396510.961330 kJ/mol
# GULP energy per Si atom -12390.967542 kJ/mol
# Density = 1.940534 g / cm^3
# Si number density = 19.449611 Si / 1000 Ang^3
#
#
#
# Elastic Constant Matrix: (Units=GPa)
#
#
# Indices 1 2 3 4 5 6 
#
# 1 53.1358 19.3588 35.0221 0.0001 -7.9289 0.0000
# 2 19.3588 78.2523 52.0178 0.0002 -13.5006 0.0000
# 3 35.0221 52.0178 130.2108 0.0001 -1.9217 0.0000
# 4 0.0001 0.0002 0.0001 30.7162 0.0000 -1.7385
# 5 -7.9289 -13.5006 -1.9217 0.0000 25.7089 0.0000
# 6 0.0000 0.0000 0.0000 -1.7385 0.0000 17.6786
#
#
#
# Elastic Compliance Matrix: (Units=1/GPa)
#
#
# Indices 1 2 3 4 5 6 
#
# 1 0.024084 -0.000797 -0.006063 0.000000 0.006556 0.000000
# 2 -0.000797 0.019573 -0.007465 0.000000 0.009475 0.000000
# 3 -0.006063 -0.007465 0.012221 0.000000 -0.004877 0.000000
# 4 0.000000 0.000000 0.000000 0.032738 0.000000 0.003220
# 5 0.006556 0.009475 -0.004877 0.000000 0.045530 0.000000
# 6 0.000000 0.000000 0.000000 0.003220 0.000000 0.056882
#
#
# Mechanical properties :
#
#
# Convention : Reuss Voigt Hill
#
# Bulk Modulus (GPa) = 36.72565 52.71071 44.71818
# Shear Modulus (GPa) = 21.85740 25.16740 23.51240
#
# Velocity S-wave (km/s) = 3.35594 3.60110 3.48068
# Velocity P-wave (km/s) = 5.82580 6.66712 6.26061
#
# Compressibility (1/GPa) = 0.02722892
#
# Stress axis : x y z
#
# Youngs Moduli (GPa) = 41.52075 51.08952 81.82754
#
# Poissons Ratio (x) = 0.04071 0.49610
# Poissons Ratio (y) = 0.03309 0.61086
# Poissons Ratio (z) = 0.25173 0.38139
#
# Static dielectric constant tensor:
#      x y z
#    x 4.340650 0.000000 -0.006420 
#    y 0.000000 3.561230 0.000000 
#    z -0.006420 0.000000 3.920540 
# 
# 
# High freq. dielectric constant tensor:
#      x y z
#    x 1.741170 0.000000 0.009680 
#    y 0.000000 1.741480 0.000000 
#    z 0.009680 0.000000 1.779110 
# 
# From -- ./inp_files/225163.got.cif
#   From: 2010.06.25/outbox.cif.g09.slc.cpg/sg15_113_cif.got.tgz:225163.got - 2010.06.28 07:06:18.
