data_PCOD8133094
_publ_section_title
;
Structure prediction by ZEFSAII (Michael W. Deem and Ramdas Pophale) SiO2 
 PCOD8133094
Probable space group: C 2/C
;
_chemical_formula_sum "Si O2"
_cell_formula_units_Z 64
_cell_length_a 24.809777
_cell_length_b 26.254658
_cell_length_c 10.605381
_cell_angle_alpha 90.000000
_cell_angle_beta 150.766819
_cell_angle_gamma 90.000000
_cell_volume 3373.650768
_symmetry_space_group_name_H-M "C 2/C"
_symmetry_group_IT_number 15
_symmetry_cell_setting 'monoclinic'
loop_
_space_group_symop_operation_xyz
x,y,z
-x,y,1/2-z
-x,-y,-z
x,-y,1/2+z
1/2+x,1/2+y,z
1/2-x,1/2+y,1/2-z
1/2-x,1/2-y,-z
1/2+x,1/2-y,1/2+z
loop_
_atom_site_type_symbol
_atom_site_label
_atom_site_fract_x
_atom_site_fract_y
_atom_site_fract_z
Si Si1 0.752555 0.508437 0.015018
Si Si2 0.099198 0.716511 0.208022
Si Si3 0.907316 0.689230 0.667803
Si Si4 0.229196 0.763777 0.254709
Si Si5 0.871934 0.404954 0.242517
Si Si6 0.268201 0.374437 0.321419
Si Si7 0.124834 0.026153 0.500426
Si Si8 0.120681 0.396267 0.791881
O O1 0.669186 0.512959 0.729077
O O2 0.691097 0.501294 0.022696
O O3 0.833213 0.462322 0.140631
O O4 0.824266 0.559609 0.179862
O O5 0.154024 0.755536 0.223522
O O6 0.141122 0.733936 0.434511
O O7 0.142231 0.658550 0.269560
O O8 0.965535 0.714187 0.913591
O O9 0.797070 0.720524 0.403447
O O10 0.876406 0.629977 0.625184
O O11 0.000000 0.693400 0.750000
O O12 0.190784 0.817783 0.121823
O O13 0.783052 0.375173 0.144937
O O14 0.992082 0.407272 0.550161
O O15 0.371056 0.413091 0.517995
O O16 0.172835 0.396029 0.036382
O O17 0.000000 0.006947 0.250000
#
# Coordination Sequence:
#
# PCOD8133094 Si02
#       8
#     8   8   8   8   8   8   8   8
#     4  10  21  35  56  80 104 139 178 211 265 317
#     4   8  16  29  48  72  96 128 171 209 253 304
#     4   9  18  30  48  72  99 135 171 208 261 311
#     4   9  16  30  48  69  98 130 168 214 251 302
#     4  10  19  32  50  78 110 134 164 211 262 321
#     4   9  19  32  51  75 100 135 177 212 257 308
#     4  10  21  37  54  75 102 137 178 222 258 304
#     4   9  17  33  53  78 106 135 169 214 260 312
#
# _framework density 18.970548000000001
#
# number of rings (size 3 to 8) (size 9 to 14) (size 15 to 20)
#    0.000    2.750    0.000    1.125    0.000    5.000 
#    0.000    2.500    0.000    3.000    0.000    7.000 
#    0.000    0.000    0.000    0.000    0.000    0.000 
#
# Total GULP energy -396468.264766 kJ/mol
# GULP energy per Si atom -12389.633274 kJ/mol
# Density = 1.892737 g / cm^3
# Si number density = 18.970548 Si / 1000 Ang^3
#
#
#
# Elastic Constant Matrix: (Units=GPa)
#
#
# Indices 1 2 3 4 5 6 
#
# 1 41.1444 24.0560 13.0360 0.0000 -3.4303 0.0000
# 2 24.0560 110.2696 35.7048 0.0000 0.9039 0.0000
# 3 13.0360 35.7048 82.4732 0.0000 -2.7790 0.0000
# 4 0.0000 0.0000 0.0000 27.0105 0.0000 -4.5432
# 5 -3.4303 0.9039 -2.7790 0.0000 21.8104 0.0000
# 6 0.0000 0.0000 0.0000 -4.5432 0.0000 25.8400
#
#
#
# Elastic Compliance Matrix: (Units=1/GPa)
#
#
# Indices 1 2 3 4 5 6 
#
# 1 0.028592 -0.005652 -0.001921 0.000000 0.004486 0.000000
# 2 -0.005652 0.011687 -0.004231 0.000000 -0.001912 0.000000
# 3 -0.001921 -0.004231 0.014318 0.000000 0.001697 0.000000
# 4 0.000000 0.000000 0.000000 0.038151 0.000000 0.006708
# 5 0.004486 -0.001912 0.001697 0.000000 0.046851 0.000000
# 6 0.000000 0.000000 0.000000 0.006708 0.000000 0.039879
#
#
# Mechanical properties :
#
#
# Convention : Reuss Voigt Hill
#
# Bulk Modulus (GPa) = 32.26991 42.16455 37.21723
# Shear Modulus (GPa) = 23.42843 25.67153 24.54998
#
# Velocity S-wave (km/s) = 3.51805 3.68262 3.60128
# Velocity P-wave (km/s) = 5.79221 6.35270 6.07892
#
# Compressibility (1/GPa) = 0.03098862
#
# Stress axis : x y z
#
# Youngs Moduli (GPa) = 34.97472 85.56262 69.84395
#
# Poissons Ratio (x) = 0.48362 0.13418
# Poissons Ratio (y) = 0.19769 0.29549
# Poissons Ratio (z) = 0.06719 0.36200
#
# Static dielectric constant tensor:
#      x y z
#    x 3.171120 0.000000 -0.231880 
#    y 0.000000 3.578440 0.000000 
#    z -0.231880 0.000000 3.787750 
# 
# 
# High freq. dielectric constant tensor:
#      x y z
#    x 1.709460 0.000000 -0.015180 
#    y 0.000000 1.740530 0.000000 
#    z -0.015180 0.000000 1.737680 
# 
# From -- ./inp_files/124450.got.cif
#   From: 2010.06.25/outbox.cif.g09.slc.cpg/sg15_63_cif.got.tgz:124450.got - 2010.06.28 07:06:18.
