data_PCOD8133913
_publ_section_title
;
Structure prediction by ZEFSAII (Michael W. Deem and Ramdas Pophale) SiO2 
 PCOD8133913
Probable space group: C 2/C
;
_chemical_formula_sum "Si O2"
_cell_formula_units_Z 56
_cell_length_a 26.054873
_cell_length_b 18.897766
_cell_length_c 8.222138
_cell_angle_alpha 90.000000
_cell_angle_beta 46.391441
_cell_angle_gamma 90.000000
_cell_volume 2931.325495
_symmetry_space_group_name_H-M "C 2/C"
_symmetry_group_IT_number 15
_symmetry_cell_setting 'monoclinic'
loop_
_space_group_symop_operation_xyz
x,y,z
-x,y,1/2-z
-x,-y,-z
x,-y,1/2+z
1/2+x,1/2+y,z
1/2-x,1/2+y,1/2-z
1/2-x,1/2-y,-z
1/2+x,1/2-y,1/2+z
loop_
_atom_site_type_symbol
_atom_site_label
_atom_site_fract_x
_atom_site_fract_y
_atom_site_fract_z
Si Si1 0.031219 0.756421 0.503665
Si Si2 0.066613 0.600428 0.372970
Si Si3 0.500000 0.001293 0.250000
Si Si4 0.721094 0.528927 0.994478
Si Si5 0.000000 0.842836 0.250000
Si Si6 0.811816 0.805457 0.384661
Si Si7 0.350728 0.408388 0.558120
Si Si8 0.280762 0.912825 0.067551
O O1 0.022084 0.672380 0.494198
O O2 0.994554 0.795509 0.428359
O O3 0.113773 0.774886 0.334284
O O4 0.000000 0.777559 0.750000
O O5 0.060932 0.550841 0.544913
O O6 0.035637 0.552918 0.298870
O O7 0.146806 0.623580 0.151427
O O8 0.673646 0.582596 0.203246
O O9 0.774957 0.487879 0.992420
O O10 0.669304 0.478603 0.001205
O O11 0.776620 0.575009 0.768701
O O12 0.934571 0.896159 0.376116
O O13 0.750000 0.750000 0.500000
O O14 0.814828 0.837509 0.561082
O O15 0.790395 0.869317 0.314248
#
# Coordination Sequence:
#
# PCOD8133913 Si02
#       8
#     8   8   4   8   4   8   8   8
#     4  11  23  40  61  85 118 163 196 244 299 352
#     4  11  20  38  55  82 112 151 195 243 295 349
#     4  10  23  34  56  82 113 148 196 242 296 358
#     4   9  19  36  56  87 113 145 188 240 298 346
#     4  10  23  40  58  88 121 156 200 242 290 362
#     4  10  20  38  58  83 113 153 197 239 291 348
#     4   9  20  37  59  84 118 151 192 245 292 354
#     4  10  19  34  60  80 114 147 188 241 288 344
#
# _framework density 19.103985000000002
#
# number of rings (size 3 to 8) (size 9 to 14) (size 15 to 20)
#    0.000    2.000    2.143    1.286    2.000    0.571 
#    0.000    3.571    0.000    0.000    0.000    0.000 
#    0.000    0.000    0.000    0.000    0.000    0.000 
#
# Total GULP energy -346970.297993 kJ/mol
# GULP energy per Si atom -12391.796357 kJ/mol
# Density = 1.906050 g / cm^3
# Si number density = 19.103985 Si / 1000 Ang^3
#
#
#
# Elastic Constant Matrix: (Units=GPa)
#
#
# Indices 1 2 3 4 5 6 
#
# 1 73.8429 20.5653 52.0497 0.0000 6.6234 0.0000
# 2 20.5653 55.1368 45.8153 0.0000 6.3596 0.0000
# 3 52.0497 45.8153 126.2452 0.0000 17.7512 0.0000
# 4 0.0000 0.0000 0.0000 32.0270 0.0000 -3.1603
# 5 6.6234 6.3596 17.7512 0.0000 36.4764 0.0000
# 6 0.0000 0.0000 0.0000 -3.1603 0.0000 21.1680
#
#
#
# Elastic Compliance Matrix: (Units=1/GPa)
#
#
# Indices 1 2 3 4 5 6 
#
# 1 0.019122 -0.000831 -0.007637 0.000000 0.000389 0.000000
# 2 -0.000831 0.026003 -0.009101 0.000000 0.000046 0.000000
# 3 -0.007637 -0.009101 0.014979 0.000000 -0.004316 0.000000
# 4 0.000000 0.000000 0.000000 0.031690 0.000000 0.004731
# 5 0.000389 0.000046 -0.004316 0.000000 0.029437 0.000000
# 6 0.000000 0.000000 0.000000 0.004731 0.000000 0.047947
#
#
# Mechanical properties :
#
#
# Convention : Reuss Voigt Hill
#
# Bulk Modulus (GPa) = 40.05271 54.67618 47.36444
# Shear Modulus (GPa) = 23.51401 27.05391 25.28396
#
# Velocity S-wave (km/s) = 3.51214 3.76725 3.64193
# Velocity P-wave (km/s) = 6.12030 6.89966 6.52163
#
# Compressibility (1/GPa) = 0.02496710
#
# Stress axis : x y z
#
# Youngs Moduli (GPa) = 52.29624 38.45637 66.75905
#
# Poissons Ratio (x) = 0.03197 0.50982
# Poissons Ratio (y) = 0.04348 0.60755
# Poissons Ratio (z) = 0.39937 0.34998
#
# Static dielectric constant tensor:
#      x y z
#    x 3.541700 0.000000 0.141020 
#    y 0.000000 3.832070 0.000000 
#    z 0.141020 0.000000 3.663690 
# 
# 
# High freq. dielectric constant tensor:
#      x y z
#    x 1.741160 0.000000 0.007330 
#    y 0.000000 1.746140 0.000000 
#    z 0.007330 0.000000 1.741580 
# 
# From -- ./inp_files/49053.got.cif
#   From: 2010.06.25/outbox.cif.g09.slc.cpg/sg15_25_cif.got.tgz:49053.got - 2010.06.28 07:06:18.
