data_PCOD8133314
_publ_section_title
;
Structure prediction by ZEFSAII (Michael W. Deem and Ramdas Pophale) SiO2 
 PCOD8133314
Probable space group: C 2/C
;
_chemical_formula_sum "Si O2"
_cell_formula_units_Z 40
_cell_length_a 17.634462
_cell_length_b 15.221740
_cell_length_c 9.902519
_cell_angle_alpha 90.000000
_cell_angle_beta 125.413515
_cell_angle_gamma 90.000000
_cell_volume 2166.332331
_symmetry_space_group_name_H-M "C 2/C"
_symmetry_group_IT_number 15
_symmetry_cell_setting 'monoclinic'
loop_
_space_group_symop_operation_xyz
x,y,z
-x,y,1/2-z
-x,-y,-z
x,-y,1/2+z
1/2+x,1/2+y,z
1/2-x,1/2+y,1/2-z
1/2-x,1/2-y,-z
1/2+x,1/2-y,1/2+z
loop_
_atom_site_type_symbol
_atom_site_label
_atom_site_fract_x
_atom_site_fract_y
_atom_site_fract_z
Si Si1 0.237297 0.931271 0.105983
Si Si2 0.904730 0.532806 0.343219
Si Si3 0.256371 0.767910 0.299343
Si Si4 0.101161 0.701278 0.332442
Si Si5 0.729768 0.420115 0.794461
O O1 0.224511 0.832906 0.147652
O O2 0.347706 0.952908 0.215151
O O3 0.186356 0.004825 0.149185
O O4 0.195008 0.935968 0.911351
O O5 0.921690 0.605329 0.247234
O O6 0.842405 0.573488 0.400849
O O7 0.000000 0.500000 0.500000
O O8 0.164881 0.757688 0.297299
O O9 0.341272 0.811409 0.469722
O O10 0.297577 0.677010 0.283710
O O11 0.000000 0.747816 0.250000
#
# Coordination Sequence:
#
# PCOD8133314 Si02
#       5
#     8   8   8   8   8
#     4  10  19  33  52  81 113 151 191 232 285 348
#     4   9  19  29  51  84 119 144 177 235 297 353
#     4  10  20  35  56  81 120 154 193 234 287 352
#     4  10  20  34  56  86 116 150 191 235 293 349
#     4   9  21  32  52  83 109 154 192 228 291 338
#
# _framework density 18.464386999999999
#
# number of rings (size 3 to 8) (size 9 to 14) (size 15 to 20)
#    1.200    1.200    0.000    3.000    5.600    0.000 
#    0.000    0.000    0.000    4.800    0.000    0.000 
#    0.000    0.000    0.000    0.000    0.000    0.000 
#
# Total GULP energy -247797.228402 kJ/mol
# GULP energy per Si atom -12389.861420 kJ/mol
# Density = 1.842236 g / cm^3
# Si number density = 18.464387 Si / 1000 Ang^3
#
#
#
# Elastic Constant Matrix: (Units=GPa)
#
#
# Indices 1 2 3 4 5 6 
#
# 1 60.4416 16.0421 38.0107 0.0000 -3.4206 0.0000
# 2 16.0421 111.6344 42.8126 0.0000 -15.9820 0.0000
# 3 38.0107 42.8126 101.4696 0.0000 -27.4531 0.0000
# 4 0.0000 0.0000 0.0000 36.0567 0.0000 -0.7961
# 5 -3.4206 -15.9820 -27.4531 0.0000 36.9712 0.0000
# 6 0.0000 0.0000 0.0000 -0.7961 0.0000 16.3681
#
#
#
# Elastic Compliance Matrix: (Units=1/GPa)
#
#
# Indices 1 2 3 4 5 6 
#
# 1 0.022423 -0.000248 -0.009715 0.000000 -0.005246 0.000000
# 2 -0.000248 0.010765 -0.004000 0.000000 0.001660 0.000000
# 3 -0.009715 -0.004000 0.018109 0.000000 0.010819 0.000000
# 4 0.000000 0.000000 0.000000 0.027764 0.000000 0.001350
# 5 -0.005246 0.001660 0.010819 0.000000 0.035314 0.000000
# 6 0.000000 0.000000 0.000000 0.001350 0.000000 0.061160
#
#
# Mechanical properties :
#
#
# Convention : Reuss Voigt Hill
#
# Bulk Modulus (GPa) = 42.78491 51.91958 47.35225
# Shear Modulus (GPa) = 23.66849 29.65788 26.66319
#
# Velocity S-wave (km/s) = 3.58417 4.01212 3.80417
# Velocity P-wave (km/s) = 6.35219 7.04575 6.70794
#
# Compressibility (1/GPa) = 0.02337273
#
# Stress axis : x y z
#
# Youngs Moduli (GPa) = 44.59694 92.89207 55.22071
#
# Poissons Ratio (x) = 0.02301 0.53645
# Poissons Ratio (y) = 0.01105 0.22089
# Poissons Ratio (z) = 0.43324 0.37158
#
# Static dielectric constant tensor:
#      x y z
#    x 3.187630 0.000000 -0.198020 
#    y 0.000000 3.334600 0.000000 
#    z -0.198020 0.000000 3.195680 
# 
# 
# High freq. dielectric constant tensor:
#      x y z
#    x 1.687420 0.000000 -0.024710 
#    y 0.000000 1.714680 0.000000 
#    z -0.024710 0.000000 1.703130 
# 
# From -- ./inp_files/48156.got.cif
#   From: 2010.06.25/outbox.cif.g09.slc.cpg/sg15_25_cif.got.tgz:48156.got - 2010.06.28 07:06:18.
