data_PCOD8133561
_publ_section_title
;
Structure prediction by ZEFSAII (Michael W. Deem and Ramdas Pophale) SiO2 
 PCOD8133561
Probable space group: C 2/C
;
_chemical_formula_sum "Si O2"
_cell_formula_units_Z 48
_cell_length_a 9.129067
_cell_length_b 28.371783
_cell_length_c 8.968414
_cell_angle_alpha 90.000000
_cell_angle_beta 90.053423
_cell_angle_gamma 90.000000
_cell_volume 2322.889138
_symmetry_space_group_name_H-M "C 2/C"
_symmetry_group_IT_number 15
_symmetry_cell_setting 'monoclinic'
loop_
_space_group_symop_operation_xyz
x,y,z
-x,y,1/2-z
-x,-y,-z
x,-y,1/2+z
1/2+x,1/2+y,z
1/2-x,1/2+y,1/2-z
1/2-x,1/2-y,-z
1/2+x,1/2-y,1/2+z
loop_
_atom_site_type_symbol
_atom_site_label
_atom_site_fract_x
_atom_site_fract_y
_atom_site_fract_z
Si Si1 0.167331 0.064727 0.935119
Si Si2 0.842523 0.096377 0.020335
Si Si3 0.845431 0.771637 0.319330
Si Si4 0.134815 0.196646 0.351632
Si Si5 0.168588 0.975445 0.748485
Si Si6 0.174024 0.636849 0.747767
O O1 0.264732 0.111022 0.901753
O O2 0.997461 0.079317 0.951033
O O3 0.188483 0.030098 0.792035
O O4 0.227762 0.037565 0.083273
O O5 0.732044 0.108220 0.889239
O O6 0.861417 0.140744 0.130276
O O7 0.762452 0.056650 0.120428
O O8 0.878991 0.776444 0.493157
O O9 0.782582 0.719485 0.279733
O O10 0.731772 0.809987 0.254714
O O11 0.000000 0.781030 0.250000
O O12 0.000000 0.211338 0.250000
O O13 0.000000 0.960711 0.750000
O O14 0.000000 0.636724 0.750000
#
# Coordination Sequence:
#
# PCOD8133561 Si02
#       6
#     8   8   8   8   8   8
#     4  11  20  36  62  88 116 153 194 240 290 343
#     4  10  20  37  58  84 118 151 192 239 286 342
#     4  10  22  39  61  86 115 153 196 239 289 348
#     4  10  20  37  58  87 120 150 189 241 290 340
#     4  10  19  33  59  91 116 146 194 240 284 342
#     4  11  22  38  58  82 114 154 197 242 292 345
#
# _framework density 20.663921999999999
#
# number of rings (size 3 to 8) (size 9 to 14) (size 15 to 20)
#    0.000    1.667    0.000    8.500    0.000    0.667 
#    0.000   14.167    0.000    0.000    0.000    0.000 
#    0.000    0.000    0.000    0.000    0.000    0.000 
#
# Total GULP energy -297467.668080 kJ/mol
# GULP energy per Si atom -12394.486170 kJ/mol
# Density = 2.061689 g / cm^3
# Si number density = 20.663922 Si / 1000 Ang^3
#
#
#
# Elastic Constant Matrix: (Units=GPa)
#
#
# Indices 1 2 3 4 5 6 
#
# 1 116.7049 40.5401 43.7500 0.0000 2.8336 0.0000
# 2 40.5401 116.6760 41.4365 0.0000 4.3233 0.0000
# 3 43.7500 41.4365 77.7011 0.0000 -6.3128 0.0000
# 4 0.0000 0.0000 0.0000 23.6045 0.0000 -0.6517
# 5 2.8336 4.3233 -6.3128 0.0000 11.4554 0.0000
# 6 0.0000 0.0000 0.0000 -0.6517 0.0000 48.9098
#
#
#
# Elastic Compliance Matrix: (Units=1/GPa)
#
#
# Indices 1 2 3 4 5 6 
#
# 1 0.011557 -0.001648 -0.006082 0.000000 -0.005588 0.000000
# 2 -0.001648 0.011449 -0.005753 0.000000 -0.007083 0.000000
# 3 -0.006082 -0.005753 0.020582 0.000000 0.015018 0.000000
# 4 0.000000 0.000000 0.000000 0.042380 0.000000 0.000565
# 5 -0.005588 -0.007083 0.015018 0.000000 0.099626 0.000000
# 6 0.000000 0.000000 0.000000 0.000565 0.000000 0.020453
#
#
# Mechanical properties :
#
#
# Convention : Reuss Voigt Hill
#
# Bulk Modulus (GPa) = 60.16295 62.50391 61.33343
# Shear Modulus (GPa) = 20.95942 29.15096 25.05519
#
# Velocity S-wave (km/s) = 3.18826 3.76003 3.48589
# Velocity P-wave (km/s) = 6.53694 7.01170 6.77848
#
# Compressibility (1/GPa) = 0.01662153
#
# Stress axis : x y z
#
# Youngs Moduli (GPa) = 86.52767 87.34328 48.58509
#
# Poissons Ratio (x) = 0.14398 0.29550
# Poissons Ratio (y) = 0.14264 0.27950
# Poissons Ratio (z) = 0.52627 0.50247
#
# Static dielectric constant tensor:
#      x y z
#    x 3.489250 0.000000 -0.050300 
#    y 0.000000 3.990960 0.000000 
#    z -0.050300 0.000000 4.046460 
# 
# 
# High freq. dielectric constant tensor:
#      x y z
#    x 1.766040 0.000000 0.009550 
#    y 0.000000 1.825340 0.000000 
#    z 0.009550 0.000000 1.818120 
# 
# From -- ./inp_files/26054.got.cif
#   From: 2010.06.25/outbox.cif.g09.slc.cpg/sg15_14_cif.got.tgz:26054.got - 2010.06.28 07:06:18.
