data_PCOD8133027
_publ_section_title
;
Structure prediction by ZEFSAII (Michael W. Deem and Ramdas Pophale) SiO2 
 PCOD8133027
Probable space group: C 2/C
;
_chemical_formula_sum "Si O2"
_cell_formula_units_Z 56
_cell_length_a 16.598466
_cell_length_b 11.504508
_cell_length_c 22.137954
_cell_angle_alpha 90.000000
_cell_angle_beta 141.247888
_cell_angle_gamma 90.000000
_cell_volume 2646.151273
_symmetry_space_group_name_H-M "C 2/C"
_symmetry_group_IT_number 15
_symmetry_cell_setting 'monoclinic'
loop_
_space_group_symop_operation_xyz
x,y,z
-x,y,1/2-z
-x,-y,-z
x,-y,1/2+z
1/2+x,1/2+y,z
1/2-x,1/2+y,1/2-z
1/2-x,1/2-y,-z
1/2+x,1/2-y,1/2+z
loop_
_atom_site_type_symbol
_atom_site_label
_atom_site_fract_x
_atom_site_fract_y
_atom_site_fract_z
Si Si1 0.329768 0.711154 0.203204
Si Si2 0.876084 0.395257 0.485492
Si Si3 0.768785 0.091186 0.051593
Si Si4 0.575512 0.349252 0.527496
Si Si5 0.693118 0.565147 0.644617
Si Si6 0.054709 0.776624 0.923998
Si Si7 0.152942 0.526754 0.156135
O O1 0.356242 0.636865 0.158410
O O2 0.252573 0.829364 0.139886
O O3 0.461649 0.743061 0.312838
O O4 0.242077 0.638019 0.197798
O O5 0.764078 0.453585 0.461700
O O6 0.860767 0.255860 0.472939
O O7 0.861759 0.445901 0.410326
O O8 0.014236 0.425325 0.595068
O O9 0.845522 0.118470 0.034853
O O10 0.631486 0.156760 0.977047
O O11 0.686227 0.446364 0.601459
O O12 0.453368 0.403650 0.420364
O O13 0.523445 0.306090 0.561942
O O14 0.784046 0.552214 0.755558
#
# Coordination Sequence:
#
# PCOD8133027 Si02
#       7
#     8   8   8   8   8   8   8
#     4  11  19  35  54  85 112 146 195 244 292 341
#     4  10  19  36  54  83 115 148 196 243 296 354
#     4  10  22  35  57  82 114 158 193 236 300 365
#     4  11  21  35  56  85 118 146 193 248 294 348
#     4  11  21  32  54  85 114 147 187 246 295 345
#     4  11  20  37  55  84 117 151 195 244 298 349
#     4  10  19  31  55  79 110 146 187 245 296 336
#
# _framework density 21.162811000000001
#
# number of rings (size 3 to 8) (size 9 to 14) (size 15 to 20)
#    0.000    1.429    4.286    3.857    0.000    0.000 
#    0.000    0.000    0.000    3.429    0.000    4.000 
#    0.000    0.000    0.000    0.000    0.000    0.000 
#
# Total GULP energy -347142.227579 kJ/mol
# GULP energy per Si atom -12397.936699 kJ/mol
# Density = 2.111464 g / cm^3
# Si number density = 21.162811 Si / 1000 Ang^3
#
#
#
# Elastic Constant Matrix: (Units=GPa)
#
#
# Indices 1 2 3 4 5 6 
#
# 1 41.3516 23.6336 -9.8909 0.0000 0.6880 0.0000
# 2 23.6336 135.2848 11.4422 0.0000 6.9584 0.0000
# 3 -9.8909 11.4422 99.9080 0.0000 -2.0171 0.0000
# 4 0.0000 0.0000 0.0000 27.9735 0.0000 0.7801
# 5 0.6880 6.9584 -2.0171 0.0000 14.3504 0.0000
# 6 0.0000 0.0000 0.0000 0.7801 0.0000 27.9223
#
#
#
# Elastic Compliance Matrix: (Units=1/GPa)
#
#
# Indices 1 2 3 4 5 6 
#
# 1 0.027977 -0.005263 0.003407 0.000000 0.001689 0.000000
# 2 -0.005263 0.008661 -0.001597 0.000000 -0.004172 0.000000
# 3 0.003407 -0.001597 0.010572 0.000000 0.002097 0.000000
# 4 0.000000 0.000000 0.000000 0.035776 0.000000 -0.001000
# 5 0.001689 -0.004172 0.002097 0.000000 0.071921 0.000000
# 6 0.000000 0.000000 0.000000 -0.001000 0.000000 0.035842
#
#
# Mechanical properties :
#
#
# Convention : Reuss Voigt Hill
#
# Bulk Modulus (GPa) = 24.81166 36.32381 30.56773
# Shear Modulus (GPa) = 23.68666 30.80653 27.24660
#
# Velocity S-wave (km/s) = 3.34916 3.81949 3.59203
# Velocity P-wave (km/s) = 5.16773 6.05414 5.62841
#
# Compressibility (1/GPa) = 0.04030364
#
# Stress axis : x y z
#
# Youngs Moduli (GPa) = 35.74330 115.46263 94.59207
#
# Poissons Ratio (x) = 0.60762 -0.32223
# Poissons Ratio (y) = 0.18810 0.15107
# Poissons Ratio (z) = -0.12176 0.18441
#
# Static dielectric constant tensor:
#      x y z
#    x 3.405340 0.000000 0.092710 
#    y 0.000000 3.989470 0.000000 
#    z 0.092710 0.000000 4.007060 
# 
# 
# High freq. dielectric constant tensor:
#      x y z
#    x 1.779140 0.000000 0.004700 
#    y 0.000000 1.830250 0.000000 
#    z 0.004700 0.000000 1.847140 
# 
# From -- ./inp_files/277124.got.cif
#   From: 2010.06.25/outbox.cif.g09.slc.cpg/sg15_139_cif.got.tgz:277124.got - 2010.06.28 07:06:18.
