data_PCOD8133232
_publ_section_title
;
Structure prediction by ZEFSAII (Michael W. Deem and Ramdas Pophale) SiO2 
 PCOD8133232
Probable space group: C 2/C
;
_chemical_formula_sum "Si O2"
_cell_formula_units_Z 64
_cell_length_a 6.781072
_cell_length_b 21.944233
_cell_length_c 23.223162
_cell_angle_alpha 90.000000
_cell_angle_beta 76.144336
_cell_angle_gamma 90.000000
_cell_volume 3355.177846
_symmetry_space_group_name_H-M "C 2/C"
_symmetry_group_IT_number 15
_symmetry_cell_setting 'monoclinic'
loop_
_space_group_symop_operation_xyz
x,y,z
-x,y,1/2-z
-x,-y,-z
x,-y,1/2+z
1/2+x,1/2+y,z
1/2-x,1/2+y,1/2-z
1/2-x,1/2-y,-z
1/2+x,1/2-y,1/2+z
loop_
_atom_site_type_symbol
_atom_site_label
_atom_site_fract_x
_atom_site_fract_y
_atom_site_fract_z
Si Si1 0.301343 0.739295 0.619274
Si Si2 0.962068 0.171601 0.188345
Si Si3 0.138959 0.232969 0.687955
Si Si4 0.918009 0.078427 0.413509
Si Si5 0.562745 0.165016 0.475132
Si Si6 0.023818 0.347665 0.388707
Si Si7 0.132795 0.524064 0.914275
Si Si8 0.700278 0.065738 0.039205
O O1 0.140382 0.781021 0.663215
O O2 0.506538 0.736147 0.640178
O O3 0.363142 0.769908 0.553943
O O4 0.202958 0.671974 0.617170
O O5 0.968088 0.116071 0.143602
O O6 0.000000 0.146740 0.250000
O O7 0.740387 0.202366 0.197596
O O8 0.316692 0.185918 0.662858
O O9 0.000000 0.209405 0.750000
O O10 0.745182 0.115550 0.460060
O O11 0.073489 0.059830 0.452846
O O12 0.828193 0.018502 0.387408
O O13 0.474336 0.174638 0.545186
O O14 0.383838 0.135262 0.447956
O O15 0.085094 0.418352 0.376525
O O16 0.935198 0.483032 0.917746
O O17 0.176416 0.549648 0.974223
#
# Coordination Sequence:
#
# PCOD8133232 Si02
#       8
#     8   8   8   8   8   8   8   8
#     4  10  20  35  56  78 110 141 177 229 274 329
#     4  10  20  37  57  81 106 133 181 242 276 326
#     4  11  22  37  58  79 100 146 191 219 277 334
#     4  10  19  32  58  82 108 146 180 223 284 330
#     4   9  19  34  51  85 115 136 176 227 281 327
#     4  10  22  34  52  79 113 147 180 223 267 329
#     4   9  19  34  49  79 114 145 182 219 265 332
#     4   9  17  32  55  78 113 148 179 219 268 337
#
# _framework density 19.074995999999999
#
# number of rings (size 3 to 8) (size 9 to 14) (size 15 to 20)
#    0.000    2.250    1.250    2.250    0.000    3.500 
#    0.000    0.625    0.000    1.500    0.000    0.000 
#    0.000    0.000    0.000    0.000    0.000    0.000 
#
# Total GULP energy -396541.398088 kJ/mol
# GULP energy per Si atom -12391.918690 kJ/mol
# Density = 1.903158 g / cm^3
# Si number density = 19.074996 Si / 1000 Ang^3
#
#
#
# Elastic Constant Matrix: (Units=GPa)
#
#
# Indices 1 2 3 4 5 6 
#
# 1 103.0140 40.0488 15.4354 0.0000 7.3045 0.0000
# 2 40.0488 90.8679 19.6113 0.0000 -2.9757 0.0000
# 3 15.4354 19.6113 73.0392 0.0000 -15.1646 0.0000
# 4 0.0000 0.0000 0.0000 15.0623 0.0000 1.0431
# 5 7.3045 -2.9757 -15.1646 0.0000 27.7646 0.0000
# 6 0.0000 0.0000 0.0000 1.0431 0.0000 22.4990
#
#
#
# Elastic Compliance Matrix: (Units=1/GPa)
#
#
# Indices 1 2 3 4 5 6 
#
# 1 0.012409 -0.005140 -0.002295 0.000000 -0.005069 0.000000
# 2 -0.005140 0.013818 -0.002296 0.000000 0.001579 0.000000
# 3 -0.002295 -0.002296 0.016769 0.000000 0.009516 0.000000
# 4 0.000000 0.000000 0.000000 0.066605 0.000000 -0.003088
# 5 -0.005069 0.001579 0.009516 0.000000 0.042718 0.000000
# 6 0.000000 0.000000 0.000000 -0.003088 0.000000 0.044590
#
#
# Mechanical properties :
#
#
# Convention : Reuss Voigt Hill
#
# Bulk Modulus (GPa) = 42.49190 46.34577 44.41884
# Shear Modulus (GPa) = 22.30024 25.85353 24.07688
#
# Velocity S-wave (km/s) = 3.42289 3.68552 3.55663
# Velocity P-wave (km/s) = 6.16005 6.51614 6.34059
#
# Compressibility (1/GPa) = 0.02353390
#
# Stress axis : x y z
#
# Youngs Moduli (GPa) = 80.58748 72.37190 59.63546
#
# Poissons Ratio (x) = 0.37198 0.13685
# Poissons Ratio (y) = 0.41420 0.13692
# Poissons Ratio (z) = 0.18493 0.16617
#
# Static dielectric constant tensor:
#      x y z
#    x 3.625330 0.000000 -0.079420 
#    y 0.000000 3.652820 0.000000 
#    z -0.079420 0.000000 3.220240 
# 
# 
# High freq. dielectric constant tensor:
#      x y z
#    x 1.751630 0.000000 -0.004360 
#    y 0.000000 1.733490 0.000000 
#    z -0.004360 0.000000 1.714600 
# 
# From -- ./inp_files/261677.got.cif
#   From: 2010.06.25/outbox.cif.g09.slc.cpg/sg15_131_cif.got.tgz:261677.got - 2010.06.28 07:06:18.
