data_PCOD8133321
_publ_section_title
;
Structure prediction by ZEFSAII (Michael W. Deem and Ramdas Pophale) SiO2 
 PCOD8133321
Probable space group: C 2/C
;
_chemical_formula_sum "Si O2"
_cell_formula_units_Z 56
_cell_length_a 8.359084
_cell_length_b 14.478358
_cell_length_c 25.494244
_cell_angle_alpha 90.000000
_cell_angle_beta 70.859774
_cell_angle_gamma 90.000000
_cell_volume 2914.893986
_symmetry_space_group_name_H-M "C 2/C"
_symmetry_group_IT_number 15
_symmetry_cell_setting 'monoclinic'
loop_
_space_group_symop_operation_xyz
x,y,z
-x,y,1/2-z
-x,-y,-z
x,-y,1/2+z
1/2+x,1/2+y,z
1/2-x,1/2+y,1/2-z
1/2-x,1/2-y,-z
1/2+x,1/2-y,1/2+z
loop_
_atom_site_type_symbol
_atom_site_label
_atom_site_fract_x
_atom_site_fract_y
_atom_site_fract_z
Si Si1 0.780369 0.938697 0.107372
Si Si2 0.790712 0.775478 0.607372
Si Si3 0.856803 0.586781 0.107372
Si Si4 0.848235 0.916667 0.401765
Si Si5 0.183512 0.250000 0.066488
Si Si6 0.434517 0.916667 0.815483
Si Si7 0.782823 0.416667 0.967177
O O1 0.695547 0.850787 0.089804
O O2 0.949213 0.912389 0.120775
O O3 0.646784 0.983622 0.162271
O O4 0.825869 0.011839 0.056450
O O5 0.725648 0.671200 0.620775
O O6 0.707767 0.837283 0.662271
O O7 0.734633 0.814760 0.556450
O O8 0.991340 0.782718 0.589804
O O9 0.712814 0.508812 0.120775
O O10 0.793701 0.681931 0.089804
O O11 0.908634 0.603661 0.162271
O O12 0.020149 0.552921 0.056450
O O13 0.782239 0.916667 0.467761
O O14 0.250000 0.250000 0.000000
O O15 0.500000 0.916667 0.750000
#
# Coordination Sequence:
#
# PCOD8133321 Si02
#       7
#     8   8   8   8   8   8   8
#     4  10  21  35  56  85 115 154 196 230 280 348
#     4  10  21  35  56  85 115 154 196 230 280 348
#     4  10  21  35  56  85 115 154 196 230 280 348
#     4  12  19  34  55  86 121 148 181 228 280 350
#     4  12  21  36  58  92 130 159 183 231 292 362
#     4  10  23  46  63  78 108 148 200 262 298 326
#     4  10  19  33  52  83 121 159 184 223 277 338
#
# _framework density 19.211677000000002
#
# number of rings (size 3 to 8) (size 9 to 14) (size 15 to 20)
#    0.000    1.714    0.000    9.000    0.000    0.000 
#    0.000    8.571    0.000    0.000    0.000    0.000 
#    0.000    0.000    0.000    0.000    0.000    0.000 
#
# Total GULP energy -347253.909190 kJ/mol
# GULP energy per Si atom -12401.925328 kJ/mol
# Density = 1.916795 g / cm^3
# Si number density = 19.211677 Si / 1000 Ang^3
#
#
#
# Elastic Constant Matrix: (Units=GPa)
#
#
# Indices 1 2 3 4 5 6 
#
# 1 105.6555 28.4694 51.1377 0.0000 -1.9522 0.0000
# 2 28.4694 105.6904 51.1014 0.0000 1.9652 0.0000
# 3 51.1377 51.1014 147.6351 0.0000 0.2824 0.0000
# 4 0.0000 0.0000 0.0000 17.3396 0.0000 1.7643
# 5 -1.9522 1.9652 0.2824 0.0000 17.3749 0.0000
# 6 0.0000 0.0000 0.0000 1.7643 0.0000 38.6359
#
#
#
# Elastic Compliance Matrix: (Units=1/GPa)
#
#
# Indices 1 2 3 4 5 6 
#
# 1 0.011584 -0.001450 -0.003514 0.000000 0.001523 0.000000
# 2 -0.001450 0.011571 -0.003500 0.000000 -0.001415 0.000000
# 3 -0.003514 -0.003500 0.009202 0.000000 -0.000148 0.000000
# 4 0.000000 0.000000 0.000000 0.057941 0.000000 -0.002646
# 5 0.001523 -0.001415 -0.000148 0.000000 0.057888 0.000000
# 6 0.000000 0.000000 0.000000 -0.002646 0.000000 0.026004
#
#
# Mechanical properties :
#
#
# Convention : Reuss Voigt Hill
#
# Bulk Modulus (GPa) = 64.80858 68.93312 66.87085
# Shear Modulus (GPa) = 25.47644 29.88823 27.68233
#
# Velocity S-wave (km/s) = 3.64550 3.94856 3.80005
# Velocity P-wave (km/s) = 7.17822 7.53305 7.35777
#
# Compressibility (1/GPa) = 0.01543006
#
# Stress axis : x y z
#
# Youngs Moduli (GPa) = 86.32520 86.42481 108.66891
#
# Poissons Ratio (x) = 0.12530 0.38181
# Poissons Ratio (y) = 0.12516 0.38035
# Poissons Ratio (z) = 0.30331 0.30250
#
# Static dielectric constant tensor:
#      x y z
#    x 3.689130 0.000000 -0.002750 
#    y 0.000000 3.689140 0.000000 
#    z -0.002750 0.000000 3.086820 
# 
# 
# High freq. dielectric constant tensor:
#      x y z
#    x 1.763290 0.000000 -0.000280 
#    y 0.000000 1.763290 0.000000 
#    z -0.000280 0.000000 1.703130 
# 
# From -- ./inp_files/288378.got.cif
#   From: 2010.06.25/outbox.cif.g09.slc.cpg/sg15_145_cif.got.tgz:288378.got - 2010.06.28 07:06:18.
