data_PCOD8133062
_publ_section_title
;
Structure prediction by ZEFSAII (Michael W. Deem and Ramdas Pophale) SiO2 
 PCOD8133062
Probable space group: C 2/C
;
_chemical_formula_sum "Si O2"
_cell_formula_units_Z 60
_cell_length_a 26.830507
_cell_length_b 12.657062
_cell_length_c 12.333501
_cell_angle_alpha 90.000000
_cell_angle_beta 55.577315
_cell_angle_gamma 90.000000
_cell_volume 3454.968292
_symmetry_space_group_name_H-M "C 2/C"
_symmetry_group_IT_number 15
_symmetry_cell_setting 'monoclinic'
loop_
_space_group_symop_operation_xyz
x,y,z
-x,y,1/2-z
-x,-y,-z
x,-y,1/2+z
1/2+x,1/2+y,z
1/2-x,1/2+y,1/2-z
1/2-x,1/2-y,-z
1/2+x,1/2-y,1/2+z
loop_
_atom_site_type_symbol
_atom_site_label
_atom_site_fract_x
_atom_site_fract_y
_atom_site_fract_z
Si Si1 0.348696 0.459763 0.792198
Si Si2 0.939246 0.976802 0.510763
Si Si3 0.000000 0.851753 0.250000
Si Si4 0.288091 0.230997 0.561118
Si Si5 0.616507 0.298987 0.200688
Si Si6 0.342720 0.376625 0.035522
Si Si7 0.817212 0.681554 0.193396
Si Si8 0.239426 0.481170 0.300433
O O1 0.396174 0.410513 0.646459
O O2 0.365521 0.583577 0.785090
O O3 0.352145 0.392799 0.896938
O O4 0.280764 0.451400 0.831963
O O5 0.902103 0.082456 0.525734
O O6 0.000000 0.000000 0.500000
O O7 0.954188 0.919882 0.379545
O O8 0.044051 0.784988 0.274854
O O9 0.250000 0.250000 0.500000
O O10 0.354527 0.275876 0.453839
O O11 0.253745 0.294408 0.697244
O O12 0.292780 0.109621 0.590615
O O13 0.639857 0.212355 0.258289
O O14 0.337897 0.251217 0.064679
O O15 0.282083 0.436446 0.151456
O O16 0.815955 0.555760 0.172847
#
# Coordination Sequence:
#
# PCOD8133062 Si02
#       8
#     8   8   4   8   8   8   8   8
#     4  11  19  31  50  77 111 148 171 219 274 333
#     4  11  18  31  48  77 109 144 180 217 277 322
#     4  12  22  32  56  82 106 148 188 228 274 328
#     4   9  17  32  53  77 104 142 179 219 264 319
#     4  11  19  34  54  79 106 140 189 226 267 326
#     4  10  19  32  48  75 114 147 171 226 272 329
#     4  10  19  33  51  78 109 145 177 219 276 330
#     4  10  20  31  53  79 105 147 179 214 278 325
#
# _framework density 17.366294
#
# number of rings (size 3 to 8) (size 9 to 14) (size 15 to 20)
#    0.000    1.600    8.000    0.800    3.733    0.533 
#    0.000    0.000    0.000    0.800    0.000    2.800 
#    0.000    0.000    0.000    0.000    0.000    0.000 
#
# Total GULP energy -371714.715470 kJ/mol
# GULP energy per Si atom -12390.490516 kJ/mol
# Density = 1.732677 g / cm^3
# Si number density = 17.366294 Si / 1000 Ang^3
#
#
#
# Elastic Constant Matrix: (Units=GPa)
#
#
# Indices 1 2 3 4 5 6 
#
# 1 66.8476 28.1153 15.7440 0.0000 -4.5034 0.0000
# 2 28.1153 77.1527 32.9334 0.0000 -1.2642 0.0000
# 3 15.7440 32.9334 108.9317 0.0000 6.9242 0.0000
# 4 0.0000 0.0000 0.0000 26.5917 0.0000 5.9476
# 5 -4.5034 -1.2642 6.9242 0.0000 25.0847 0.0000
# 6 0.0000 0.0000 0.0000 5.9476 0.0000 21.3489
#
#
#
# Elastic Compliance Matrix: (Units=1/GPa)
#
#
# Indices 1 2 3 4 5 6 
#
# 1 0.017958 -0.006083 -0.000959 0.000000 0.003182 0.000000
# 2 -0.006083 0.017044 -0.004335 0.000000 0.000964 0.000000
# 3 -0.000959 -0.004335 0.010844 0.000000 -0.003384 0.000000
# 4 0.000000 0.000000 0.000000 0.040105 0.000000 -0.011173
# 5 0.003182 0.000964 -0.003384 0.000000 0.041419 0.000000
# 6 0.000000 0.000000 0.000000 -0.011173 0.000000 0.049953
#
#
# Mechanical properties :
#
#
# Convention : Reuss Voigt Hill
#
# Bulk Modulus (GPa) = 43.30244 45.16860 44.23552
# Shear Modulus (GPa) = 24.06457 26.34767 25.20612
#
# Velocity S-wave (km/s) = 3.72655 3.89932 3.81391
# Velocity P-wave (km/s) = 6.59584 6.80725 6.70238
#
# Compressibility (1/GPa) = 0.02309339
#
# Stress axis : x y z
#
# Youngs Moduli (GPa) = 55.68582 58.67105 92.21372
#
# Poissons Ratio (x) = 0.35688 0.08841
# Poissons Ratio (y) = 0.33872 0.39976
# Poissons Ratio (z) = 0.05339 0.25434
#
# Static dielectric constant tensor:
#      x y z
#    x 3.234630 0.000000 -0.059130 
#    y 0.000000 3.005240 0.000000 
#    z -0.059130 0.000000 3.752140 
# 
# 
# High freq. dielectric constant tensor:
#      x y z
#    x 1.661140 0.000000 0.010500 
#    y 0.000000 1.628080 0.000000 
#    z 0.010500 0.000000 1.679230 
# 
# From -- ./inp_files/126623.got.cif
#   From: 2010.06.25/outbox.cif.g09.slc.cpg/sg15_64_cif.got.tgz:126623.got - 2010.06.28 07:06:18.
