data_PCOD8133356
_publ_section_title
;
Structure prediction by ZEFSAII (Michael W. Deem and Ramdas Pophale) SiO2 
 PCOD8133356
Probable space group: C 2/C
;
_chemical_formula_sum "Si O2"
_cell_formula_units_Z 52
_cell_length_a 17.314441
_cell_length_b 22.469897
_cell_length_c 19.456660
_cell_angle_alpha 90.000000
_cell_angle_beta 156.981826
_cell_angle_gamma 90.000000
_cell_volume 2959.921879
_symmetry_space_group_name_H-M "C 2/C"
_symmetry_group_IT_number 15
_symmetry_cell_setting 'monoclinic'
loop_
_space_group_symop_operation_xyz
x,y,z
-x,y,1/2-z
-x,-y,-z
x,-y,1/2+z
1/2+x,1/2+y,z
1/2-x,1/2+y,1/2-z
1/2-x,1/2-y,-z
1/2+x,1/2-y,1/2+z
loop_
_atom_site_type_symbol
_atom_site_label
_atom_site_fract_x
_atom_site_fract_y
_atom_site_fract_z
Si Si1 0.271850 0.615682 0.427787
Si Si2 0.500000 0.018444 0.250000
Si Si3 0.534776 0.430956 0.024668
Si Si4 0.952600 0.792147 0.284217
Si Si5 0.172229 0.416386 0.655473
Si Si6 0.513657 0.824265 0.908497
Si Si7 0.950264 0.470485 0.354922
O O1 0.452792 0.601920 0.524777
O O2 0.362229 0.663772 0.553459
O O3 0.073186 0.638812 0.227065
O O4 0.201688 0.557035 0.410731
O O5 0.521318 0.977714 0.335049
O O6 0.769196 0.422899 0.208898
O O7 0.500000 0.500000 0.000000
O O8 0.409361 0.407718 0.856012
O O9 0.946066 0.744282 0.341005
O O10 0.000000 0.760070 0.250000
O O11 0.748877 0.828225 0.110167
O O12 0.073012 0.352802 0.592372
O O13 0.124329 0.438946 0.540230
O O14 0.101404 0.465077 0.654832
#
# Coordination Sequence:
#
# PCOD8133356 Si02
#       7
#     8   4   8   8   8   8   8
#     4  11  22  36  50  73 111 141 180 213 257 303
#     4  12  20  34  54  80 108 140 176 224 254 312
#     4   9  16  35  52  67  95 142 173 212 257 308
#     4  12  24  32  49  71 107 145 178 215 257 299
#     4   9  19  34  53  68  98 137 175 214 253 310
#     4  11  21  36  50  70  98 142 182 214 247 297
#     4  10  19  33  54  73 101 132 179 213 263 308
#
# _framework density 17.568031999999999
#
# number of rings (size 3 to 8) (size 9 to 14) (size 15 to 20)
#    0.000    1.538    6.154    2.308    1.077    0.000 
#    0.000    0.769    0.000    0.000    0.000    0.000 
#    0.000    4.923    0.000    1.231    0.000    0.000 
#
# Total GULP energy -322190.638757 kJ/mol
# GULP energy per Si atom -12391.947645 kJ/mol
# Density = 1.752805 g / cm^3
# Si number density = 17.568032 Si / 1000 Ang^3
#
#
#
# Elastic Constant Matrix: (Units=GPa)
#
#
# Indices 1 2 3 4 5 6 
#
# 1 95.5187 35.9360 40.7581 0.0053 -14.9555 -0.0058
# 2 35.9360 56.9299 28.6668 -0.0002 -4.8061 0.0000
# 3 40.7581 28.6668 99.6670 -0.3052 -4.0397 0.0377
# 4 0.0053 -0.0002 -0.3052 23.8236 -0.0173 4.0160
# 5 -14.9555 -4.8061 -4.0397 -0.0173 21.4206 -0.0023
# 6 -0.0058 0.0000 0.0377 4.0160 -0.0023 23.7177
#
#
#
# Elastic Compliance Matrix: (Units=1/GPa)
#
#
# Indices 1 2 3 4 5 6 
#
# 1 0.016525 -0.007541 -0.004222 -0.000055 0.009049 0.000021
# 2 -0.007541 0.024249 -0.003914 -0.000051 -0.000562 0.000013
# 3 -0.004222 -0.003914 0.012829 0.000173 -0.001406 -0.000051
# 4 -0.000055 -0.000051 0.000173 0.043211 0.000017 -0.007317
# 5 0.009049 -0.000562 -0.001406 0.000017 0.052610 0.000007
# 6 0.000021 0.000013 -0.000051 -0.007317 0.000007 0.043402
#
#
# Mechanical properties :
#
#
# Convention : Reuss Voigt Hill
#
# Bulk Modulus (GPa) = 44.94546 51.42641 48.18593
# Shear Modulus (GPa) = 21.58938 23.57603 22.58270
#
# Velocity S-wave (km/s) = 3.50937 3.66729 3.58920
# Velocity P-wave (km/s) = 6.48538 6.87519 6.68313
#
# Compressibility (1/GPa) = 0.02224919
#
# Stress axis : x y z
#
# Youngs Moduli (GPa) = 60.51601 41.23915 77.94706
#
# Poissons Ratio (x) = 0.31098 0.32910
# Poissons Ratio (y) = 0.45635 0.30506
# Poissons Ratio (z) = 0.25550 0.16140
#
# Static dielectric constant tensor:
#      x y z
#    x 3.016220 -0.000130 -0.018710 
#    y -0.000130 3.106630 -0.000430 
#    z -0.018710 -0.000430 3.864150 
# 
# 
# High freq. dielectric constant tensor:
#      x y z
#    x 1.638690 0.000000 -0.014400 
#    y 0.000000 1.650250 -0.000020 
#    z -0.014400 -0.000020 1.699570 
# 
# From -- ./inp_files/216843.got.cif
#   From: 2010.06.25/outbox.cif.g09.slc.cpg/sg15_109_cif.got.tgz:216843.got - 2010.06.28 07:06:18.
