data_PCOD8133361
_publ_section_title
;
Structure prediction by ZEFSAII (Michael W. Deem and Ramdas Pophale) SiO2 
 PCOD8133361
Probable space group: C 2/C
;
_chemical_formula_sum "Si O2"
_cell_formula_units_Z 64
_cell_length_a 12.150849
_cell_length_b 18.168511
_cell_length_c 19.744869
_cell_angle_alpha 90.000000
_cell_angle_beta 127.980468
_cell_angle_gamma 90.000000
_cell_volume 3435.800904
_symmetry_space_group_name_H-M "C 2/C"
_symmetry_group_IT_number 15
_symmetry_cell_setting 'monoclinic'
loop_
_space_group_symop_operation_xyz
x,y,z
-x,y,1/2-z
-x,-y,-z
x,-y,1/2+z
1/2+x,1/2+y,z
1/2-x,1/2+y,1/2-z
1/2-x,1/2-y,-z
1/2+x,1/2-y,1/2+z
loop_
_atom_site_type_symbol
_atom_site_label
_atom_site_fract_x
_atom_site_fract_y
_atom_site_fract_z
Si Si1 0.069629 0.539286 0.588755
Si Si2 0.624992 0.538314 0.750000
Si Si3 0.875182 0.213286 0.750000
Si Si4 0.896636 0.786092 0.412288
Si Si5 0.427940 0.786092 0.412288
Si Si6 0.905996 0.542361 0.655996
Si Si7 0.107882 0.039286 0.588755
Si Si8 0.095720 0.716764 0.845720
O O1 0.226691 0.510574 0.663888
O O2 0.069531 0.626486 0.578562
O O3 0.000000 0.500000 0.500000
O O4 0.966879 0.513847 0.609092
O O5 0.500000 0.507610 0.750000
O O6 0.625925 0.625754 0.750000
O O7 0.601085 0.510574 0.663888
O O8 0.896706 0.241784 0.834741
O O9 0.727225 0.241784 0.665259
O O10 0.000000 0.243706 0.750000
O O11 0.912407 0.873514 0.421438
O O12 0.755148 0.757705 0.395405
O O13 0.027920 0.750000 0.500000
O O14 0.535662 0.757705 0.395405
O O15 0.751306 0.513847 0.609092
O O16 0.912791 0.629735 0.662791
O O17 0.000000 0.507349 0.750000
O O18 0.000000 0.000000 0.500000
O O19 0.000000 0.751319 0.750000
#
# Coordination Sequence:
#
# PCOD8133361 Si02
#       8
#     8   8   8   8   8   8   8   8
#     4  10  20  33  53  77 101 131 167 207 249 295
#     4   9  18  33  52  73  99 134 172 204 239 294
#     4   9  18  33  52  71  97 138 176 200 233 292
#     4  10  19  33  54  77 101 129 165 209 250 295
#     4  10  19  33  54  77 101 129 165 209 250 295
#     4   9  16  31  53  74  97 132 173 203 236 293
#     4  10  20  33  53  77 101 131 167 207 249 295
#     4   9  15  29  55  78  97 128 166 203 247 295
#
# _framework density 18.627388
#
# number of rings (size 3 to 8) (size 9 to 14) (size 15 to 20)
#    0.000    2.500    2.500    0.375    1.750    0.500 
#    0.000    1.250    0.000    0.000    0.000    0.000 
#    0.000    0.000    0.000    0.000    0.000    0.000 
#
# Total GULP energy -396674.795944 kJ/mol
# GULP energy per Si atom -12396.087373 kJ/mol
# Density = 1.858499 g / cm^3
# Si number density = 18.627388 Si / 1000 Ang^3
#
#
#
# Elastic Constant Matrix: (Units=GPa)
#
#
# Indices 1 2 3 4 5 6 
#
# 1 180.2169 22.5778 96.3994 0.0000 -0.3206 0.0000
# 2 22.5778 16.7047 32.5611 0.0000 0.1472 0.0000
# 3 96.3994 32.5611 200.2960 0.0000 0.6166 0.0000
# 4 0.0000 0.0000 0.0000 31.8631 0.0000 0.5154
# 5 -0.3206 0.1472 0.6166 0.0000 31.0504 0.0000
# 6 0.0000 0.0000 0.0000 0.5154 0.0000 -3.0956
#
#
#
# Elastic Compliance Matrix: (Units=1/GPa)
#
#
# Indices 1 2 3 4 5 6 
#
# 1 0.007714 -0.004670 -0.002954 0.000000 0.000160 0.000000
# 2 -0.004670 0.090459 -0.012457 0.000000 -0.000230 0.000000
# 3 -0.002954 -0.012457 0.008440 0.000000 -0.000139 0.000000
# 4 0.000000 0.000000 0.000000 0.031300 0.000000 0.005211
# 5 0.000160 -0.000230 -0.000139 0.000000 0.032211 0.000000
# 6 0.000000 0.000000 0.000000 0.005211 0.000000 -0.322171
#
#
# Mechanical properties :
#
#
# Convention : Reuss Voigt Hill
#
# Bulk Modulus (GPa) = 15.04867 77.81044 46.42955
# Shear Modulus (GPa) = -55.72063 28.34221 -13.68921
#
# Velocity S-wave (km/s) = -5.47524 3.90492 -2.71384
# Velocity P-wave (km/s) = 5.64576 7.88631 3.89354
#
# Compressibility (1/GPa) = 0.06645108
#
# Stress axis : x y z
#
# Youngs Moduli (GPa) = 129.62773 11.05472 118.48406
#
# Poissons Ratio (x) = 0.05162 0.35002
# Poissons Ratio (y) = 0.60533 1.47599
# Poissons Ratio (z) = 0.38294 0.13771
#
# Static dielectric constant tensor:
#      x y z
#    x 3.763380 0.000000 -0.003550 
#    y 0.000000 2.785250 0.000000 
#    z -0.003550 0.000000 3.522680 
# 
# 
# High freq. dielectric constant tensor:
#      x y z
#    x 1.737480 0.000000 0.000030 
#    y 0.000000 1.658270 0.000000 
#    z 0.000030 0.000000 1.739490 
# 
# From -- ./inp_files/200399.got.cif
#   From: 2010.06.25/outbox.cif.g09.slc.cpg/sg15_101_cif.got.tgz:200399.got - 2010.06.28 07:06:18.
