data_PCOD8133642
_publ_section_title
;
Structure prediction by ZEFSAII (Michael W. Deem and Ramdas Pophale) SiO2 
 PCOD8133642
Probable space group: C 2/C
;
_chemical_formula_sum "Si O2"
_cell_formula_units_Z 48
_cell_length_a 22.739302
_cell_length_b 13.153841
_cell_length_c 26.233105
_cell_angle_alpha 90.000000
_cell_angle_beta 159.380451
_cell_angle_gamma 90.000000
_cell_volume 2763.253197
_symmetry_space_group_name_H-M "C 2/C"
_symmetry_group_IT_number 15
_symmetry_cell_setting 'monoclinic'
loop_
_space_group_symop_operation_xyz
x,y,z
-x,y,1/2-z
-x,-y,-z
x,-y,1/2+z
1/2+x,1/2+y,z
1/2-x,1/2+y,1/2-z
1/2-x,1/2-y,-z
1/2+x,1/2-y,1/2+z
loop_
_atom_site_type_symbol
_atom_site_label
_atom_site_fract_x
_atom_site_fract_y
_atom_site_fract_z
Si Si1 0.681032 0.352510 0.885451
Si Si2 0.290077 0.053099 0.373096
Si Si3 0.818903 0.375773 0.107073
Si Si4 0.958301 0.947700 0.544445
Si Si5 0.440594 0.652784 0.923532
Si Si6 0.117937 0.653630 0.596087
O O1 0.500000 0.396682 0.750000
O O2 0.761688 0.424550 0.908887
O O3 0.673392 0.235415 0.859796
O O4 0.783183 0.360938 0.019275
O O5 0.452902 0.115200 0.490135
O O6 0.133232 0.088471 0.211178
O O7 0.316791 0.932308 0.389623
O O8 0.000000 0.429032 0.250000
O O9 0.687389 0.444045 0.031339
O O10 0.913647 0.874655 0.461074
O O11 0.969480 0.062710 0.533978
O O12 0.260768 0.679433 0.753468
O O13 0.568037 0.747326 0.023059
#
# Coordination Sequence:
#
# PCOD8133642 Si02
#       6
#     8   8   8   8   8   8
#     4  10  19  34  53  75 106 140 168 212 259 311
#     4  10  20  35  56  78 105 139 177 211 260 315
#     4  10  21  32  51  81 108 136 171 210 262 311
#     4  10  20  36  54  78 108 138 172 218 261 309
#     4  10  21  35  55  77 106 139 173 218 264 305
#     4  10  21  35  54  80 104 138 175 216 262 310
#
# _framework density 17.370830000000002
#
# number of rings (size 3 to 8) (size 9 to 14) (size 15 to 20)
#    0.000    2.000    1.667    2.000    2.333    1.333 
#    0.000    0.000    0.000    2.000    0.000    0.000 
#    0.000    0.000    0.000    0.000    0.000    0.000 
#
# Total GULP energy -297567.206136 kJ/mol
# GULP energy per Si atom -12398.633589 kJ/mol
# Density = 1.733129 g / cm^3
# Si number density = 17.370830 Si / 1000 Ang^3
#
#
#
# Elastic Constant Matrix: (Units=GPa)
#
#
# Indices 1 2 3 4 5 6 
#
# 1 104.9468 43.4760 43.0634 -0.0057 6.0815 -0.0020
# 2 43.4760 79.4987 46.0883 -0.0316 -1.5728 -0.0112
# 3 43.0634 46.0883 134.5311 -0.0321 6.1271 -0.0123
# 4 -0.0057 -0.0316 -0.0321 30.5530 -0.0204 -1.5563
# 5 6.0815 -1.5728 6.1271 -0.0204 26.6404 -0.0065
# 6 -0.0020 -0.0112 -0.0123 -1.5563 -0.0065 24.5889
#
#
#
# Elastic Compliance Matrix: (Units=1/GPa)
#
#
# Indices 1 2 3 4 5 6 
#
# 1 0.012998 -0.006025 -0.001966 -0.000008 -0.002871 -0.000004
# 2 -0.006025 0.018616 -0.004610 0.000016 0.003535 0.000008
# 3 -0.001966 -0.004610 0.009736 0.000004 -0.002063 0.000002
# 4 -0.000008 0.000016 0.000004 0.032836 0.000027 0.002078
# 5 -0.002871 0.003535 -0.002063 0.000027 0.038875 0.000012
# 6 -0.000004 0.000008 0.000002 0.002078 0.000012 0.040800
#
#
# Mechanical properties :
#
#
# Convention : Reuss Voigt Hill
#
# Bulk Modulus (GPa) = 61.92769 64.91467 63.42118
# Shear Modulus (GPa) = 27.10821 28.77973 27.94397
#
# Velocity S-wave (km/s) = 3.95468 4.07478 4.01518
# Velocity P-wave (km/s) = 7.52200 7.71942 7.62135
#
# Compressibility (1/GPa) = 0.01614787
#
# Stress axis : x y z
#
# Youngs Moduli (GPa) = 76.93692 53.71591 102.71517
#
# Poissons Ratio (x) = 0.32366 0.20190
# Poissons Ratio (y) = 0.46357 0.47351
# Poissons Ratio (z) = 0.15123 0.24763
#
# Static dielectric constant tensor:
#      x y z
#    x 3.047930 0.000010 -0.001270 
#    y 0.000010 3.243780 -0.000040 
#    z -0.001270 -0.000040 3.427520 
# 
# 
# High freq. dielectric constant tensor:
#      x y z
#    x 1.659590 0.000000 -0.002910 
#    y 0.000000 1.653070 0.000000 
#    z -0.002910 0.000000 1.693260 
# 
# From -- ./inp_files/55413.got.cif
#   From: 2010.06.25/outbox.cif.g09.slc.cpg/sg15_28_cif.got.tgz:55413.got - 2010.06.28 07:06:18.
