data_PCOD8133007
_publ_section_title
;
Structure prediction by ZEFSAII (Michael W. Deem and Ramdas Pophale) SiO2 
 PCOD8133007
Probable space group: C 2/C
;
_chemical_formula_sum "Si O2"
_cell_formula_units_Z 56
_cell_length_a 18.033887
_cell_length_b 9.384094
_cell_length_c 22.340774
_cell_angle_alpha 90.000000
_cell_angle_beta 129.413103
_cell_angle_gamma 90.000000
_cell_volume 2920.976681
_symmetry_space_group_name_H-M "C 2/C"
_symmetry_group_IT_number 15
_symmetry_cell_setting 'monoclinic'
loop_
_space_group_symop_operation_xyz
x,y,z
-x,y,1/2-z
-x,-y,-z
x,-y,1/2+z
1/2+x,1/2+y,z
1/2-x,1/2+y,1/2-z
1/2-x,1/2-y,-z
1/2+x,1/2-y,1/2+z
loop_
_atom_site_type_symbol
_atom_site_label
_atom_site_fract_x
_atom_site_fract_y
_atom_site_fract_z
Si Si1 0.415850 0.097964 0.331349
Si Si2 0.395470 0.382110 0.389503
Si Si3 0.118623 0.355651 0.970780
Si Si4 0.455635 0.372915 0.547867
Si Si5 0.202635 0.945642 0.497234
Si Si6 0.759233 0.592464 0.161574
Si Si7 0.115084 0.334949 0.107041
O O1 0.390541 0.255052 0.340648
O O2 0.530765 0.079277 0.387117
O O3 0.368757 0.084424 0.241232
O O4 0.367548 0.983745 0.351422
O O5 0.403649 0.322716 0.460735
O O6 0.489889 0.477353 0.429268
O O7 0.299516 0.473476 0.332129
O O8 0.213131 0.453928 0.009230
O O9 0.140361 0.197798 0.957268
O O10 0.083634 0.357441 0.021731
O O11 0.366621 0.414849 0.546765
O O12 0.530863 0.247518 0.602139
O O13 0.253991 0.937308 0.588420
O O14 0.713243 0.745310 0.155047
#
# Coordination Sequence:
#
# PCOD8133007 Si02
#       7
#     8   8   8   8   8   8   8
#     4  12  19  30  51  80 107 130 167 220 268 297
#     4   9  16  29  50  71  94 133 169 204 250 306
#     4  10  19  31  53  79 103 128 176 225 255 297
#     4   9  15  32  52  71  96 133 173 207 255 300
#     4   9  18  35  52  74 102 139 176 212 253 320
#     4   9  20  33  50  74 106 139 167 204 266 322
#     4  10  20  33  52  82 105 128 174 228 255 304
#
# _framework density 19.171669999999999
#
# number of rings (size 3 to 8) (size 9 to 14) (size 15 to 20)
#    0.000    2.286    2.857    3.000    0.000    0.571 
#    0.000    0.714    0.000    0.000    0.000    0.000 
#    0.000    0.000    0.000    0.000    0.000    0.000 
#
# Total GULP energy -346890.575926 kJ/mol
# GULP energy per Si atom -12388.949140 kJ/mol
# Density = 1.912803 g / cm^3
# Si number density = 19.171670 Si / 1000 Ang^3
#
#
#
# Elastic Constant Matrix: (Units=GPa)
#
#
# Indices 1 2 3 4 5 6 
#
# 1 83.0719 21.5285 14.6786 0.0000 10.9549 0.0000
# 2 21.5285 49.7509 14.8398 0.0000 -3.4509 0.0000
# 3 14.6786 14.8398 67.4340 0.0000 21.4248 0.0000
# 4 0.0000 0.0000 0.0000 11.5888 0.0000 -1.9097
# 5 10.9549 -3.4509 21.4248 0.0000 18.0634 0.0000
# 6 0.0000 0.0000 0.0000 -1.9097 0.0000 24.0668
#
#
#
# Elastic Compliance Matrix: (Units=1/GPa)
#
#
# Indices 1 2 3 4 5 6 
#
# 1 0.015754 -0.008880 0.003369 0.000000 -0.015247 0.000000
# 2 -0.008880 0.029659 -0.013006 0.000000 0.026478 0.000000
# 3 0.003369 -0.013006 0.029522 0.000000 -0.039543 0.000000
# 4 0.000000 0.000000 0.000000 0.087433 0.000000 0.006938
# 5 -0.015247 0.026478 -0.039543 0.000000 0.116568 0.000000
# 6 0.000000 0.000000 0.000000 0.006938 0.000000 0.042101
#
#
# Mechanical properties :
#
#
# Convention : Reuss Voigt Hill
#
# Bulk Modulus (GPa) = 26.38495 33.59450 29.98972
# Shear Modulus (GPa) = 13.48779 20.69114 17.08947
#
# Velocity S-wave (km/s) = 2.65529 3.28877 2.98886
# Velocity P-wave (km/s) = 4.81592 5.65529 5.25240
#
# Compressibility (1/GPa) = 0.03790040
#
# Stress axis : x y z
#
# Youngs Moduli (GPa) = 63.47454 33.71674 33.87328
#
# Poissons Ratio (x) = 0.29940 -0.11412
# Poissons Ratio (y) = 0.56364 0.44057
# Poissons Ratio (z) = -0.21384 0.43854
#
# Static dielectric constant tensor:
#      x y z
#    x 3.450880 0.000000 0.253230 
#    y 0.000000 3.450760 0.000000 
#    z 0.253230 0.000000 3.328300 
# 
# 
# High freq. dielectric constant tensor:
#      x y z
#    x 1.725110 0.000000 0.026840 
#    y 0.000000 1.736060 0.000000 
#    z 0.026840 0.000000 1.722020 
# 
# From -- ./inp_files/209538.got.cif
#   From: 2010.06.25/outbox.cif.g09.slc.cpg/sg15_105_cif.got.tgz:209538.got - 2010.06.28 07:06:18.
