data_PCOD8133152
_publ_section_title
;
Structure prediction by ZEFSAII (Michael W. Deem and Ramdas Pophale) SiO2 
 PCOD8133152
Probable space group: C 2/C
;
_chemical_formula_sum "Si O2"
_cell_formula_units_Z 56
_cell_length_a 27.353317
_cell_length_b 14.359099
_cell_length_c 8.721007
_cell_angle_alpha 90.000000
_cell_angle_beta 126.238469
_cell_angle_gamma 90.000000
_cell_volume 2762.755405
_symmetry_space_group_name_H-M "C 2/C"
_symmetry_group_IT_number 15
_symmetry_cell_setting 'monoclinic'
loop_
_space_group_symop_operation_xyz
x,y,z
-x,y,1/2-z
-x,-y,-z
x,-y,1/2+z
1/2+x,1/2+y,z
1/2-x,1/2+y,1/2-z
1/2-x,1/2-y,-z
1/2+x,1/2-y,1/2+z
loop_
_atom_site_type_symbol
_atom_site_label
_atom_site_fract_x
_atom_site_fract_y
_atom_site_fract_z
Si Si1 0.131062 0.484323 0.981713
Si Si2 0.500000 0.528468 0.750000
Si Si3 0.500000 0.059621 0.750000
Si Si4 0.597308 0.206450 0.481517
Si Si5 0.192888 0.383594 0.822443
Si Si6 0.485336 0.206903 0.467530
Si Si7 0.325456 0.319331 0.076253
Si Si8 0.063744 0.107677 0.577172
O O1 0.161973 0.576883 0.110315
O O2 0.132650 0.389831 0.089099
O O3 0.170717 0.458099 0.906627
O O4 0.059355 0.499998 0.815584
O O5 0.528295 0.591144 0.671206
O O6 0.447172 0.466135 0.576449
O O7 0.483168 0.117085 0.568578
O O8 0.553660 0.232388 0.540711
O O9 0.558990 0.187099 0.255933
O O10 0.644086 0.291342 0.531859
O O11 0.265312 0.378973 0.936714
O O12 0.176863 0.276849 0.830993
O O13 0.460765 0.292414 0.524005
O O14 0.365496 0.389945 0.251926
#
# Coordination Sequence:
#
# PCOD8133152 Si02
#       8
#     8   4   4   8   8   8   8   8
#     4  11  21  34  53  83 112 138 175 224 269 320
#     4  10  21  32  51  80 102 126 170 228 267 308
#     4  12  21  30  53  86 118 138 164 218 285 330
#     4   9  18  33  55  77 105 144 180 211 263 325
#     4  10  22  37  56  78 106 142 184 220 259 317
#     4  10  19  32  53  81 109 141 172 211 270 340
#     4   9  19  38  58  72 101 150 186 214 260 319
#     4  10  19  34  52  74 103 133 172 217 268 311
#
# _framework density 20.26962
#
# number of rings (size 3 to 8) (size 9 to 14) (size 15 to 20)
#    0.000    2.000    0.000    6.429    0.000    2.857 
#    0.000    0.000    0.000   17.143    0.000    0.000 
#    0.000    0.000    0.000    0.000    0.000    0.000 
#
# Total GULP energy -346927.780886 kJ/mol
# GULP energy per Si atom -12390.277889 kJ/mol
# Density = 2.022349 g / cm^3
# Si number density = 20.269620 Si / 1000 Ang^3
#
#
#
# Elastic Constant Matrix: (Units=GPa)
#
#
# Indices 1 2 3 4 5 6 
#
# 1 102.3125 21.4919 22.5454 0.0000 25.0753 0.0000
# 2 21.4919 68.1286 29.4251 0.0000 17.3708 0.0000
# 3 22.5454 29.4251 55.6307 0.0000 16.8999 0.0000
# 4 0.0000 0.0000 0.0000 26.4202 0.0000 14.2693
# 5 25.0753 17.3708 16.8999 0.0000 32.9867 0.0000
# 6 0.0000 0.0000 0.0000 14.2693 0.0000 21.4132
#
#
#
# Elastic Compliance Matrix: (Units=1/GPa)
#
#
# Indices 1 2 3 4 5 6 
#
# 1 0.012358 -0.001001 -0.002114 0.000000 -0.007784 0.000000
# 2 -0.001001 0.020076 -0.008566 0.000000 -0.005423 0.000000
# 3 -0.002114 -0.008566 0.025469 0.000000 -0.006930 0.000000
# 4 0.000000 0.000000 0.000000 0.059132 0.000000 -0.039404
# 5 -0.007784 -0.005423 -0.006930 0.000000 0.042638 0.000000
# 6 0.000000 0.000000 0.000000 -0.039404 0.000000 0.072958
#
#
# Mechanical properties :
#
#
# Convention : Reuss Voigt Hill
#
# Bulk Modulus (GPa) = 28.95136 41.44406 35.19771
# Shear Modulus (GPa) = 18.69113 26.33798 22.51456
#
# Velocity S-wave (km/s) = 3.03995 3.60861 3.33641
# Velocity P-wave (km/s) = 5.16099 6.15252 5.67844
#
# Compressibility (1/GPa) = 0.03454069
#
# Stress axis : x y z
#
# Youngs Moduli (GPa) = 80.92086 49.81021 39.26368
#
# Poissons Ratio (x) = 0.04984 0.08302
# Poissons Ratio (y) = 0.08096 0.33634
# Poissons Ratio (z) = 0.17110 0.42668
#
# Static dielectric constant tensor:
#      x y z
#    x 3.986580 0.000000 0.193220 
#    y 0.000000 3.783100 0.000000 
#    z 0.193220 0.000000 3.362520 
# 
# 
# High freq. dielectric constant tensor:
#      x y z
#    x 1.793080 0.000000 0.008420 
#    y 0.000000 1.799580 0.000000 
#    z 0.008420 0.000000 1.756900 
# 
# From -- ./inp_files/69995.got.cif
#   From: 2010.06.25/outbox.cif.g09.slc.cpg/sg15_35_cif.got.tgz:69995.got - 2010.06.28 07:06:18.
