data_PCOD8133086
_publ_section_title
;
Structure prediction by ZEFSAII (Michael W. Deem and Ramdas Pophale) SiO2 
 PCOD8133086
Probable space group: C 2/C
;
_chemical_formula_sum "Si O2"
_cell_formula_units_Z 64
_cell_length_a 13.675684
_cell_length_b 35.771500
_cell_length_c 8.830028
_cell_angle_alpha 90.000000
_cell_angle_beta 131.019217
_cell_angle_gamma 90.000000
_cell_volume 3259.128524
_symmetry_space_group_name_H-M "C 2/C"
_symmetry_group_IT_number 15
_symmetry_cell_setting 'monoclinic'
loop_
_space_group_symop_operation_xyz
x,y,z
-x,y,1/2-z
-x,-y,-z
x,-y,1/2+z
1/2+x,1/2+y,z
1/2-x,1/2+y,1/2-z
1/2-x,1/2-y,-z
1/2+x,1/2-y,1/2+z
loop_
_atom_site_type_symbol
_atom_site_label
_atom_site_fract_x
_atom_site_fract_y
_atom_site_fract_z
Si Si1 0.249217 0.415132 0.323156
Si Si2 0.988879 0.291575 0.916345
Si Si3 0.490466 0.287310 0.565254
Si Si4 0.751505 0.915490 0.685112
Si Si5 0.251269 0.331254 0.686369
Si Si6 0.769343 0.669093 0.689257
Si Si7 0.998858 0.540604 0.568996
Si Si8 0.501514 0.540681 0.431794
O O1 0.253284 0.414270 0.507103
O O2 0.251910 0.372592 0.267658
O O3 0.121551 0.436084 0.134099
O O4 0.372012 0.437289 0.382361
O O5 0.847815 0.305545 0.823041
O O6 0.000000 0.296132 0.750000
O O7 0.006905 0.248568 0.977852
O O8 0.099549 0.315645 0.107260
O O9 0.500000 0.274974 0.750000
O O10 0.603567 0.316460 0.641459
O O11 0.353299 0.306127 0.387366
O O12 0.747167 0.873476 0.745770
O O13 0.627362 0.937829 0.619331
O O14 0.879201 0.936640 0.872537
O O15 0.211560 0.330427 0.470972
O O16 0.000000 0.537015 0.750000
O O17 0.000000 0.500000 0.500000
O O18 0.500000 0.537371 0.250000
O O19 0.500000 0.500000 0.500000
#
# Coordination Sequence:
#
# PCOD8133086 Si02
#       8
#     8   8   8   8   8   8   8   8
#     4   9  18  33  55  79 103 134 174 221 268 311
#     4  12  25  38  54  81 117 152 181 216 273 340
#     4  10  21  37  61  88 108 136 184 234 275 322
#     4   9  18  33  55  79 103 134 174 221 268 311
#     4  10  20  38  62  84 107 140 187 237 277 318
#     4  10  20  38  62  84 107 140 187 237 277 318
#     4  10  19  32  50  74 104 138 173 209 255 307
#     4  10  19  33  53  79 109 140 175 215 265 323
#
# _framework density 19.637150999999999
#
# number of rings (size 3 to 8) (size 9 to 14) (size 15 to 20)
#    0.000    2.000    0.000    4.125    0.000    9.000 
#    0.000    3.750    0.000    1.500    0.000    0.000 
#    0.000    0.000    0.000    0.000    0.000    0.000 
#
# Total GULP energy -396907.989086 kJ/mol
# GULP energy per Si atom -12403.374659 kJ/mol
# Density = 1.959246 g / cm^3
# Si number density = 19.637151 Si / 1000 Ang^3
#
#
#
# Elastic Constant Matrix: (Units=GPa)
#
#
# Indices 1 2 3 4 5 6 
#
# 1 90.9656 39.9870 39.4763 0.0000 25.9533 0.0000
# 2 39.9870 145.0962 25.8806 0.0000 8.3623 0.0000
# 3 39.4763 25.8806 41.2235 0.0000 16.5697 0.0000
# 4 0.0000 0.0000 0.0000 28.7982 0.0000 7.7204
# 5 25.9533 8.3623 16.5697 0.0000 30.6414 0.0000
# 6 0.0000 0.0000 0.0000 7.7204 0.0000 40.5235
#
#
#
# Elastic Compliance Matrix: (Units=1/GPa)
#
#
# Indices 1 2 3 4 5 6 
#
# 1 0.021315 -0.002661 -0.015047 0.000000 -0.009191 0.000000
# 2 -0.002661 0.008104 -0.003267 0.000000 0.001808 0.000000
# 3 -0.015047 -0.003267 0.045023 0.000000 -0.010711 0.000000
# 4 0.000000 0.000000 0.000000 0.036593 0.000000 -0.006972
# 5 -0.009191 0.001808 -0.010711 0.000000 0.045719 0.000000
# 6 0.000000 0.000000 0.000000 -0.006972 0.000000 0.026005
#
#
# Mechanical properties :
#
#
# Convention : Reuss Voigt Hill
#
# Bulk Modulus (GPa) = 30.77550 54.21921 42.49736
# Shear Modulus (GPa) = 21.22802 31.45538 26.34170
#
# Velocity S-wave (km/s) = 3.29144 4.00663 3.66652
# Velocity P-wave (km/s) = 5.49098 7.00532 6.29387
#
# Compressibility (1/GPa) = 0.03249338
#
# Stress axis : x y z
#
# Youngs Moduli (GPa) = 46.91576 123.40120 22.21089
#
# Poissons Ratio (x) = 0.32832 0.33420
# Poissons Ratio (y) = 0.12482 0.07256
# Poissons Ratio (z) = 0.70593 0.40311
#
# Static dielectric constant tensor:
#      x y z
#    x 3.731140 0.000000 0.437500 
#    y 0.000000 3.761120 0.000000 
#    z 0.437500 0.000000 3.587500 
# 
# 
# High freq. dielectric constant tensor:
#      x y z
#    x 1.762770 0.000000 0.031230 
#    y 0.000000 1.784600 0.000000 
#    z 0.031230 0.000000 1.745810 
# 
# From -- ./inp_files/44874.got.cif
#   From: 2010.06.25/outbox.cif.g09.slc.cpg/sg15_23_cif.got.tgz:44874.got - 2010.06.28 07:06:18.
