data_PCOD8133803
_publ_section_title
;
Structure prediction by ZEFSAII (Michael W. Deem and Ramdas Pophale) SiO2 
 PCOD8133803
Probable space group: C 2/C
;
_chemical_formula_sum "Si O2"
_cell_formula_units_Z 64
_cell_length_a 8.677778
_cell_length_b 27.833708
_cell_length_c 15.688734
_cell_angle_alpha 90.000000
_cell_angle_beta 55.391406
_cell_angle_gamma 90.000000
_cell_volume 3118.848989
_symmetry_space_group_name_H-M "C 2/C"
_symmetry_group_IT_number 15
_symmetry_cell_setting 'monoclinic'
loop_
_space_group_symop_operation_xyz
x,y,z
-x,y,1/2-z
-x,-y,-z
x,-y,1/2+z
1/2+x,1/2+y,z
1/2-x,1/2+y,1/2-z
1/2-x,1/2-y,-z
1/2+x,1/2-y,1/2+z
loop_
_atom_site_type_symbol
_atom_site_label
_atom_site_fract_x
_atom_site_fract_y
_atom_site_fract_z
Si Si1 0.051908 0.034898 0.142404
Si Si2 0.789281 0.557007 0.351431
Si Si3 0.131296 0.390016 0.996618
Si Si4 0.414841 0.804984 0.370874
Si Si5 0.342838 0.038340 0.531350
Si Si6 0.017932 0.241740 0.001469
Si Si7 0.239436 0.161858 0.361262
Si Si8 0.414618 0.820800 0.641406
O O1 0.202997 0.070680 0.049458
O O2 0.000000 0.057628 0.250000
O O3 0.863093 0.022842 0.147509
O O4 0.150051 0.982883 0.129996
O O5 0.801391 0.545013 0.445549
O O6 0.679307 0.607093 0.364893
O O7 0.000000 0.552457 0.250000
O O8 0.173361 0.353067 0.905866
O O9 0.123589 0.359673 0.086642
O O10 0.922908 0.412688 0.048149
O O11 0.500000 0.805914 0.250000
O O12 0.231812 0.772967 0.430575
O O13 0.542121 0.776453 0.400418
O O14 0.500000 0.000000 0.500000
O O15 0.991450 0.271776 0.922576
O O16 0.900072 0.192885 0.037448
O O17 0.426754 0.151399 0.356390
O O18 0.258571 0.188953 0.263689
#
# Coordination Sequence:
#
# PCOD8133803 Si02
#       8
#     8   8   8   8   8   8   8   8
#     4  11  23  38  63  93 119 151 200 245 305 371
#     4  12  21  38  62  88 121 155 197 249 300 363
#     4  10  20  40  61  85 119 161 194 251 305 355
#     4  10  21  38  57  83 119 162 206 246 299 356
#     4  10  21  40  60  85 117 152 192 245 304 360
#     4  10  21  34  55  84 121 160 203 250 293 349
#     4  11  19  33  57  88 115 158 203 243 299 355
#     4  10  19  34  57  84 122 157 198 247 297 348
#
# _framework density 20.520392000000001
#
# number of rings (size 3 to 8) (size 9 to 14) (size 15 to 20)
#    0.000    1.500    2.500    4.500    0.000    0.000 
#    0.000   10.625    0.000    0.000    0.000    0.000 
#    0.000    0.000    0.000    0.000    0.000    0.000 
#
# Total GULP energy -396441.939355 kJ/mol
# GULP energy per Si atom -12388.810605 kJ/mol
# Density = 2.047369 g / cm^3
# Si number density = 20.520392 Si / 1000 Ang^3
#
#
#
# Elastic Constant Matrix: (Units=GPa)
#
#
# Indices 1 2 3 4 5 6 
#
# 1 77.7470 10.4074 39.0814 0.0000 -0.6933 0.0000
# 2 10.4074 50.4908 45.6275 0.0000 -8.9170 0.0000
# 3 39.0814 45.6275 108.0260 0.0000 13.7554 0.0000
# 4 0.0000 0.0000 0.0000 31.2799 0.0000 -3.5584
# 5 -0.6933 -8.9170 13.7554 0.0000 32.5774 0.0000
# 6 0.0000 0.0000 0.0000 -3.5584 0.0000 27.5994
#
#
#
# Elastic Compliance Matrix: (Units=1/GPa)
#
#
# Indices 1 2 3 4 5 6 
#
# 1 0.016847 0.006136 -0.009455 0.000000 0.006030 0.000000
# 2 0.006136 0.043586 -0.023425 0.000000 0.021952 0.000000
# 3 -0.009455 -0.023425 0.024744 0.000000 -0.017061 0.000000
# 4 0.000000 0.000000 0.000000 0.032445 0.000000 0.004183
# 5 0.006030 0.021952 -0.017061 0.000000 0.044037 0.000000
# 6 0.000000 0.000000 0.000000 0.004183 0.000000 0.036772
#
#
# Mechanical properties :
#
#
# Convention : Reuss Voigt Hill
#
# Bulk Modulus (GPa) = 31.55474 47.38848 39.47161
# Shear Modulus (GPa) = 19.04896 27.70118 23.37507
#
# Velocity S-wave (km/s) = 3.05010 3.67813 3.37874
# Velocity P-wave (km/s) = 5.27397 6.41730 5.87352
#
# Compressibility (1/GPa) = 0.03169096
#
# Stress axis : x y z
#
# Youngs Moduli (GPa) = 59.35719 22.94305 40.41380
#
# Poissons Ratio (x) = -0.14079 0.38210
# Poissons Ratio (y) = -0.36423 0.94669
# Poissons Ratio (z) = 0.56120 0.53744
#
# Static dielectric constant tensor:
#      x y z
#    x 3.804280 0.000000 0.053330 
#    y 0.000000 3.824000 0.000000 
#    z 0.053330 0.000000 3.724990 
# 
# 
# High freq. dielectric constant tensor:
#      x y z
#    x 1.806240 0.000000 0.007140 
#    y 0.000000 1.797740 0.000000 
#    z 0.007140 0.000000 1.787450 
# 
# From -- ./inp_files/139805.got.cif
#   From: 2010.06.25/outbox.cif.g09.slc.cpg/sg15_70_cif.got.tgz:139805.got - 2010.06.28 07:06:18.
