data_PCOD8133105
_publ_section_title
;
Structure prediction by ZEFSAII (Michael W. Deem and Ramdas Pophale) SiO2 
 PCOD8133105
Probable space group: C 2/C
;
_chemical_formula_sum "Si O2"
_cell_formula_units_Z 56
_cell_length_a 19.536236
_cell_length_b 9.415879
_cell_length_c 21.076470
_cell_angle_alpha 90.000000
_cell_angle_beta 53.416724
_cell_angle_gamma 90.000000
_cell_volume 3113.225433
_symmetry_space_group_name_H-M "C 2/C"
_symmetry_group_IT_number 15
_symmetry_cell_setting 'monoclinic'
loop_
_space_group_symop_operation_xyz
x,y,z
-x,y,1/2-z
-x,-y,-z
x,-y,1/2+z
1/2+x,1/2+y,z
1/2-x,1/2+y,1/2-z
1/2-x,1/2-y,-z
1/2+x,1/2-y,1/2+z
loop_
_atom_site_type_symbol
_atom_site_label
_atom_site_fract_x
_atom_site_fract_y
_atom_site_fract_z
Si Si1 0.912072 0.414266 0.446836
Si Si2 0.517509 0.774980 0.569343
Si Si3 0.837486 0.866904 0.751240
Si Si4 0.851710 0.401907 0.613085
Si Si5 0.499804 0.458728 0.319322
Si Si6 0.577876 0.793169 0.403064
Si Si7 0.585142 0.747657 0.171263
O O1 0.846032 0.376480 0.540020
O O2 0.873859 0.361722 0.400408
O O3 0.938837 0.579540 0.430016
O O4 0.992242 0.307546 0.409524
O O5 0.415639 0.792542 0.613169
O O6 0.535222 0.653464 0.610989
O O7 0.560423 0.717489 0.480421
O O8 0.739297 0.911914 0.803240
O O9 0.851286 0.784932 0.677515
O O10 0.847662 0.771154 0.808671
O O11 0.903167 0.998080 0.716475
O O12 0.896390 0.550721 0.593239
O O13 0.500000 0.384446 0.250000
O O14 0.438291 0.596738 0.349342
O O15 0.500000 0.812897 0.250000
#
# Coordination Sequence:
#
# PCOD8133105 Si02
#       7
#     8   8   8   8   8   8   8
#     4   9  16  35  52  73  97 134 171 201 241 296
#     4   9  19  33  54  75  97 132 165 207 248 296
#     4  10  19  32  51  75 104 134 162 208 253 294
#     4   9  20  31  50  76 106 127 158 211 258 287
#     4   9  19  34  50  74  98 130 168 207 246 293
#     4   9  17  34  51  71 103 131 168 202 245 296
#     4   9  17  32  53  70 100 134 170 206 239 292
#
# _framework density 17.987776
#
# number of rings (size 3 to 8) (size 9 to 14) (size 15 to 20)
#    0.000    3.143    2.857    1.714    2.000    1.714 
#    0.000    0.000    0.000   13.714    0.000    0.000 
#    0.000    0.000    0.000    0.000    0.000    0.000 
#
# Total GULP energy -346895.372271 kJ/mol
# GULP energy per Si atom -12389.120438 kJ/mol
# Density = 1.794684 g / cm^3
# Si number density = 17.987776 Si / 1000 Ang^3
#
#
#
# Elastic Constant Matrix: (Units=GPa)
#
#
# Indices 1 2 3 4 5 6 
#
# 1 41.1016 17.5835 22.8615 0.0001 17.4427 -0.0003
# 2 17.5835 49.7558 40.1777 0.0002 23.5833 -0.0011
# 3 22.8615 40.1777 96.4613 0.0000 21.7176 0.0001
# 4 0.0001 0.0002 0.0000 32.6775 0.0000 14.1521
# 5 17.4427 23.5833 21.7176 0.0000 36.1388 0.0000
# 6 -0.0003 -0.0011 0.0001 14.1521 0.0000 9.4925
#
#
#
# Elastic Compliance Matrix: (Units=1/GPa)
#
#
# Indices 1 2 3 4 5 6 
#
# 1 0.032641 -0.002910 -0.003937 -0.000001 -0.011489 0.000003
# 2 -0.002910 0.038343 -0.011523 -0.000006 -0.016693 0.000013
# 3 -0.003937 -0.011523 0.016166 0.000002 -0.000295 -0.000005
# 4 -0.000001 -0.000006 0.000002 0.086366 0.000003 -0.128760
# 5 -0.011489 -0.016693 -0.000295 0.000003 0.044287 -0.000007
# 6 0.000003 0.000013 -0.000005 -0.128760 -0.000007 0.297310
#
#
# Mechanical properties :
#
#
# Convention : Reuss Voigt Hill
#
# Bulk Modulus (GPa) = 19.83747 38.72935 29.28341
# Shear Modulus (GPa) = 8.79266 22.77483 15.78375
#
# Velocity S-wave (km/s) = 2.21331 3.56213 2.96543
# Velocity P-wave (km/s) = 4.19332 6.20452 5.29528
#
# Compressibility (1/GPa) = 0.05040964
#
# Stress axis : x y z
#
# Youngs Moduli (GPa) = 30.63670 26.08029 61.85930
#
# Poissons Ratio (x) = 0.07590 0.24354
# Poissons Ratio (y) = 0.08916 0.71278
# Poissons Ratio (z) = 0.12062 0.30051
#
# Static dielectric constant tensor:
#      x y z
#    x 3.229350 0.000000 0.154240 
#    y 0.000000 2.987810 0.000000 
#    z 0.154240 0.000000 3.624930 
# 
# 
# High freq. dielectric constant tensor:
#      x y z
#    x 1.677190 0.000000 0.022550 
#    y 0.000000 1.670070 0.000000 
#    z 0.022550 0.000000 1.700190 
# 
# From -- ./inp_files/281470.got.cif
#   From: 2010.06.25/outbox.cif.g09.slc.cpg/sg15_141_cif.got.tgz:281470.got - 2010.06.28 07:06:18.
