data_PCOD8133867
_publ_section_title
;
Structure prediction by ZEFSAII (Michael W. Deem and Ramdas Pophale) SiO2 
 PCOD8133867
Probable space group: C 2/C
;
_chemical_formula_sum "Si O2"
_cell_formula_units_Z 52
_cell_length_a 5.111900
_cell_length_b 18.160925
_cell_length_c 28.956504
_cell_angle_alpha 90.000000
_cell_angle_beta 64.182057
_cell_angle_gamma 90.000000
_cell_volume 2419.897510
_symmetry_space_group_name_H-M "C 2/C"
_symmetry_group_IT_number 15
_symmetry_cell_setting 'monoclinic'
loop_
_space_group_symop_operation_xyz
x,y,z
-x,y,1/2-z
-x,-y,-z
x,-y,1/2+z
1/2+x,1/2+y,z
1/2-x,1/2+y,1/2-z
1/2-x,1/2-y,-z
1/2+x,1/2-y,1/2+z
loop_
_atom_site_type_symbol
_atom_site_label
_atom_site_fract_x
_atom_site_fract_y
_atom_site_fract_z
Si Si1 0.601011 0.301419 0.288187
Si Si2 0.250555 0.031074 0.862676
Si Si3 0.806914 0.624561 0.614621
Si Si4 0.702987 0.292626 0.651295
Si Si5 0.500000 0.931606 0.250000
Si Si6 0.781032 0.753444 0.443432
Si Si7 0.263789 0.634011 0.121313
O O1 0.500000 0.257209 0.250000
O O2 0.306189 0.312182 0.341121
O O3 0.850513 0.261818 0.300546
O O4 0.719330 0.380638 0.263137
O O5 0.410923 0.083203 0.887518
O O6 0.442500 0.020744 0.800928
O O7 0.940751 0.064904 0.874998
O O8 0.178713 0.952090 0.890408
O O9 0.873720 0.671168 0.562835
O O10 0.418222 0.333154 0.655070
O O11 0.874600 0.246829 0.597704
O O12 0.919221 0.355325 0.654961
O O13 0.750000 0.750000 0.500000
O O14 0.631054 0.680505 0.431976
#
# Coordination Sequence:
#
# PCOD8133867 Si02
#       7
#     8   8   8   8   4   8   8
#     4  10  19  34  58  90 116 151 206 254 285 354
#     4  11  22  41  59  87 123 163 196 249 303 366
#     4  10  22  37  63  87 119 157 205 244 302 356
#     4   9  22  37  62  85 120 156 194 249 309 343
#     4  10  22  32  60  82 122 152 206 234 304 348
#     4   9  22  41  66  91 118 157 206 256 308 363
#     4  10  22  41  60  84 127 158 190 251 311 357
#
# _framework density 21.488512
#
# number of rings (size 3 to 8) (size 9 to 14) (size 15 to 20)
#    0.923    1.231    1.538    0.923    8.615    0.615 
#    1.385    1.538    0.000    0.000    0.000    0.000 
#    0.000    0.000    0.000    0.000    0.000    0.000 
#
# Total GULP energy -322150.237631 kJ/mol
# GULP energy per Si atom -12390.393755 kJ/mol
# Density = 2.143960 g / cm^3
# Si number density = 21.488512 Si / 1000 Ang^3
#
#
#
# Elastic Constant Matrix: (Units=GPa)
#
#
# Indices 1 2 3 4 5 6 
#
# 1 50.9326 8.1162 28.1879 0.0000 28.6253 0.0000
# 2 8.1162 112.8887 56.5006 0.0000 20.6835 0.0000
# 3 28.1879 56.5006 133.0473 0.0000 27.6549 0.0000
# 4 0.0000 0.0000 0.0000 23.1210 0.0000 7.3189
# 5 28.6253 20.6835 27.6549 0.0000 30.2781 0.0000
# 6 0.0000 0.0000 0.0000 7.3189 0.0000 26.4526
#
#
#
# Elastic Compliance Matrix: (Units=1/GPa)
#
#
# Indices 1 2 3 4 5 6 
#
# 1 0.045234 0.006418 -0.003097 0.000000 -0.044321 0.000000
# 2 0.006418 0.012588 -0.004514 0.000000 -0.010544 0.000000
# 3 -0.003097 -0.004514 0.010911 0.000000 -0.003955 0.000000
# 4 0.000000 0.000000 0.000000 0.047402 0.000000 -0.013115
# 5 -0.044321 -0.010544 -0.003955 0.000000 0.085744 0.000000
# 6 0.000000 0.000000 0.000000 -0.013115 0.000000 0.041432
#
#
# Mechanical properties :
#
#
# Convention : Reuss Voigt Hill
#
# Bulk Modulus (GPa) = 15.07178 53.60866 34.34022
# Shear Modulus (GPa) = 18.66976 29.57459 24.12217
#
# Velocity S-wave (km/s) = 2.95078 3.71387 3.35410
# Velocity P-wave (km/s) = 4.31724 6.58728 5.56915
#
# Compressibility (1/GPa) = 0.06634917
#
# Stress axis : x y z
#
# Youngs Moduli (GPa) = 22.10705 79.44145 91.65038
#
# Poissons Ratio (x) = -0.50988 0.28381
# Poissons Ratio (y) = -0.14189 0.41369
# Poissons Ratio (z) = 0.06846 0.35858
#
# Static dielectric constant tensor:
#      x y z
#    x 3.725650 0.000000 0.208640 
#    y 0.000000 3.719650 0.000000 
#    z 0.208640 0.000000 3.658700 
# 
# 
# High freq. dielectric constant tensor:
#      x y z
#    x 1.843870 0.000000 0.028100 
#    y 0.000000 1.824220 0.000000 
#    z 0.028100 0.000000 1.819100 
# 
# From -- ./inp_files/285853.got.cif
#   From: 2010.06.25/outbox.cif.g09.slc.cpg/sg15_143_cif.got.tgz:285853.got - 2010.06.28 07:06:18.
