data_PCOD8133182
_publ_section_title
;
Structure prediction by ZEFSAII (Michael W. Deem and Ramdas Pophale) SiO2 
 PCOD8133182
Probable space group: C 2/C
;
_chemical_formula_sum "Si O2"
_cell_formula_units_Z 48
_cell_length_a 15.248913
_cell_length_b 14.946384
_cell_length_c 30.130072
_cell_angle_alpha 90.000000
_cell_angle_beta 161.719343
_cell_angle_gamma 90.000000
_cell_volume 2154.025422
_symmetry_space_group_name_H-M "C 2/C"
_symmetry_group_IT_number 15
_symmetry_cell_setting 'monoclinic'
loop_
_space_group_symop_operation_xyz
x,y,z
-x,y,1/2-z
-x,-y,-z
x,-y,1/2+z
1/2+x,1/2+y,z
1/2-x,1/2+y,1/2-z
1/2-x,1/2-y,-z
1/2+x,1/2-y,1/2+z
loop_
_atom_site_type_symbol
_atom_site_label
_atom_site_fract_x
_atom_site_fract_y
_atom_site_fract_z
Si Si1 0.247904 0.762260 0.339455
Si Si2 0.978662 0.584974 0.791495
Si Si3 0.699961 0.122004 0.098308
Si Si4 0.813640 0.111668 0.767407
Si Si5 0.874905 0.519646 0.010158
Si Si6 0.414777 0.563223 0.418102
O O1 0.538492 0.802672 0.494117
O O2 0.180263 0.796006 0.257310
O O3 0.266799 0.656883 0.356532
O O4 0.000000 0.802341 0.250000
O O5 0.778210 0.644817 0.726951
O O6 0.826601 0.488403 0.724307
O O7 0.000000 0.617013 0.750000
O O8 0.286918 0.580995 0.962320
O O9 0.000000 0.166234 0.250000
O O10 0.745326 0.033710 0.090050
O O11 0.558378 0.099881 0.077547
O O12 0.114824 0.062038 0.912544
O O13 0.573426 0.043128 0.635245
O O14 0.500000 0.500000 0.500000
#
# Coordination Sequence:
#
# PCOD8133182 Si02
#       6
#     8   8   8   8   8   8
#     4  11  22  37  63 100 130 162 209 264 319 381
#     4  10  22  42  67  88 115 171 219 266 316 380
#     4  10  19  32  54  89 137 172 199 245 305 390
#     4  11  21  36  64  94 131 169 211 263 319 385
#     4  10  19  32  54  90 134 171 202 244 317 385
#     4  10  22  43  69  88 119 170 220 266 321 373
#
# _framework density 22.283860000000001
#
# number of rings (size 3 to 8) (size 9 to 14) (size 15 to 20)
#    0.000    1.667    3.333    2.500    0.000    2.667 
#    0.000    0.000    7.333    6.000    0.000    0.000 
#    0.000    0.000    0.000    0.000    0.000    0.000 
#
# Total GULP energy -297328.535492 kJ/mol
# GULP energy per Si atom -12388.688979 kJ/mol
# Density = 2.223314 g / cm^3
# Si number density = 22.283860 Si / 1000 Ang^3
#
#
#
# Elastic Constant Matrix: (Units=GPa)
#
#
# Indices 1 2 3 4 5 6 
#
# 1 152.8218 26.7442 29.0729 0.0761 26.5223 0.0173
# 2 26.7442 78.6985 13.3873 0.0592 -3.5769 0.0029
# 3 29.0729 13.3873 119.4784 0.1144 25.9512 0.0075
# 4 0.0761 0.0592 0.1144 26.5793 -0.0207 -1.1006
# 5 26.5223 -3.5769 25.9512 -0.0207 33.0588 0.0029
# 6 0.0173 0.0029 0.0075 -1.1006 0.0029 15.9976
#
#
#
# Elastic Compliance Matrix: (Units=1/GPa)
#
#
# Indices 1 2 3 4 5 6 
#
# 1 0.008313 -0.003105 -0.000185 -0.000022 -0.006860 -0.000009
# 2 -0.003105 0.014376 -0.002091 -0.000010 0.005688 0.000000
# 3 -0.000185 -0.002091 0.010447 -0.000047 -0.008279 -0.000006
# 4 -0.000022 -0.000010 -0.000047 0.037731 0.000076 0.002596
# 5 -0.006860 0.005688 -0.008279 0.000076 0.042867 0.000008
# 6 -0.000009 0.000000 -0.000006 0.002596 0.000008 0.062688
#
#
# Mechanical properties :
#
#
# Convention : Reuss Voigt Hill
#
# Bulk Modulus (GPa) = 44.69318 54.37861 49.53589
# Shear Modulus (GPa) = 25.68821 33.91344 29.80082
#
# Velocity S-wave (km/s) = 3.39893 3.90536 3.66092
# Velocity P-wave (km/s) = 5.95848 6.69264 6.33621
#
# Compressibility (1/GPa) = 0.02237478
#
# Stress axis : x y z
#
# Youngs Moduli (GPa) = 120.29739 69.55969 95.71931
#
# Poissons Ratio (x) = 0.21600 0.01768
# Poissons Ratio (y) = 0.37356 0.20011
# Poissons Ratio (z) = 0.02223 0.14542
#
# Static dielectric constant tensor:
#      x y z
#    x 4.150140 -0.000150 0.279260 
#    y -0.000150 3.680920 -0.000020 
#    z 0.279260 -0.000020 4.393470 
# 
# 
# High freq. dielectric constant tensor:
#      x y z
#    x 1.871650 0.000000 0.023130 
#    y 0.000000 1.847370 -0.000020 
#    z 0.023130 -0.000020 1.893650 
# 
# From -- ./inp_files/314121.got.cif
#   From: 2010.06.25/outbox.cif.g09.slc.cpg/sg15_158_cif.got.tgz:314121.got - 2010.06.28 07:06:18.
