data_PCOD8133517
_publ_section_title
;
Structure prediction by ZEFSAII (Michael W. Deem and Ramdas Pophale) SiO2 
 PCOD8133517
Probable space group: C 2/C
;
_chemical_formula_sum "Si O2"
_cell_formula_units_Z 48
_cell_length_a 15.479985
_cell_length_b 10.600195
_cell_length_c 21.034645
_cell_angle_alpha 90.000000
_cell_angle_beta 51.251997
_cell_angle_gamma 90.000000
_cell_volume 2691.919105
_symmetry_space_group_name_H-M "C 2/C"
_symmetry_group_IT_number 15
_symmetry_cell_setting 'monoclinic'
loop_
_space_group_symop_operation_xyz
x,y,z
-x,y,1/2-z
-x,-y,-z
x,-y,1/2+z
1/2+x,1/2+y,z
1/2-x,1/2+y,1/2-z
1/2-x,1/2-y,-z
1/2+x,1/2-y,1/2+z
loop_
_atom_site_type_symbol
_atom_site_label
_atom_site_fract_x
_atom_site_fract_y
_atom_site_fract_z
Si Si1 0.438002 0.650610 0.711440
Si Si2 0.588285 0.506461 0.542528
Si Si3 0.706394 0.110390 0.000773
Si Si4 0.969406 0.796397 0.535152
Si Si5 0.305294 0.097612 0.642111
Si Si6 0.958811 0.371739 0.611490
O O1 0.500000 0.670864 0.750000
O O2 0.512967 0.560673 0.633699
O O3 0.316110 0.591597 0.771923
O O4 0.414222 0.782596 0.687603
O O5 0.716779 0.504919 0.502709
O O6 0.555355 0.362063 0.543715
O O7 0.583654 0.593355 0.482430
O O8 0.712881 0.083735 0.923783
O O9 0.750000 0.250000 0.000000
O O10 0.580576 0.087646 0.080189
O O11 0.873347 0.728321 0.620703
O O12 0.032138 0.696381 0.461294
O O13 0.376646 0.987786 0.641633
#
# Coordination Sequence:
#
# PCOD8133517 Si02
#       6
#     8   8   8   8   8   8
#     4  11  21  36  56  81 107 145 189 230 275 324
#     4  10  19  33  57  87 107 141 187 229 268 326
#     4  11  16  35  58  82 104 140 192 227 256 320
#     4   9  19  35  56  81 113 142 182 224 276 322
#     4  11  21  35  56  79 118 145 177 232 276 331
#     4  10  22  37  55  84 109 147 189 225 280 328
#
# _framework density 17.831143999999998
#
# number of rings (size 3 to 8) (size 9 to 14) (size 15 to 20)
#    0.000    1.667    6.667    2.000    2.333    0.000 
#    0.000    3.333    0.000    1.000    0.000    0.000 
#    0.000    0.000    0.000    0.000    0.000    0.000 
#
# Total GULP energy -297444.416418 kJ/mol
# GULP energy per Si atom -12393.517351 kJ/mol
# Density = 1.779056 g / cm^3
# Si number density = 17.831144 Si / 1000 Ang^3
#
#
#
# Elastic Constant Matrix: (Units=GPa)
#
#
# Indices 1 2 3 4 5 6 
#
# 1 135.0846 61.3347 40.4614 0.0000 -20.2062 0.0000
# 2 61.3347 76.2362 28.0634 0.0000 -8.6727 0.0000
# 3 40.4614 28.0634 65.5084 0.0000 -14.9516 0.0000
# 4 0.0000 0.0000 0.0000 12.6498 0.0000 -4.7200
# 5 -20.2062 -8.6727 -14.9516 0.0000 30.7817 0.0000
# 6 0.0000 0.0000 0.0000 -4.7200 0.0000 42.6998
#
#
#
# Elastic Compliance Matrix: (Units=1/GPa)
#
#
# Indices 1 2 3 4 5 6 
#
# 1 0.013039 -0.008776 -0.003267 0.000000 0.004500 0.000000
# 2 -0.008776 0.021525 -0.004197 0.000000 -0.001735 0.000000
# 3 -0.003267 -0.004197 0.020606 0.000000 0.006682 0.000000
# 4 0.000000 0.000000 0.000000 0.082453 0.000000 0.009114
# 5 0.004500 -0.001735 0.006682 0.000000 0.038198 0.000000
# 6 0.000000 0.000000 0.000000 0.009114 0.000000 0.024427
#
#
# Mechanical properties :
#
#
# Convention : Reuss Voigt Hill
#
# Bulk Modulus (GPa) = 44.07028 59.61649 51.84338
# Shear Modulus (GPa) = 20.80810 27.02423 23.91616
#
# Velocity S-wave (km/s) = 3.41977 3.89725 3.66629
# Velocity P-wave (km/s) = 6.35312 7.33198 6.86003
#
# Compressibility (1/GPa) = 0.02269103
#
# Stress axis : x y z
#
# Youngs Moduli (GPa) = 76.69249 46.45730 48.52938
#
# Poissons Ratio (x) = 0.40770 0.15855
# Poissons Ratio (y) = 0.67304 0.20366
# Poissons Ratio (z) = 0.25056 0.19497
#
# Static dielectric constant tensor:
#      x y z
#    x 3.702430 0.000000 -0.106190 
#    y 0.000000 3.278970 0.000000 
#    z -0.106190 0.000000 3.334630 
# 
# 
# High freq. dielectric constant tensor:
#      x y z
#    x 1.699590 0.000000 -0.008550 
#    y 0.000000 1.670710 0.000000 
#    z -0.008550 0.000000 1.682510 
# 
# From -- ./inp_files/203247.got.cif
#   From: 2010.06.25/outbox.cif.g09.slc.cpg/sg15_102_cif.got.tgz:203247.got - 2010.06.28 07:06:18.
