data_PCOD8133193
_publ_section_title
;
Structure prediction by ZEFSAII (Michael W. Deem and Ramdas Pophale) SiO2 
 PCOD8133193
Probable space group: C 2/C
;
_chemical_formula_sum "Si O2"
_cell_formula_units_Z 48
_cell_length_a 26.601548
_cell_length_b 4.978294
_cell_length_c 16.947142
_cell_angle_alpha 90.000000
_cell_angle_beta 75.329813
_cell_angle_gamma 90.000000
_cell_volume 2171.150105
_symmetry_space_group_name_H-M "C 2/C"
_symmetry_group_IT_number 15
_symmetry_cell_setting 'monoclinic'
loop_
_space_group_symop_operation_xyz
x,y,z
-x,y,1/2-z
-x,-y,-z
x,-y,1/2+z
1/2+x,1/2+y,z
1/2-x,1/2+y,1/2-z
1/2-x,1/2-y,-z
1/2+x,1/2-y,1/2+z
loop_
_atom_site_type_symbol
_atom_site_label
_atom_site_fract_x
_atom_site_fract_y
_atom_site_fract_z
Si Si1 0.618418 0.028598 0.562302
Si Si2 0.229336 0.202559 0.795721
Si Si3 0.558611 0.454720 0.896198
Si Si4 0.768229 0.503387 0.943274
Si Si5 0.447326 0.547732 0.920579
Si Si6 0.623634 0.967588 0.878611
O O1 0.669760 0.001925 0.595201
O O2 0.595103 0.322841 0.579701
O O3 0.636887 0.975287 0.464821
O O4 0.575483 0.816203 0.611075
O O5 0.268209 0.459178 0.769675
O O6 0.240636 0.031405 0.869909
O O7 0.173215 0.344443 0.814805
O O8 0.504472 0.454009 0.867709
O O9 0.577399 0.758204 0.887389
O O10 0.601954 0.243099 0.846468
O O11 0.546704 0.368162 0.990438
O O12 0.750000 0.750000 0.000000
O O13 0.750000 0.250000 0.000000
#
# Coordination Sequence:
#
# PCOD8133193 Si02
#       6
#     8   8   8   8   8   8
#     4  10  19  32  55  84 116 154 197 244 301 356
#     4  12  26  42  60  89 126 165 210 263 306 369
#     4   9  17  29  50  80 117 156 188 236 305 360
#     4  12  24  40  64  89 119 166 212 250 312 373
#     4   9  17  29  48  83 121 147 187 247 300 354
#     4  10  19  33  55  80 116 160 198 239 300 357
#
# _framework density 22.108097000000001
#
# number of rings (size 3 to 8) (size 9 to 14) (size 15 to 20)
#    0.000    1.667    1.667    4.000    4.667    4.000 
#    0.000    0.000    0.000    0.000    0.000   17.500 
#    0.000    0.000    0.000    0.000    0.000    0.000 
#
# Total GULP energy -297450.592391 kJ/mol
# GULP energy per Si atom -12393.774683 kJ/mol
# Density = 2.205778 g / cm^3
# Si number density = 22.108097 Si / 1000 Ang^3
#
#
#
# Elastic Constant Matrix: (Units=GPa)
#
#
# Indices 1 2 3 4 5 6 
#
# 1 138.9787 37.5848 16.8879 0.0000 -6.5587 0.0000
# 2 37.5848 142.0633 18.6591 0.0000 -2.1498 0.0000
# 3 16.8879 18.6591 34.4431 0.0000 -7.3379 0.0000
# 4 0.0000 0.0000 0.0000 28.0889 0.0000 -11.4539
# 5 -6.5587 -2.1498 -7.3379 0.0000 13.4386 0.0000
# 6 0.0000 0.0000 0.0000 -11.4539 0.0000 42.9255
#
#
#
# Elastic Compliance Matrix: (Units=1/GPa)
#
#
# Indices 1 2 3 4 5 6 
#
# 1 0.008089 -0.001775 -0.002517 0.000000 0.002290 0.000000
# 2 -0.001775 0.007984 -0.003811 0.000000 -0.001670 0.000000
# 3 -0.002517 -0.003811 0.036145 0.000000 0.017899 0.000000
# 4 0.000000 0.000000 0.000000 0.039948 0.000000 0.010659
# 5 0.002290 -0.001670 0.017899 0.000000 0.085036 0.000000
# 6 0.000000 0.000000 0.000000 0.010659 0.000000 0.026140
#
#
# Mechanical properties :
#
#
# Convention : Reuss Voigt Hill
#
# Bulk Modulus (GPa) = 27.76760 51.30542 39.53651
# Shear Modulus (GPa) = 21.59340 33.04747 27.32043
#
# Velocity S-wave (km/s) = 3.12864 3.87048 3.51916
# Velocity P-wave (km/s) = 5.06344 6.57504 5.86811
#
# Compressibility (1/GPa) = 0.03601320
#
# Stress axis : x y z
#
# Youngs Moduli (GPa) = 123.62100 125.25163 27.66629
#
# Poissons Ratio (x) = 0.22231 0.06963
# Poissons Ratio (y) = 0.21941 0.10543
# Poissons Ratio (z) = 0.31115 0.47730
#
# Static dielectric constant tensor:
#      x y z
#    x 4.140630 0.000000 -0.174490 
#    y 0.000000 4.206520 0.000000 
#    z -0.174490 0.000000 3.404640 
# 
# 
# High freq. dielectric constant tensor:
#      x y z
#    x 1.881050 0.000000 -0.014250 
#    y 0.000000 1.895410 0.000000 
#    z -0.014250 0.000000 1.798320 
# 
# From -- ./inp_files/217493.got.cif
#   From: 2010.06.25/outbox.cif.g09.slc.cpg/sg15_109_cif.got.tgz:217493.got - 2010.06.28 07:06:18.
