data_PCOD8133395
_publ_section_title
;
Structure prediction by ZEFSAII (Michael W. Deem and Ramdas Pophale) SiO2 
 PCOD8133395
Probable space group: C 2/C
;
_chemical_formula_sum "Si O2"
_cell_formula_units_Z 48
_cell_length_a 14.508358
_cell_length_b 13.680536
_cell_length_c 13.944970
_cell_angle_alpha 90.000000
_cell_angle_beta 101.420994
_cell_angle_gamma 90.000000
_cell_volume 2713.020506
_symmetry_space_group_name_H-M "C 2/C"
_symmetry_group_IT_number 15
_symmetry_cell_setting 'monoclinic'
loop_
_space_group_symop_operation_xyz
x,y,z
-x,y,1/2-z
-x,-y,-z
x,-y,1/2+z
1/2+x,1/2+y,z
1/2-x,1/2+y,1/2-z
1/2-x,1/2-y,-z
1/2+x,1/2-y,1/2+z
loop_
_atom_site_type_symbol
_atom_site_label
_atom_site_fract_x
_atom_site_fract_y
_atom_site_fract_z
Si Si1 0.767290 0.371548 0.759571
Si Si2 0.301249 0.548107 0.656904
Si Si3 0.406061 0.293164 0.288537
Si Si4 0.009612 0.883977 0.009756
Si Si5 0.794415 0.848118 0.969717
Si Si6 0.911766 0.132659 0.171237
O O1 0.776721 0.483749 0.801144
O O2 0.862072 0.312890 0.803007
O O3 0.745954 0.376710 0.641979
O O4 0.681787 0.318846 0.801232
O O5 0.325488 0.650627 0.711968
O O6 0.266798 0.567383 0.540834
O O7 0.398594 0.485676 0.673929
O O8 0.500000 0.272688 0.250000
O O9 0.429509 0.356414 0.385938
O O10 0.069360 0.838149 0.934469
O O11 0.907021 0.834996 0.989685
O O12 0.000000 0.000000 0.000000
O O13 0.750000 0.750000 0.000000
O O14 0.000000 0.167236 0.250000
#
# Coordination Sequence:
#
# PCOD8133395 Si02
#       6
#     8   8   8   8   8   8
#     4  10  23  36  55  90 124 148 194 251 296 350
#     4  10  21  34  56  87 116 150 194 245 301 336
#     4  12  21  37  60  89 115 154 201 246 289 349
#     4  12  19  33  60  85 115 150 194 247 298 348
#     4  12  20  35  58  88 115 156 199 240 289 358
#     4  10  19  33  54  85 120 151 185 241 302 336
#
# _framework density 17.692457999999998
#
# number of rings (size 3 to 8) (size 9 to 14) (size 15 to 20)
#    1.000    0.000    6.667    2.500    0.000    0.667 
#    0.000    0.000    0.000    7.000    0.000    0.000 
#    0.000    0.000    0.000    0.000    0.000    0.000 
#
# Total GULP energy -297409.906196 kJ/mol
# GULP energy per Si atom -12392.079425 kJ/mol
# Density = 1.765219 g / cm^3
# Si number density = 17.692458 Si / 1000 Ang^3
#
#
#
# Elastic Constant Matrix: (Units=GPa)
#
#
# Indices 1 2 3 4 5 6 
#
# 1 87.2027 55.1398 49.3883 0.0000 -15.9401 0.0000
# 2 55.1398 72.5902 33.8428 0.0000 -6.5945 0.0000
# 3 49.3883 33.8428 131.5858 0.0000 -23.0825 0.0000
# 4 0.0000 0.0000 0.0000 22.9721 0.0000 -5.7948
# 5 -15.9401 -6.5945 -23.0825 0.0000 30.3297 0.0000
# 6 0.0000 0.0000 0.0000 -5.7948 0.0000 32.3749
#
#
#
# Elastic Compliance Matrix: (Units=1/GPa)
#
#
# Indices 1 2 3 4 5 6 
#
# 1 0.025843 -0.017097 -0.004122 0.000000 0.006727 0.000000
# 2 -0.017097 0.026968 -0.001231 0.000000 -0.004059 0.000000
# 3 -0.004122 -0.001231 0.010429 0.000000 0.005503 0.000000
# 4 0.000000 0.000000 0.000000 0.045590 0.000000 0.008160
# 5 0.006727 -0.004059 0.005503 0.000000 0.039812 0.000000
# 6 0.000000 0.000000 0.000000 0.008160 0.000000 0.032349
#
#
# Mechanical properties :
#
#
# Convention : Reuss Voigt Hill
#
# Bulk Modulus (GPa) = 54.52879 63.12451 58.82665
# Shear Modulus (GPa) = 21.55134 27.33585 24.44359
#
# Velocity S-wave (km/s) = 3.49393 3.93499 3.72100
# Velocity P-wave (km/s) = 6.86760 7.51011 7.19603
#
# Compressibility (1/GPa) = 0.01833894
#
# Stress axis : x y z
#
# Youngs Moduli (GPa) = 38.69528 37.08055 95.88981
#
# Poissons Ratio (x) = 0.63398 0.39528
# Poissons Ratio (y) = 0.66159 0.11802
# Poissons Ratio (z) = 0.15951 0.04564
#
# Static dielectric constant tensor:
#      x y z
#    x 3.297160 0.000000 -0.249940 
#    y 0.000000 3.054030 0.000000 
#    z -0.249940 0.000000 3.553940 
# 
# 
# High freq. dielectric constant tensor:
#      x y z
#    x 1.671240 0.000000 -0.022040 
#    y 0.000000 1.652550 0.000000 
#    z -0.022040 0.000000 1.699140 
# 
# From -- ./inp_files/143821.got.cif
#   From: 2010.06.25/outbox.cif.g09.slc.cpg/sg15_72_cif.got.tgz:143821.got - 2010.06.28 07:06:18.
