data_PCOD8133355
_publ_section_title
;
Structure prediction by ZEFSAII (Michael W. Deem and Ramdas Pophale) SiO2 
 PCOD8133355
Probable space group: C 2/C
;
_chemical_formula_sum "Si O2"
_cell_formula_units_Z 56
_cell_length_a 18.968674
_cell_length_b 22.837316
_cell_length_c 7.351033
_cell_angle_alpha 90.000000
_cell_angle_beta 111.292194
_cell_angle_gamma 90.000000
_cell_volume 2967.054180
_symmetry_space_group_name_H-M "C 2/C"
_symmetry_group_IT_number 15
_symmetry_cell_setting 'monoclinic'
loop_
_space_group_symop_operation_xyz
x,y,z
-x,y,1/2-z
-x,-y,-z
x,-y,1/2+z
1/2+x,1/2+y,z
1/2-x,1/2+y,1/2-z
1/2-x,1/2-y,-z
1/2+x,1/2-y,1/2+z
loop_
_atom_site_type_symbol
_atom_site_label
_atom_site_fract_x
_atom_site_fract_y
_atom_site_fract_z
Si Si1 0.164556 0.437343 0.294434
Si Si2 0.983423 0.616438 0.947860
Si Si3 0.566361 0.235676 0.425179
Si Si4 0.260043 0.668208 0.824712
Si Si5 0.788454 0.320583 0.604615
Si Si6 0.637707 0.931406 0.684857
Si Si7 0.326149 0.277912 0.707641
O O1 0.095255 0.418052 0.099640
O O2 0.239561 0.400797 0.309383
O O3 0.153547 0.419799 0.490767
O O4 0.170568 0.506631 0.280052
O O5 0.000000 0.621978 0.750000
O O6 0.975794 0.680143 0.026495
O O7 0.047224 0.579700 0.119919
O O8 0.500000 0.268316 0.250000
O O9 0.637575 0.218874 0.365011
O O10 0.594783 0.280919 0.609014
O O11 0.270059 0.685441 0.621394
O O12 0.190667 0.708336 0.841200
O O13 0.331484 0.685166 0.022540
O O14 0.815221 0.387067 0.647723
O O15 0.745315 0.301595 0.744611
#
# Coordination Sequence:
#
# PCOD8133355 Si02
#       7
#     8   8   8   8   8   8   8
#     4  11  20  34  47  75 103 150 183 229 253 313
#     4  10  21  34  47  71 107 146 189 220 258 303
#     4  11  20  34  54  73 104 137 180 225 271 313
#     4  10  19  33  54  70 103 132 181 218 270 303
#     4  11  20  36  54  76 101 141 178 221 270 321
#     4  11  22  32  51  70 109 142 188 221 264 306
#     4  10  21  36  54  76 101 138 179 225 272 319
#
# _framework density 18.873940000000001
#
# number of rings (size 3 to 8) (size 9 to 14) (size 15 to 20)
#    0.000    1.429    5.714    3.000    0.000    0.000 
#    2.571    0.000    0.000    0.000    0.000    0.000 
#    0.000    1.143    0.286    0.000    0.000    0.000 
#
# Total GULP energy -346932.728413 kJ/mol
# GULP energy per Si atom -12390.454586 kJ/mol
# Density = 1.883098 g / cm^3
# Si number density = 18.873940 Si / 1000 Ang^3
#
#
#
# Elastic Constant Matrix: (Units=GPa)
#
#
# Indices 1 2 3 4 5 6 
#
# 1 27.1172 13.3862 20.4756 0.0000 2.9048 0.0000
# 2 13.3862 66.0942 33.9284 0.0000 15.6533 0.0000
# 3 20.4756 33.9284 144.2712 0.0000 19.7581 0.0000
# 4 0.0000 0.0000 0.0000 33.9451 0.0000 0.2968
# 5 2.9048 15.6533 19.7581 0.0000 20.0042 0.0000
# 6 0.0000 0.0000 0.0000 0.2968 0.0000 19.4504
#
#
#
# Elastic Compliance Matrix: (Units=1/GPa)
#
#
# Indices 1 2 3 4 5 6 
#
# 1 0.043870 -0.007302 -0.005110 0.000000 0.004391 0.000000
# 2 -0.007302 0.020780 -0.002046 0.000000 -0.013180 0.000000
# 3 -0.005110 -0.002046 0.009040 0.000000 -0.006586 0.000000
# 4 0.000000 0.000000 0.000000 0.029463 0.000000 -0.000450
# 5 0.004391 -0.013180 -0.006586 0.000000 0.066170 0.000000
# 6 0.000000 0.000000 0.000000 -0.000450 0.000000 0.051420
#
#
# Mechanical properties :
#
#
# Convention : Reuss Voigt Hill
#
# Bulk Modulus (GPa) = 22.33419 41.45146 31.89283
# Shear Modulus (GPa) = 18.89769 25.99275 22.44522
#
# Velocity S-wave (km/s) = 3.16770 3.71506 3.45224
# Velocity P-wave (km/s) = 5.02376 6.35706 5.72932
#
# Compressibility (1/GPa) = 0.04477440
#
# Stress axis : x y z
#
# Youngs Moduli (GPa) = 22.79477 48.12267 110.62360
#
# Poissons Ratio (x) = 0.35137 0.56533
# Poissons Ratio (y) = 0.16644 0.22630
# Poissons Ratio (z) = 0.11649 0.09844
#
# Static dielectric constant tensor:
#      x y z
#    x 3.102110 0.000000 -0.032450 
#    y 0.000000 3.362760 0.000000 
#    z -0.032450 0.000000 4.013630 
# 
# 
# High freq. dielectric constant tensor:
#      x y z
#    x 1.680840 0.000000 -0.023600 
#    y 0.000000 1.706240 0.000000 
#    z -0.023600 0.000000 1.762880 
# 
# From -- ./inp_files/51308.got.cif
#   From: 2010.06.25/outbox.cif.g09.slc.cpg/sg15_26_cif.got.tgz:51308.got - 2010.06.28 07:06:18.
