data_PCOD8133061
_publ_section_title
;
Structure prediction by ZEFSAII (Michael W. Deem and Ramdas Pophale) SiO2 
 PCOD8133061
Probable space group: C 2/C
;
_chemical_formula_sum "Si O2"
_cell_formula_units_Z 52
_cell_length_a 15.825944
_cell_length_b 25.644609
_cell_length_c 12.490895
_cell_angle_alpha 90.000000
_cell_angle_beta 35.918977
_cell_angle_gamma 90.000000
_cell_volume 2973.934469
_symmetry_space_group_name_H-M "C 2/C"
_symmetry_group_IT_number 15
_symmetry_cell_setting 'monoclinic'
loop_
_space_group_symop_operation_xyz
x,y,z
-x,y,1/2-z
-x,-y,-z
x,-y,1/2+z
1/2+x,1/2+y,z
1/2-x,1/2+y,1/2-z
1/2-x,1/2-y,-z
1/2+x,1/2-y,1/2+z
loop_
_atom_site_type_symbol
_atom_site_label
_atom_site_fract_x
_atom_site_fract_y
_atom_site_fract_z
Si Si1 0.500000 0.141465 0.750000
Si Si2 0.113145 0.560386 0.796872
Si Si3 0.925589 0.538754 0.427972
Si Si4 0.096392 0.980323 0.247804
Si Si5 0.796330 0.276638 0.560548
Si Si6 0.934658 0.070849 0.501716
Si Si7 0.995102 0.812270 0.883344
O O1 0.589413 0.109257 0.744958
O O2 0.604605 0.174664 0.568621
O O3 0.282628 0.547629 0.615608
O O4 0.017620 0.513197 0.853284
O O5 0.075260 0.572674 0.961611
O O6 0.766329 0.522792 0.553299
O O7 0.000000 0.568543 0.250000
O O8 0.046650 0.942696 0.393798
O O9 0.000000 0.959196 0.250000
O O10 0.059861 0.041358 0.307709
O O11 0.750000 0.250000 0.500000
O O12 0.884369 0.232794 0.537239
O O13 0.653294 0.297308 0.767918
O O14 0.944209 0.132746 0.481146
O O15 0.000000 0.814952 0.750000
#
# Coordination Sequence:
#
# PCOD8133061 Si02
#       7
#     4   8   8   8   8   8   8
#     4  12  20  32  52  78 106 136 180 214 262 316
#     4  10  21  32  53  76 101 144 176 217 264 308
#     4  10  20  36  49  73 108 140 180 219 255 314
#     4  10  21  35  53  76 105 140 176 219 252 310
#     4  10  19  32  48  73 107 133 167 210 265 311
#     4  10  21  35  53  77 104 140 180 208 263 313
#     4  10  19  32  50  74 105 137 163 212 259 317
#
# _framework density 17.485254000000001
#
# number of rings (size 3 to 8) (size 9 to 14) (size 15 to 20)
#    0.000    1.846    3.077    3.231    2.154    1.231 
#    0.000    0.000    0.000    0.000    0.000    2.154 
#    0.000    0.154    0.000    0.000    0.000    0.000 
#
# Total GULP energy -322247.465092 kJ/mol
# GULP energy per Si atom -12394.133273 kJ/mol
# Density = 1.744546 g / cm^3
# Si number density = 17.485254 Si / 1000 Ang^3
#
#
#
# Elastic Constant Matrix: (Units=GPa)
#
#
# Indices 1 2 3 4 5 6 
#
# 1 103.7316 35.0411 40.4424 0.0005 -10.8386 -0.0003
# 2 35.0411 83.7490 23.6457 -0.0001 -3.7898 0.0001
# 3 40.4424 23.6457 86.0980 0.0005 -15.7434 -0.0004
# 4 0.0005 -0.0001 0.0005 21.3597 -0.0005 -2.6350
# 5 -10.8386 -3.7898 -15.7434 -0.0005 29.7531 0.0004
# 6 -0.0003 0.0001 -0.0004 -2.6350 0.0004 22.4003
#
#
#
# Elastic Compliance Matrix: (Units=1/GPa)
#
#
# Indices 1 2 3 4 5 6 
#
# 1 0.013015 -0.004044 -0.004683 0.000000 0.001748 0.000000
# 2 -0.004044 0.014203 -0.002147 0.000000 -0.000800 0.000000
# 3 -0.004683 -0.002147 0.015546 0.000000 0.006247 0.000000
# 4 0.000000 0.000000 0.000000 0.047507 0.000001 0.005588
# 5 0.001748 -0.000800 0.006247 0.000001 0.037450 0.000000
# 6 0.000000 0.000000 0.000000 0.005588 0.000000 0.045300
#
#
# Mechanical properties :
#
#
# Convention : Reuss Voigt Hill
#
# Bulk Modulus (GPa) = 47.58556 52.42634 50.00595
# Shear Modulus (GPa) = 24.78019 26.33258 25.55638
#
# Velocity S-wave (km/s) = 3.76866 3.88492 3.82723
# Velocity P-wave (km/s) = 6.79786 7.08320 6.94199
#
# Compressibility (1/GPa) = 0.02101478
#
# Stress axis : x y z
#
# Youngs Moduli (GPa) = 76.83515 70.40970 64.32363
#
# Poissons Ratio (x) = 0.28475 0.30123
# Poissons Ratio (y) = 0.31074 0.13812
# Poissons Ratio (z) = 0.35983 0.15119
#
# Static dielectric constant tensor:
#      x y z
#    x 3.470670 0.000000 -0.255890 
#    y 0.000000 3.160900 0.000000 
#    z -0.255890 0.000000 3.563360 
# 
# 
# High freq. dielectric constant tensor:
#      x y z
#    x 1.672220 0.000000 -0.028390 
#    y 0.000000 1.652220 0.000000 
#    z -0.028390 0.000000 1.676900 
# 
# From -- ./inp_files/42321.got.cif
#   From: 2010.06.25/outbox.cif.g09.slc.cpg/sg15_22_cif.got.tgz:42321.got - 2010.06.28 07:06:18.
