data_PCOD8133044
_publ_section_title
;
Structure prediction by ZEFSAII (Michael W. Deem and Ramdas Pophale) SiO2 
 PCOD8133044
Probable space group: C 2/C
;
_chemical_formula_sum "Si O2"
_cell_formula_units_Z 40
_cell_length_a 21.915099
_cell_length_b 19.212347
_cell_length_c 11.509898
_cell_angle_alpha 90.000000
_cell_angle_beta 22.176265
_cell_angle_gamma 90.000000
_cell_volume 1829.207856
_symmetry_space_group_name_H-M "C 2/C"
_symmetry_group_IT_number 15
_symmetry_cell_setting 'monoclinic'
loop_
_space_group_symop_operation_xyz
x,y,z
-x,y,1/2-z
-x,-y,-z
x,-y,1/2+z
1/2+x,1/2+y,z
1/2-x,1/2+y,1/2-z
1/2-x,1/2-y,-z
1/2+x,1/2-y,1/2+z
loop_
_atom_site_type_symbol
_atom_site_label
_atom_site_fract_x
_atom_site_fract_y
_atom_site_fract_z
Si Si1 0.893878 0.127792 0.143328
Si Si2 0.776930 0.878682 0.536351
Si Si3 0.817669 0.478137 0.603184
Si Si4 0.175470 0.120258 0.802832
Si Si5 0.174539 0.755359 0.894204
O O1 0.754070 0.070272 0.374329
O O2 0.830527 0.205599 0.222576
O O3 0.028169 0.110044 0.807068
O O4 0.981641 0.124289 0.114728
O O5 0.689387 0.940644 0.759536
O O6 0.719383 0.876153 0.503209
O O7 0.734939 0.805772 0.673025
O O8 0.714604 0.548602 0.797925
O O9 0.000000 0.496634 0.250000
O O10 0.221326 0.185075 0.803829
O O11 0.000000 0.733845 0.250000
#
# Coordination Sequence:
#
# PCOD8133044 Si02
#       5
#     8   8   8   8   8
#     4   8  19  36  55  76 107 139 175 219 263 312
#     4   8  19  34  54  76 106 139 176 216 260 311
#     4  11  20  33  51  79 112 144 171 215 264 318
#     4  10  19  31  58  83 103 139 178 217 271 307
#     4   9  15  30  53  84 101 126 175 233 255 293
#
# _framework density 21.867388999999999
#
# number of rings (size 3 to 8) (size 9 to 14) (size 15 to 20)
#    1.200    1.600    0.000    3.600    0.000    0.800 
#    0.000    0.000    0.000   14.400    0.000    0.000 
#    0.000    0.000    0.000    0.000    0.000    0.000 
#
# Total GULP energy -247790.597942 kJ/mol
# GULP energy per Si atom -12389.529897 kJ/mol
# Density = 2.181762 g / cm^3
# Si number density = 21.867389 Si / 1000 Ang^3
#
#
#
# Elastic Constant Matrix: (Units=GPa)
#
#
# Indices 1 2 3 4 5 6 
#
# 1 26.1543 40.9042 19.3574 -0.0009 -11.5044 0.0010
# 2 40.9042 160.1452 23.5522 -0.0078 -23.0160 0.0004
# 3 19.3574 23.5522 37.1667 -0.0129 -15.6204 -0.0007
# 4 -0.0009 -0.0078 -0.0129 24.7061 -0.0004 -9.4738
# 5 -11.5044 -23.0160 -15.6204 -0.0004 21.5567 0.0005
# 6 0.0010 0.0004 -0.0007 -9.4738 0.0005 25.8190
#
#
#
# Elastic Compliance Matrix: (Units=1/GPa)
#
#
# Indices 1 2 3 4 5 6 
#
# 1 0.096331 -0.018504 -0.036153 -0.000027 0.005457 -0.000015
# 2 -0.018504 0.011031 0.004956 0.000007 0.005494 0.000003
# 3 -0.036153 0.004956 0.052785 0.000034 0.024246 0.000015
# 4 -0.000027 0.000007 0.000034 0.047104 0.000018 0.017284
# 5 0.005457 0.005494 0.024246 0.000018 0.072737 0.000005
# 6 -0.000015 0.000003 0.000015 0.017284 0.000005 0.045073
#
#
# Mechanical properties :
#
#
# Convention : Reuss Voigt Hill
#
# Bulk Modulus (GPa) = 16.46201 43.45488 29.95844
# Shear Modulus (GPa) = 11.24324 23.72651 17.48487
#
# Velocity S-wave (km/s) = 2.26996 3.29753 2.83076
# Velocity P-wave (km/s) = 3.79668 5.86630 4.94106
#
# Compressibility (1/GPa) = 0.06074593
#
# Stress axis : x y z
#
# Youngs Moduli (GPa) = 10.38082 90.65096 18.94480
#
# Poissons Ratio (x) = 1.67738 0.68491
# Poissons Ratio (y) = 0.19208 -0.09389
# Poissons Ratio (z) = 0.37530 -0.44925
#
# Static dielectric constant tensor:
#      x y z
#    x 3.624990 -0.000010 -0.219340 
#    y -0.000010 3.753520 0.000020 
#    z -0.219340 0.000020 3.356490 
# 
# 
# High freq. dielectric constant tensor:
#      x y z
#    x 1.839410 0.000000 -0.019430 
#    y 0.000000 1.860850 0.000000 
#    z -0.019430 0.000000 1.812470 
# 
# From -- ./inp_files/178681.got.cif
#   From: 2010.06.25/outbox.cif.g09.slc.cpg/sg15_90_cif.got.tgz:178681.got - 2010.06.28 07:06:18.
