data_PCOD8133367
_publ_section_title
;
Structure prediction by ZEFSAII (Michael W. Deem and Ramdas Pophale) SiO2 
 PCOD8133367
Probable space group: C 2/C
;
_chemical_formula_sum "Si O2"
_cell_formula_units_Z 40
_cell_length_a 12.933632
_cell_length_b 23.780426
_cell_length_c 9.286183
_cell_angle_alpha 90.000000
_cell_angle_beta 51.344230
_cell_angle_gamma 90.000000
_cell_volume 2230.385483
_symmetry_space_group_name_H-M "C 2/C"
_symmetry_group_IT_number 15
_symmetry_cell_setting 'monoclinic'
loop_
_space_group_symop_operation_xyz
x,y,z
-x,y,1/2-z
-x,-y,-z
x,-y,1/2+z
1/2+x,1/2+y,z
1/2-x,1/2+y,1/2-z
1/2-x,1/2-y,-z
1/2+x,1/2-y,1/2+z
loop_
_atom_site_type_symbol
_atom_site_label
_atom_site_fract_x
_atom_site_fract_y
_atom_site_fract_z
Si Si1 0.351509 0.171342 0.330801
Si Si2 0.630615 0.297465 0.233076
Si Si3 0.710363 0.427421 0.823341
Si Si4 0.845832 0.978202 0.916444
Si Si5 0.550958 0.373470 0.549496
O O1 0.500000 0.160628 0.250000
O O2 0.334285 0.232193 0.271659
O O3 0.251414 0.169284 0.553444
O O4 0.317298 0.122269 0.246980
O O5 0.500000 0.303763 0.250000
O O6 0.613162 0.322174 0.407884
O O7 0.735675 0.464173 0.657791
O O8 0.566742 0.399083 0.943375
O O9 0.721490 0.468547 0.950731
O O10 0.840600 0.922855 0.022913
O O11 0.000000 0.991036 0.750000
O O12 0.500000 0.351895 0.750000
#
# Coordination Sequence:
#
# PCOD8133367 Si02
#       5
#     8   8   8   8   8
#     4  10  22  35  54  83 112 145 186 223 262 328
#     4  10  19  35  63  80 104 147 187 223 274 313
#     4  10  19  33  54  79 111 140 177 231 269 322
#     4   9  19  30  53  87 107 135 180 230 276 314
#     4   9  18  33  56  88 111 131 179 238 276 314
#
# _framework density 17.93412
#
# number of rings (size 3 to 8) (size 9 to 14) (size 15 to 20)
#    0.000    2.800    2.000    2.400    5.600    0.000 
#    0.000    5.000    0.000    0.000    0.000    0.000 
#    0.000    0.000    0.000    0.000    0.000    0.000 
#
# Total GULP energy -247926.488941 kJ/mol
# GULP energy per Si atom -12396.324447 kJ/mol
# Density = 1.789330 g / cm^3
# Si number density = 17.934120 Si / 1000 Ang^3
#
#
#
# Elastic Constant Matrix: (Units=GPa)
#
#
# Indices 1 2 3 4 5 6 
#
# 1 76.6622 48.7250 42.3310 0.0000 4.1808 0.0000
# 2 48.7250 109.9993 63.3817 0.0000 19.0117 0.0000
# 3 42.3310 63.3817 90.8380 0.0000 11.0276 0.0000
# 4 0.0000 0.0000 0.0000 33.2521 0.0000 5.9257
# 5 4.1808 19.0117 11.0276 0.0000 22.7917 0.0000
# 6 0.0000 0.0000 0.0000 5.9257 0.0000 25.0520
#
#
#
# Elastic Compliance Matrix: (Units=1/GPa)
#
#
# Indices 1 2 3 4 5 6 
#
# 1 0.019838 -0.006533 -0.005212 0.000000 0.004332 0.000000
# 2 -0.006533 0.018872 -0.008880 0.000000 -0.010248 0.000000
# 3 -0.005212 -0.008880 0.019780 0.000000 -0.001207 0.000000
# 4 0.000000 0.000000 0.000000 0.031397 0.000000 -0.007426
# 5 0.004332 -0.010248 -0.001207 0.000000 0.052213 0.000000
# 6 0.000000 0.000000 0.000000 -0.007426 0.000000 0.041674
#
#
# Mechanical properties :
#
#
# Convention : Reuss Voigt Hill
#
# Bulk Modulus (GPa) = 58.00249 65.15277 61.57763
# Shear Modulus (GPa) = 21.66648 24.42327 23.04488
#
# Velocity S-wave (km/s) = 3.47957 3.69431 3.58854
# Velocity P-wave (km/s) = 6.96817 7.38952 7.18193
#
# Compressibility (1/GPa) = 0.01724064
#
# Stress axis : x y z
#
# Youngs Moduli (GPa) = 50.40740 52.98741 50.55630
#
# Poissons Ratio (x) = 0.34616 0.26352
# Poissons Ratio (y) = 0.32931 0.44892
# Poissons Ratio (z) = 0.26274 0.47051
#
# Static dielectric constant tensor:
#      x y z
#    x 3.127730 0.000000 0.136370 
#    y 0.000000 3.448230 0.000000 
#    z 0.136370 0.000000 3.176960 
# 
# 
# High freq. dielectric constant tensor:
#      x y z
#    x 1.669190 0.000000 0.017190 
#    y 0.000000 1.703640 0.000000 
#    z 0.017190 0.000000 1.670770 
# 
# From -- ./inp_files/31723.got.cif
#   From: 2010.06.25/outbox.cif.g09.slc.cpg/sg15_16_cif.got.tgz:31723.got - 2010.06.28 07:06:18.
