data_PCOD8133294
_publ_section_title
;
Structure prediction by ZEFSAII (Michael W. Deem and Ramdas Pophale) SiO2 
 PCOD8133294
Probable space group: C 2/C
;
_chemical_formula_sum "Si O2"
_cell_formula_units_Z 56
_cell_length_a 11.261842
_cell_length_b 23.815710
_cell_length_c 11.454251
_cell_angle_alpha 90.000000
_cell_angle_beta 84.295617
_cell_angle_gamma 90.000000
_cell_volume 3056.917209
_symmetry_space_group_name_H-M "C 2/C"
_symmetry_group_IT_number 15
_symmetry_cell_setting 'monoclinic'
loop_
_space_group_symop_operation_xyz
x,y,z
-x,y,1/2-z
-x,-y,-z
x,-y,1/2+z
1/2+x,1/2+y,z
1/2-x,1/2+y,1/2-z
1/2-x,1/2-y,-z
1/2+x,1/2-y,1/2+z
loop_
_atom_site_type_symbol
_atom_site_label
_atom_site_fract_x
_atom_site_fract_y
_atom_site_fract_z
Si Si1 0.861719 0.574821 0.792440
Si Si2 0.590201 0.166803 0.532481
Si Si3 0.806951 0.801561 0.559674
Si Si4 0.942401 0.215712 0.376175
Si Si5 0.659542 0.885134 0.449248
Si Si6 0.370598 0.049996 0.321315
Si Si7 0.763772 0.349756 0.700119
O O1 0.838380 0.620317 0.897187
O O2 0.796212 0.590176 0.678202
O O3 0.818000 0.512941 0.833326
O O4 0.000000 0.572687 0.750000
O O5 0.627105 0.229468 0.569076
O O6 0.447826 0.159492 0.559796
O O7 0.622222 0.160581 0.392866
O O8 0.750000 0.750000 0.500000
O O9 0.776571 0.856679 0.489459
O O10 0.745161 0.804694 0.693868
O O11 0.950371 0.800868 0.547654
O O12 0.854816 0.161644 0.367908
O O13 0.000000 0.235232 0.250000
O O14 0.614303 0.931889 0.545221
O O15 0.500000 0.052939 0.250000
O O16 0.276848 0.088348 0.256451
#
# Coordination Sequence:
#
# PCOD8133294 Si02
#       7
#     8   8   8   8   8   8   8
#     4   9  21  30  53  79 108 144 167 219 272 319
#     4  11  19  33  52  81 111 133 170 217 271 313
#     4  10  20  35  56  75 104 143 176 213 256 316
#     4  10  20  36  53  76 107 140 177 208 258 323
#     4  10  19  33  53  79 105 139 177 212 267 316
#     4  10  19  33  51  79 108 137 176 218 267 314
#     4  10  22  33  54  79 108 140 171 216 262 310
#
# _framework density 18.319110999999999
#
# number of rings (size 3 to 8) (size 9 to 14) (size 15 to 20)
#    0.000    2.000    2.857    1.714    4.000    1.714 
#    0.000    0.000    0.000    0.857    7.429    0.000 
#    0.000    0.000    0.000    0.000    0.000    0.000 
#
# Total GULP energy -347031.528662 kJ/mol
# GULP energy per Si atom -12393.983167 kJ/mol
# Density = 1.827742 g / cm^3
# Si number density = 18.319111 Si / 1000 Ang^3
#
#
#
# Elastic Constant Matrix: (Units=GPa)
#
#
# Indices 1 2 3 4 5 6 
#
# 1 61.4189 43.5087 23.3518 0.0000 21.8792 0.0000
# 2 43.5087 104.2255 42.2939 0.0000 10.9930 0.0000
# 3 23.3518 42.2939 88.1502 0.0000 10.9803 0.0000
# 4 0.0000 0.0000 0.0000 28.2625 0.0000 4.2776
# 5 21.8792 10.9930 10.9803 0.0000 27.8830 0.0000
# 6 0.0000 0.0000 0.0000 4.2776 0.0000 16.4689
#
#
#
# Elastic Compliance Matrix: (Units=1/GPa)
#
#
# Indices 1 2 3 4 5 6 
#
# 1 0.031213 -0.010647 -0.000665 0.000000 -0.020033 0.000000
# 2 -0.010647 0.015724 -0.005250 0.000000 0.004223 0.000000
# 3 -0.000665 -0.005250 0.014424 0.000000 -0.003089 0.000000
# 4 0.000000 0.000000 0.000000 0.036830 0.000000 -0.009566
# 5 -0.020033 0.004223 -0.003089 0.000000 0.051135 0.000000
# 6 0.000000 0.000000 0.000000 -0.009566 0.000000 0.063205
#
#
# Mechanical properties :
#
#
# Convention : Reuss Voigt Hill
#
# Bulk Modulus (GPa) = 35.41380 52.45592 43.93486
# Shear Modulus (GPa) = 19.60264 24.16556 21.88410
#
# Velocity S-wave (km/s) = 3.27473 3.63594 3.46006
# Velocity P-wave (km/s) = 5.80277 6.80614 6.32438
#
# Compressibility (1/GPa) = 0.02823758
#
# Stress axis : x y z
#
# Youngs Moduli (GPa) = 32.03797 63.59651 69.32909
#
# Poissons Ratio (x) = 0.67712 0.04609
# Poissons Ratio (y) = 0.34111 0.36396
# Poissons Ratio (z) = 0.02130 0.33387
#
# Static dielectric constant tensor:
#      x y z
#    x 3.210780 0.000000 0.222380 
#    y 0.000000 3.536400 0.000000 
#    z 0.222380 0.000000 3.722560 
# 
# 
# High freq. dielectric constant tensor:
#      x y z
#    x 1.667890 0.000000 0.016060 
#    y 0.000000 1.705530 0.000000 
#    z 0.016060 0.000000 1.723450 
# 
# From -- ./inp_files/88950.got.cif
#   From: 2010.06.25/outbox.cif.g09.slc.cpg/sg15_45_cif.got.tgz:88950.got - 2010.06.28 07:06:18.
