data_PCOD8133854
_publ_section_title
;
Structure prediction by ZEFSAII (Michael W. Deem and Ramdas Pophale) SiO2 
 PCOD8133854
Probable space group: C 2/C
;
_chemical_formula_sum "Si O2"
_cell_formula_units_Z 52
_cell_length_a 12.539081
_cell_length_b 12.356871
_cell_length_c 16.760542
_cell_angle_alpha 90.000000
_cell_angle_beta 120.944382
_cell_angle_gamma 90.000000
_cell_volume 2227.311222
_symmetry_space_group_name_H-M "C 2/C"
_symmetry_group_IT_number 15
_symmetry_cell_setting 'monoclinic'
loop_
_space_group_symop_operation_xyz
x,y,z
-x,y,1/2-z
-x,-y,-z
x,-y,1/2+z
1/2+x,1/2+y,z
1/2-x,1/2+y,1/2-z
1/2-x,1/2-y,-z
1/2+x,1/2-y,1/2+z
loop_
_atom_site_type_symbol
_atom_site_label
_atom_site_fract_x
_atom_site_fract_y
_atom_site_fract_z
Si Si1 0.878854 0.944118 0.353799
Si Si2 0.025891 0.727641 0.041269
Si Si3 0.635110 0.902816 0.332604
Si Si4 0.155845 0.815127 0.641657
Si Si5 0.604900 0.868386 0.857593
Si Si6 0.294644 0.321201 0.653293
Si Si7 0.000000 0.010922 0.250000
O O1 0.906982 0.066362 0.393025
O O2 0.936133 0.930439 0.287794
O O3 0.937038 0.852986 0.432136
O O4 0.729052 0.929937 0.294836
O O5 0.148839 0.650938 0.081440
O O6 0.940328 0.689782 0.080859
O O7 0.943744 0.726207 0.928780
O O8 0.500000 0.880250 0.250000
O O9 0.676237 0.787640 0.387239
O O10 0.640855 0.006312 0.394106
O O11 0.278087 0.804470 0.633670
O O12 0.188433 0.792934 0.746183
O O13 0.500000 0.874472 0.750000
O O14 0.390953 0.415701 0.666933
#
# Coordination Sequence:
#
# PCOD8133854 Si02
#       7
#     8   8   8   8   8   8   4
#     4   9  21  35  57  87 118 149 193 236 282 348
#     4  11  21  35  62  85 118 153 192 237 287 342
#     4   9  18  34  59  82 108 154 191 229 287 337
#     4  10  20  37  57  89 119 149 194 239 285 339
#     4  10  19  34  58  87 114 147 196 235 284 338
#     4  10  20  37  59  82 113 154 193 234 285 348
#     4  10  20  36  58  86 118 152 192 236 290 332
#
# _framework density 23.346536
#
# number of rings (size 3 to 8) (size 9 to 14) (size 15 to 20)
#    0.000    2.154    2.308    0.923    3.231    0.000 
#    0.000    3.077   10.154    3.692    0.000    0.000 
#    0.000    0.000    0.000    0.000    0.000    0.000 
#
# Total GULP energy -322117.297668 kJ/mol
# GULP energy per Si atom -12389.126833 kJ/mol
# Density = 2.329340 g / cm^3
# Si number density = 23.346536 Si / 1000 Ang^3
#
#
#
# Elastic Constant Matrix: (Units=GPa)
#
#
# Indices 1 2 3 4 5 6 
#
# 1 117.7887 -2.8236 13.4653 0.0000 18.5176 0.0000
# 2 -2.8236 41.6416 -3.4505 0.0000 8.3493 0.0000
# 3 13.4653 -3.4505 48.0040 0.0000 12.7737 0.0000
# 4 0.0000 0.0000 0.0000 10.6944 0.0000 -1.5231
# 5 18.5176 8.3493 12.7737 0.0000 21.9595 0.0000
# 6 0.0000 0.0000 0.0000 -1.5231 0.0000 21.5816
#
#
#
# Elastic Compliance Matrix: (Units=1/GPa)
#
#
# Indices 1 2 3 4 5 6 
#
# 1 0.010037 0.002542 -0.000146 0.000000 -0.009345 0.000000
# 2 0.002542 0.027843 0.005532 0.000000 -0.015948 0.000000
# 3 -0.000146 0.005532 0.025789 0.000000 -0.016981 0.000000
# 4 0.000000 0.000000 0.000000 0.094457 0.000000 0.006666
# 5 -0.009345 -0.015948 -0.016981 0.000000 0.069360 0.000000
# 6 0.000000 0.000000 0.000000 0.006666 0.000000 0.046806
#
#
# Mechanical properties :
#
#
# Convention : Reuss Voigt Hill
#
# Bulk Modulus (GPa) = 12.57472 24.64629 18.61051
# Shear Modulus (GPa) = 17.54737 24.19664 20.87201
#
# Velocity S-wave (km/s) = 2.74452 3.22283 2.99324
# Velocity P-wave (km/s) = 3.92950 4.94252 4.46483
#
# Compressibility (1/GPa) = 0.07952461
#
# Stress axis : x y z
#
# Youngs Moduli (GPa) = 99.63585 35.91594 38.77649
#
# Poissons Ratio (x) = -0.09131 0.00566
# Poissons Ratio (y) = -0.25330 -0.21451
# Poissons Ratio (z) = 0.01453 -0.19868
#
# Static dielectric constant tensor:
#      x y z
#    x 4.561840 0.000000 0.264680 
#    y 0.000000 4.373560 0.000000 
#    z 0.264680 0.000000 3.674760 
# 
# 
# High freq. dielectric constant tensor:
#      x y z
#    x 1.949200 0.000000 0.021150 
#    y 0.000000 1.916380 0.000000 
#    z 0.021150 0.000000 1.874400 
# 
# From -- ./inp_files/198009.got.cif
#   From: 2010.06.25/outbox.cif.g09.slc.cpg/sg15_100_cif.got.tgz:198009.got - 2010.06.28 07:06:18.
