data_PCOD8133155
_publ_section_title
;
Structure prediction by ZEFSAII (Michael W. Deem and Ramdas Pophale) SiO2 
 PCOD8133155
Probable space group: C 2/C
;
_chemical_formula_sum "Si O2"
_cell_formula_units_Z 60
_cell_length_a 11.128501
_cell_length_b 19.913304
_cell_length_c 27.694496
_cell_angle_alpha 90.000000
_cell_angle_beta 148.940589
_cell_angle_gamma 90.000000
_cell_volume 3166.367993
_symmetry_space_group_name_H-M "C 2/C"
_symmetry_group_IT_number 15
_symmetry_cell_setting 'monoclinic'
loop_
_space_group_symop_operation_xyz
x,y,z
-x,y,1/2-z
-x,-y,-z
x,-y,1/2+z
1/2+x,1/2+y,z
1/2-x,1/2+y,1/2-z
1/2-x,1/2-y,-z
1/2+x,1/2-y,1/2+z
loop_
_atom_site_type_symbol
_atom_site_label
_atom_site_fract_x
_atom_site_fract_y
_atom_site_fract_z
Si Si1 0.549952 0.392142 0.387208
Si Si2 0.000000 0.708481 0.250000
Si Si3 0.730113 0.165910 0.237458
Si Si4 0.763964 0.659672 0.405878
Si Si5 0.294021 0.555686 0.712198
Si Si6 0.005831 0.567013 0.087194
Si Si7 0.754557 0.220376 0.827149
Si Si8 0.186366 0.675782 0.609376
O O1 0.366418 0.438266 0.293839
O O2 0.428467 0.342627 0.384344
O O3 0.696167 0.350639 0.398790
O O4 0.729672 0.436572 0.480511
O O5 0.124432 0.660864 0.254212
O O6 0.209845 0.751432 0.344957
O O7 0.562617 0.119517 0.148493
O O8 0.727060 0.242996 0.218367
O O9 0.998428 0.142744 0.327589
O O10 0.855073 0.590888 0.412687
O O11 0.806048 0.723429 0.385301
O O12 0.908460 0.677142 0.504116
O O13 0.500000 0.525275 0.750000
O O14 0.075560 0.506828 0.629701
O O15 0.234098 0.630086 0.672552
O O16 0.500000 0.190212 0.750000
#
# Coordination Sequence:
#
# PCOD8133155 Si02
#       8
#     8   4   8   8   8   8   8   8
#     4  10  19  33  54  82 101 144 181 218 276 321
#     4  12  20  34  54  78 118 144 178 224 270 328
#     4  10  20  34  52  80 113 145 173 224 271 318
#     4   9  20  32  53  85 111 142 177 219 273 322
#     4  10  19  34  53  79 112 140 178 227 268 321
#     4  10  21  33  57  81 108 141 182 226 270 317
#     4   9  17  33  55  78 108 139 181 220 264 325
#     4  10  19  32  53  82 113 141 177 221 275 322
#
# _framework density 18.949155999999999
#
# number of rings (size 3 to 8) (size 9 to 14) (size 15 to 20)
#    0.000    2.133    3.333    2.000    1.867    8.000 
#    0.000    0.000    1.467    0.800    0.000    0.000 
#    0.000    0.000    0.000    0.000    0.000    0.000 
#
# Total GULP energy -371851.609457 kJ/mol
# GULP energy per Si atom -12395.053649 kJ/mol
# Density = 1.890603 g / cm^3
# Si number density = 18.949156 Si / 1000 Ang^3
#
#
#
# Elastic Constant Matrix: (Units=GPa)
#
#
# Indices 1 2 3 4 5 6 
#
# 1 77.3072 19.2230 28.7605 -0.0006 1.2267 -0.0007
# 2 19.2230 46.4332 21.8110 0.0019 6.8425 0.0005
# 3 28.7605 21.8110 129.3811 0.0025 -2.3429 0.0021
# 4 -0.0006 0.0019 0.0025 26.3853 0.0016 1.7189
# 5 1.2267 6.8425 -2.3429 0.0016 17.1820 0.0002
# 6 -0.0007 0.0005 0.0021 1.7189 0.0002 9.0680
#
#
#
# Elastic Compliance Matrix: (Units=1/GPa)
#
#
# Indices 1 2 3 4 5 6 
#
# 1 0.015140 -0.005200 -0.002477 0.000001 0.000652 0.000002
# 2 -0.005200 0.026975 -0.003588 -0.000001 -0.010860 0.000000
# 3 -0.002477 -0.003588 0.008936 -0.000001 0.002824 -0.000002
# 4 0.000001 -0.000001 -0.000001 0.038374 -0.000003 -0.007274
# 5 0.000652 -0.010860 0.002824 -0.000003 0.062864 -0.000001
# 6 0.000002 0.000000 -0.000002 -0.007274 -0.000001 0.111656
#
#
# Mechanical properties :
#
#
# Convention : Reuss Voigt Hill
#
# Bulk Modulus (GPa) = 35.06354 43.63451 39.34902
# Shear Modulus (GPa) = 16.89294 22.74888 19.82091
#
# Velocity S-wave (km/s) = 2.98902 3.46861 3.23771
# Velocity P-wave (km/s) = 5.51874 6.25451 5.89811
#
# Compressibility (1/GPa) = 0.02851965
#
# Stress axis : x y z
#
# Youngs Moduli (GPa) = 66.05169 37.07128 111.91020
#
# Poissons Ratio (x) = 0.19278 0.27720
# Poissons Ratio (y) = 0.34349 0.40154
# Poissons Ratio (z) = 0.16361 0.13302
#
# Static dielectric constant tensor:
#      x y z
#    x 3.193910 0.000000 -0.076050 
#    y 0.000000 3.120340 -0.000010 
#    z -0.076050 -0.000010 3.836970 
# 
# 
# High freq. dielectric constant tensor:
#      x y z
#    x 1.700340 0.000000 -0.003450 
#    y 0.000000 1.707880 0.000000 
#    z -0.003450 0.000000 1.752200 
# 
# From -- ./inp_files/311746.got.cif
#   From: 2010.06.25/outbox.cif.g09.slc.cpg/sg15_156_cif.got.tgz:311746.got - 2010.06.28 07:06:18.
