data_PCOD8133636
_publ_section_title
;
Structure prediction by ZEFSAII (Michael W. Deem and Ramdas Pophale) SiO2 
 PCOD8133636
Probable space group: C 2/C
;
_chemical_formula_sum "Si O2"
_cell_formula_units_Z 56
_cell_length_a 9.049446
_cell_length_b 29.357894
_cell_length_c 13.841999
_cell_angle_alpha 90.000000
_cell_angle_beta 47.948762
_cell_angle_gamma 90.000000
_cell_volume 2730.669575
_symmetry_space_group_name_H-M "C 2/C"
_symmetry_group_IT_number 15
_symmetry_cell_setting 'monoclinic'
loop_
_space_group_symop_operation_xyz
x,y,z
-x,y,1/2-z
-x,-y,-z
x,-y,1/2+z
1/2+x,1/2+y,z
1/2-x,1/2+y,1/2-z
1/2-x,1/2-y,-z
1/2+x,1/2-y,1/2+z
loop_
_atom_site_type_symbol
_atom_site_label
_atom_site_fract_x
_atom_site_fract_y
_atom_site_fract_z
Si Si1 0.221722 0.000586 0.611381
Si Si2 0.712259 0.670364 0.707966
Si Si3 0.542131 0.417990 0.621429
Si Si4 0.228690 0.737227 0.121097
Si Si5 0.504665 0.652427 0.513146
Si Si6 0.815110 0.601136 0.510777
Si Si7 0.123229 0.548036 0.286413
O O1 0.219639 0.956043 0.540747
O O2 0.382568 0.991026 0.626968
O O3 0.000000 0.999704 0.750000
O O4 0.252396 0.048523 0.548757
O O5 0.500000 0.672906 0.750000
O O6 0.812282 0.719474 0.645135
O O7 0.683164 0.663874 0.835237
O O8 0.832219 0.628659 0.604555
O O9 0.500000 0.401904 0.750000
O O10 0.594315 0.374534 0.532714
O O11 0.346556 0.440540 0.658521
O O12 0.000000 0.724726 0.250000
O O13 0.250000 0.750000 0.000000
O O14 0.377878 0.696031 0.079505
O O15 0.660467 0.623465 0.506527
O O16 0.030121 0.596356 0.365972
O O17 0.000000 0.528615 0.250000
#
# Coordination Sequence:
#
# PCOD8133636 Si02
#       7
#     8   8   8   8   8   8   8
#     4   9  20  37  52  74 116 152 185 230 276 334
#     4   9  19  33  48  85 116 141 181 232 284 348
#     4   9  21  38  55  80 112 151 190 229 276 342
#     4  11  19  33  52  86 118 141 179 245 295 332
#     4  11  20  33  58  81 112 148 190 225 286 346
#     4  11  19  32  56  80 113 144 184 235 280 325
#     4  10  19  34  52  84 108 140 198 232 272 327
#
# _framework density 20.507791000000001
#
# number of rings (size 3 to 8) (size 9 to 14) (size 15 to 20)
#    0.000    2.286    5.714    1.714    2.000    0.571 
#    2.571    0.000    0.000    0.857    0.000    0.000 
#    0.000    0.000    0.000    0.000    0.000    0.000 
#
# Total GULP energy -346911.019168 kJ/mol
# GULP energy per Si atom -12389.679256 kJ/mol
# Density = 2.046111 g / cm^3
# Si number density = 20.507791 Si / 1000 Ang^3
#
#
#
# Elastic Constant Matrix: (Units=GPa)
#
#
# Indices 1 2 3 4 5 6 
#
# 1 85.7328 42.5046 23.4912 0.0000 14.7529 0.0000
# 2 42.5046 164.0546 52.8061 0.0000 19.9123 0.0000
# 3 23.4912 52.8061 74.4141 0.0000 21.9311 0.0000
# 4 0.0000 0.0000 0.0000 28.8955 0.0000 5.9023
# 5 14.7529 19.9123 21.9311 0.0000 22.9734 0.0000
# 6 0.0000 0.0000 0.0000 5.9023 0.0000 21.1360
#
#
#
# Elastic Compliance Matrix: (Units=1/GPa)
#
#
# Indices 1 2 3 4 5 6 
#
# 1 0.014266 -0.002704 -0.000801 0.000000 -0.006053 0.000000
# 2 -0.002704 0.008485 -0.004886 0.000000 -0.000953 0.000000
# 3 -0.000801 -0.004886 0.021928 0.000000 -0.016184 0.000000
# 4 0.000000 0.000000 0.000000 0.036701 0.000000 -0.010249
# 5 -0.006053 -0.000953 -0.016184 0.000000 0.063691 0.000000
# 6 0.000000 0.000000 0.000000 -0.010249 0.000000 0.050175
#
#
# Mechanical properties :
#
#
# Convention : Reuss Voigt Hill
#
# Bulk Modulus (GPa) = 35.84678 62.42284 49.13481
# Shear Modulus (GPa) = 22.59110 28.29429 25.44269
#
# Velocity S-wave (km/s) = 3.32262 3.71844 3.52609
# Velocity P-wave (km/s) = 5.67778 6.99574 6.37094
#
# Compressibility (1/GPa) = 0.02789651
#
# Stress axis : x y z
#
# Youngs Moduli (GPa) = 70.09879 117.86140 45.60308
#
# Poissons Ratio (x) = 0.31864 0.03653
# Poissons Ratio (y) = 0.18951 0.22284
# Poissons Ratio (z) = 0.05615 0.57593
#
# Static dielectric constant tensor:
#      x y z
#    x 3.517910 0.000000 0.028980 
#    y 0.000000 4.188030 0.000000 
#    z 0.028980 0.000000 4.240720 
# 
# 
# High freq. dielectric constant tensor:
#      x y z
#    x 1.762680 0.000000 0.008150 
#    y 0.000000 1.801970 0.000000 
#    z 0.008150 0.000000 1.807060 
# 
# From -- ./inp_files/139463.got.cif
#   From: 2010.06.25/outbox.cif.g09.slc.cpg/sg15_70_cif.got.tgz:139463.got - 2010.06.28 07:06:18.
