data_PCOD8133148
_publ_section_title
;
Structure prediction by ZEFSAII (Michael W. Deem and Ramdas Pophale) SiO2 
 PCOD8133148
Probable space group: C 2/C
;
_chemical_formula_sum "Si O2"
_cell_formula_units_Z 64
_cell_length_a 8.831260
_cell_length_b 31.277593
_cell_length_c 14.374369
_cell_angle_alpha 90.000000
_cell_angle_beta 58.778937
_cell_angle_gamma 90.000000
_cell_volume 3395.464185
_symmetry_space_group_name_H-M "C 2/C"
_symmetry_group_IT_number 15
_symmetry_cell_setting 'monoclinic'
loop_
_space_group_symop_operation_xyz
x,y,z
-x,y,1/2-z
-x,-y,-z
x,-y,1/2+z
1/2+x,1/2+y,z
1/2-x,1/2+y,1/2-z
1/2-x,1/2-y,-z
1/2+x,1/2-y,1/2+z
loop_
_atom_site_type_symbol
_atom_site_label
_atom_site_fract_x
_atom_site_fract_y
_atom_site_fract_z
Si Si1 0.880398 0.873758 0.872851
Si Si2 0.670161 0.860074 0.471398
Si Si3 0.816213 0.093980 0.759165
Si Si4 0.878316 0.702691 0.044058
Si Si5 0.452673 0.358203 0.051438
Si Si6 0.058436 0.479359 0.337956
Si Si7 0.090272 0.436660 0.937623
Si Si8 0.179785 0.280823 0.139348
O O1 0.727124 0.840348 0.939636
O O2 0.788871 0.918137 0.873678
O O3 0.000000 0.857917 0.750000
O O4 0.985670 0.876006 0.936795
O O5 0.702735 0.869916 0.351107
O O6 0.568796 0.814626 0.518904
O O7 0.557748 0.901147 0.543063
O O8 0.852808 0.853057 0.467510
O O9 0.837693 0.107397 0.645282
O O10 0.739929 0.046519 0.787608
O O11 0.000000 0.089927 0.750000
O O12 0.773993 0.736250 0.144502
O O13 0.896307 0.726585 0.939951
O O14 0.337941 0.315062 0.094500
O O15 0.083503 0.528370 0.358515
O O16 0.000000 0.476402 0.250000
O O17 0.927119 0.456868 0.453658
O O18 0.000000 0.293016 0.250000
#
# Coordination Sequence:
#
# PCOD8133148 Si02
#       8
#     8   8   8   8   8   8   8   8
#     4  10  20  35  53  72 101 140 180 214 256 313
#     4   9  18  35  54  76 109 139 171 214 264 314
#     4   9  18  33  53  78 107 133 164 216 271 313
#     4   9  19  34  52  74 106 142 172 215 260 304
#     4  10  20  33  55  82 103 137 179 217 263 314
#     4  10  19  33  54  77 102 133 173 216 264 313
#     4   9  20  35  51  75 104 137 173 216 263 315
#     4  10  19  32  53  80 107 137 178 216 257 310
#
# _framework density 18.848676000000001
#
# number of rings (size 3 to 8) (size 9 to 14) (size 15 to 20)
#    0.000    2.500    0.000    1.875    0.000    4.500 
#    0.000    1.875    0.000   10.500    0.000    0.000 
#    0.000    0.000    0.000    0.000    0.000    0.000 
#
# Total GULP energy -396457.458954 kJ/mol
# GULP energy per Si atom -12389.295592 kJ/mol
# Density = 1.880578 g / cm^3
# Si number density = 18.848676 Si / 1000 Ang^3
#
#
#
# Elastic Constant Matrix: (Units=GPa)
#
#
# Indices 1 2 3 4 5 6 
#
# 1 85.5488 43.6846 33.3436 0.0000 -6.7888 0.0000
# 2 43.6846 92.9016 19.9112 0.0000 -9.5985 0.0000
# 3 33.3436 19.9112 84.2564 0.0000 3.8887 0.0000
# 4 0.0000 0.0000 0.0000 26.5340 0.0000 -5.2236
# 5 -6.7888 -9.5985 3.8887 0.0000 24.1045 0.0000
# 6 0.0000 0.0000 0.0000 -5.2236 0.0000 22.4364
#
#
#
# Elastic Compliance Matrix: (Units=1/GPa)
#
#
# Indices 1 2 3 4 5 6 
#
# 1 0.017516 -0.006737 -0.005484 0.000000 0.003135 0.000000
# 2 -0.006737 0.014557 -0.000961 0.000000 0.004054 0.000000
# 3 -0.005484 -0.000961 0.014463 0.000000 -0.004260 0.000000
# 4 0.000000 0.000000 0.000000 0.039498 0.000000 0.009196
# 5 0.003135 0.004054 -0.004260 0.000000 0.044671 0.000000
# 6 0.000000 0.000000 0.000000 0.009196 0.000000 0.046711
#
#
# Mechanical properties :
#
#
# Convention : Reuss Voigt Hill
#
# Bulk Modulus (GPa) = 49.57726 50.73173 50.15449
# Shear Modulus (GPa) = 23.75260 25.66615 24.70938
#
# Velocity S-wave (km/s) = 3.55374 3.69412 3.62461
# Velocity P-wave (km/s) = 6.57257 6.72079 6.64709
#
# Compressibility (1/GPa) = 0.02017054
#
# Stress axis : x y z
#
# Youngs Moduli (GPa) = 57.09143 68.69636 69.14369
#
# Poissons Ratio (x) = 0.46281 0.37921
# Poissons Ratio (y) = 0.38462 0.06645
# Poissons Ratio (z) = 0.31311 0.06602
#
# Static dielectric constant tensor:
#      x y z
#    x 3.384290 0.000000 -0.073580 
#    y 0.000000 3.501500 0.000000 
#    z -0.073580 0.000000 3.630690 
# 
# 
# High freq. dielectric constant tensor:
#      x y z
#    x 1.722740 0.000000 -0.008610 
#    y 0.000000 1.732070 0.000000 
#    z -0.008610 0.000000 1.729510 
# 
# From -- ./inp_files/139511.got.cif
#   From: 2010.06.25/outbox.cif.g09.slc.cpg/sg15_70_cif.got.tgz:139511.got - 2010.06.28 07:06:18.
