data_PCOD8133908
_publ_section_title
;
Structure prediction by ZEFSAII (Michael W. Deem and Ramdas Pophale) SiO2 
 PCOD8133908
Probable space group: C 2/C
;
_chemical_formula_sum "Si O2"
_cell_formula_units_Z 52
_cell_length_a 12.456964
_cell_length_b 30.489991
_cell_length_c 12.163255
_cell_angle_alpha 90.000000
_cell_angle_beta 145.401904
_cell_angle_gamma 90.000000
_cell_volume 2623.174865
_symmetry_space_group_name_H-M "C 2/C"
_symmetry_group_IT_number 15
_symmetry_cell_setting 'monoclinic'
loop_
_space_group_symop_operation_xyz
x,y,z
-x,y,1/2-z
-x,-y,-z
x,-y,1/2+z
1/2+x,1/2+y,z
1/2-x,1/2+y,1/2-z
1/2-x,1/2-y,-z
1/2+x,1/2-y,1/2+z
loop_
_atom_site_type_symbol
_atom_site_label
_atom_site_fract_x
_atom_site_fract_y
_atom_site_fract_z
Si Si1 0.000000 0.423851 0.750000
Si Si2 0.497301 0.715152 0.119718
Si Si3 0.514262 0.108289 0.022769
Si Si4 0.335326 0.438071 0.360472
Si Si5 0.416487 0.376382 0.800299
Si Si6 0.590650 0.190817 0.707529
Si Si7 0.869911 0.980557 0.042941
O O1 0.978911 0.392180 0.838449
O O2 0.816473 0.454439 0.577284
O O3 0.500000 0.726805 0.250000
O O4 0.642255 0.674638 0.219649
O O5 0.532083 0.763105 0.098209
O O6 0.309700 0.693877 0.915804
O O7 0.723872 0.095814 0.153728
O O8 0.370949 0.070507 0.863683
O O9 0.449838 0.154547 0.918573
O O10 0.410967 0.394575 0.482891
O O11 0.492266 0.447160 0.401986
O O12 0.305528 0.478777 0.415766
O O13 0.500000 0.377668 0.750000
O O14 0.500000 0.179403 0.750000
O O15 0.000000 0.999953 0.250000
#
# Coordination Sequence:
#
# PCOD8133908 Si02
#       7
#     4   8   8   8   8   8   8
#     4  12  26  46  68  88 128 180 220 262 310 384
#     4  10  19  34  59  91 134 169 201 254 331 385
#     4  12  25  41  66  95 128 173 219 255 320 382
#     4  11  24  41  66  94 124 166 212 264 324 374
#     4  11  22  39  62  99 132 164 206 269 325 385
#     4  11  20  36  59  95 129 167 210 263 318 387
#     4  11  24  45  66  91 125 165 215 265 321 382
#
# _framework density 19.823305999999999
#
# number of rings (size 3 to 8) (size 9 to 14) (size 15 to 20)
#    0.000    0.923    4.615    5.077    0.000    3.077 
#    0.000    0.000    0.000    3.692    0.000    0.000 
#    0.000    0.000    0.000    0.000    0.000    0.000 
#
# Total GULP energy -322176.744135 kJ/mol
# GULP energy per Si atom -12391.413236 kJ/mol
# Density = 1.977819 g / cm^3
# Si number density = 19.823306 Si / 1000 Ang^3
#
#
#
# Elastic Constant Matrix: (Units=GPa)
#
#
# Indices 1 2 3 4 5 6 
#
# 1 102.3688 45.5076 50.0732 0.0000 4.0580 0.0000
# 2 45.5076 82.1248 31.7960 0.0000 5.7729 0.0000
# 3 50.0732 31.7960 119.6558 0.0000 3.6615 0.0000
# 4 0.0000 0.0000 0.0000 42.8069 0.0000 -0.0573
# 5 4.0580 5.7729 3.6615 0.0000 21.3064 0.0000
# 6 0.0000 0.0000 0.0000 -0.0573 0.0000 22.6993
#
#
#
# Elastic Compliance Matrix: (Units=1/GPa)
#
#
# Indices 1 2 3 4 5 6 
#
# 1 0.014852 -0.006472 -0.004486 0.000000 -0.000304 0.000000
# 2 -0.006472 0.016596 -0.001610 0.000000 -0.002987 0.000000
# 3 -0.004486 -0.001610 0.010679 0.000000 -0.000544 0.000000
# 4 0.000000 0.000000 0.000000 0.023361 0.000000 0.000059
# 5 -0.000304 -0.002987 -0.000544 0.000000 0.047895 0.000000
# 6 0.000000 0.000000 0.000000 0.000059 0.000000 0.044054
#
#
# Mechanical properties :
#
#
# Convention : Reuss Voigt Hill
#
# Bulk Modulus (GPa) = 58.85494 62.10034 60.47764
# Shear Modulus (GPa) = 26.56212 29.14735 27.85473
#
# Velocity S-wave (km/s) = 3.66450 3.83868 3.75260
# Velocity P-wave (km/s) = 6.90354 7.14439 7.02500
#
# Compressibility (1/GPa) = 0.01699093
#
# Stress axis : x y z
#
# Youngs Moduli (GPa) = 67.33106 60.25479 93.63919
#
# Poissons Ratio (x) = 0.38994 0.42009
# Poissons Ratio (y) = 0.43574 0.15080
# Poissons Ratio (z) = 0.30206 0.09704
#
# Static dielectric constant tensor:
#      x y z
#    x 3.501960 0.000000 0.050910 
#    y 0.000000 3.868970 0.000000 
#    z 0.050910 0.000000 3.975380 
# 
# 
# High freq. dielectric constant tensor:
#      x y z
#    x 1.740870 0.000000 0.016800 
#    y 0.000000 1.782160 0.000000 
#    z 0.016800 0.000000 1.796280 
# 
# From -- ./inp_files/92631.got.cif
#   From: 2010.06.25/outbox.cif.g09.slc.cpg/sg15_47_cif.got.tgz:92631.got - 2010.06.28 07:06:18.
