data_PCOD8133083
_publ_section_title
;
Structure prediction by ZEFSAII (Michael W. Deem and Ramdas Pophale) SiO2 
 PCOD8133083
Probable space group: C 2/C
;
_chemical_formula_sum "Si O2"
_cell_formula_units_Z 64
_cell_length_a 22.332719
_cell_length_b 11.020136
_cell_length_c 29.930859
_cell_angle_alpha 90.000000
_cell_angle_beta 153.825521
_cell_angle_gamma 90.000000
_cell_volume 3249.307754
_symmetry_space_group_name_H-M "C 2/C"
_symmetry_group_IT_number 15
_symmetry_cell_setting 'monoclinic'
loop_
_space_group_symop_operation_xyz
x,y,z
-x,y,1/2-z
-x,-y,-z
x,-y,1/2+z
1/2+x,1/2+y,z
1/2-x,1/2+y,1/2-z
1/2-x,1/2-y,-z
1/2+x,1/2-y,1/2+z
loop_
_atom_site_type_symbol
_atom_site_label
_atom_site_fract_x
_atom_site_fract_y
_atom_site_fract_z
Si Si1 0.612631 0.689706 0.977710
Si Si2 0.155732 0.399467 0.068488
Si Si3 0.140588 0.439252 0.820124
Si Si4 0.634803 0.742592 0.739548
Si Si5 0.061384 0.343835 0.506287
Si Si6 0.149562 0.782444 0.689484
Si Si7 0.274272 0.159714 0.676233
Si Si8 0.422790 0.475362 0.403103
O O1 0.527225 0.711135 0.874312
O O2 0.498028 0.638216 0.932946
O O3 0.665677 0.820430 0.029975
O O4 0.739368 0.594370 0.063525
O O5 0.286447 0.373182 0.187130
O O6 0.155047 0.541468 0.055719
O O7 0.013108 0.365822 0.996470
O O8 0.156320 0.354528 0.787441
O O9 0.144263 0.580358 0.806079
O O10 0.000000 0.414729 0.750000
O O11 0.705239 0.775700 0.739092
O O12 0.151216 0.222628 0.567759
O O13 0.948047 0.324447 0.392960
O O14 0.152174 0.765587 0.745354
O O15 0.083390 0.913254 0.635279
O O16 0.227483 0.066662 0.683826
O O17 0.500000 0.500000 0.500000
#
# Coordination Sequence:
#
# PCOD8133083 Si02
#       8
#     8   8   8   8   8   8   8   8
#     4  11  20  36  61  85 119 156 197 257 302 354
#     4   9  19  31  50  88 128 149 179 234 315 372
#     4  11  25  43  61  82 120 172 215 246 287 364
#     4  10  20  34  58  90 114 152 203 250 301 358
#     4  10  19  32  49  85 130 155 177 238 308 372
#     4  11  21  30  57  92 119 151 190 247 313 367
#     4  12  22  35  60  88 124 159 197 248 307 368
#     4  12  18  35  56  88 124 154 189 241 317 360
#
# _framework density 19.696503
#
# number of rings (size 3 to 8) (size 9 to 14) (size 15 to 20)
#    0.000    1.250    6.250    0.750    3.500    1.500 
#    0.000    0.000    0.000    6.000    0.000    0.000 
#    0.000    0.000    0.000    0.000    0.000    0.000 
#
# Total GULP energy -396466.390477 kJ/mol
# GULP energy per Si atom -12389.574702 kJ/mol
# Density = 1.965167 g / cm^3
# Si number density = 19.696503 Si / 1000 Ang^3
#
#
#
# Elastic Constant Matrix: (Units=GPa)
#
#
# Indices 1 2 3 4 5 6 
#
# 1 32.4988 16.9276 19.5486 -0.0012 8.2275 -0.0003
# 2 16.9276 94.4530 36.2061 -0.0067 0.9013 0.0003
# 3 19.5486 36.2061 118.9766 -0.0172 -2.8908 0.0037
# 4 -0.0012 -0.0067 -0.0172 31.1880 0.0037 -1.7980
# 5 8.2275 0.9013 -2.8908 0.0037 16.4635 0.0005
# 6 -0.0003 0.0003 0.0037 -1.7980 0.0005 13.3250
#
#
#
# Elastic Compliance Matrix: (Units=1/GPa)
#
#
# Indices 1 2 3 4 5 6 
#
# 1 0.042630 -0.005138 -0.005977 0.000000 -0.022072 0.000004
# 2 -0.005138 0.012633 -0.002967 0.000001 0.001355 0.000000
# 3 -0.005977 -0.002967 0.010411 0.000004 0.004977 -0.000003
# 4 0.000000 0.000001 0.000004 0.032315 -0.000007 0.004360
# 5 -0.022072 0.001355 0.004977 -0.000007 0.072571 -0.000006
# 6 0.000004 0.000000 -0.000003 0.004360 -0.000006 0.075635
#
#
# Mechanical properties :
#
#
# Convention : Reuss Voigt Hill
#
# Bulk Modulus (GPa) = 26.66050 43.47700 35.06875
# Shear Modulus (GPa) = 17.42999 23.74502 20.58750
#
# Velocity S-wave (km/s) = 2.97800 3.47586 3.23652
# Velocity P-wave (km/s) = 5.03882 6.18306 5.64003
#
# Compressibility (1/GPa) = 0.03750867
#
# Stress axis : x y z
#
# Youngs Moduli (GPa) = 23.45776 79.16056 96.05290
#
# Poissons Ratio (x) = 0.40675 0.57411
# Poissons Ratio (y) = 0.12053 0.28500
# Poissons Ratio (z) = 0.14021 0.23488
#
# Static dielectric constant tensor:
#      x y z
#    x 2.967810 0.000000 -0.112480 
#    y 0.000000 4.102940 0.000050 
#    z -0.112480 0.000050 3.984570 
# 
# 
# High freq. dielectric constant tensor:
#      x y z
#    x 1.690930 0.000000 -0.011610 
#    y 0.000000 1.776490 0.000000 
#    z -0.011610 0.000000 1.781240 
# 
# From -- ./inp_files/300865.got.cif
#   From: 2010.06.25/outbox.cif.g09.slc.cpg/sg15_151_cif.got.tgz:300865.got - 2010.06.28 07:06:18.
