data_PCOD8133589
_publ_section_title
;
Structure prediction by ZEFSAII (Michael W. Deem and Ramdas Pophale) SiO2 
 PCOD8133589
Probable space group: C 2/C
;
_chemical_formula_sum "Si O2"
_cell_formula_units_Z 56
_cell_length_a 21.672363
_cell_length_b 9.250888
_cell_length_c 31.147851
_cell_angle_alpha 90.000000
_cell_angle_beta 154.941016
_cell_angle_gamma 90.000000
_cell_volume 2644.986991
_symmetry_space_group_name_H-M "C 2/C"
_symmetry_group_IT_number 15
_symmetry_cell_setting 'monoclinic'
loop_
_space_group_symop_operation_xyz
x,y,z
-x,y,1/2-z
-x,-y,-z
x,-y,1/2+z
1/2+x,1/2+y,z
1/2-x,1/2+y,1/2-z
1/2-x,1/2-y,-z
1/2+x,1/2-y,1/2+z
loop_
_atom_site_type_symbol
_atom_site_label
_atom_site_fract_x
_atom_site_fract_y
_atom_site_fract_z
Si Si1 0.788791 0.195808 0.801737
Si Si2 0.329726 0.042035 0.442995
Si Si3 0.978764 0.510899 0.688570
Si Si4 0.766375 0.084688 0.022370
Si Si5 0.542619 0.774937 0.022592
Si Si6 0.212853 0.386256 0.776964
Si Si7 0.575441 0.668771 0.229151
O O1 0.830482 0.254209 0.781324
O O2 0.663136 0.302664 0.740555
O O3 0.734311 0.031999 0.762843
O O4 0.925446 0.195494 0.919414
O O5 0.320002 0.046511 0.488339
O O6 0.463376 0.142577 0.511922
O O7 0.175445 0.094622 0.327787
O O8 0.360342 0.881186 0.445425
O O9 0.079588 0.405928 0.724802
O O10 0.026033 0.677739 0.716747
O O11 0.000000 0.454237 0.750000
O O12 0.812656 0.494546 0.565770
O O13 0.940384 0.058601 0.135117
O O14 0.750000 0.250000 0.000000
O O15 0.642659 0.650721 0.105399
#
# Coordination Sequence:
#
# PCOD8133589 Si02
#       7
#     8   8   8   8   8   8   8
#     4  10  23  41  63  96 128 160 220 260 323 381
#     4  10  20  36  63  91 127 156 216 264 321 372
#     4  10  21  39  58  86 129 170 211 256 312 378
#     4  10  19  33  61  92 122 162 208 265 314 360
#     4  10  23  39  62  90 129 171 203 265 323 382
#     4  11  24  41  68  91 130 167 208 268 321 382
#     4   9  19  35  59  95 121 162 209 270 308 373
#
# _framework density 21.172127
#
# number of rings (size 3 to 8) (size 9 to 14) (size 15 to 20)
#    0.000    2.000    0.000    3.429   12.000    0.000 
#    2.571    1.429    0.000    2.571    0.000    0.000 
#    0.000    0.000    0.000    0.000    0.000    0.000 
#
# Total GULP energy -347201.421828 kJ/mol
# GULP energy per Si atom -12400.050780 kJ/mol
# Density = 2.112394 g / cm^3
# Si number density = 21.172127 Si / 1000 Ang^3
#
#
#
# Elastic Constant Matrix: (Units=GPa)
#
#
# Indices 1 2 3 4 5 6 
#
# 1 117.2402 37.0814 57.3322 0.0021 -14.3468 0.0000
# 2 37.0814 50.2957 26.7378 -0.0004 -2.5602 0.0004
# 3 57.3322 26.7378 122.4313 0.0166 -0.3292 0.0007
# 4 0.0021 -0.0004 0.0166 24.7929 0.0030 -3.8358
# 5 -14.3468 -2.5602 -0.3292 0.0030 30.0982 -0.0001
# 6 0.0000 0.0004 0.0007 -3.8358 -0.0001 27.7508
#
#
#
# Elastic Compliance Matrix: (Units=1/GPa)
#
#
# Indices 1 2 3 4 5 6 
#
# 1 0.014017 -0.007408 -0.004930 0.000001 0.005998 0.000000
# 2 -0.007408 0.026514 -0.002325 0.000003 -0.001302 0.000000
# 3 -0.004930 -0.002325 0.010978 -0.000007 -0.002428 -0.000001
# 4 0.000001 0.000003 -0.000007 0.041216 -0.000003 0.005697
# 5 0.005998 -0.001302 -0.002428 -0.000003 0.035946 0.000000
# 6 0.000000 0.000000 -0.000001 0.005697 0.000000 0.036822
#
#
# Mechanical properties :
#
#
# Convention : Reuss Voigt Hill
#
# Bulk Modulus (GPa) = 45.08003 59.14111 52.11057
# Shear Modulus (GPa) = 24.72630 27.78276 26.25453
#
# Velocity S-wave (km/s) = 3.42112 3.62641 3.52526
# Velocity P-wave (km/s) = 6.07814 6.74748 6.42154
#
# Compressibility (1/GPa) = 0.02218277
#
# Stress axis : x y z
#
# Youngs Moduli (GPa) = 71.33947 37.71594 91.09417
#
# Poissons Ratio (x) = 0.27942 0.44910
# Poissons Ratio (y) = 0.52852 0.21176
# Poissons Ratio (z) = 0.35171 0.08768
#
# Static dielectric constant tensor:
#      x y z
#    x 3.805050 0.000000 0.137400 
#    y 0.000000 3.499900 0.000000 
#    z 0.137400 0.000000 4.257590 
# 
# 
# High freq. dielectric constant tensor:
#      x y z
#    x 1.825810 0.000000 -0.002870 
#    y 0.000000 1.800840 0.000000 
#    z -0.002870 0.000000 1.847930 
# 
# From -- ./inp_files/317531.got.cif
#   From: 2010.06.25/outbox.cif.g09.slc.cpg/sg15_159_cif.got.tgz:317531.got - 2010.06.28 07:06:18.
