data_PCOD8133870
_publ_section_title
;
Structure prediction by ZEFSAII (Michael W. Deem and Ramdas Pophale) SiO2 
 PCOD8133870
Probable space group: C 2/C
;
_chemical_formula_sum "Si O2"
_cell_formula_units_Z 40
_cell_length_a 13.802577
_cell_length_b 18.460850
_cell_length_c 15.894771
_cell_angle_alpha 90.000000
_cell_angle_beta 28.576821
_cell_angle_gamma 90.000000
_cell_volume 1937.312978
_symmetry_space_group_name_H-M "C 2/C"
_symmetry_group_IT_number 15
_symmetry_cell_setting 'monoclinic'
loop_
_space_group_symop_operation_xyz
x,y,z
-x,y,1/2-z
-x,-y,-z
x,-y,1/2+z
1/2+x,1/2+y,z
1/2-x,1/2+y,1/2-z
1/2-x,1/2-y,-z
1/2+x,1/2-y,1/2+z
loop_
_atom_site_type_symbol
_atom_site_label
_atom_site_fract_x
_atom_site_fract_y
_atom_site_fract_z
Si Si1 0.465579 0.163397 0.956836
Si Si2 0.297853 0.566147 0.449083
Si Si3 0.000000 0.210559 0.750000
Si Si4 0.000000 0.454978 0.750000
Si Si5 0.559402 0.835109 0.579096
Si Si6 0.722912 0.192655 0.619305
O O1 0.357784 0.090686 0.005560
O O2 0.483937 0.162257 0.041998
O O3 0.332526 0.231328 0.027056
O O4 0.688259 0.170584 0.743914
O O5 0.500000 0.537156 0.250000
O O6 0.197529 0.503147 0.581310
O O7 0.353369 0.632046 0.470344
O O8 0.014622 0.260476 0.822134
O O9 0.196870 0.159454 0.598611
O O10 0.956333 0.403518 0.703293
O O11 0.500000 0.195032 0.750000
#
# Coordination Sequence:
#
# PCOD8133870 Si02
#       6
#     8   8   4   4   8   8
#     4  11  19  35  61  93 121 153 209 258 289 353
#     4  11  22  40  61  87 127 167 194 242 310 365
#     4   9  20  42  60  90 117 158 206 254 315 336
#     4  11  24  44  60  86 129 166 202 238 311 372
#     4  10  22  38  66  88 120 159 204 257 297 360
#     4  10  19  34  58  93 125 157 195 250 310 352
#
# _framework density 20.647154
#
# number of rings (size 3 to 8) (size 9 to 14) (size 15 to 20)
#    0.000    1.600    3.000    5.400    1.400    0.800 
#    0.000    3.000    0.000    0.000    0.000    0.000 
#    0.000    0.000    0.000    0.000    0.000    0.000 
#
# Total GULP energy -247988.419850 kJ/mol
# GULP energy per Si atom -12399.420993 kJ/mol
# Density = 2.060016 g / cm^3
# Si number density = 20.647154 Si / 1000 Ang^3
#
#
#
# Elastic Constant Matrix: (Units=GPa)
#
#
# Indices 1 2 3 4 5 6 
#
# 1 71.4877 30.2093 24.8648 -0.0598 27.1632 0.0794
# 2 30.2093 90.7132 42.4098 0.0390 -0.2665 0.0152
# 3 24.8648 42.4098 146.2123 0.0697 9.2103 0.0350
# 4 -0.0598 0.0390 0.0697 43.2918 -0.0061 5.4033
# 5 27.1632 -0.2665 9.2103 -0.0061 35.9249 -0.0440
# 6 0.0794 0.0152 0.0350 5.4033 -0.0440 12.3405
#
#
#
# Elastic Compliance Matrix: (Units=1/GPa)
#
#
# Indices 1 2 3 4 5 6 
#
# 1 0.024603 -0.007908 -0.000726 0.000070 -0.018476 -0.000243
# 2 -0.007908 0.015335 -0.003544 -0.000028 0.007002 0.000079
# 3 -0.000726 -0.003544 0.008089 -0.000009 -0.001551 -0.000015
# 4 0.000070 -0.000028 -0.000009 0.024435 -0.000060 -0.010699
# 5 -0.018476 0.007002 -0.001551 -0.000060 0.042255 0.000292
# 6 -0.000243 0.000079 -0.000015 -0.010699 0.000292 0.085721
#
#
# Mechanical properties :
#
#
# Convention : Reuss Voigt Hill
#
# Bulk Modulus (GPa) = 42.24847 55.93122 49.08984
# Shear Modulus (GPa) = 21.48824 32.37338 26.93081
#
# Velocity S-wave (km/s) = 3.22954 3.96401 3.61548
# Velocity P-wave (km/s) = 5.86627 6.93535 6.42309
#
# Compressibility (1/GPa) = 0.02366950
#
# Stress axis : x y z
#
# Youngs Moduli (GPa) = 40.64480 65.21104 123.63056
#
# Poissons Ratio (x) = 0.51569 0.08981
# Poissons Ratio (y) = 0.32142 0.43817
# Poissons Ratio (z) = 0.02952 0.23112
#
# Static dielectric constant tensor:
#      x y z
#    x 3.395150 -0.000020 0.392540 
#    y -0.000020 3.630060 0.000120 
#    z 0.392540 0.000120 4.323850 
# 
# 
# High freq. dielectric constant tensor:
#      x y z
#    x 1.773720 0.000000 0.027000 
#    y 0.000000 1.794990 0.000010 
#    z 0.027000 0.000010 1.835690 
# 
# From -- ./inp_files/62362.got.cif
#   From: 2010.06.25/outbox.cif.g09.slc.cpg/sg15_32_cif.got.tgz:62362.got - 2010.06.28 07:06:18.
