data_PCOD8133377
_publ_section_title
;
Structure prediction by ZEFSAII (Michael W. Deem and Ramdas Pophale) SiO2 
 PCOD8133377
Probable space group: C 2/C
;
_chemical_formula_sum "Si O2"
_cell_formula_units_Z 60
_cell_length_a 16.477398
_cell_length_b 21.130158
_cell_length_c 9.522058
_cell_angle_alpha 90.000000
_cell_angle_beta 96.963797
_cell_angle_gamma 90.000000
_cell_volume 3290.838083
_symmetry_space_group_name_H-M "C 2/C"
_symmetry_group_IT_number 15
_symmetry_cell_setting 'monoclinic'
loop_
_space_group_symop_operation_xyz
x,y,z
-x,y,1/2-z
-x,-y,-z
x,-y,1/2+z
1/2+x,1/2+y,z
1/2-x,1/2+y,1/2-z
1/2-x,1/2-y,-z
1/2+x,1/2-y,1/2+z
loop_
_atom_site_type_symbol
_atom_site_label
_atom_site_fract_x
_atom_site_fract_y
_atom_site_fract_z
Si Si1 0.942116 0.257548 0.428151
Si Si2 0.701285 0.726444 0.285654
Si Si3 0.722763 0.347671 0.071422
Si Si4 0.862451 0.697109 0.187575
Si Si5 0.139395 0.445655 0.412762
Si Si6 0.591512 0.943752 0.727193
Si Si7 0.500000 0.863632 0.250000
Si Si8 0.941661 0.188788 0.858188
O O1 0.889691 0.224952 0.294639
O O2 0.881198 0.280860 0.535577
O O3 0.987420 0.319921 0.383420
O O4 0.005471 0.203759 0.492050
O O5 0.703496 0.679238 0.415268
O O6 0.721504 0.798449 0.331776
O O7 0.765118 0.700762 0.184368
O O8 0.771239 0.413213 0.068010
O O9 0.634470 0.358210 0.128501
O O10 0.894680 0.627980 0.227176
O O11 0.907527 0.742602 0.307194
O O12 0.107011 0.454624 0.564791
O O13 0.150594 0.512824 0.336320
O O14 0.077908 0.405930 0.302665
O O15 0.500000 0.963881 0.750000
O O16 0.000000 0.158891 0.750000
#
# Coordination Sequence:
#
# PCOD8133377 Si02
#       8
#     8   8   8   8   8   8   4   8
#     4  11  20  31  54  86 110 148 185 225 277 343
#     4  10  19  33  54  80 113 147 180 229 282 334
#     4  10  20  37  54  76 115 149 182 229 286 336
#     4  10  20  35  54  79 120 150 181 227 280 326
#     4  12  25  39  55  82 112 154 196 226 278 322
#     4  12  24  39  57  79 112 155 194 231 262 329
#     4  12  22  34  52  80 114 150 190 226 266 332
#     4   9  19  35  57  84 113 145 178 229 289 337
#
# _framework density 18.232437000000001
#
# number of rings (size 3 to 8) (size 9 to 14) (size 15 to 20)
#    0.000    1.333    3.333    4.400    3.733    0.000 
#    0.000    0.000    0.000    0.000    0.000    3.733 
#    0.000    0.000    0.000    0.000    0.000    0.000 
#
# Total GULP energy -372031.013600 kJ/mol
# GULP energy per Si atom -12401.033787 kJ/mol
# Density = 1.819094 g / cm^3
# Si number density = 18.232437 Si / 1000 Ang^3
#
#
#
# Elastic Constant Matrix: (Units=GPa)
#
#
# Indices 1 2 3 4 5 6 
#
# 1 96.6634 35.2839 36.9793 0.0000 -10.4075 0.0000
# 2 35.2839 45.0015 23.9297 0.0000 -6.8865 0.0000
# 3 36.9793 23.9297 87.1416 0.0000 -1.4491 0.0000
# 4 0.0000 0.0000 0.0000 -27.3575 0.0000 8.2699
# 5 -10.4075 -6.8865 -1.4491 0.0000 34.2318 0.0000
# 6 0.0000 0.0000 0.0000 8.2699 0.0000 19.3759
#
#
#
# Elastic Compliance Matrix: (Units=1/GPa)
#
#
# Indices 1 2 3 4 5 6 
#
# 1 0.015721 -0.009835 -0.003927 0.000000 0.002635 0.000000
# 2 -0.009835 0.033035 -0.004841 0.000000 0.003451 0.000000
# 3 -0.003927 -0.004841 0.014445 0.000000 -0.001556 0.000000
# 4 0.000000 0.000000 0.000000 -0.032376 0.000000 0.013818
# 5 0.002635 0.003451 -0.001556 0.000000 0.030642 0.000000
# 6 0.000000 0.000000 0.000000 0.013818 0.000000 0.045712
#
#
# Mechanical properties :
#
#
# Convention : Reuss Voigt Hill
#
# Bulk Modulus (GPa) = 38.46692 46.79914 42.63303
# Shear Modulus (GPa) = 32.66909 14.09096 23.38003
#
# Velocity S-wave (km/s) = 4.23757 2.78304 3.58485
# Velocity P-wave (km/s) = 6.71465 6.00424 6.36936
#
# Compressibility (1/GPa) = 0.02599636
#
# Stress axis : x y z
#
# Youngs Moduli (GPa) = 63.60913 30.27120 69.22641
#
# Poissons Ratio (x) = 0.29771 0.27184
# Poissons Ratio (y) = 0.62559 0.33510
# Poissons Ratio (z) = 0.24978 0.14653
#
# Static dielectric constant tensor:
#      x y z
#    x 3.644310 0.000000 -0.253830 
#    y 0.000000 3.090050 0.000000 
#    z -0.253830 0.000000 3.621350 
# 
# 
# High freq. dielectric constant tensor:
#      x y z
#    x 1.711300 0.000000 -0.007840 
#    y 0.000000 1.664640 0.000000 
#    z -0.007840 0.000000 1.720300 
# 
# From -- ./inp_files/50268.got.cif
#   From: 2010.06.25/outbox.cif.g09.slc.cpg/sg15_26_cif.got.tgz:50268.got - 2010.06.28 07:06:18.
