data_PCOD8133098
_publ_section_title
;
Structure prediction by ZEFSAII (Michael W. Deem and Ramdas Pophale) SiO2 
 PCOD8133098
Probable space group: C 2/C
;
_chemical_formula_sum "Si O2"
_cell_formula_units_Z 64
_cell_length_a 21.478875
_cell_length_b 13.445799
_cell_length_c 12.844865
_cell_angle_alpha 90.000000
_cell_angle_beta 75.381623
_cell_angle_gamma 90.000000
_cell_volume 3589.518852
_symmetry_space_group_name_H-M "C 2/C"
_symmetry_group_IT_number 15
_symmetry_cell_setting 'monoclinic'
loop_
_space_group_symop_operation_xyz
x,y,z
-x,y,1/2-z
-x,-y,-z
x,-y,1/2+z
1/2+x,1/2+y,z
1/2-x,1/2+y,1/2-z
1/2-x,1/2-y,-z
1/2+x,1/2-y,1/2+z
loop_
_atom_site_type_symbol
_atom_site_label
_atom_site_fract_x
_atom_site_fract_y
_atom_site_fract_z
Si Si1 0.184653 0.810064 0.535013
Si Si2 0.787458 0.040100 0.002400
Si Si3 0.081167 0.901535 0.947275
Si Si4 0.470921 0.410089 0.151302
Si Si5 0.265008 0.898790 0.186170
Si Si6 0.277970 0.899369 0.770710
Si Si7 0.845030 0.223260 0.228147
Si Si8 0.149224 0.789445 0.325723
O O1 0.250000 0.750000 0.500000
O O2 0.202264 0.926286 0.534947
O O3 0.143622 0.771362 0.652170
O O4 0.141046 0.781836 0.453902
O O5 0.764233 0.108272 0.916541
O O6 0.854828 0.082852 0.013087
O O7 0.730341 0.057205 0.109727
O O8 0.091241 0.813464 0.858926
O O9 0.064580 0.998732 0.888265
O O10 0.025648 0.869866 0.050646
O O11 0.500000 0.443021 0.250000
O O12 0.418376 0.324095 0.194144
O O13 0.324048 0.824966 0.181807
O O14 0.205879 0.871381 0.287918
O O15 0.294914 0.007513 0.190972
O O16 0.210730 0.857772 0.759368
O O17 0.332817 0.814991 0.737263
#
# Coordination Sequence:
#
# PCOD8133098 Si02
#       8
#     8   8   8   8   8   8   8   8
#     4  12  18  33  56  82 111 152 179 221 279 339
#     4  11  20  32  56  76 116 148 178 227 280 337
#     4  10  23  37  51  81 106 149 194 230 277 323
#     4  11  23  37  57  76 109 149 193 238 277 331
#     4  11  19  33  53  83 114 141 176 228 284 345
#     4  10  19  32  50  82 110 141 180 224 285 338
#     4  10  21  32  54  80 115 144 181 230 278 338
#     4  11  21  34  55  80 113 142 188 228 274 340
#
# _framework density 17.829688000000001
#
# number of rings (size 3 to 8) (size 9 to 14) (size 15 to 20)
#    0.000    1.250    6.250    1.500    1.750    5.500 
#    0.000    0.000    0.000    0.750    0.000    0.875 
#    0.000    0.000    0.000    0.000    0.000    0.000 
#
# Total GULP energy -396743.720390 kJ/mol
# GULP energy per Si atom -12398.241262 kJ/mol
# Density = 1.778911 g / cm^3
# Si number density = 17.829688 Si / 1000 Ang^3
#
#
#
# Elastic Constant Matrix: (Units=GPa)
#
#
# Indices 1 2 3 4 5 6 
#
# 1 53.3988 26.9056 34.8258 0.0000 -2.7151 0.0000
# 2 26.9056 89.3211 25.9108 0.0000 -7.4008 0.0000
# 3 34.8258 25.9108 97.5407 0.0000 4.9476 0.0000
# 4 0.0000 0.0000 0.0000 27.3849 0.0000 -0.2549
# 5 -2.7151 -7.4008 4.9476 0.0000 34.0441 0.0000
# 6 0.0000 0.0000 0.0000 -0.2549 0.0000 18.4722
#
#
#
# Elastic Compliance Matrix: (Units=1/GPa)
#
#
# Indices 1 2 3 4 5 6 
#
# 1 0.027045 -0.005564 -0.008287 0.000000 0.002152 0.000000
# 2 -0.005564 0.013615 -0.001771 0.000000 0.002773 0.000000
# 3 -0.008287 -0.001771 0.013836 0.000000 -0.003057 0.000000
# 4 0.000000 0.000000 0.000000 0.036521 0.000000 0.000504
# 5 0.002152 0.002773 -0.003057 0.000000 0.030592 0.000000
# 6 0.000000 0.000000 0.000000 0.000504 0.000000 0.054142
#
#
# Mechanical properties :
#
#
# Convention : Reuss Voigt Hill
#
# Bulk Modulus (GPa) = 43.00698 46.17168 44.58933
# Shear Modulus (GPa) = 23.28324 26.15481 24.71903
#
# Velocity S-wave (km/s) = 3.61760 3.83420 3.72747
# Velocity P-wave (km/s) = 6.45157 6.74934 6.60214
#
# Compressibility (1/GPa) = 0.02325204
#
# Stress axis : x y z
#
# Youngs Moduli (GPa) = 36.97583 73.44782 72.27346
#
# Poissons Ratio (x) = 0.40868 0.59893
# Poissons Ratio (y) = 0.20574 0.12798
# Poissons Ratio (z) = 0.30642 0.13006
#
# Static dielectric constant tensor:
#      x y z
#    x 3.073650 0.000000 0.098130 
#    y 0.000000 3.320980 0.000000 
#    z 0.098130 0.000000 3.813060 
# 
# 
# High freq. dielectric constant tensor:
#      x y z
#    x 1.651110 0.000000 0.013700 
#    y 0.000000 1.680080 0.000000 
#    z 0.013700 0.000000 1.710710 
# 
# From -- ./inp_files/117975.got.cif
#   From: 2010.06.25/outbox.cif.g09.slc.cpg/sg15_59_cif.got.tgz:117975.got - 2010.06.28 07:06:18.
