data_PCOD8133822
_publ_section_title
;
Structure prediction by ZEFSAII (Michael W. Deem and Ramdas Pophale) SiO2 
 PCOD8133822
Probable space group: C 2/C
;
_chemical_formula_sum "Si O2"
_cell_formula_units_Z 48
_cell_length_a 13.411125
_cell_length_b 27.100050
_cell_length_c 10.642447
_cell_angle_alpha 90.000000
_cell_angle_beta 146.805763
_cell_angle_gamma 90.000000
_cell_volume 2117.601854
_symmetry_space_group_name_H-M "C 2/C"
_symmetry_group_IT_number 15
_symmetry_cell_setting 'monoclinic'
loop_
_space_group_symop_operation_xyz
x,y,z
-x,y,1/2-z
-x,-y,-z
x,-y,1/2+z
1/2+x,1/2+y,z
1/2-x,1/2+y,1/2-z
1/2-x,1/2-y,-z
1/2+x,1/2-y,1/2+z
loop_
_atom_site_type_symbol
_atom_site_label
_atom_site_fract_x
_atom_site_fract_y
_atom_site_fract_z
Si Si1 0.783197 0.592029 0.863276
Si Si2 0.909980 0.798619 0.939789
Si Si3 0.000000 0.136365 0.750000
Si Si4 0.821333 0.309035 0.303050
Si Si5 0.805655 0.943148 0.499292
Si Si6 0.000000 0.481668 0.750000
Si Si7 0.292310 0.337249 0.569591
O O1 0.632225 0.601100 0.810873
O O2 0.900422 0.641551 0.952043
O O3 0.679043 0.572675 0.629801
O O4 0.927852 0.551881 0.060686
O O5 0.906669 0.739541 0.955036
O O6 0.760530 0.814540 0.675868
O O7 0.872353 0.827674 0.029422
O O8 0.108322 0.814514 0.106603
O O9 0.842602 0.310123 0.172986
O O10 0.750264 0.895638 0.525509
O O11 0.000000 0.963890 0.750000
O O12 0.659169 0.985529 0.360771
O O13 0.500000 0.327504 0.750000
#
# Coordination Sequence:
#
# PCOD8133822 Si02
#       7
#     8   8   4   8   8   4   8
#     4  10  24  45  62  94 134 171 218 274 326 391
#     4  10  19  34  57  91 119 168 214 253 319 394
#     4  10  22  39  62  86 126 178 219 250 334 394
#     4   9  19  35  59  85 125 163 210 264 319 378
#     4  10  22  46  70  95 129 170 215 277 332 389
#     4  12  26  43  68 102 126 168 225 272 336 398
#     4   8  16  36  60  85 122 161 207 265 325 380
#
# _framework density 22.667149999999999
#
# number of rings (size 3 to 8) (size 9 to 14) (size 15 to 20)
#    0.000    2.333    0.000    4.000    1.167    5.333 
#   15.000    0.000    0.000    0.000    0.000    0.000 
#    0.000    0.000    0.000    0.000    0.000    0.000 
#
# Total GULP energy -297568.549563 kJ/mol
# GULP energy per Si atom -12398.689565 kJ/mol
# Density = 2.261556 g / cm^3
# Si number density = 22.667150 Si / 1000 Ang^3
#
#
#
# Elastic Constant Matrix: (Units=GPa)
#
#
# Indices 1 2 3 4 5 6 
#
# 1 94.5640 59.2279 41.5008 0.0000 -27.7837 0.0000
# 2 59.2279 147.9965 61.6843 0.0000 -9.8250 0.0000
# 3 41.5008 61.6843 87.3716 0.0000 -18.7724 0.0000
# 4 0.0000 0.0000 0.0000 48.9801 0.0000 -4.7089
# 5 -27.7837 -9.8250 -18.7724 0.0000 25.1585 0.0000
# 6 0.0000 0.0000 0.0000 -4.7089 0.0000 24.2654
#
#
#
# Elastic Compliance Matrix: (Units=1/GPa)
#
#
# Indices 1 2 3 4 5 6 
#
# 1 0.021041 -0.006682 -0.001007 0.000000 0.019876 0.000000
# 2 -0.006682 0.011747 -0.006812 0.000000 -0.007874 0.000000
# 3 -0.001007 -0.006812 0.018962 0.000000 0.010377 0.000000
# 4 0.000000 0.000000 0.000000 0.020805 0.000000 0.004037
# 5 0.019876 -0.007874 0.010377 0.000000 0.066366 0.000000
# 6 0.000000 0.000000 0.000000 0.004037 0.000000 0.041994
#
#
# Mechanical properties :
#
#
# Convention : Reuss Voigt Hill
#
# Bulk Modulus (GPa) = 43.95417 72.75090 58.35254
# Shear Modulus (GPa) = 22.98858 30.84876 26.91867
#
# Velocity S-wave (km/s) = 3.18807 3.69310 3.44984
# Velocity P-wave (km/s) = 5.74326 7.09580 6.45505
#
# Compressibility (1/GPa) = 0.02275097
#
# Stress axis : x y z
#
# Youngs Moduli (GPa) = 47.52539 85.12695 52.73703
#
# Poissons Ratio (x) = 0.56878 0.05309
# Poissons Ratio (y) = 0.31754 0.35922
# Poissons Ratio (z) = 0.04784 0.57984
#
# Static dielectric constant tensor:
#      x y z
#    x 3.918660 0.000000 -0.444280 
#    y 0.000000 4.255360 0.000000 
#    z -0.444280 0.000000 4.165690 
# 
# 
# High freq. dielectric constant tensor:
#      x y z
#    x 1.876760 0.000000 -0.019600 
#    y 0.000000 1.901150 0.000000 
#    z -0.019600 0.000000 1.888100 
# 
# From -- ./inp_files/101420.got.cif
#   From: 2010.06.25/outbox.cif.g09.slc.cpg/sg15_51_cif.got.tgz:101420.got - 2010.06.28 07:06:18.
