data_PCOD8133397
_publ_section_title
;
Structure prediction by ZEFSAII (Michael W. Deem and Ramdas Pophale) SiO2 
 PCOD8133397
Probable space group: C 2/C
;
_chemical_formula_sum "Si O2"
_cell_formula_units_Z 48
_cell_length_a 24.137279
_cell_length_b 5.026605
_cell_length_c 22.210008
_cell_angle_alpha 90.000000
_cell_angle_beta 66.666068
_cell_angle_gamma 90.000000
_cell_volume 2474.313550
_symmetry_space_group_name_H-M "C 2/C"
_symmetry_group_IT_number 15
_symmetry_cell_setting 'monoclinic'
loop_
_space_group_symop_operation_xyz
x,y,z
-x,y,1/2-z
-x,-y,-z
x,-y,1/2+z
1/2+x,1/2+y,z
1/2-x,1/2+y,1/2-z
1/2-x,1/2-y,-z
1/2+x,1/2-y,1/2+z
loop_
_atom_site_type_symbol
_atom_site_label
_atom_site_fract_x
_atom_site_fract_y
_atom_site_fract_z
Si Si1 0.352012 0.134668 0.538914
Si Si2 0.213774 0.396885 0.194272
Si Si3 0.425453 0.423537 0.596962
Si Si4 0.458564 0.184923 0.979079
Si Si5 0.669823 0.396206 0.275205
Si Si6 0.224013 0.855798 0.448993
O O1 0.380227 0.189197 0.593389
O O2 0.321795 0.394629 0.520771
O O3 0.405373 0.001236 0.473242
O O4 0.304662 0.900257 0.571365
O O5 0.280039 0.419209 0.194702
O O6 0.169718 0.616874 0.241204
O O7 0.222468 0.447526 0.119003
O O8 0.181704 0.117543 0.219562
O O9 0.493424 0.326755 0.587231
O O10 0.427610 0.599603 0.535522
O O11 0.396224 0.569649 0.666543
O O12 0.500000 0.000000 0.000000
O O13 0.250000 0.750000 0.500000
#
# Coordination Sequence:
#
# PCOD8133397 Si02
#       6
#     8   8   8   8   8   8
#     4  11  20  36  55  79 117 148 186 241 284 336
#     4  10  21  33  49  78 108 153 187 218 279 338
#     4  10  19  33  54  86 118 148 177 227 297 359
#     4   9  19  31  55  82 120 141 182 225 293 362
#     4  10  20  31  54  75 115 147 175 225 284 347
#     4  12  24  38  57  79 115 158 204 237 277 334
#
# _framework density 19.399319999999999
#
# number of rings (size 3 to 8) (size 9 to 14) (size 15 to 20)
#    0.000    1.667    3.333    1.500    9.333    0.000 
#    0.000    0.000    0.000    0.000    0.000    1.167 
#   10.000    0.000    0.000    0.000    0.000    0.000 
#
# Total GULP energy -297334.301030 kJ/mol
# GULP energy per Si atom -12388.929210 kJ/mol
# Density = 1.935517 g / cm^3
# Si number density = 19.399320 Si / 1000 Ang^3
#
#
#
# Elastic Constant Matrix: (Units=GPa)
#
#
# Indices 1 2 3 4 5 6 
#
# 1 53.5110 24.6358 41.6188 0.0224 -15.6239 0.0075
# 2 24.6358 92.6363 20.4740 0.0574 -3.0508 0.0577
# 3 41.6188 20.4740 104.8642 0.0104 -14.8721 -0.0091
# 4 0.0224 0.0574 0.0104 24.0579 -0.0418 -8.2859
# 5 -15.6239 -3.0508 -14.8721 -0.0418 21.6950 -0.0303
# 6 0.0075 0.0577 -0.0091 -8.2859 -0.0303 36.1619
#
#
#
# Elastic Compliance Matrix: (Units=1/GPa)
#
#
# Indices 1 2 3 4 5 6 
#
# 1 0.034341 -0.006368 -0.009975 0.000024 0.016997 0.000020
# 2 -0.006368 0.012463 -0.000341 -0.000039 -0.003067 -0.000030
# 3 -0.009975 -0.000341 0.013886 0.000012 0.002287 0.000011
# 4 0.000024 -0.000039 0.000012 0.045128 0.000121 0.010341
# 5 0.016997 -0.003067 0.002287 0.000121 0.059471 0.000080
# 6 0.000020 -0.000030 0.000011 0.010341 0.000080 0.030023
#
#
# Mechanical properties :
#
#
# Convention : Reuss Voigt Hill
#
# Bulk Modulus (GPa) = 36.60191 47.16318 41.88255
# Shear Modulus (GPa) = 21.02715 27.33517 24.18116
#
# Velocity S-wave (km/s) = 3.29585 3.75784 3.53440
# Velocity P-wave (km/s) = 5.77859 6.57214 6.18810
#
# Compressibility (1/GPa) = 0.02732098
#
# Stress axis : x y z
#
# Youngs Moduli (GPa) = 29.11988 80.23859 72.01435
#
# Poissons Ratio (x) = 0.51097 0.71837
# Poissons Ratio (y) = 0.18544 0.02455
# Poissons Ratio (z) = 0.29048 0.02735
#
# Static dielectric constant tensor:
#      x y z
#    x 3.700870 -0.000100 -0.620970 
#    y -0.000100 3.843670 -0.000020 
#    z -0.620970 -0.000020 3.352170 
# 
# 
# High freq. dielectric constant tensor:
#      x y z
#    x 1.714390 -0.000010 -0.049440 
#    y -0.000010 1.787170 -0.000010 
#    z -0.049440 -0.000010 1.713670 
# 
# From -- ./inp_files/253828.got.cif
#   From: 2010.06.25/outbox.cif.g09.slc.cpg/sg15_127_cif.got.tgz:253828.got - 2010.06.28 07:06:18.
