data_PCOD8133768
_publ_section_title
;
Structure prediction by ZEFSAII (Michael W. Deem and Ramdas Pophale) SiO2 
 PCOD8133768
Probable space group: C 2/C
;
_chemical_formula_sum "Si O2"
_cell_formula_units_Z 56
_cell_length_a 12.101580
_cell_length_b 18.506552
_cell_length_c 27.102357
_cell_angle_alpha 90.000000
_cell_angle_beta 148.889833
_cell_angle_gamma 90.000000
_cell_volume 3136.178149
_symmetry_space_group_name_H-M "C 2/C"
_symmetry_group_IT_number 15
_symmetry_cell_setting 'monoclinic'
loop_
_space_group_symop_operation_xyz
x,y,z
-x,y,1/2-z
-x,-y,-z
x,-y,1/2+z
1/2+x,1/2+y,z
1/2-x,1/2+y,1/2-z
1/2-x,1/2-y,-z
1/2+x,1/2-y,1/2+z
loop_
_atom_site_type_symbol
_atom_site_label
_atom_site_fract_x
_atom_site_fract_y
_atom_site_fract_z
Si Si1 0.749130 0.631151 0.157309
Si Si2 0.648719 0.519994 0.670806
Si Si3 0.147453 0.010502 0.351340
Si Si4 0.536680 0.580512 0.530326
Si Si5 0.486808 0.905886 0.037660
Si Si6 0.962787 0.602238 0.637474
Si Si7 0.502285 0.231918 0.908271
O O1 0.684319 0.558931 0.161416
O O2 0.646815 0.698261 0.147524
O O3 0.000000 0.642418 0.250000
O O4 0.656605 0.628701 0.065847
O O5 0.498938 0.516797 0.660508
O O6 0.545789 0.578093 0.593222
O O7 0.879307 0.549730 0.773654
O O8 0.303551 0.075288 0.427881
O O9 0.000000 0.038322 0.250000
O O10 0.288285 0.942646 0.388628
O O11 0.500000 0.500000 0.500000
O O12 0.754199 0.611450 0.590818
O O13 0.406838 0.932011 0.061885
O O14 0.527632 0.819206 0.054412
O O15 0.058997 0.682847 0.663449
O O16 0.750000 0.250000 0.000000
#
# Coordination Sequence:
#
# PCOD8133768 Si02
#       7
#     8   8   8   8   8   8   8
#     4  11  22  37  61  90 120 155 203 247 299 362
#     4  11  21  35  61  91 118 153 199 250 306 348
#     4  11  19  36  56  87 119 152 203 253 294 352
#     4  10  19  34  56  87 120 148 188 249 295 346
#     4   9  21  34  59  84 112 158 199 244 292 356
#     4  10  19  36  60  86 116 153 201 241 293 361
#     4  10  19  38  62  82 117 162 201 235 299 366
#
# _framework density 17.856127999999998
#
# number of rings (size 3 to 8) (size 9 to 14) (size 15 to 20)
#    0.857    0.857    2.857    4.714    0.000    1.714 
#    0.000    0.000    6.286    1.714    0.000    0.000 
#    0.000    0.000    0.000    0.000    0.000    0.000 
#
# Total GULP energy -346942.269385 kJ/mol
# GULP energy per Si atom -12390.795335 kJ/mol
# Density = 1.781549 g / cm^3
# Si number density = 17.856128 Si / 1000 Ang^3
#
#
#
# Elastic Constant Matrix: (Units=GPa)
#
#
# Indices 1 2 3 4 5 6 
#
# 1 100.4933 30.8942 45.7134 0.0001 -3.5753 0.0001
# 2 30.8942 102.1718 42.6023 -0.0002 -1.6236 0.0000
# 3 45.7134 42.6023 121.7939 -0.0016 -4.7915 0.0000
# 4 0.0001 -0.0002 -0.0016 21.4818 -0.0002 0.9234
# 5 -3.5753 -1.6236 -4.7915 -0.0002 33.0366 0.0001
# 6 0.0001 0.0000 0.0000 0.9234 0.0001 28.8600
#
#
#
# Elastic Compliance Matrix: (Units=1/GPa)
#
#
# Indices 1 2 3 4 5 6 
#
# 1 0.012393 -0.002117 -0.003884 0.000000 0.000674 0.000000
# 2 -0.002117 0.011820 -0.003345 0.000000 -0.000133 0.000000
# 3 -0.003884 -0.003345 0.010878 0.000001 0.000993 0.000000
# 4 0.000000 0.000000 0.000001 0.046615 0.000000 -0.001491
# 5 0.000674 -0.000133 0.000993 0.000000 0.030480 0.000000
# 6 0.000000 0.000000 0.000000 -0.001491 0.000000 0.034698
#
#
# Mechanical properties :
#
#
# Convention : Reuss Voigt Hill
#
# Bulk Modulus (GPa) = 60.98494 62.54209 61.76351
# Shear Modulus (GPa) = 29.23247 30.35893 29.79570
#
# Velocity S-wave (km/s) = 4.05051 4.12782 4.08935
# Velocity P-wave (km/s) = 7.49021 7.60395 7.54729
#
# Compressibility (1/GPa) = 0.01639749
#
# Stress axis : x y z
#
# Youngs Moduli (GPa) = 80.69308 84.60025 91.93045
#
# Poissons Ratio (x) = 0.17908 0.35710
# Poissons Ratio (y) = 0.17081 0.30754
# Poissons Ratio (z) = 0.31345 0.28302
#
# Static dielectric constant tensor:
#      x y z
#    x 3.363760 0.000000 -0.143630 
#    y 0.000000 3.306520 0.000000 
#    z -0.143630 0.000000 3.571240 
# 
# 
# High freq. dielectric constant tensor:
#      x y z
#    x 1.686150 0.000000 0.005450 
#    y 0.000000 1.673070 0.000000 
#    z 0.005450 0.000000 1.697660 
# 
# From -- ./inp_files/293704.got.cif
#   From: 2010.06.25/outbox.cif.g09.slc.cpg/sg15_147_cif.got.tgz:293704.got - 2010.06.28 07:06:18.
