data_PCOD8133459
_publ_section_title
;
Structure prediction by ZEFSAII (Michael W. Deem and Ramdas Pophale) SiO2 
 PCOD8133459
Probable space group: C 2/C
;
_chemical_formula_sum "Si O2"
_cell_formula_units_Z 40
_cell_length_a 22.806117
_cell_length_b 8.435241
_cell_length_c 14.084998
_cell_angle_alpha 90.000000
_cell_angle_beta 43.429717
_cell_angle_gamma 90.000000
_cell_volume 1862.755094
_symmetry_space_group_name_H-M "C 2/C"
_symmetry_group_IT_number 15
_symmetry_cell_setting 'monoclinic'
loop_
_space_group_symop_operation_xyz
x,y,z
-x,y,1/2-z
-x,-y,-z
x,-y,1/2+z
1/2+x,1/2+y,z
1/2-x,1/2+y,1/2-z
1/2-x,1/2-y,-z
1/2+x,1/2-y,1/2+z
loop_
_atom_site_type_symbol
_atom_site_label
_atom_site_fract_x
_atom_site_fract_y
_atom_site_fract_z
Si Si1 0.488790 0.563893 0.905884
Si Si2 0.202572 0.581964 0.644935
Si Si3 0.341898 0.431780 0.832658
Si Si4 0.837070 0.098694 0.638550
Si Si5 0.438658 0.868045 0.614790
O O1 0.562253 0.489719 0.751326
O O2 0.501181 0.753893 0.891950
O O3 0.500000 0.500000 0.000000
O O4 0.392682 0.506990 0.996527
O O5 0.269955 0.511917 0.490520
O O6 0.156256 0.741743 0.666301
O O7 0.247064 0.625034 0.693194
O O8 0.131292 0.448223 0.736297
O O9 0.319209 0.506398 0.757258
O O10 0.886514 0.265383 0.597641
O O11 0.500000 0.000000 0.500000
#
# Coordination Sequence:
#
# PCOD8133459 Si02
#       5
#     8   8   8   8   8
#     4   8  17  34  52  73 109 141 168 214 264 311
#     4  11  20  33  58  81 104 141 179 219 259 312
#     4   9  20  36  52  79 111 136 173 218 269 311
#     4  10  20  35  56  80 107 140 178 217 261 313
#     4  10  19  33  56  77 104 143 176 214 266 314
#
# _framework density 21.473568
#
# number of rings (size 3 to 8) (size 9 to 14) (size 15 to 20)
#    0.000    2.800    0.000    4.800    0.000    4.000 
#    0.000    0.000    0.000   18.000    0.000    0.000 
#    0.000    0.000    0.000    0.000    0.000    0.000 
#
# Total GULP energy -247813.617002 kJ/mol
# GULP energy per Si atom -12390.680850 kJ/mol
# Density = 2.142469 g / cm^3
# Si number density = 21.473568 Si / 1000 Ang^3
#
#
#
# Elastic Constant Matrix: (Units=GPa)
#
#
# Indices 1 2 3 4 5 6 
#
# 1 13.3926 11.3864 13.6621 -0.0007 -7.9449 0.0001
# 2 11.3864 132.4664 75.0708 0.0005 -16.4872 0.0004
# 3 13.6621 75.0708 164.7805 0.0007 -6.0284 0.0001
# 4 -0.0007 0.0005 0.0007 50.5367 0.0000 -8.8157
# 5 -7.9449 -16.4872 -6.0284 0.0000 24.0439 -0.0002
# 6 0.0001 0.0004 0.0001 -8.8157 -0.0002 12.0848
#
#
#
# Elastic Compliance Matrix: (Units=1/GPa)
#
#
# Indices 1 2 3 4 5 6 
#
# 1 0.100757 -0.000968 -0.006781 0.000002 0.030929 0.000001
# 2 -0.000968 0.011079 -0.004744 0.000000 0.006087 0.000000
# 3 -0.006781 -0.004744 0.008671 0.000000 -0.003320 0.000000
# 4 0.000002 0.000000 0.000000 0.022673 0.000001 0.016539
# 5 0.030929 0.006087 -0.003320 0.000001 0.055152 0.000001
# 6 0.000001 0.000000 0.000000 0.016539 0.000001 0.094814
#
#
# Mechanical properties :
#
#
# Convention : Reuss Voigt Hill
#
# Bulk Modulus (GPa) = 10.46909 56.76423 33.61666
# Shear Modulus (GPa) = 14.28684 31.36776 22.82730
#
# Velocity S-wave (km/s) = 2.58218 3.82614 3.26397
# Velocity P-wave (km/s) = 3.71162 6.78314 5.46750
#
# Compressibility (1/GPa) = 0.09551924
#
# Stress axis : x y z
#
# Youngs Moduli (GPa) = 9.92486 90.26437 115.32913
#
# Poissons Ratio (x) = 0.08739 0.78208
# Poissons Ratio (y) = 0.00961 0.54715
# Poissons Ratio (z) = 0.06730 0.42823
#
# Static dielectric constant tensor:
#      x y z
#    x 3.778740 0.000000 -0.524810 
#    y 0.000000 3.976390 0.000000 
#    z -0.524810 0.000000 4.425300 
# 
# 
# High freq. dielectric constant tensor:
#      x y z
#    x 1.809870 0.000000 -0.016990 
#    y 0.000000 1.842950 0.000000 
#    z -0.016990 0.000000 1.860660 
# 
# From -- ./inp_files/171658.got.cif
#   From: 2010.06.25/outbox.cif.g09.slc.cpg/sg15_86_cif.got.tgz:171658.got - 2010.06.28 07:06:18.
