data_PCOD8133708
_publ_section_title
;
Structure prediction by ZEFSAII (Michael W. Deem and Ramdas Pophale) SiO2 
 PCOD8133708
Probable space group: C 2/C
;
_chemical_formula_sum "Si O2"
_cell_formula_units_Z 56
_cell_length_a 11.302042
_cell_length_b 8.845959
_cell_length_c 31.038906
_cell_angle_alpha 90.000000
_cell_angle_beta 58.227549
_cell_angle_gamma 90.000000
_cell_volume 2638.163717
_symmetry_space_group_name_H-M "C 2/C"
_symmetry_group_IT_number 15
_symmetry_cell_setting 'monoclinic'
loop_
_space_group_symop_operation_xyz
x,y,z
-x,y,1/2-z
-x,-y,-z
x,-y,1/2+z
1/2+x,1/2+y,z
1/2-x,1/2+y,1/2-z
1/2-x,1/2-y,-z
1/2+x,1/2-y,1/2+z
loop_
_atom_site_type_symbol
_atom_site_label
_atom_site_fract_x
_atom_site_fract_y
_atom_site_fract_z
Si Si1 0.340831 0.538060 0.278771
Si Si2 0.166921 0.840520 0.303486
Si Si3 0.090083 0.505759 0.940227
Si Si4 0.797220 0.957941 0.626793
Si Si5 0.845824 0.844503 0.362127
Si Si6 0.333879 0.296588 0.051195
Si Si7 0.055591 0.223579 0.061294
O O1 0.500000 0.598247 0.250000
O O2 0.234520 0.674799 0.290796
O O3 0.315780 0.413642 0.246657
O O4 0.310088 0.455893 0.329402
O O5 0.004122 0.842054 0.347476
O O6 0.245407 0.939562 0.324488
O O7 0.238236 0.594587 0.919256
O O8 0.108633 0.327420 0.924925
O O9 0.002310 0.603758 0.922548
O O10 0.000000 0.500000 0.000000
O O11 0.683311 0.827991 0.645193
O O12 0.950646 0.889789 0.604958
O O13 0.796367 0.050675 0.582393
O O14 0.199990 0.210976 0.057685
O O15 0.435371 0.325391 0.991026
#
# Coordination Sequence:
#
# PCOD8133708 Si02
#       7
#     8   8   8   8   8   8   8
#     4  10  23  42  62  85 114 149 192 239 295 356
#     4  11  23  40  63  87 116 152 191 244 297 350
#     4   9  18  35  58  83 116 156 195 236 283 337
#     4  11  22  34  56  86 113 147 191 235 286 344
#     4  10  22  39  58  87 121 153 193 241 292 351
#     4  10  19  34  55  79 111 155 198 235 282 336
#     4   9  20  36  53  78 116 154 192 240 283 331
#
# _framework density 21.226886
#
# number of rings (size 3 to 8) (size 9 to 14) (size 15 to 20)
#    0.000    2.000    0.000    3.000    0.000    5.714 
#    0.000    0.000    0.000   15.429    0.000    0.000 
#    0.000    0.000    0.000    0.000    0.000    0.000 
#
# Total GULP energy -347026.649086 kJ/mol
# GULP energy per Si atom -12393.808896 kJ/mol
# Density = 2.117857 g / cm^3
# Si number density = 21.226886 Si / 1000 Ang^3
#
#
#
# Elastic Constant Matrix: (Units=GPa)
#
#
# Indices 1 2 3 4 5 6 
#
# 1 59.9957 40.6911 33.7990 0.0000 -5.4878 0.0000
# 2 40.6911 122.5763 35.9700 0.0000 -1.4031 0.0000
# 3 33.7990 35.9700 62.4864 0.0000 -7.6028 0.0000
# 4 0.0000 0.0000 0.0000 31.6439 0.0000 -0.6858
# 5 -5.4878 -1.4031 -7.6028 0.0000 28.8746 0.0000
# 6 0.0000 0.0000 0.0000 -0.6858 0.0000 33.4493
#
#
#
# Elastic Compliance Matrix: (Units=1/GPa)
#
#
# Indices 1 2 3 4 5 6 
#
# 1 0.026922 -0.005668 -0.011065 0.000000 0.001928 0.000000
# 2 -0.005668 0.011040 -0.003466 0.000000 -0.001453 0.000000
# 3 -0.011065 -0.003466 0.024492 0.000000 0.004178 0.000000
# 4 0.000000 0.000000 0.000000 0.031616 0.000000 0.000648
# 5 0.001928 -0.001453 0.004178 0.000000 0.036028 0.000000
# 6 0.000000 0.000000 0.000000 0.000648 0.000000 0.029909
#
#
# Mechanical properties :
#
#
# Convention : Reuss Voigt Hill
#
# Bulk Modulus (GPa) = 45.33900 51.77539 48.55720
# Shear Modulus (GPa) = 24.06647 27.76678 25.91662
#
# Velocity S-wave (km/s) = 3.37081 3.62068 3.49798
# Velocity P-wave (km/s) = 6.04611 6.47484 6.26414
#
# Compressibility (1/GPa) = 0.02205606
#
# Stress axis : x y z
#
# Youngs Moduli (GPa) = 37.14440 90.57693 40.82954
#
# Poissons Ratio (x) = 0.51340 0.45177
# Poissons Ratio (y) = 0.21054 0.14153
# Poissons Ratio (z) = 0.41099 0.31396
#
# Static dielectric constant tensor:
#      x y z
#    x 3.690530 0.000000 -0.191440 
#    y 0.000000 4.216980 0.000000 
#    z -0.191440 0.000000 3.834310 
# 
# 
# High freq. dielectric constant tensor:
#      x y z
#    x 1.816970 0.000000 -0.016070 
#    y 0.000000 1.845380 0.000000 
#    z -0.016070 0.000000 1.830090 
# 
# From -- ./inp_files/310207.got.cif
#   From: 2010.06.25/outbox.cif.g09.slc.cpg/sg15_156_cif.got.tgz:310207.got - 2010.06.28 07:06:18.
