data_PCOD8133891
_publ_section_title
;
Structure prediction by ZEFSAII (Michael W. Deem and Ramdas Pophale) SiO2 
 PCOD8133891
Probable space group: C 2/C
;
_chemical_formula_sum "Si O2"
_cell_formula_units_Z 60
_cell_length_a 17.485960
_cell_length_b 23.085518
_cell_length_c 8.481602
_cell_angle_alpha 90.000000
_cell_angle_beta 61.564922
_cell_angle_gamma 90.000000
_cell_volume 3010.733581
_symmetry_space_group_name_H-M "C 2/C"
_symmetry_group_IT_number 15
_symmetry_cell_setting 'monoclinic'
loop_
_space_group_symop_operation_xyz
x,y,z
-x,y,1/2-z
-x,-y,-z
x,-y,1/2+z
1/2+x,1/2+y,z
1/2-x,1/2+y,1/2-z
1/2-x,1/2-y,-z
1/2+x,1/2-y,1/2+z
loop_
_atom_site_type_symbol
_atom_site_label
_atom_site_fract_x
_atom_site_fract_y
_atom_site_fract_z
Si Si1 0.468471 0.558139 0.955989
Si Si2 0.775272 0.061666 0.237762
Si Si3 0.366856 0.756421 0.519216
Si Si4 0.491004 0.321885 0.571523
Si Si5 0.435957 0.949557 0.118298
Si Si6 0.197771 0.188230 0.207832
Si Si7 0.323944 0.020378 0.452486
Si Si8 0.000000 0.347277 0.250000
O O1 0.500000 0.565053 0.750000
O O2 0.500000 0.500000 0.000000
O O3 0.365628 0.554320 0.061001
O O4 0.509958 0.612016 0.009704
O O5 0.774792 0.121439 0.332523
O O6 0.704176 0.060086 0.167209
O O7 0.757428 0.011332 0.382750
O O8 0.435103 0.722420 0.568017
O O9 0.283249 0.780593 0.699253
O O10 0.321705 0.710166 0.447870
O O11 0.416822 0.807434 0.374661
O O12 0.500000 0.313886 0.750000
O O13 0.393564 0.304409 0.605471
O O14 0.479908 0.888038 0.117756
O O15 0.388454 0.970505 0.324842
O O16 0.370295 0.938876 0.036698
O O17 0.500000 0.000000 0.000000
#
# Coordination Sequence:
#
# PCOD8133891 Si02
#       8
#     8   8   8   8   8   8   8   4
#     4  11  22  37  62  88 116 155 196 247 311 370
#     4  10  21  37  59  84 126 156 199 251 303 371
#     4  10  19  34  59  87 112 157 210 250 295 354
#     4   9  18  37  58  85 118 148 199 255 294 355
#     4  11  21  36  57  87 124 159 198 250 297 362
#     4   9  18  34  56  83 114 152 197 253 296 342
#     4  10  21  37  55  86 123 162 194 242 311 360
#     4  12  20  34  62  88 118 156 216 246 300 370
#
# _framework density 19.928697
#
# number of rings (size 3 to 8) (size 9 to 14) (size 15 to 20)
#    0.000    1.867    3.333    2.000    1.867    2.133 
#    0.000    5.333    2.933    2.400    0.000    0.000 
#    0.000    0.000    0.000    0.000    0.000    0.000 
#
# Total GULP energy -371680.921692 kJ/mol
# GULP energy per Si atom -12389.364056 kJ/mol
# Density = 1.988334 g / cm^3
# Si number density = 19.928697 Si / 1000 Ang^3
#
#
#
# Elastic Constant Matrix: (Units=GPa)
#
#
# Indices 1 2 3 4 5 6 
#
# 1 104.1694 70.6510 33.6118 0.0000 -17.2142 0.0000
# 2 70.6510 128.0839 29.9090 0.0000 -11.7513 0.0000
# 3 33.6118 29.9090 71.3951 0.0000 -13.6276 0.0000
# 4 0.0000 0.0000 0.0000 23.2687 0.0000 -1.9870
# 5 -17.2142 -11.7513 -13.6276 0.0000 36.6094 0.0000
# 6 0.0000 0.0000 0.0000 -1.9870 0.0000 35.1851
#
#
#
# Elastic Compliance Matrix: (Units=1/GPa)
#
#
# Indices 1 2 3 4 5 6 
#
# 1 0.016999 -0.008115 -0.003848 0.000000 0.003956 0.000000
# 2 -0.008115 0.012609 -0.001526 0.000000 -0.000336 0.000000
# 3 -0.003848 -0.001526 0.017244 0.000000 0.004120 0.000000
# 4 0.000000 0.000000 0.000000 0.043184 0.000000 0.002439
# 5 0.003956 -0.000336 0.004120 0.000000 0.030601 0.000000
# 6 0.000000 0.000000 0.000000 0.002439 0.000000 0.028559
#
#
# Mechanical properties :
#
#
# Convention : Reuss Voigt Hill
#
# Bulk Modulus (GPa) = 50.31862 63.55468 56.93665
# Shear Modulus (GPa) = 27.35237 30.31108 28.83173
#
# Velocity S-wave (km/s) = 3.70876 3.90420 3.80774
# Velocity P-wave (km/s) = 6.60636 7.23077 6.92560
#
# Compressibility (1/GPa) = 0.01987336
#
# Stress axis : x y z
#
# Youngs Moduli (GPa) = 58.82660 79.30736 57.99168
#
# Poissons Ratio (x) = 0.64359 0.22317
# Poissons Ratio (y) = 0.47739 0.08849
# Poissons Ratio (z) = 0.22638 0.12102
#
# Static dielectric constant tensor:
#      x y z
#    x 4.258680 0.000000 -0.463980 
#    y 0.000000 3.340500 0.000000 
#    z -0.463980 0.000000 3.565130 
# 
# 
# High freq. dielectric constant tensor:
#      x y z
#    x 1.786960 0.000000 -0.028550 
#    y 0.000000 1.775620 0.000000 
#    z -0.028550 0.000000 1.750300 
# 
# From -- ./inp_files/50626.got.cif
#   From: 2010.06.25/outbox.cif.g09.slc.cpg/sg15_26_cif.got.tgz:50626.got - 2010.06.28 07:06:18.
