data_PCOD8133074
_publ_section_title
;
Structure prediction by ZEFSAII (Michael W. Deem and Ramdas Pophale) SiO2 
 PCOD8133074
Probable space group: C 2/C
;
_chemical_formula_sum "Si O2"
_cell_formula_units_Z 52
_cell_length_a 15.487903
_cell_length_b 25.309664
_cell_length_c 9.323328
_cell_angle_alpha 90.000000
_cell_angle_beta 52.588590
_cell_angle_gamma 90.000000
_cell_volume 2902.893172
_symmetry_space_group_name_H-M "C 2/C"
_symmetry_group_IT_number 15
_symmetry_cell_setting 'monoclinic'
loop_
_space_group_symop_operation_xyz
x,y,z
-x,y,1/2-z
-x,-y,-z
x,-y,1/2+z
1/2+x,1/2+y,z
1/2-x,1/2+y,1/2-z
1/2-x,1/2-y,-z
1/2+x,1/2-y,1/2+z
loop_
_atom_site_type_symbol
_atom_site_label
_atom_site_fract_x
_atom_site_fract_y
_atom_site_fract_z
Si Si1 0.699169 0.323533 0.459306
Si Si2 0.609680 0.798074 0.720945
Si Si3 0.108744 0.027540 0.438481
Si Si4 0.811091 0.181945 0.851776
Si Si5 0.602866 0.214101 0.558801
Si Si6 0.128535 0.060746 0.117723
Si Si7 0.500000 0.390577 0.250000
O O1 0.742353 0.319413 0.252690
O O2 0.607657 0.277927 0.565949
O O3 0.792488 0.312708 0.478711
O O4 0.652938 0.380893 0.539353
O O5 0.500000 0.815273 0.750000
O O6 0.712883 0.832795 0.560317
O O7 0.638385 0.737925 0.654268
O O8 0.593329 0.806427 0.906255
O O9 0.174460 0.048716 0.232101
O O10 0.076462 0.076875 0.567679
O O11 0.177926 0.983810 0.459166
O O12 0.000000 0.000000 0.500000
O O13 0.913601 0.142899 0.746579
O O14 0.500000 0.193393 0.750000
O O15 0.000000 0.053153 0.250000
#
# Coordination Sequence:
#
# PCOD8133074 Si02
#       7
#     8   8   8   8   8   8   4
#     4  10  21  35  53  80 107 147 180 216 273 323
#     4  10  20  37  52  75 108 144 186 229 263 323
#     4  10  19  32  49  74 110 138 177 219 273 321
#     4  10  21  33  53  78 106 147 186 219 275 321
#     4  10  21  36  54  79 109 143 183 226 264 322
#     4  10  19  33  50  76 108 143 173 221 265 326
#     4  12  20  32  54  80 110 148 182 226 270 326
#
# _framework density 17.913163000000001
#
# number of rings (size 3 to 8) (size 9 to 14) (size 15 to 20)
#    0.000    1.846    3.077    3.231    2.154    2.462 
#    0.000    0.000    0.000    0.000    0.000    2.154 
#    0.000    0.154    0.000    0.000    0.000    0.000 
#
# Total GULP energy -322245.255646 kJ/mol
# GULP energy per Si atom -12394.048294 kJ/mol
# Density = 1.787239 g / cm^3
# Si number density = 17.913163 Si / 1000 Ang^3
#
#
#
# Elastic Constant Matrix: (Units=GPa)
#
#
# Indices 1 2 3 4 5 6 
#
# 1 88.4265 17.6637 40.3998 0.0000 18.8617 0.0000
# 2 17.6637 67.2548 13.6487 0.0000 8.1304 0.0000
# 3 40.3998 13.6487 94.1512 0.0000 19.4756 0.0000
# 4 0.0000 0.0000 0.0000 24.7491 0.0000 2.6554
# 5 18.8617 8.1304 19.4756 0.0000 26.7373 0.0000
# 6 0.0000 0.0000 0.0000 2.6554 0.0000 17.8606
#
#
#
# Elastic Compliance Matrix: (Units=1/GPa)
#
#
# Indices 1 2 3 4 5 6 
#
# 1 0.015416 -0.002251 -0.004922 0.000000 -0.006605 0.000000
# 2 -0.002251 0.015945 -0.000790 0.000000 -0.002685 0.000000
# 3 -0.004922 -0.000790 0.014223 0.000000 -0.006647 0.000000
# 4 0.000000 0.000000 0.000000 0.041060 0.000000 -0.006105
# 5 -0.006605 -0.002685 -0.006647 0.000000 0.047719 0.000000
# 6 0.000000 0.000000 0.000000 -0.006105 0.000000 0.056897
#
#
# Mechanical properties :
#
#
# Convention : Reuss Voigt Hill
#
# Bulk Modulus (GPa) = 33.71924 43.69521 38.70722
# Shear Modulus (GPa) = 23.03365 25.74411 24.38888
#
# Velocity S-wave (km/s) = 3.58977 3.79510 3.69386
# Velocity P-wave (km/s) = 6.00387 6.60678 6.31253
#
# Compressibility (1/GPa) = 0.02965666
#
# Stress axis : x y z
#
# Youngs Moduli (GPa) = 64.86596 62.71538 70.30889
#
# Poissons Ratio (x) = 0.14120 0.34609
# Poissons Ratio (y) = 0.14604 0.05554
# Poissons Ratio (z) = 0.31929 0.04955
#
# Static dielectric constant tensor:
#      x y z
#    x 3.388580 0.000000 0.499660 
#    y 0.000000 3.197850 0.000000 
#    z 0.499660 0.000000 3.628250 
# 
# 
# High freq. dielectric constant tensor:
#      x y z
#    x 1.679010 0.000000 0.035330 
#    y 0.000000 1.677630 0.000000 
#    z 0.035330 0.000000 1.690330 
# 
# From -- ./inp_files/43399.got.cif
#   From: 2010.06.25/outbox.cif.g09.slc.cpg/sg15_22_cif.got.tgz:43399.got - 2010.06.28 07:06:18.
