data_PCOD8133991
_publ_section_title
;
Structure prediction by ZEFSAII (Michael W. Deem and Ramdas Pophale) SiO2 
 PCOD8133991
Probable space group: C 2/C
;
_chemical_formula_sum "Si O2"
_cell_formula_units_Z 64
_cell_length_a 14.140020
_cell_length_b 12.039910
_cell_length_c 28.002406
_cell_angle_alpha 90.000000
_cell_angle_beta 40.736191
_cell_angle_gamma 90.000000
_cell_volume 3111.003329
_symmetry_space_group_name_H-M "C 2/C"
_symmetry_group_IT_number 15
_symmetry_cell_setting 'monoclinic'
loop_
_space_group_symop_operation_xyz
x,y,z
-x,y,1/2-z
-x,-y,-z
x,-y,1/2+z
1/2+x,1/2+y,z
1/2-x,1/2+y,1/2-z
1/2-x,1/2-y,-z
1/2+x,1/2-y,1/2+z
loop_
_atom_site_type_symbol
_atom_site_label
_atom_site_fract_x
_atom_site_fract_y
_atom_site_fract_z
Si Si1 0.379599 0.477894 0.982350
Si Si2 0.344141 0.498307 0.293097
Si Si3 0.264527 0.720830 0.368727
Si Si4 0.476311 0.322918 0.496778
Si Si5 0.884648 0.589312 0.759006
Si Si6 0.358904 0.214270 0.628601
Si Si7 0.357337 0.430048 0.680637
Si Si8 0.399791 0.851028 0.401777
O O1 0.431215 0.411596 0.008899
O O2 0.476803 0.447054 0.899415
O O3 0.389221 0.610231 0.989080
O O4 0.211829 0.445789 0.038465
O O5 0.500000 0.452552 0.250000
O O6 0.293473 0.590623 0.350417
O O7 0.235797 0.395576 0.332572
O O8 0.349547 0.557353 0.239904
O O9 0.346592 0.791356 0.296535
O O10 0.324409 0.756424 0.398156
O O11 0.091635 0.737808 0.429824
O O12 0.359063 0.258880 0.574280
O O13 0.739020 0.518986 0.810952
O O14 0.000000 0.528637 0.750000
O O15 0.959666 0.599079 0.678898
O O16 0.298353 0.307827 0.688426
O O17 0.529734 0.197280 0.576762
#
# Coordination Sequence:
#
# PCOD8133991 Si02
#       8
#     8   8   8   8   8   8   8   8
#     4   9  19  36  64  93 121 155 208 263 305 359
#     4  12  26  42  60  89 129 169 207 252 316 375
#     4  10  20  38  67  85 120 163 211 251 305 374
#     4   9  19  36  62  91 124 160 202 254 316 362
#     4  10  19  34  64  95 114 155 210 260 307 356
#     4  11  24  38  59  94 124 160 208 257 307 368
#     4  11  22  40  67  88 125 162 212 256 309 369
#     4  10  20  38  60  95 121 153 210 257 308 360
#
# _framework density 20.572140000000001
#
# number of rings (size 3 to 8) (size 9 to 14) (size 15 to 20)
#    0.000    1.750    2.500    2.625    5.250    6.500 
#    0.000    0.000    0.000    1.500    0.000    0.000 
#    0.000    0.000    0.000    0.000    0.000    0.000 
#
# Total GULP energy -396750.509507 kJ/mol
# GULP energy per Si atom -12398.453422 kJ/mol
# Density = 2.052532 g / cm^3
# Si number density = 20.572140 Si / 1000 Ang^3
#
#
#
# Elastic Constant Matrix: (Units=GPa)
#
#
# Indices 1 2 3 4 5 6 
#
# 1 64.7331 49.5960 19.5698 0.0000 -4.7224 0.0000
# 2 49.5960 124.0607 46.7759 0.0000 -12.3943 0.0000
# 3 19.5698 46.7759 92.8995 0.0000 -11.2650 0.0000
# 4 0.0000 0.0000 0.0000 19.3327 0.0000 -0.6308
# 5 -4.7224 -12.3943 -11.2650 0.0000 17.6981 0.0000
# 6 0.0000 0.0000 0.0000 -0.6308 0.0000 24.2400
#
#
#
# Elastic Compliance Matrix: (Units=1/GPa)
#
#
# Indices 1 2 3 4 5 6 
#
# 1 0.022277 -0.008837 -0.000295 0.000000 -0.000433 0.000000
# 2 -0.008837 0.013737 -0.004524 0.000000 0.004383 0.000000
# 3 -0.000295 -0.004524 0.013774 0.000000 0.005520 0.000000
# 4 0.000000 0.000000 0.000000 0.051770 0.000000 0.001347
# 5 -0.000433 0.004383 0.005520 0.000000 0.062971 0.000000
# 6 0.000000 0.000000 0.000000 0.001347 0.000000 0.041289
#
#
# Mechanical properties :
#
#
# Convention : Reuss Voigt Hill
#
# Bulk Modulus (GPa) = 44.49528 57.06407 50.77967
# Shear Modulus (GPa) = 20.77952 23.30426 22.04189
#
# Velocity S-wave (km/s) = 3.18162 3.36937 3.27684
# Velocity P-wave (km/s) = 5.93067 6.55253 6.24934
#
# Compressibility (1/GPa) = 0.02247429
#
# Stress axis : x y z
#
# Youngs Moduli (GPa) = 44.88993 72.79617 72.60261
#
# Poissons Ratio (x) = 0.64333 0.02145
# Poissons Ratio (y) = 0.39671 0.32842
# Poissons Ratio (z) = 0.01326 0.32930
#
# Static dielectric constant tensor:
#      x y z
#    x 3.677580 0.000000 -0.066260 
#    y 0.000000 3.626740 0.000000 
#    z -0.066260 0.000000 3.756340 
# 
# 
# High freq. dielectric constant tensor:
#      x y z
#    x 1.784540 0.000000 -0.001310 
#    y 0.000000 1.788620 0.000000 
#    z -0.001310 0.000000 1.810970 
# 
# From -- ./inp_files/296096.got.cif
#   From: 2010.06.25/outbox.cif.g09.slc.cpg/sg15_149_cif.got.tgz:296096.got - 2010.06.28 07:06:18.
