data_PCOD8133342
_publ_section_title
;
Structure prediction by ZEFSAII (Michael W. Deem and Ramdas Pophale) SiO2 
 PCOD8133342
Probable space group: C 2/C
;
_chemical_formula_sum "Si O2"
_cell_formula_units_Z 56
_cell_length_a 21.054670
_cell_length_b 14.043167
_cell_length_c 9.487399
_cell_angle_alpha 90.000000
_cell_angle_beta 85.813903
_cell_angle_gamma 90.000000
_cell_volume 2797.695951
_symmetry_space_group_name_H-M "C 2/C"
_symmetry_group_IT_number 15
_symmetry_cell_setting 'monoclinic'
loop_
_space_group_symop_operation_xyz
x,y,z
-x,y,1/2-z
-x,-y,-z
x,-y,1/2+z
1/2+x,1/2+y,z
1/2-x,1/2+y,1/2-z
1/2-x,1/2-y,-z
1/2+x,1/2-y,1/2+z
loop_
_atom_site_type_symbol
_atom_site_label
_atom_site_fract_x
_atom_site_fract_y
_atom_site_fract_z
Si Si1 0.570757 0.549446 0.242160
Si Si2 0.140612 0.919588 0.442640
Si Si3 0.127694 0.710770 0.479086
Si Si4 0.350810 0.074449 0.643170
Si Si5 0.070799 0.260178 0.279989
Si Si6 0.214763 0.553334 0.554289
Si Si7 0.461469 0.061668 0.119541
O O1 0.500000 0.504765 0.250000
O O2 0.618735 0.479105 0.311540
O O3 0.567073 0.650051 0.329311
O O4 0.592372 0.563846 0.078358
O O5 0.142022 0.808569 0.393670
O O6 0.210166 0.953676 0.478403
O O7 0.118425 0.737886 0.641869
O O8 0.187708 0.638908 0.460192
O O9 0.062103 0.661625 0.440432
O O10 0.391959 0.172406 0.613019
O O11 0.316292 0.045061 0.501972
O O12 0.401516 0.996751 0.684181
O O13 0.300543 0.074031 0.779744
O O14 0.000000 0.298897 0.250000
O O15 0.500000 0.089836 0.250000
O O16 0.500000 0.000000 0.000000
#
# Coordination Sequence:
#
# PCOD8133342 Si02
#       7
#     8   8   8   8   8   8   8
#     4  10  22  38  57  79 101 135 181 226 272 324
#     4  11  21  39  58  76 106 143 181 226 273 319
#     4   9  20  33  53  79 107 144 181 217 264 328
#     4  10  19  33  53  80 110 141 179 221 266 326
#     4   9  17  33  54  75 105 144 178 215 274 328
#     4  10  20  35  54  79 107 143 180 218 268 329
#     4  11  20  33  55  86 116 144 177 221 278 332
#
# _framework density 20.016472
#
# number of rings (size 3 to 8) (size 9 to 14) (size 15 to 20)
#    0.000    2.000    0.000    5.571    0.000    0.571 
#    0.000    5.000    0.000    0.000    0.000    0.000 
#    0.000    0.000    0.000    0.000    0.000    0.000 
#
# Total GULP energy -347063.056113 kJ/mol
# GULP energy per Si atom -12395.109147 kJ/mol
# Density = 1.997091 g / cm^3
# Si number density = 20.016472 Si / 1000 Ang^3
#
#
#
# Elastic Constant Matrix: (Units=GPa)
#
#
# Indices 1 2 3 4 5 6 
#
# 1 116.6722 30.7197 14.8678 0.0000 11.2738 0.0000
# 2 30.7197 98.2966 17.9645 0.0000 22.3835 0.0000
# 3 14.8678 17.9645 50.3224 0.0000 8.8963 0.0000
# 4 0.0000 0.0000 0.0000 24.4256 0.0000 4.5746
# 5 11.2738 22.3835 8.8963 0.0000 33.0202 0.0000
# 6 0.0000 0.0000 0.0000 4.5746 0.0000 28.8180
#
#
#
# Elastic Compliance Matrix: (Units=1/GPa)
#
#
# Indices 1 2 3 4 5 6 
#
# 1 0.009538 -0.002396 -0.001758 0.000000 -0.001159 0.000000
# 2 -0.002396 0.013078 -0.002665 0.000000 -0.007329 0.000000
# 3 -0.001758 -0.002665 0.021963 0.000000 -0.003511 0.000000
# 4 0.000000 0.000000 0.000000 0.042195 0.000000 -0.006698
# 5 -0.001159 -0.007329 -0.003511 0.000000 0.036594 0.000000
# 6 0.000000 0.000000 0.000000 -0.006698 0.000000 0.035764
#
#
# Mechanical properties :
#
#
# Convention : Reuss Voigt Hill
#
# Bulk Modulus (GPa) = 32.31880 43.59947 37.95913
# Shear Modulus (GPa) = 27.30991 30.70202 29.00597
#
# Velocity S-wave (km/s) = 3.69775 3.92067 3.81084
# Velocity P-wave (km/s) = 5.86620 6.50574 6.19423
#
# Compressibility (1/GPa) = 0.03094174
#
# Stress axis : x y z
#
# Youngs Moduli (GPa) = 104.84630 76.46404 45.53057
#
# Poissons Ratio (x) = 0.18318 0.08004
# Poissons Ratio (y) = 0.25117 0.12135
# Poissons Ratio (z) = 0.18431 0.20379
#
# Static dielectric constant tensor:
#      x y z
#    x 2.103670 0.000000 3.709260 
#    y 0.000000 3.993470 0.000000 
#    z 3.709260 0.000000 -5.705480 
# 
# 
# High freq. dielectric constant tensor:
#      x y z
#    x 1.787900 0.000000 -0.006060 
#    y 0.000000 1.778190 0.000000 
#    z -0.006060 0.000000 1.750840 
# 
# From -- ./inp_files/55643.got.cif
#   From: 2010.06.25/outbox.cif.g09.slc.cpg/sg15_28_cif.got.tgz:55643.got - 2010.06.28 07:06:18.
