data_PCOD8133210
_publ_section_title
;
Structure prediction by ZEFSAII (Michael W. Deem and Ramdas Pophale) SiO2 
 PCOD8133210
Probable space group: C 2/C
;
_chemical_formula_sum "Si O2"
_cell_formula_units_Z 64
_cell_length_a 8.375426
_cell_length_b 21.645273
_cell_length_c 20.988671
_cell_angle_alpha 90.000000
_cell_angle_beta 130.025129
_cell_angle_gamma 90.000000
_cell_volume 2913.727828
_symmetry_space_group_name_H-M "C 2/C"
_symmetry_group_IT_number 15
_symmetry_cell_setting 'monoclinic'
loop_
_space_group_symop_operation_xyz
x,y,z
-x,y,1/2-z
-x,-y,-z
x,-y,1/2+z
1/2+x,1/2+y,z
1/2-x,1/2+y,1/2-z
1/2-x,1/2-y,-z
1/2+x,1/2-y,1/2+z
loop_
_atom_site_type_symbol
_atom_site_label
_atom_site_fract_x
_atom_site_fract_y
_atom_site_fract_z
Si Si1 0.458982 0.705433 0.429112
Si Si2 0.212082 0.401963 0.211180
Si Si3 0.151548 0.839765 0.728306
Si Si4 0.743580 0.461712 0.802983
Si Si5 0.595173 0.637813 0.873535
Si Si6 0.386071 0.164898 0.567613
Si Si7 0.029699 0.720044 0.375232
Si Si8 0.991805 0.616737 0.464834
O O1 0.486155 0.669323 0.369394
O O2 0.472346 0.777731 0.418488
O O3 0.649357 0.684238 0.523757
O O4 0.239394 0.687315 0.403531
O O5 0.155978 0.474320 0.193340
O O6 0.314298 0.371482 0.174278
O O7 0.360866 0.390515 0.310795
O O8 0.988301 0.366503 0.157083
O O9 0.260040 0.907508 0.754610
O O10 0.335658 0.788519 0.776837
O O11 0.000000 0.835481 0.750000
O O12 0.500000 0.476874 0.750000
O O13 0.871235 0.438075 0.897646
O O14 0.575793 0.707820 0.894775
O O15 0.757466 0.603315 0.962945
O O16 0.388379 0.118583 0.508032
O O17 0.965128 0.683906 0.423269
#
# Coordination Sequence:
#
# PCOD8133210 Si02
#       8
#     8   8   8   8   8   8   8   8
#     4  11  20  34  55  87 115 157 189 236 301 355
#     4  10  19  35  53  84 112 152 190 257 287 333
#     4  10  22  37  56  86 119 154 194 244 292 349
#     4  10  19  35  55  80 118 143 200 244 293 337
#     4  10  19  32  56  84 115 145 192 239 294 346
#     4  10  21  34  55  83 124 145 193 244 295 355
#     4  11  20  34  61  85 123 151 191 237 295 366
#     4  10  21  36  54  89 115 155 183 249 291 352
#
# _framework density 21.964991000000001
#
# number of rings (size 3 to 8) (size 9 to 14) (size 15 to 20)
#    0.000    1.750    3.750    3.750    1.750    2.000 
#    2.250    0.000    0.000    3.000    6.500    0.000 
#    0.000    0.000    0.000    0.000    0.000    0.000 
#
# Total GULP energy -396456.614614 kJ/mol
# GULP energy per Si atom -12389.269207 kJ/mol
# Density = 2.191500 g / cm^3
# Si number density = 21.964991 Si / 1000 Ang^3
#
#
#
# Elastic Constant Matrix: (Units=GPa)
#
#
# Indices 1 2 3 4 5 6 
#
# 1 48.5114 15.8514 12.7136 0.0000 19.4830 0.0000
# 2 15.8514 91.7702 48.4578 0.0000 21.7368 0.0000
# 3 12.7136 48.4578 148.7398 0.0000 40.0131 0.0000
# 4 0.0000 0.0000 0.0000 29.8358 0.0000 7.6113
# 5 19.4830 21.7368 40.0131 0.0000 34.4974 0.0000
# 6 0.0000 0.0000 0.0000 7.6113 0.0000 15.3431
#
#
#
# Elastic Compliance Matrix: (Units=1/GPa)
#
#
# Indices 1 2 3 4 5 6 
#
# 1 0.027710 -0.002216 0.003180 0.000000 -0.017942 0.000000
# 2 -0.002216 0.013915 -0.003375 0.000000 -0.003602 0.000000
# 3 0.003180 -0.003375 0.010846 0.000000 -0.012250 0.000000
# 4 0.000000 0.000000 0.000000 0.038373 0.000000 -0.019036
# 5 -0.017942 -0.003602 -0.012250 0.000000 0.055599 0.000000
# 6 0.000000 0.000000 0.000000 -0.019036 0.000000 0.074619
#
#
# Mechanical properties :
#
#
# Convention : Reuss Voigt Hill
#
# Bulk Modulus (GPa) = 20.98647 49.22968 35.10807
# Shear Modulus (GPa) = 20.68111 30.06850 25.37481
#
# Velocity S-wave (km/s) = 3.07180 3.70392 3.40257
# Velocity P-wave (km/s) = 4.70707 6.38384 5.60847
#
# Compressibility (1/GPa) = 0.04764974
#
# Stress axis : x y z
#
# Youngs Moduli (GPa) = 36.08785 71.86639 92.19786
#
# Poissons Ratio (x) = 0.15924 -0.29319
# Poissons Ratio (y) = 0.07996 0.31116
# Poissons Ratio (z) = -0.11476 0.24255
#
# Static dielectric constant tensor:
#      x y z
#    x 3.524550 0.000000 0.496800 
#    y 0.000000 3.818580 0.000000 
#    z 0.496800 0.000000 4.712750 
# 
# 
# High freq. dielectric constant tensor:
#      x y z
#    x 1.816990 0.000000 0.033890 
#    y 0.000000 1.841050 0.000000 
#    z 0.033890 0.000000 1.892550 
# 
# From -- ./inp_files/266130.got.cif
#   From: 2010.06.25/outbox.cif.g09.slc.cpg/sg15_134_cif.got.tgz:266130.got - 2010.06.28 07:06:18.
