data_PCOD8133078
_publ_section_title
;
Structure prediction by ZEFSAII (Michael W. Deem and Ramdas Pophale) SiO2 
 PCOD8133078
Probable space group: C 2/C
;
_chemical_formula_sum "Si O2"
_cell_formula_units_Z 64
_cell_length_a 29.552865
_cell_length_b 22.712263
_cell_length_c 13.023605
_cell_angle_alpha 90.000000
_cell_angle_beta 25.108126
_cell_angle_gamma 90.000000
_cell_volume 3709.306771
_symmetry_space_group_name_H-M "C 2/C"
_symmetry_group_IT_number 15
_symmetry_cell_setting 'monoclinic'
loop_
_space_group_symop_operation_xyz
x,y,z
-x,y,1/2-z
-x,-y,-z
x,-y,1/2+z
1/2+x,1/2+y,z
1/2-x,1/2+y,1/2-z
1/2-x,1/2-y,-z
1/2+x,1/2-y,1/2+z
loop_
_atom_site_type_symbol
_atom_site_label
_atom_site_fract_x
_atom_site_fract_y
_atom_site_fract_z
Si Si1 0.412670 0.745059 0.201562
Si Si2 0.762206 0.684097 0.337395
Si Si3 0.801852 0.355477 0.081373
Si Si4 0.369375 0.299682 0.198677
Si Si5 0.704876 0.250643 0.759885
Si Si6 0.002572 0.630107 0.025482
Si Si7 0.110394 0.553963 0.965206
Si Si8 0.085043 0.575160 0.485106
O O1 0.381289 0.729627 0.148305
O O2 0.315935 0.735910 0.477252
O O3 0.502329 0.699858 0.060101
O O4 0.450446 0.812599 0.126571
O O5 0.665239 0.680899 0.616413
O O6 0.839427 0.733894 0.225069
O O7 0.717369 0.697624 0.316679
O O8 0.822575 0.623157 0.200406
O O9 0.685382 0.344319 0.270564
O O10 0.833896 0.307274 0.100574
O O11 0.801483 0.419104 0.137823
O O12 0.893785 0.351448 0.806692
O O13 0.977483 0.580799 0.992788
O O14 0.093767 0.600017 0.907031
O O15 0.144211 0.488409 0.862822
O O16 0.000000 0.547363 0.250000
O O17 0.000000 0.583958 0.750000
#
# Coordination Sequence:
#
# PCOD8133078 Si02
#       8
#     8   8   8   8   8   8   8   8
#     4  11  20  33  50  79 108 143 167 221 272 314
#     4  10  19  32  49  78 104 139 174 214 256 321
#     4  10  19  35  52  75 107 144 182 206 250 335
#     4  10  19  32  52  73 104 140 180 209 260 315
#     4  10  22  32  50  77 111 135 179 217 274 318
#     4  11  18  33  54  75 111 143 172 211 260 328
#     4   9  20  32  51  77 107 145 177 210 264 323
#     4  11  20  32  50  80 112 139 173 218 273 315
#
# _framework density 17.253898
#
# number of rings (size 3 to 8) (size 9 to 14) (size 15 to 20)
#    0.000    1.750    3.750    2.625    0.000    3.000 
#    0.000    0.000    0.000    0.000    0.000    5.250 
#    0.000    0.000    0.000    0.000    0.000    0.000 
#
# Total GULP energy -396648.899654 kJ/mol
# GULP energy per Si atom -12395.278114 kJ/mol
# Density = 1.721463 g / cm^3
# Si number density = 17.253898 Si / 1000 Ang^3
#
#
#
# Elastic Constant Matrix: (Units=GPa)
#
#
# Indices 1 2 3 4 5 6 
#
# 1 115.4177 52.9430 33.1144 0.0000 -3.1030 0.0000
# 2 52.9430 67.0085 29.7043 0.0000 -9.4404 0.0000
# 3 33.1144 29.7043 54.3781 0.0000 -3.2944 0.0000
# 4 0.0000 0.0000 0.0000 17.9239 0.0000 -4.1301
# 5 -3.1030 -9.4404 -3.2944 0.0000 28.9925 0.0000
# 6 0.0000 0.0000 0.0000 -4.1301 0.0000 24.9926
#
#
#
# Elastic Compliance Matrix: (Units=1/GPa)
#
#
# Indices 1 2 3 4 5 6 
#
# 1 0.014143 -0.010026 -0.003264 0.000000 -0.002122 0.000000
# 2 -0.010026 0.027618 -0.008560 0.000000 0.006947 0.000000
# 3 -0.003264 -0.008560 0.025036 0.000000 -0.000292 0.000000
# 4 0.000000 0.000000 0.000000 0.058000 0.000000 0.009585
# 5 -0.002122 0.006947 -0.000292 0.000000 0.036493 0.000000
# 6 0.000000 0.000000 0.000000 0.009585 0.000000 0.041596
#
#
# Mechanical properties :
#
#
# Convention : Reuss Voigt Hill
#
# Bulk Modulus (GPa) = 43.29750 52.03642 47.66696
# Shear Modulus (GPa) = 19.66293 22.45133 21.05713
#
# Velocity S-wave (km/s) = 3.37949 3.61117 3.49725
# Velocity P-wave (km/s) = 6.35427 6.90015 6.63283
#
# Compressibility (1/GPa) = 0.02309602
#
# Stress axis : x y z
#
# Youngs Moduli (GPa) = 70.70805 36.20777 39.94250
#
# Poissons Ratio (x) = 0.36302 0.13038
# Poissons Ratio (y) = 0.70892 0.34192
# Poissons Ratio (z) = 0.23081 0.30995
#
# Static dielectric constant tensor:
#      x y z
#    x 3.531270 0.000000 0.118340 
#    y 0.000000 3.201150 0.000000 
#    z 0.118340 0.000000 3.057840 
# 
# 
# High freq. dielectric constant tensor:
#      x y z
#    x 1.685880 0.000000 0.015890 
#    y 0.000000 1.642960 0.000000 
#    z 0.015890 0.000000 1.642710 
# 
# From -- ./inp_files/124444.got.cif
#   From: 2010.06.25/outbox.cif.g09.slc.cpg/sg15_63_cif.got.tgz:124444.got - 2010.06.28 07:06:18.
