data_PCOD8133310
_publ_section_title
;
Structure prediction by ZEFSAII (Michael W. Deem and Ramdas Pophale) SiO2 
 PCOD8133310
Probable space group: C 2/C
;
_chemical_formula_sum "Si O2"
_cell_formula_units_Z 56
_cell_length_a 26.418129
_cell_length_b 25.144764
_cell_length_c 14.041464
_cell_angle_alpha 90.000000
_cell_angle_beta 19.644630
_cell_angle_gamma 90.000000
_cell_volume 3135.744707
_symmetry_space_group_name_H-M "C 2/C"
_symmetry_group_IT_number 15
_symmetry_cell_setting 'monoclinic'
loop_
_space_group_symop_operation_xyz
x,y,z
-x,y,1/2-z
-x,-y,-z
x,-y,1/2+z
1/2+x,1/2+y,z
1/2-x,1/2+y,1/2-z
1/2-x,1/2-y,-z
1/2+x,1/2-y,1/2+z
loop_
_atom_site_type_symbol
_atom_site_label
_atom_site_fract_x
_atom_site_fract_y
_atom_site_fract_z
Si Si1 0.297395 0.920888 0.914939
Si Si2 0.136192 0.998478 0.563040
Si Si3 0.660868 0.949156 0.452446
Si Si4 0.900245 0.368576 0.089308
Si Si5 0.933226 0.733471 0.266555
Si Si6 0.367662 0.678117 0.740127
Si Si7 0.572688 0.381525 0.722249
O O1 0.477004 0.910076 0.582460
O O2 0.258342 0.941706 0.090046
O O3 0.209784 0.865979 0.055801
O O4 0.233228 0.964431 0.958106
O O5 0.245393 0.983878 0.284531
O O6 0.069695 0.946313 0.735889
O O7 0.000000 0.028901 0.750000
O O8 0.639675 0.889925 0.445782
O O9 0.500000 0.977802 0.750000
O O10 0.748269 0.365084 0.420749
O O11 0.968473 0.310814 0.959949
O O12 0.760946 0.713114 0.585408
O O13 0.953246 0.784036 0.162362
O O14 0.000000 0.749206 0.250000
O O15 0.482540 0.649611 0.463713
O O16 0.500000 0.364883 0.750000
#
# Coordination Sequence:
#
# PCOD8133310 Si02
#       7
#     8   8   8   8   8   8   8
#     4  10  19  35  52  72 104 138 169 204 247 303
#     4  10  21  33  50  76 105 135 170 210 252 295
#     4   9  18  32  52  75  98 130 170 207 252 304
#     4   9  18  33  55  76 101 131 165 210 256 299
#     4  10  19  35  54  73  99 134 169 205 250 303
#     4  10  21  33  52  77 100 131 171 207 249 300
#     4  10  19  33  52  79 105 127 165 215 255 295
#
# _framework density 17.858597
#
# number of rings (size 3 to 8) (size 9 to 14) (size 15 to 20)
#    0.000    2.286    0.000    5.571    0.000    8.571 
#    0.000    0.000    0.000    0.000    0.000    4.000 
#    0.000    0.000    0.000    0.000    0.000    0.000 
#
# Total GULP energy -346962.220700 kJ/mol
# GULP energy per Si atom -12391.507882 kJ/mol
# Density = 1.781795 g / cm^3
# Si number density = 17.858597 Si / 1000 Ang^3
#
#
#
# Elastic Constant Matrix: (Units=GPa)
#
#
# Indices 1 2 3 4 5 6 
#
# 1 95.2162 62.9274 56.6052 -0.0170 -21.7758 -0.0011
# 2 62.9274 81.7595 53.2612 -0.0041 -9.5822 0.0049
# 3 56.6052 53.2612 128.5590 -0.0083 -0.4532 0.0241
# 4 -0.0170 -0.0041 -0.0083 15.5660 0.0177 -13.7384
# 5 -21.7758 -9.5822 -0.4532 0.0177 19.8073 -0.0118
# 6 -0.0011 0.0049 0.0241 -13.7384 -0.0118 17.1736
#
#
#
# Elastic Compliance Matrix: (Units=1/GPa)
#
#
# Indices 1 2 3 4 5 6 
#
# 1 0.031941 -0.016909 -0.006964 0.000093 0.026776 0.000109
# 2 -0.016909 0.027055 -0.003783 -0.000046 -0.005588 -0.000044
# 3 -0.006964 -0.003783 0.012380 -0.000041 -0.009203 -0.000056
# 4 0.000093 -0.000046 -0.000041 0.218544 -0.000012 0.174829
# 5 0.026776 -0.005588 -0.009203 -0.000012 0.077010 0.000059
# 6 0.000109 -0.000044 -0.000056 0.174829 0.000059 0.198087
#
#
# Mechanical properties :
#
#
# Convention : Reuss Voigt Hill
#
# Bulk Modulus (GPa) = 62.25489 72.34692 67.30090
# Shear Modulus (GPa) = 7.99124 19.35878 13.67501
#
# Velocity S-wave (km/s) = 2.11765 3.29599 2.77020
# Velocity P-wave (km/s) = 6.39647 7.42184 6.92815
#
# Compressibility (1/GPa) = 0.01606300
#
# Stress axis : x y z
#
# Youngs Moduli (GPa) = 31.30736 36.96157 80.77666
#
# Poissons Ratio (x) = 0.62499 0.56254
# Poissons Ratio (y) = 0.52938 0.30560
# Poissons Ratio (z) = 0.21803 0.13983
#
# Static dielectric constant tensor:
#      x y z
#    x 3.121730 -0.000080 -0.205470 
#    y -0.000080 3.213470 0.000130 
#    z -0.205470 0.000130 3.602530 
# 
# 
# High freq. dielectric constant tensor:
#      x y z
#    x 1.672520 0.000000 -0.014880 
#    y 0.000000 1.670970 0.000010 
#    z -0.014880 0.000010 1.707440 
# 
# From -- ./inp_files/81260.got.cif
#   From: 2010.06.25/outbox.cif.g09.slc.cpg/sg15_41_cif.got.tgz:81260.got - 2010.06.28 07:06:18.
