data_PCOD8133766
_publ_section_title
;
Structure prediction by ZEFSAII (Michael W. Deem and Ramdas Pophale) SiO2 
 PCOD8133766
Probable space group: C 2/C
;
_chemical_formula_sum "Si O2"
_cell_formula_units_Z 60
_cell_length_a 22.977940
_cell_length_b 8.457836
_cell_length_c 17.517949
_cell_angle_alpha 90.000000
_cell_angle_beta 65.331455
_cell_angle_gamma 90.000000
_cell_volume 3093.798561
_symmetry_space_group_name_H-M "C 2/C"
_symmetry_group_IT_number 15
_symmetry_cell_setting 'monoclinic'
loop_
_space_group_symop_operation_xyz
x,y,z
-x,y,1/2-z
-x,-y,-z
x,-y,1/2+z
1/2+x,1/2+y,z
1/2-x,1/2+y,1/2-z
1/2-x,1/2-y,-z
1/2+x,1/2-y,1/2+z
loop_
_atom_site_type_symbol
_atom_site_label
_atom_site_fract_x
_atom_site_fract_y
_atom_site_fract_z
Si Si1 0.309313 0.664552 0.265730
Si Si2 0.586257 0.240818 0.317099
Si Si3 0.903254 0.986575 0.988740
Si Si4 0.504920 0.729679 0.495204
Si Si5 0.603965 0.479790 0.178248
Si Si6 0.925333 0.611320 0.664546
Si Si7 0.800557 0.905491 0.155874
Si Si8 0.500000 0.739769 0.250000
O O1 0.329118 0.542301 0.322454
O O2 0.370398 0.757086 0.199714
O O3 0.258118 0.787874 0.326646
O O4 0.278124 0.563190 0.213464
O O5 0.522986 0.242883 0.404817
O O6 0.574300 0.333306 0.243547
O O7 0.644897 0.324446 0.324434
O O8 0.604370 0.057646 0.296677
O O9 0.890854 0.068286 0.913301
O O10 0.937567 0.104151 0.029099
O O11 0.950080 0.832182 0.965725
O O12 0.831711 0.947644 0.057451
O O13 0.540707 0.882156 0.438068
O O14 0.559681 0.631360 0.199215
O O15 0.983378 0.646328 0.689592
#
# Coordination Sequence:
#
# PCOD8133766 Si02
#       8
#     8   8   8   8   8   8   8   4
#     4  10  21  36  60  79 112 146 199 235 289 334
#     4  10  22  34  58  84 118 147 193 231 296 338
#     4  10  19  34  60  83 117 151 195 232 289 342
#     4  10  19  34  56  87 116 150 191 238 280 345
#     4  10  20  36  54  84 114 156 183 234 284 351
#     4  11  20  36  54  87 114 151 188 243 280 344
#     4  10  20  38  58  85 105 155 193 246 279 347
#     4  10  20  32  54  78 118 150 186 224 288 332
#
# _framework density 19.393633999999999
#
# number of rings (size 3 to 8) (size 9 to 14) (size 15 to 20)
#    0.000    1.867    2.667    2.000    3.733    2.133 
#    0.000    0.000    0.000    7.200    0.000    0.000 
#    0.000    0.000    0.000    0.000    0.000    0.000 
#
# Total GULP energy -371771.992592 kJ/mol
# GULP energy per Si atom -12392.399753 kJ/mol
# Density = 1.934949 g / cm^3
# Si number density = 19.393634 Si / 1000 Ang^3
#
#
#
# Elastic Constant Matrix: (Units=GPa)
#
#
# Indices 1 2 3 4 5 6 
#
# 1 48.2253 11.7172 45.4055 0.0001 -5.2557 0.0001
# 2 11.7172 82.6416 36.8747 0.0002 4.1915 0.0001
# 3 45.4055 36.8747 127.8613 0.0000 6.8511 0.0001
# 4 0.0001 0.0002 0.0000 29.5926 0.0000 -11.8056
# 5 -5.2557 4.1915 6.8511 0.0000 25.4829 -0.0001
# 6 0.0001 0.0001 0.0001 -11.8056 -0.0001 17.7463
#
#
#
# Elastic Compliance Matrix: (Units=1/GPa)
#
#
# Indices 1 2 3 4 5 6 
#
# 1 0.033624 0.000327 -0.012585 0.000000 0.010264 0.000000
# 2 0.000327 0.013929 -0.004073 0.000000 -0.001129 0.000000
# 3 -0.012585 -0.004073 0.013766 0.000000 -0.005627 0.000000
# 4 0.000000 0.000000 0.000000 0.046000 0.000000 0.030601
# 5 0.010264 -0.001129 -0.005627 0.000000 0.043057 0.000000
# 6 0.000000 0.000000 0.000000 0.030601 0.000000 0.076707
#
#
# Mechanical properties :
#
#
# Convention : Reuss Voigt Hill
#
# Bulk Modulus (GPa) = 34.89380 49.63589 42.26484
# Shear Modulus (GPa) = 18.56691 25.54641 22.05666
#
# Velocity S-wave (km/s) = 3.09750 3.63334 3.37607
# Velocity P-wave (km/s) = 5.55195 6.57655 6.08585
#
# Compressibility (1/GPa) = 0.02865839
#
# Stress axis : x y z
#
# Youngs Moduli (GPa) = 29.74063 71.79511 72.64220
#
# Poissons Ratio (x) = -0.02351 0.91419
# Poissons Ratio (y) = -0.00974 0.29585
# Poissons Ratio (z) = 0.37428 0.29240
#
# Static dielectric constant tensor:
#      x y z
#    x 3.445430 0.000000 0.104660 
#    y 0.000000 3.590610 0.000000 
#    z 0.104660 0.000000 3.597810 
# 
# 
# High freq. dielectric constant tensor:
#      x y z
#    x 1.737020 0.000000 0.000590 
#    y 0.000000 1.748820 0.000000 
#    z 0.000590 0.000000 1.749720 
# 
# From -- ./inp_files/218598.got.cif
#   From: 2010.06.25/outbox.cif.g09.slc.cpg/sg15_110_cif.got.tgz:218598.got - 2010.06.28 07:06:18.
