data_PCOD8133447
_publ_section_title
;
Structure prediction by ZEFSAII (Michael W. Deem and Ramdas Pophale) SiO2 
 PCOD8133447
Probable space group: C 2/C
;
_chemical_formula_sum "Si O2"
_cell_formula_units_Z 64
_cell_length_a 30.187313
_cell_length_b 8.457730
_cell_length_c 13.821655
_cell_angle_alpha 90.000000
_cell_angle_beta 115.363424
_cell_angle_gamma 90.000000
_cell_volume 3188.737996
_symmetry_space_group_name_H-M "C 2/C"
_symmetry_group_IT_number 15
_symmetry_cell_setting 'monoclinic'
loop_
_space_group_symop_operation_xyz
x,y,z
-x,y,1/2-z
-x,-y,-z
x,-y,1/2+z
1/2+x,1/2+y,z
1/2-x,1/2+y,1/2-z
1/2-x,1/2-y,-z
1/2+x,1/2-y,1/2+z
loop_
_atom_site_type_symbol
_atom_site_label
_atom_site_fract_x
_atom_site_fract_y
_atom_site_fract_z
Si Si1 0.634140 0.600826 0.083967
Si Si2 0.711148 0.169315 0.701859
Si Si3 0.143754 0.604458 0.175562
Si Si4 0.298146 0.311477 0.596569
Si Si5 0.937636 0.369960 0.434927
Si Si6 0.616127 0.297117 0.962802
Si Si7 0.523663 0.096741 0.872901
Si Si8 0.815243 0.890891 0.213811
O O1 0.679737 0.718321 0.099027
O O2 0.586752 0.702670 0.067163
O O3 0.648232 0.498910 0.190437
O O4 0.619423 0.487453 0.980582
O O5 0.701915 0.239776 0.798162
O O6 0.767725 0.160679 0.730239
O O7 0.691022 0.991729 0.683729
O O8 0.098810 0.487914 0.158365
O O9 0.157197 0.721512 0.279282
O O10 0.130825 0.718362 0.076135
O O11 0.250000 0.250000 0.500000
O O12 0.346032 0.248569 0.585824
O O13 0.299583 0.505753 0.605149
O O14 0.950946 0.446825 0.551425
O O15 0.984105 0.335043 0.411372
O O16 0.561918 0.237457 0.883648
O O17 0.500000 0.039771 0.750000
#
# Coordination Sequence:
#
# PCOD8133447 Si02
#       8
#     8   8   8   8   8   8   8   8
#     4   9  19  36  60  80 118 150 194 234 289 354
#     4  10  19  34  59  79 110 162 194 229 282 355
#     4   9  18  36  57  79 110 152 199 232 284 355
#     4  11  22  35  55  85 122 149 190 242 291 342
#     4   9  20  40  61  88 113 161 190 246 305 342
#     4  10  21  38  57  88 115 148 187 249 292 341
#     4  10  22  38  64  87 118 152 203 242 298 364
#     4  10  19  33  55  85 111 157 195 232 282 350
#
# _framework density 20.070636
#
# number of rings (size 3 to 8) (size 9 to 14) (size 15 to 20)
#    0.000    2.250    0.000    3.750    5.250    0.500 
#    2.250    4.375    0.000    0.000    0.000    0.000 
#    0.000    0.000    0.000    0.000    0.000    0.000 
#
# Total GULP energy -396556.837860 kJ/mol
# GULP energy per Si atom -12392.401183 kJ/mol
# Density = 2.002495 g / cm^3
# Si number density = 20.070636 Si / 1000 Ang^3
#
#
#
# Elastic Constant Matrix: (Units=GPa)
#
#
# Indices 1 2 3 4 5 6 
#
# 1 133.0901 40.8515 32.6212 0.0000 10.9616 0.0000
# 2 40.8515 102.8087 29.4090 0.0000 19.0547 0.0000
# 3 32.6212 29.4090 63.2035 0.0000 15.9471 0.0000
# 4 0.0000 0.0000 0.0000 20.9831 0.0000 -0.8022
# 5 10.9616 19.0547 15.9471 0.0000 25.1973 0.0000
# 6 0.0000 0.0000 0.0000 -0.8022 0.0000 25.1353
#
#
#
# Elastic Compliance Matrix: (Units=1/GPa)
#
#
# Indices 1 2 3 4 5 6 
#
# 1 0.009188 -0.002684 -0.003566 0.000000 0.000290 0.000000
# 2 -0.002684 0.012872 -0.002907 0.000000 -0.006726 0.000000
# 3 -0.003566 -0.002907 0.021503 0.000000 -0.009859 0.000000
# 4 0.000000 0.000000 0.000000 0.047716 0.000000 0.001523
# 5 0.000290 -0.006726 -0.009859 0.000000 0.050887 0.000000
# 6 0.000000 0.000000 0.000000 0.001523 0.000000 0.039833
#
#
# Mechanical properties :
#
#
# Convention : Reuss Voigt Hill
#
# Bulk Modulus (GPa) = 39.60763 56.09617 47.85190
# Shear Modulus (GPa) = 23.95456 27.34452 25.64954
#
# Velocity S-wave (km/s) = 3.45847 3.69509 3.57874
# Velocity P-wave (km/s) = 5.97704 6.79816 6.40078
#
# Compressibility (1/GPa) = 0.02524766
#
# Stress axis : x y z
#
# Youngs Moduli (GPa) = 108.83859 77.69034 46.50594
#
# Poissons Ratio (x) = 0.20856 0.16585
# Poissons Ratio (y) = 0.29218 0.13517
# Poissons Ratio (z) = 0.38814 0.22581
#
# Static dielectric constant tensor:
#      x y z
#    x 3.997420 0.000000 0.932750 
#    y 0.000000 4.157030 0.000000 
#    z 0.932750 0.000000 4.705320 
# 
# 
# High freq. dielectric constant tensor:
#      x y z
#    x 1.777110 0.000000 0.021400 
#    y 0.000000 1.793420 0.000000 
#    z 0.021400 0.000000 1.763560 
# 
# From -- ./inp_files/176625.got.cif
#   From: 2010.06.25/outbox.cif.g09.slc.cpg/sg15_89_cif.got.tgz:176625.got - 2010.06.28 07:06:18.
