data_PCOD8133440
_publ_section_title
;
Structure prediction by ZEFSAII (Michael W. Deem and Ramdas Pophale) SiO2 
 PCOD8133440
Probable space group: C 2/C
;
_chemical_formula_sum "Si O2"
_cell_formula_units_Z 60
_cell_length_a 10.634619
_cell_length_b 15.797193
_cell_length_c 19.294542
_cell_angle_alpha 90.000000
_cell_angle_beta 74.969682
_cell_angle_gamma 90.000000
_cell_volume 3130.534325
_symmetry_space_group_name_H-M "C 2/C"
_symmetry_group_IT_number 15
_symmetry_cell_setting 'monoclinic'
loop_
_space_group_symop_operation_xyz
x,y,z
-x,y,1/2-z
-x,-y,-z
x,-y,1/2+z
1/2+x,1/2+y,z
1/2-x,1/2+y,1/2-z
1/2-x,1/2-y,-z
1/2+x,1/2-y,1/2+z
loop_
_atom_site_type_symbol
_atom_site_label
_atom_site_fract_x
_atom_site_fract_y
_atom_site_fract_z
Si Si1 0.706396 0.799782 0.402813
Si Si2 0.271502 0.481137 0.364853
Si Si3 0.348525 0.739579 0.749595
Si Si4 0.016186 0.049208 0.926745
Si Si5 0.720335 0.441220 0.287881
Si Si6 0.000000 0.511340 0.250000
Si Si7 0.592579 0.123767 0.357197
Si Si8 0.551287 0.731990 0.538667
O O1 0.755230 0.748679 0.328875
O O2 0.577423 0.756786 0.454176
O O3 0.815707 0.797114 0.445530
O O4 0.680476 0.897608 0.385875
O O5 0.390995 0.474061 0.399255
O O6 0.322826 0.485581 0.278090
O O7 0.183549 0.564152 0.392267
O O8 0.500000 0.735959 0.750000
O O9 0.316340 0.657015 0.710083
O O10 0.317270 0.819258 0.705591
O O11 0.141875 0.019267 0.864373
O O12 0.037874 0.148658 0.942295
O O13 0.000000 0.000000 0.000000
O O14 0.874274 0.452190 0.276046
O O15 0.002396 0.567799 0.319344
O O16 0.506895 0.184712 0.417164
#
# Coordination Sequence:
#
# PCOD8133440 Si02
#       8
#     8   8   8   8   8   4   8   8
#     4   9  18  32  53  84 116 141 200 247 287 348
#     4   9  21  36  59  89 116 156 198 253 300 348
#     4  11  17  34  63  85 110 161 206 244 288 353
#     4  11  22  39  61  86 119 164 199 244 307 366
#     4  10  20  38  63  86 122 152 205 248 297 357
#     4  10  22  34  58  96 114 152 196 260 302 342
#     4  11  19  35  61  85 119 150 206 246 300 357
#     4  10  19  33  55  84 111 155 196 242 293 356
#
# _framework density 19.166058
#
# number of rings (size 3 to 8) (size 9 to 14) (size 15 to 20)
#    0.000    1.867    3.333    2.000    0.000    5.867 
#    0.000    3.333   14.667    0.000    0.000    0.000 
#    0.000    0.000    0.000    0.000    0.000    0.000 
#
# Total GULP energy -371802.530678 kJ/mol
# GULP energy per Si atom -12393.417689 kJ/mol
# Density = 1.912244 g / cm^3
# Si number density = 19.166058 Si / 1000 Ang^3
#
#
#
# Elastic Constant Matrix: (Units=GPa)
#
#
# Indices 1 2 3 4 5 6 
#
# 1 83.4968 47.4070 45.5456 0.0000 -4.0880 0.0000
# 2 47.4070 108.5283 41.9812 0.0000 -10.1432 0.0000
# 3 45.5456 41.9812 142.8782 0.0000 -22.4040 0.0000
# 4 0.0000 0.0000 0.0000 28.9897 0.0000 2.3739
# 5 -4.0880 -10.1432 -22.4040 0.0000 20.8492 0.0000
# 6 0.0000 0.0000 0.0000 2.3739 0.0000 25.5152
#
#
#
# Elastic Compliance Matrix: (Units=1/GPa)
#
#
# Indices 1 2 3 4 5 6 
#
# 1 0.017901 -0.006498 -0.004501 0.000000 -0.004488 0.000000
# 2 -0.006498 0.012834 -0.001107 0.000000 0.003780 0.000000
# 3 -0.004501 -0.001107 0.010266 0.000000 0.009611 0.000000
# 4 0.000000 0.000000 0.000000 0.034760 0.000000 -0.003234
# 5 -0.004488 0.003780 0.009611 0.000000 0.059250 0.000000
# 6 0.000000 0.000000 0.000000 -0.003234 0.000000 0.039493
#
#
# Mechanical properties :
#
#
# Convention : Reuss Voigt Hill
#
# Bulk Modulus (GPa) = 59.55956 67.19679 63.37817
# Shear Modulus (GPa) = 24.47235 28.40211 26.43723
#
# Velocity S-wave (km/s) = 3.57719 3.85372 3.71803
# Velocity P-wave (km/s) = 6.94296 7.41201 7.18132
#
# Compressibility (1/GPa) = 0.01678992
#
# Stress axis : x y z
#
# Youngs Moduli (GPa) = 55.86200 77.91753 97.40982
#
# Poissons Ratio (x) = 0.50631 0.43843
# Poissons Ratio (y) = 0.36299 0.10782
# Poissons Ratio (z) = 0.25143 0.08624
#
# Static dielectric constant tensor:
#      x y z
#    x 3.221670 0.000000 -0.139380 
#    y 0.000000 3.736940 0.000000 
#    z -0.139380 0.000000 3.846090 
# 
# 
# High freq. dielectric constant tensor:
#      x y z
#    x 1.705250 0.000000 -0.012670 
#    y 0.000000 1.750310 0.000000 
#    z -0.012670 0.000000 1.755070 
# 
# From -- ./inp_files/197830.got.cif
#   From: 2010.06.25/outbox.cif.g09.slc.cpg/sg15_99_cif.got.tgz:197830.got - 2010.06.28 07:06:18.
