data_PCOD8133781
_publ_section_title
;
Structure prediction by ZEFSAII (Michael W. Deem and Ramdas Pophale) SiO2 
 PCOD8133781
Probable space group: C 2/C
;
_chemical_formula_sum "Si O2"
_cell_formula_units_Z 52
_cell_length_a 15.424199
_cell_length_b 10.021995
_cell_length_c 18.257598
_cell_angle_alpha 90.000000
_cell_angle_beta 118.113390
_cell_angle_gamma 90.000000
_cell_volume 2489.300251
_symmetry_space_group_name_H-M "C 2/C"
_symmetry_group_IT_number 15
_symmetry_cell_setting 'monoclinic'
loop_
_space_group_symop_operation_xyz
x,y,z
-x,y,1/2-z
-x,-y,-z
x,-y,1/2+z
1/2+x,1/2+y,z
1/2-x,1/2+y,1/2-z
1/2-x,1/2-y,-z
1/2+x,1/2-y,1/2+z
loop_
_atom_site_type_symbol
_atom_site_label
_atom_site_fract_x
_atom_site_fract_y
_atom_site_fract_z
Si Si1 0.445732 0.805636 0.028609
Si Si2 0.500000 0.378280 0.250000
Si Si3 0.596759 0.100815 0.833317
Si Si4 0.834225 0.313147 0.634972
Si Si5 0.076613 0.981384 0.912665
Si Si6 0.238292 0.820218 0.917664
Si Si7 0.874702 0.240795 0.488344
O O1 0.434508 0.903118 0.093517
O O2 0.455329 0.654733 0.062389
O O3 0.544141 0.830189 0.021410
O O4 0.351758 0.834065 0.936354
O O5 0.596886 0.286252 0.291804
O O6 0.504571 0.469597 0.178801
O O7 0.500000 0.130565 0.750000
O O8 0.673119 0.219585 0.842691
O O9 0.646869 0.962556 0.829123
O O10 0.855487 0.313826 0.556963
O O11 0.721422 0.268614 0.601565
O O12 0.179978 0.959641 0.908166
O O13 0.089205 0.090273 0.981108
O O14 0.250000 0.750000 0.000000
#
# Coordination Sequence:
#
# PCOD8133781 Si02
#       7
#     8   4   8   8   8   8   8
#     4  10  20  34  56  86 107 135 186 228 271 318
#     4  10  20  34  56  76 102 144 184 212 266 340
#     4  10  19  34  57  78 112 146 175 221 276 329
#     4  10  20  37  55  75 106 150 185 216 268 328
#     4   9  18  33  58  79 109 141 176 225 270 327
#     4   8  17  32  55  82 104 135 181 218 271 318
#     4  10  20  35  57  78 107 143 185 226 264 316
#
# _framework density 20.889403999999999
#
# number of rings (size 3 to 8) (size 9 to 14) (size 15 to 20)
#    0.000    2.769    0.769    3.231    4.308    0.615 
#    0.000    4.615    0.000    0.000    0.000    0.000 
#    0.000    0.000    0.000    0.000    0.000    0.000 
#
# Total GULP energy -322190.240584 kJ/mol
# GULP energy per Si atom -12391.932330 kJ/mol
# Density = 2.084186 g / cm^3
# Si number density = 20.889404 Si / 1000 Ang^3
#
#
#
# Elastic Constant Matrix: (Units=GPa)
#
#
# Indices 1 2 3 4 5 6 
#
# 1 104.0884 -2.9585 34.0533 0.0000 31.3743 0.0000
# 2 -2.9585 34.7594 15.4371 0.0000 4.0406 0.0000
# 3 34.0533 15.4371 129.4577 0.0000 40.7663 0.0000
# 4 0.0000 0.0000 0.0000 23.8447 0.0000 -2.6153
# 5 31.3743 4.0406 40.7663 0.0000 30.5818 0.0000
# 6 0.0000 0.0000 0.0000 -2.6153 0.0000 14.6690
#
#
#
# Elastic Compliance Matrix: (Units=1/GPa)
#
#
# Indices 1 2 3 4 5 6 
#
# 1 0.014290 0.002635 0.001125 0.000000 -0.016509 0.000000
# 2 0.002635 0.030899 -0.003862 0.000000 -0.001638 0.000000
# 3 0.001125 -0.003862 0.013946 0.000000 -0.019235 0.000000
# 4 0.000000 0.000000 0.000000 0.042775 0.000000 0.007626
# 5 -0.016509 -0.001638 -0.019235 0.000000 0.075493 0.000000
# 6 0.000000 0.000000 0.000000 0.007626 0.000000 0.069531
#
#
# Mechanical properties :
#
#
# Convention : Reuss Voigt Hill
#
# Bulk Modulus (GPa) = 16.96838 40.15213 28.56026
# Shear Modulus (GPa) = 18.74207 28.60399 23.67303
#
# Velocity S-wave (km/s) = 2.99859 3.70443 3.37004
# Velocity P-wave (km/s) = 4.48657 6.12863 5.37072
#
# Compressibility (1/GPa) = 0.05893314
#
# Stress axis : x y z
#
# Youngs Moduli (GPa) = 69.97901 32.36348 71.70489
#
# Poissons Ratio (x) = -0.08529 -0.08070
# Poissons Ratio (y) = -0.18443 0.27692
# Poissons Ratio (z) = -0.07876 0.12498
#
# Static dielectric constant tensor:
#      x y z
#    x 4.152990 0.000000 0.852970 
#    y 0.000000 3.802000 0.000000 
#    z 0.852970 0.000000 4.172030 
# 
# 
# High freq. dielectric constant tensor:
#      x y z
#    x 1.777200 0.000000 0.036640 
#    y 0.000000 1.825460 0.000000 
#    z 0.036640 0.000000 1.812160 
# 
# From -- ./inp_files/243820.got.cif
#   From: 2010.06.25/outbox.cif.g09.slc.cpg/sg15_122_cif.got.tgz:243820.got - 2010.06.28 07:06:18.
