data_PCOD8133540
_publ_section_title
;
Structure prediction by ZEFSAII (Michael W. Deem and Ramdas Pophale) SiO2 
 PCOD8133540
Probable space group: C 2/C
;
_chemical_formula_sum "Si O2"
_cell_formula_units_Z 40
_cell_length_a 21.105591
_cell_length_b 11.117388
_cell_length_c 10.279986
_cell_angle_alpha 90.000000
_cell_angle_beta 69.865834
_cell_angle_gamma 90.000000
_cell_volume 2264.681476
_symmetry_space_group_name_H-M "C 2/C"
_symmetry_group_IT_number 15
_symmetry_cell_setting 'monoclinic'
loop_
_space_group_symop_operation_xyz
x,y,z
-x,y,1/2-z
-x,-y,-z
x,-y,1/2+z
1/2+x,1/2+y,z
1/2-x,1/2+y,1/2-z
1/2-x,1/2-y,-z
1/2+x,1/2-y,1/2+z
loop_
_atom_site_type_symbol
_atom_site_label
_atom_site_fract_x
_atom_site_fract_y
_atom_site_fract_z
Si Si1 0.762159 0.062930 0.928859
Si Si2 0.576646 0.122947 0.701455
Si Si3 0.286532 0.805782 0.796580
Si Si4 0.306120 0.306914 0.869003
Si Si5 0.629353 0.023634 0.402926
O O1 0.804129 0.180326 0.855046
O O2 0.812536 0.948716 0.900002
O O3 0.702001 0.038688 0.869928
O O4 0.728411 0.086541 0.092118
O O5 0.500000 0.167733 0.750000
O O6 0.622632 0.241784 0.662829
O O7 0.590764 0.036796 0.567280
O O8 0.413979 0.051182 0.670122
O O9 0.218607 0.789848 0.760784
O O10 0.352552 0.843684 0.666988
O O11 0.250000 0.250000 0.000000
#
# Coordination Sequence:
#
# PCOD8133540 Si02
#       5
#     8   8   8   8   8
#     4  10  20  32  57  89 114 139 183 236 289 327
#     4  12  24  38  56  83 117 153 189 230 282 339
#     4  10  19  33  58  86 113 140 181 240 282 330
#     4  11  20  33  57  81 110 143 189 228 277 327
#     4  11  20  37  57  82 117 146 191 231 286 328
#
# _framework density 17.662527999999998
#
# number of rings (size 3 to 8) (size 9 to 14) (size 15 to 20)
#    0.000    1.200    8.000    0.600    2.800    0.000 
#    0.000    0.000    0.000    6.000    0.000    0.000 
#    0.000    0.000    0.000    0.000    0.000    0.000 
#
# Total GULP energy -247958.127829 kJ/mol
# GULP energy per Si atom -12397.906391 kJ/mol
# Density = 1.762233 g / cm^3
# Si number density = 17.662528 Si / 1000 Ang^3
#
#
#
# Elastic Constant Matrix: (Units=GPa)
#
#
# Indices 1 2 3 4 5 6 
#
# 1 104.9348 42.7867 33.3475 0.0000 -6.5750 0.0000
# 2 42.7867 113.2755 38.8157 0.0000 0.7589 0.0000
# 3 33.3475 38.8157 79.1763 0.0000 14.6299 0.0000
# 4 0.0000 0.0000 0.0000 29.4888 0.0000 2.9759
# 5 -6.5750 0.7589 14.6299 0.0000 26.2322 0.0000
# 6 0.0000 0.0000 0.0000 2.9759 0.0000 20.4511
#
#
#
# Elastic Compliance Matrix: (Units=1/GPa)
#
#
# Indices 1 2 3 4 5 6 
#
# 1 0.012773 -0.003171 -0.004943 0.000000 0.006050 0.000000
# 2 -0.003171 0.011598 -0.004617 0.000000 0.001445 0.000000
# 3 -0.004943 -0.004617 0.019153 0.000000 -0.011787 0.000000
# 4 0.000000 0.000000 0.000000 0.034417 0.000000 -0.005008
# 5 0.006050 0.001445 -0.011787 0.000000 0.046170 0.000000
# 6 0.000000 0.000000 0.000000 -0.005008 0.000000 0.049626
#
#
# Mechanical properties :
#
#
# Convention : Reuss Voigt Hill
#
# Bulk Modulus (GPa) = 55.36539 58.58737 56.97638
# Shear Modulus (GPa) = 24.36410 27.39685 25.88048
#
# Velocity S-wave (km/s) = 3.71809 3.94271 3.83205
# Velocity P-wave (km/s) = 7.06021 7.34636 7.20471
#
# Compressibility (1/GPa) = 0.01806182
#
# Stress axis : x y z
#
# Youngs Moduli (GPa) = 78.29230 86.21856 52.20998
#
# Poissons Ratio (x) = 0.27343 0.25806
# Poissons Ratio (y) = 0.24829 0.24107
# Poissons Ratio (z) = 0.38698 0.39810
#
# Static dielectric constant tensor:
#      x y z
#    x 3.092030 0.000000 0.268910 
#    y 0.000000 3.474900 0.000000 
#    z 0.268910 0.000000 3.459210 
# 
# 
# High freq. dielectric constant tensor:
#      x y z
#    x 1.644140 0.000000 0.027980 
#    y 0.000000 1.684370 0.000000 
#    z 0.027980 0.000000 1.698050 
# 
# From -- ./inp_files/103185.got.cif
#   From: 2010.06.25/outbox.cif.g09.slc.cpg/sg15_52_cif.got.tgz:103185.got - 2010.06.28 07:06:18.
