data_PCOD8133344
_publ_section_title
;
Structure prediction by ZEFSAII (Michael W. Deem and Ramdas Pophale) SiO2 
 PCOD8133344
Probable space group: C 2/C
;
_chemical_formula_sum "Si O2"
_cell_formula_units_Z 56
_cell_length_a 12.365592
_cell_length_b 17.415503
_cell_length_c 17.994379
_cell_angle_alpha 90.000000
_cell_angle_beta 49.741283
_cell_angle_gamma 90.000000
_cell_volume 2957.254441
_symmetry_space_group_name_H-M "C 2/C"
_symmetry_group_IT_number 15
_symmetry_cell_setting 'monoclinic'
loop_
_space_group_symop_operation_xyz
x,y,z
-x,y,1/2-z
-x,-y,-z
x,-y,1/2+z
1/2+x,1/2+y,z
1/2-x,1/2+y,1/2-z
1/2-x,1/2-y,-z
1/2+x,1/2-y,1/2+z
loop_
_atom_site_type_symbol
_atom_site_label
_atom_site_fract_x
_atom_site_fract_y
_atom_site_fract_z
Si Si1 0.741290 0.248880 0.117178
Si Si2 0.300703 0.968071 0.542411
Si Si3 0.872255 0.896362 0.756707
Si Si4 0.038363 0.007754 0.069217
Si Si5 0.640134 0.787294 0.818193
Si Si6 0.951967 0.621414 0.507277
Si Si7 0.936435 0.165743 0.926411
O O1 0.650272 0.215661 0.224922
O O2 0.627347 0.286505 0.113440
O O3 0.855977 0.314145 0.089911
O O4 0.828549 0.177366 0.043076
O O5 0.219587 0.957400 0.656352
O O6 0.432567 0.907988 0.483032
O O7 0.194322 0.956062 0.518995
O O8 0.354953 0.054407 0.518182
O O9 0.792658 0.816182 0.777868
O O10 0.000000 0.868180 0.750000
O O11 0.919624 0.939075 0.660068
O O12 0.039170 0.922766 0.104229
O O13 0.000000 0.000000 0.000000
O O14 0.522492 0.847081 0.900037
O O15 0.592263 0.703934 0.872021
#
# Coordination Sequence:
#
# PCOD8133344 Si02
#       7
#     8   8   8   8   8   8   8
#     4  10  19  33  53  80 113 140 181 230 285 337
#     4   9  18  35  58  78 110 145 193 228 277 340
#     4   9  20  36  56  78 106 157 196 230 280 339
#     4  11  21  35  56  83 117 148 190 239 282 332
#     4  10  20  34  53  82 109 142 187 230 281 335
#     4   9  18  34  56  81 108 145 184 230 277 338
#     4  10  21  33  51  81 114 147 178 227 289 342
#
# _framework density 18.936482999999999
#
# number of rings (size 3 to 8) (size 9 to 14) (size 15 to 20)
#    0.000    2.286    1.429    1.286    2.000    1.143 
#    2.571    1.429    0.000    6.857    0.000    0.000 
#    0.000    0.000    0.000    0.000    0.000    0.000 
#
# Total GULP energy -346931.261713 kJ/mol
# GULP energy per Si atom -12390.402204 kJ/mol
# Density = 1.889338 g / cm^3
# Si number density = 18.936483 Si / 1000 Ang^3
#
#
#
# Elastic Constant Matrix: (Units=GPa)
#
#
# Indices 1 2 3 4 5 6 
#
# 1 95.7994 32.3951 37.0131 -0.0001 -2.5093 0.0001
# 2 32.3951 68.0273 17.5885 0.0000 -11.2750 0.0000
# 3 37.0131 17.5885 77.4233 0.0000 2.5040 0.0000
# 4 -0.0001 0.0000 0.0000 23.5726 0.0000 -4.0918
# 5 -2.5093 -11.2750 2.5040 0.0000 29.6765 0.0000
# 6 0.0001 0.0000 0.0000 -4.0918 0.0000 23.8051
#
#
#
# Elastic Compliance Matrix: (Units=1/GPa)
#
#
# Indices 1 2 3 4 5 6 
#
# 1 0.014472 -0.005493 -0.005658 0.000000 -0.000386 0.000000
# 2 -0.005493 0.018950 -0.001902 0.000000 0.006896 0.000000
# 3 -0.005658 -0.001902 0.016136 0.000000 -0.002563 0.000000
# 4 0.000000 0.000000 0.000000 0.043727 0.000000 0.007516
# 5 -0.000386 0.006896 -0.002563 0.000000 0.036500 0.000000
# 6 0.000000 0.000000 0.000000 0.007516 0.000000 0.043300
#
#
# Mechanical properties :
#
#
# Convention : Reuss Voigt Hill
#
# Bulk Modulus (GPa) = 42.64005 46.13817 44.38911
# Shear Modulus (GPa) = 24.15361 25.69438 24.92399
#
# Velocity S-wave (km/s) = 3.57530 3.68757 3.63187
# Velocity P-wave (km/s) = 6.29364 6.52292 6.40931
#
# Compressibility (1/GPa) = 0.02345213
#
# Stress axis : x y z
#
# Youngs Moduli (GPa) = 69.09972 52.76944 61.97321
#
# Poissons Ratio (x) = 0.28984 0.35066
# Poissons Ratio (y) = 0.37954 0.11789
# Poissons Ratio (z) = 0.39098 0.10038
#
# Static dielectric constant tensor:
#      x y z
#    x 3.632430 0.000000 -0.344250 
#    y 0.000000 3.557450 0.000000 
#    z -0.344250 0.000000 3.551410 
# 
# 
# High freq. dielectric constant tensor:
#      x y z
#    x 1.728810 0.000000 -0.022200 
#    y 0.000000 1.729350 0.000000 
#    z -0.022200 0.000000 1.731750 
# 
# From -- ./inp_files/199437.got.cif
#   From: 2010.06.25/outbox.cif.g09.slc.cpg/sg15_100_cif.got.tgz:199437.got - 2010.06.28 07:06:18.
