data_PCOD8133944
_publ_section_title
;
Structure prediction by ZEFSAII (Michael W. Deem and Ramdas Pophale) SiO2 
 PCOD8133944
Probable space group: C 2/C
;
_chemical_formula_sum "Si O2"
_cell_formula_units_Z 56
_cell_length_a 16.496235
_cell_length_b 8.073244
_cell_length_c 23.310000
_cell_angle_alpha 90.000000
_cell_angle_beta 61.017076
_cell_angle_gamma 90.000000
_cell_volume 2715.602293
_symmetry_space_group_name_H-M "C 2/C"
_symmetry_group_IT_number 15
_symmetry_cell_setting 'monoclinic'
loop_
_space_group_symop_operation_xyz
x,y,z
-x,y,1/2-z
-x,-y,-z
x,-y,1/2+z
1/2+x,1/2+y,z
1/2-x,1/2+y,1/2-z
1/2-x,1/2-y,-z
1/2+x,1/2-y,1/2+z
loop_
_atom_site_type_symbol
_atom_site_label
_atom_site_fract_x
_atom_site_fract_y
_atom_site_fract_z
Si Si1 0.181183 0.899759 0.034932
Si Si2 0.683622 0.800036 0.215600
Si Si3 0.750000 0.854131 0.368144
Si Si4 0.913165 0.978943 0.246332
Si Si5 0.652654 0.068427 0.319042
Si Si6 0.035254 0.857382 0.389289
Si Si7 0.806011 0.979941 0.087127
O O1 0.203318 0.948785 0.092941
O O2 0.073775 0.853107 0.062296
O O3 0.250000 0.750000 0.000000
O O4 0.199963 0.041120 0.980199
O O5 0.603451 0.668915 0.228127
O O6 0.762959 0.696322 0.221813
O O7 0.643227 0.946238 0.268489
O O8 0.723797 0.873556 0.142856
O O9 0.710095 0.673038 0.393009
O O10 0.827603 0.857091 0.291062
O O11 0.666527 0.967551 0.373692
O O12 0.000000 0.904602 0.250000
O O13 0.932984 0.982114 0.171785
O O14 0.558724 0.171012 0.360397
O O15 0.093773 0.915624 0.424984
#
# Coordination Sequence:
#
# PCOD8133944 Si02
#       7
#     8   8   8   8   8   8   8
#     4  10  22  39  58  81 117 159 193 229 283 342
#     4  10  19  35  56  88 115 144 186 234 291 338
#     4  10  19  38  61  85 119 151 187 234 293 335
#     4  11  21  36  58  87 118 146 184 241 292 342
#     4  10  19  34  61  88 112 146 191 238 283 342
#     4  11  21  38  62  86 112 150 198 235 281 341
#     4  10  20  37  62  83 112 156 194 230 275 347
#
# _framework density 20.621576999999998
#
# number of rings (size 3 to 8) (size 9 to 14) (size 15 to 20)
#    0.000    1.714    1.429    6.429    0.000    0.000 
#    5.143    9.286    0.000    0.000    0.000    0.000 
#    0.000    0.000    0.000    0.000    0.000    0.000 
#
# Total GULP energy -347010.668242 kJ/mol
# GULP energy per Si atom -12393.238152 kJ/mol
# Density = 2.057464 g / cm^3
# Si number density = 20.621577 Si / 1000 Ang^3
#
#
#
# Elastic Constant Matrix: (Units=GPa)
#
#
# Indices 1 2 3 4 5 6 
#
# 1 66.8293 13.6133 30.5327 0.0000 -7.7056 0.0002
# 2 13.6133 82.5860 19.7778 0.0000 -16.0476 0.0005
# 3 30.5327 19.7778 81.0730 0.0000 -8.2212 0.0001
# 4 0.0000 0.0000 0.0000 19.6275 0.0000 5.3258
# 5 -7.7056 -16.0476 -8.2212 0.0000 24.3541 0.0001
# 6 0.0002 0.0005 0.0001 5.3258 0.0001 22.6483
#
#
#
# Elastic Compliance Matrix: (Units=1/GPa)
#
#
# Indices 1 2 3 4 5 6 
#
# 1 0.018430 -0.000907 -0.006408 0.000000 0.003071 0.000000
# 2 -0.000907 0.014458 -0.002328 0.000000 0.008454 0.000000
# 3 -0.006408 -0.002328 0.015485 0.000000 0.001665 0.000000
# 4 0.000000 0.000000 0.000000 0.054421 0.000000 -0.012797
# 5 0.003071 0.008454 0.001665 0.000000 0.048165 0.000000
# 6 0.000000 0.000000 0.000000 -0.012797 0.000000 0.047163
#
#
# Mechanical properties :
#
#
# Convention : Reuss Voigt Hill
#
# Bulk Modulus (GPa) = 34.38011 39.81510 37.09760
# Shear Modulus (GPa) = 22.01623 24.43028 23.22326
#
# Velocity S-wave (km/s) = 3.27101 3.44567 3.35948
# Velocity P-wave (km/s) = 5.56544 5.93124 5.75125
#
# Compressibility (1/GPa) = 0.02908659
#
# Stress axis : x y z
#
# Youngs Moduli (GPa) = 54.25927 69.16390 64.57915
#
# Poissons Ratio (x) = 0.06271 0.41385
# Poissons Ratio (y) = 0.04919 0.15036
# Poissons Ratio (z) = 0.34771 0.16104
#
# Static dielectric constant tensor:
#      x y z
#    x 3.770300 0.000000 0.263230 
#    y 0.000000 3.749700 0.000000 
#    z 0.263230 0.000000 4.083200 
# 
# 
# High freq. dielectric constant tensor:
#      x y z
#    x 1.796390 0.000000 0.009810 
#    y 0.000000 1.794670 0.000000 
#    z 0.009810 0.000000 1.809760 
# 
# From -- ./inp_files/276244.got.cif
#   From: 2010.06.25/outbox.cif.g09.slc.cpg/sg15_139_cif.got.tgz:276244.got - 2010.06.28 07:06:18.
