data_PCOD8133808
_publ_section_title
;
Structure prediction by ZEFSAII (Michael W. Deem and Ramdas Pophale) SiO2 
 PCOD8133808
Probable space group: C 2/C
;
_chemical_formula_sum "Si O2"
_cell_formula_units_Z 64
_cell_length_a 31.693266
_cell_length_b 5.291039
_cell_length_c 17.287397
_cell_angle_alpha 90.000000
_cell_angle_beta 84.390941
_cell_angle_gamma 90.000000
_cell_volume 2885.048709
_symmetry_space_group_name_H-M "C 2/C"
_symmetry_group_IT_number 15
_symmetry_cell_setting 'monoclinic'
loop_
_space_group_symop_operation_xyz
x,y,z
-x,y,1/2-z
-x,-y,-z
x,-y,1/2+z
1/2+x,1/2+y,z
1/2-x,1/2+y,1/2-z
1/2-x,1/2-y,-z
1/2+x,1/2-y,1/2+z
loop_
_atom_site_type_symbol
_atom_site_label
_atom_site_fract_x
_atom_site_fract_y
_atom_site_fract_z
Si Si1 0.004396 0.298989 0.066368
Si Si2 0.559953 0.413881 0.433098
Si Si3 0.068052 0.287926 0.188597
Si Si4 0.658166 0.704948 0.929896
Si Si5 0.840846 0.242065 0.391175
Si Si6 0.202246 0.744983 0.102190
Si Si7 0.298839 0.789256 0.081573
Si Si8 0.546086 0.734546 0.773009
O O1 0.026164 0.355901 0.144890
O O2 0.038558 0.108154 0.021110
O O3 0.957017 0.191015 0.090759
O O4 0.000000 0.500000 0.000000
O O5 0.609507 0.368614 0.427258
O O6 0.542809 0.234179 0.366976
O O7 0.108978 0.265597 0.127372
O O8 0.075530 0.533974 0.240278
O O9 0.064009 0.034942 0.240661
O O10 0.682973 0.471470 0.886403
O O11 0.673955 0.971293 0.889950
O O12 0.669985 0.728875 0.016918
O O13 0.815654 0.481881 0.358959
O O14 0.824605 0.978517 0.357452
O O15 0.250400 0.803318 0.117564
O O16 0.197141 0.724446 0.011241
O O17 0.500000 0.774087 0.750000
#
# Coordination Sequence:
#
# PCOD8133808 Si02
#       8
#     8   8   8   8   8   8   8   8
#     4  11  25  41  67  89 125 163 218 257 317 376
#     4  11  25  42  61  96 121 173 206 266 315 371
#     4  12  25  43  63  93 124 169 213 261 312 373
#     4  10  20  33  57  85 125 153 203 252 310 364
#     4  10  19  34  57  86 118 158 200 257 298 367
#     4   9  17  31  54  83 124 154 193 243 320 367
#     4   9  18  31  51  88 121 158 187 249 315 378
#     4  12  26  44  64  87 128 170 216 260 313 374
#
# _framework density 22.183333999999999
#
# number of rings (size 3 to 8) (size 9 to 14) (size 15 to 20)
#    0.000    1.500    2.500    2.625    5.250    4.000 
#    0.000    0.000    0.000    0.000    0.000   17.500 
#    0.000    0.000    0.000    0.000    0.000    0.000 
#
# Total GULP energy -396437.986378 kJ/mol
# GULP energy per Si atom -12388.687074 kJ/mol
# Density = 2.213284 g / cm^3
# Si number density = 22.183334 Si / 1000 Ang^3
#
#
#
# Elastic Constant Matrix: (Units=GPa)
#
#
# Indices 1 2 3 4 5 6 
#
# 1 135.4651 64.0777 -7.7219 0.0000 6.6904 0.0000
# 2 64.0777 180.8685 19.2292 0.0000 -3.7128 0.0000
# 3 -7.7219 19.2292 44.2897 0.0000 3.1303 0.0000
# 4 0.0000 0.0000 0.0000 21.0166 0.0000 -4.1488
# 5 6.6904 -3.7128 3.1303 0.0000 15.6783 0.0000
# 6 0.0000 0.0000 0.0000 -4.1488 0.0000 35.0405
#
#
#
# Elastic Compliance Matrix: (Units=1/GPa)
#
#
# Indices 1 2 3 4 5 6 
#
# 1 0.009784 -0.003997 0.003858 0.000000 -0.005892 0.000000
# 2 -0.003997 0.007486 -0.004253 0.000000 0.004328 0.000000
# 3 0.003858 -0.004253 0.025647 0.000000 -0.007774 0.000000
# 4 0.000000 0.000000 0.000000 0.048720 0.000000 0.005769
# 5 -0.005892 0.004328 -0.007774 0.000000 0.068873 0.000000
# 6 0.000000 0.000000 0.000000 0.005769 0.000000 0.029221
#
#
# Mechanical properties :
#
#
# Convention : Reuss Voigt Hill
#
# Bulk Modulus (GPa) = 29.29823 56.86593 43.08208
# Shear Modulus (GPa) = 23.82154 33.34964 28.58559
#
# Velocity S-wave (km/s) = 3.28052 3.88153 3.59361
# Velocity P-wave (km/s) = 5.25215 6.76599 6.05655
#
# Compressibility (1/GPa) = 0.03413175
#
# Stress axis : x y z
#
# Youngs Moduli (GPa) = 102.21188 133.58298 38.99064
#
# Poissons Ratio (x) = 0.53396 -0.15041
# Poissons Ratio (y) = 0.40856 0.16583
# Poissons Ratio (z) = -0.39430 0.56812
#
# Static dielectric constant tensor:
#      x y z
#    x 3.906430 0.000000 -0.093340 
#    y 0.000000 4.613660 0.000000 
#    z -0.093340 0.000000 3.288640 
# 
# 
# High freq. dielectric constant tensor:
#      x y z
#    x 1.870310 0.000000 -0.008970 
#    y 0.000000 1.894110 0.000000 
#    z -0.008970 0.000000 1.830410 
# 
# From -- ./inp_files/223894.got.cif
#   From: 2010.06.25/outbox.cif.g09.slc.cpg/sg15_112_cif.got.tgz:223894.got - 2010.06.28 07:06:18.
