data_PCOD8133431
_publ_section_title
;
Structure prediction by ZEFSAII (Michael W. Deem and Ramdas Pophale) SiO2 
 PCOD8133431
Probable space group: C 2/C
;
_chemical_formula_sum "Si O2"
_cell_formula_units_Z 48
_cell_length_a 15.483972
_cell_length_b 11.759386
_cell_length_c 11.969436
_cell_angle_alpha 90.000000
_cell_angle_beta 67.000603
_cell_angle_gamma 90.000000
_cell_volume 2006.174627
_symmetry_space_group_name_H-M "C 2/C"
_symmetry_group_IT_number 15
_symmetry_cell_setting 'monoclinic'
loop_
_space_group_symop_operation_xyz
x,y,z
-x,y,1/2-z
-x,-y,-z
x,-y,1/2+z
1/2+x,1/2+y,z
1/2-x,1/2+y,1/2-z
1/2-x,1/2-y,-z
1/2+x,1/2-y,1/2+z
loop_
_atom_site_type_symbol
_atom_site_label
_atom_site_fract_x
_atom_site_fract_y
_atom_site_fract_z
Si Si1 0.807444 0.194968 0.808292
Si Si2 0.465681 0.322095 0.571756
Si Si3 0.699692 0.922744 0.036243
Si Si4 0.677410 0.709016 0.179402
Si Si5 0.129953 0.947974 0.410755
Si Si6 0.631180 0.151979 0.037838
O O1 0.747104 0.252676 0.741932
O O2 0.870636 0.095505 0.718701
O O3 0.874754 0.285632 0.838447
O O4 0.738077 0.148410 0.938289
O O5 0.425050 0.315820 0.717330
O O6 0.577135 0.349478 0.512226
O O7 0.417352 0.431686 0.539568
O O8 0.442142 0.209000 0.511066
O O9 0.655218 0.802324 0.094893
O O10 0.762654 0.964470 0.108334
O O11 0.615797 0.014800 0.058115
O O12 0.770871 0.902257 0.896362
#
# Coordination Sequence:
#
# PCOD8133431 Si02
#       6
#     8   8   8   8   8   8
#     4   9  18  32  52  76 107 142 188 235 283 339
#     4  10  21  34  52  82 117 147 184 233 294 347
#     4  10  19  34  58  80 106 146 195 238 281 338
#     4   9  19  34  54  80 106 144 193 238 282 344
#     4  10  20  34  53  81 114 147 181 236 294 344
#     4  10  19  33  55  82 110 147 193 239 282 341
#
# _framework density 23.926133
#
# number of rings (size 3 to 8) (size 9 to 14) (size 15 to 20)
#    0.000    2.333    0.000    4.000    0.000    4.000 
#    0.000    3.333    0.000   22.000    0.000    0.000 
#    0.000    0.000    0.000    0.000    0.000    0.000 
#
# Total GULP energy -297359.111016 kJ/mol
# GULP energy per Si atom -12389.962959 kJ/mol
# Density = 2.387168 g / cm^3
# Si number density = 23.926133 Si / 1000 Ang^3
#
#
#
# Elastic Constant Matrix: (Units=GPa)
#
#
# Indices 1 2 3 4 5 6 
#
# 1 30.3448 19.8791 -2.2690 0.0000 -5.4109 0.0000
# 2 19.8791 120.4692 23.8680 0.0000 5.4330 0.0000
# 3 -2.2690 23.8680 101.4213 0.0000 0.1366 0.0000
# 4 0.0000 0.0000 0.0000 38.6423 0.0000 2.5023
# 5 -5.4109 5.4330 0.1366 0.0000 23.3004 0.0000
# 6 0.0000 0.0000 0.0000 2.5023 0.0000 30.9596
#
#
#
# Elastic Compliance Matrix: (Units=1/GPa)
#
#
# Indices 1 2 3 4 5 6 
#
# 1 0.040150 -0.007658 0.002685 0.000000 0.011094 0.000000
# 2 -0.007658 0.010263 -0.002581 0.000000 -0.004156 0.000000
# 3 0.002685 -0.002581 0.010526 0.000000 0.001164 0.000000
# 4 0.000000 0.000000 0.000000 0.026014 0.000000 -0.002103
# 5 0.011094 -0.004156 0.001164 0.000000 0.046456 0.000000
# 6 0.000000 0.000000 0.000000 -0.002103 0.000000 0.032470
#
#
# Mechanical properties :
#
#
# Convention : Reuss Voigt Hill
#
# Bulk Modulus (GPa) = 21.81854 37.24351 29.53103
# Shear Modulus (GPa) = 25.47585 32.63094 29.05339
#
# Velocity S-wave (km/s) = 3.26662 3.69700 3.48845
# Velocity P-wave (km/s) = 4.83391 5.81580 5.34744
#
# Compressibility (1/GPa) = 0.04583257
#
# Stress axis : x y z
#
# Youngs Moduli (GPa) = 24.90652 97.43431 95.00487
#
# Poissons Ratio (x) = 0.74612 -0.25513
# Poissons Ratio (y) = 0.19073 0.24521
# Poissons Ratio (z) = -0.06688 0.25148
#
# Static dielectric constant tensor:
#      x y z
#    x 3.730740 0.000000 -0.151280 
#    y 0.000000 4.369660 0.000000 
#    z -0.151280 0.000000 4.694300 
# 
# 
# High freq. dielectric constant tensor:
#      x y z
#    x 1.904020 0.000000 0.007840 
#    y 0.000000 1.951820 0.000000 
#    z 0.007840 0.000000 1.953370 
# 
# From -- ./inp_files/110876.got.cif
#   From: 2010.06.25/outbox.cif.g09.slc.cpg/sg15_56_cif.got.tgz:110876.got - 2010.06.28 07:06:18.
