data_PCOD8133400
_publ_section_title
;
Structure prediction by ZEFSAII (Michael W. Deem and Ramdas Pophale) SiO2 
 PCOD8133400
Probable space group: C 2/C
;
_chemical_formula_sum "Si O2"
_cell_formula_units_Z 60
_cell_length_a 14.186709
_cell_length_b 18.755574
_cell_length_c 22.695794
_cell_angle_alpha 90.000000
_cell_angle_beta 31.418692
_cell_angle_gamma 90.000000
_cell_volume 3148.003324
_symmetry_space_group_name_H-M "C 2/C"
_symmetry_group_IT_number 15
_symmetry_cell_setting 'monoclinic'
loop_
_space_group_symop_operation_xyz
x,y,z
-x,y,1/2-z
-x,-y,-z
x,-y,1/2+z
1/2+x,1/2+y,z
1/2-x,1/2+y,1/2-z
1/2-x,1/2-y,-z
1/2+x,1/2-y,1/2+z
loop_
_atom_site_type_symbol
_atom_site_label
_atom_site_fract_x
_atom_site_fract_y
_atom_site_fract_z
Si Si1 0.009357 0.901426 0.814600
Si Si2 0.609975 0.560211 0.750599
Si Si3 0.032912 0.815004 0.102482
Si Si4 0.780993 0.711291 0.171211
Si Si5 0.585635 0.840555 0.426664
Si Si6 0.500000 0.801972 0.250000
Si Si7 0.331605 0.171073 0.956066
Si Si8 0.685328 0.766512 0.629428
O O1 0.145404 0.845673 0.773505
O O2 0.000000 0.885911 0.750000
O O3 0.086505 0.979812 0.785339
O O4 0.811628 0.889469 0.948367
O O5 0.500000 0.574568 0.750000
O O6 0.544262 0.607827 0.840701
O O7 0.817946 0.581531 0.624932
O O8 0.869155 0.761677 0.173294
O O9 0.145459 0.788237 0.098127
O O10 0.167113 0.822708 0.974000
O O11 0.666727 0.754820 0.184221
O O12 0.934550 0.663960 0.057519
O O13 0.502810 0.827189 0.407205
O O14 0.737814 0.779792 0.357015
O O15 0.587390 0.849302 0.151291
O O16 0.250000 0.250000 0.000000
O O17 0.500000 0.804826 0.750000
#
# Coordination Sequence:
#
# PCOD8133400 Si02
#       8
#     8   8   8   8   8   4   8   8
#     4  11  22  41  59  92 130 161 199 264 316 374
#     4  11  22  38  59  87 132 165 194 250 326 372
#     4  10  20  34  57  84 121 156 201 249 297 372
#     4  11  20  35  60  94 120 154 210 250 307 363
#     4  11  19  35  60  89 121 154 199 248 314 369
#     4  12  22  36  60  94 120 158 206 270 310 352
#     4  12  22  38  63  90 125 158 211 265 308 363
#     4  10  19  33  54  88 115 152 205 249 295 350
#
# _framework density 19.059699999999999
#
# number of rings (size 3 to 8) (size 9 to 14) (size 15 to 20)
#    0.000    1.067    7.333    0.800    0.000    0.533 
#    0.000    0.000    1.467    3.200    0.000    0.000 
#    2.000    0.000    0.000    0.000    0.000    0.000 
#
# Total GULP energy -371876.942984 kJ/mol
# GULP energy per Si atom -12395.898099 kJ/mol
# Density = 1.901632 g / cm^3
# Si number density = 19.059700 Si / 1000 Ang^3
#
#
#
# Elastic Constant Matrix: (Units=GPa)
#
#
# Indices 1 2 3 4 5 6 
#
# 1 106.9531 45.7833 42.5797 -0.0051 -9.9441 0.0026
# 2 45.7833 96.8481 49.5012 -0.0317 -1.6798 0.0145
# 3 42.5797 49.5012 136.1675 -0.0431 -2.3233 0.0036
# 4 -0.0051 -0.0317 -0.0431 31.4866 0.0052 -0.5536
# 5 -9.9441 -1.6798 -2.3233 0.0052 34.4857 0.0006
# 6 0.0026 0.0145 0.0036 -0.5536 0.0006 22.7686
#
#
#
# Elastic Compliance Matrix: (Units=1/GPa)
#
#
# Indices 1 2 3 4 5 6 
#
# 1 0.012548 -0.004788 -0.002128 -0.000006 0.003242 0.000002
# 2 -0.004788 0.014512 -0.003794 0.000009 -0.000929 -0.000008
# 3 -0.002128 -0.003794 0.009386 0.000009 -0.000166 0.000001
# 4 -0.000006 0.000009 0.000009 0.031773 -0.000006 0.000773
# 5 0.003242 -0.000929 -0.000166 -0.000006 0.029876 -0.000001
# 6 0.000002 -0.000008 0.000001 0.000773 -0.000001 0.043939
#
#
# Mechanical properties :
#
#
# Convention : Reuss Voigt Hill
#
# Bulk Modulus (GPa) = 66.55300 68.41080 67.48190
# Shear Modulus (GPa) = 29.68017 31.22182 30.45100
#
# Velocity S-wave (km/s) = 3.95045 4.05174 4.00142
# Velocity P-wave (km/s) = 7.47007 7.60655 7.53862
#
# Compressibility (1/GPa) = 0.01502562
#
# Stress axis : x y z
#
# Youngs Moduli (GPa) = 79.69371 68.90788 106.54417
#
# Poissons Ratio (x) = 0.32993 0.22671
# Poissons Ratio (y) = 0.38158 0.40425
# Poissons Ratio (z) = 0.16958 0.26145
#
# Static dielectric constant tensor:
#      x y z
#    x 3.592720 -0.000010 -0.134640 
#    y -0.000010 3.183260 0.000040 
#    z -0.134640 0.000040 3.953270 
# 
# 
# High freq. dielectric constant tensor:
#      x y z
#    x 1.742020 0.000000 -0.013310 
#    y 0.000000 1.690410 0.000000 
#    z -0.013310 0.000000 1.764060 
# 
# From -- ./inp_files/274711.got.cif
#   From: 2010.06.25/outbox.cif.g09.slc.cpg/sg15_138_cif.got.tgz:274711.got - 2010.06.28 07:06:18.
