data_PCOD8133468
_publ_section_title
;
Structure prediction by ZEFSAII (Michael W. Deem and Ramdas Pophale) SiO2 
 PCOD8133468
Probable space group: C 2/C
;
_chemical_formula_sum "Si O2"
_cell_formula_units_Z 40
_cell_length_a 11.991921
_cell_length_b 12.319453
_cell_length_c 11.312136
_cell_angle_alpha 90.000000
_cell_angle_beta 62.630438
_cell_angle_gamma 90.000000
_cell_volume 1484.113045
_symmetry_space_group_name_H-M "C 2/C"
_symmetry_group_IT_number 15
_symmetry_cell_setting 'monoclinic'
loop_
_space_group_symop_operation_xyz
x,y,z
-x,y,1/2-z
-x,-y,-z
x,-y,1/2+z
1/2+x,1/2+y,z
1/2-x,1/2+y,1/2-z
1/2-x,1/2-y,-z
1/2+x,1/2-y,1/2+z
loop_
_atom_site_type_symbol
_atom_site_label
_atom_site_fract_x
_atom_site_fract_y
_atom_site_fract_z
Si Si1 0.812210 0.404674 0.294910
Si Si2 0.586409 0.762965 0.449427
Si Si3 0.882877 0.796888 0.892843
Si Si4 0.305318 0.124659 0.405317
Si Si5 0.644651 0.470473 0.181748
O O1 0.906139 0.364385 0.147054
O O2 0.787111 0.307662 0.408033
O O3 0.867113 0.513472 0.329005
O O4 0.684326 0.449011 0.298144
O O5 0.452089 0.704505 0.488481
O O6 0.582617 0.804070 0.588713
O O7 0.711017 0.687498 0.360597
O O8 0.821521 0.910867 0.886862
O O9 0.000000 0.772901 0.750000
O O10 0.214320 0.112827 0.563299
O O11 0.500000 0.446076 0.250000
#
# Coordination Sequence:
#
# PCOD8133468 Si02
#       5
#     8   8   8   8   8
#     4  10  19  33  56  81 110 146 185 226 276 331
#     4   9  20  37  56  82 113 147 186 229 278 332
#     4   9  18  34  54  77 112 148 183 229 274 324
#     4  10  20  36  59  82 113 150 185 230 281 329
#     4  10  21  36  57  83 110 147 192 233 277 329
#
# _framework density 26.952124999999999
#
# number of rings (size 3 to 8) (size 9 to 14) (size 15 to 20)
#    0.000    2.400    0.000    3.600    0.000    4.800 
#    0.000    0.000    0.000   55.200    0.000    0.000 
#    0.000    0.000    0.000    0.000    0.000    0.000 
#
# Total GULP energy -247779.224679 kJ/mol
# GULP energy per Si atom -12388.961234 kJ/mol
# Density = 2.689078 g / cm^3
# Si number density = 26.952125 Si / 1000 Ang^3
#
#
#
# Elastic Constant Matrix: (Units=GPa)
#
#
# Indices 1 2 3 4 5 6 
#
# 1 143.1082 40.5293 18.2030 0.0000 37.0997 0.0000
# 2 40.5293 132.2381 18.5739 0.0000 29.8263 0.0000
# 3 18.2030 18.5739 47.0967 0.0000 20.1277 0.0000
# 4 0.0000 0.0000 0.0000 46.8304 0.0000 16.8197
# 5 37.0997 29.8263 20.1277 0.0000 31.2769 0.0000
# 6 0.0000 0.0000 0.0000 16.8197 0.0000 38.0825
#
#
#
# Elastic Compliance Matrix: (Units=1/GPa)
#
#
# Indices 1 2 3 4 5 6 
#
# 1 0.010213 -0.000497 0.001688 0.000000 -0.012727 0.000000
# 2 -0.000497 0.009660 0.000093 0.000000 -0.008682 0.000000
# 3 0.001688 0.000093 0.029570 0.000000 -0.021120 0.000000
# 4 0.000000 0.000000 0.000000 0.025380 0.000000 -0.011209
# 5 -0.012727 -0.008682 -0.021120 0.000000 0.068939 0.000000
# 6 0.000000 0.000000 0.000000 -0.011209 0.000000 0.031210
#
#
# Mechanical properties :
#
#
# Convention : Reuss Voigt Hill
#
# Bulk Modulus (GPa) = 19.22704 53.00616 36.11660
# Shear Modulus (GPa) = 26.35187 39.58040 32.96613
#
# Velocity S-wave (km/s) = 3.13026 3.83632 3.50113
# Velocity P-wave (km/s) = 4.49599 6.27157 5.45649
#
# Compressibility (1/GPa) = 0.05201009
#
# Stress axis : x y z
#
# Youngs Moduli (GPa) = 97.91413 103.52443 33.81820
#
# Poissons Ratio (x) = 0.05142 -0.05707
# Poissons Ratio (y) = 0.04863 -0.00314
# Poissons Ratio (z) = -0.16523 -0.00962
#
# Static dielectric constant tensor:
#      x y z
#    x 5.958760 0.000000 0.506350 
#    y 0.000000 5.077640 0.000000 
#    z 0.506350 0.000000 4.882380 
# 
# 
# High freq. dielectric constant tensor:
#      x y z
#    x 2.087520 0.000000 0.026850 
#    y 0.000000 2.097060 0.000000 
#    z 0.026850 0.000000 2.073320 
# 
# From -- ./inp_files/141755.got.cif
#   From: 2010.06.25/outbox.cif.g09.slc.cpg/sg15_71_cif.got.tgz:141755.got - 2010.06.28 07:06:18.
