data_PCOD8133230
_publ_section_title
;
Structure prediction by ZEFSAII (Michael W. Deem and Ramdas Pophale) SiO2 
 PCOD8133230
Probable space group: C 2/C
;
_chemical_formula_sum "Si O2"
_cell_formula_units_Z 48
_cell_length_a 14.556102
_cell_length_b 13.930243
_cell_length_c 12.178240
_cell_angle_alpha 90.000000
_cell_angle_beta 74.144550
_cell_angle_gamma 90.000000
_cell_volume 2375.432157
_symmetry_space_group_name_H-M "C 2/C"
_symmetry_group_IT_number 15
_symmetry_cell_setting 'monoclinic'
loop_
_space_group_symop_operation_xyz
x,y,z
-x,y,1/2-z
-x,-y,-z
x,-y,1/2+z
1/2+x,1/2+y,z
1/2-x,1/2+y,1/2-z
1/2-x,1/2-y,-z
1/2+x,1/2-y,1/2+z
loop_
_atom_site_type_symbol
_atom_site_label
_atom_site_fract_x
_atom_site_fract_y
_atom_site_fract_z
Si Si1 0.173931 0.173585 0.378409
Si Si2 0.103657 0.623972 0.516476
Si Si3 0.032353 0.181955 0.123843
Si Si4 0.789700 0.073737 0.356904
Si Si5 0.530195 0.057275 0.122567
Si Si6 0.782035 0.375206 0.057676
O O1 0.223684 0.120510 0.259377
O O2 0.202500 0.286501 0.363601
O O3 0.205252 0.137941 0.486874
O O4 0.061201 0.148468 0.411198
O O5 0.080437 0.734732 0.537878
O O6 0.217805 0.620236 0.468843
O O7 0.060808 0.555269 0.626364
O O8 0.063455 0.574384 0.419208
O O9 0.104846 0.093765 0.126385
O O10 0.000000 0.227778 0.250000
O O11 0.761392 0.961661 0.355599
O O12 0.500000 0.099521 0.250000
O O13 0.617152 0.111795 0.035939
#
# Coordination Sequence:
#
# PCOD8133230 Si02
#       6
#     8   8   8   8   8   8
#     4  10  21  41  64  84 122 164 203 248 305 362
#     4  10  19  34  53  86 118 152 196 253 301 360
#     4  10  20  37  59  83 121 160 199 245 302 360
#     4  10  22  38  60  90 121 155 207 248 303 363
#     4  10  19  32  57  87 120 151 198 251 307 359
#     4  10  21  40  63  88 121 163 200 253 303 360
#
# _framework density 20.206849999999999
#
# number of rings (size 3 to 8) (size 9 to 14) (size 15 to 20)
#    0.000    2.000    1.667    2.000    0.000    0.667 
#   15.000    0.000    0.000    0.000    0.000    0.000 
#    0.000    0.000    0.000    0.000    0.000    0.000 
#
# Total GULP energy -297386.295538 kJ/mol
# GULP energy per Si atom -12391.095647 kJ/mol
# Density = 2.016086 g / cm^3
# Si number density = 20.206850 Si / 1000 Ang^3
#
#
#
# Elastic Constant Matrix: (Units=GPa)
#
#
# Indices 1 2 3 4 5 6 
#
# 1 118.0219 30.3240 33.2725 0.0000 0.3695 0.0000
# 2 30.3240 116.5582 48.9178 0.0000 -11.0836 0.0000
# 3 33.2725 48.9178 84.3830 0.0000 -4.1374 0.0000
# 4 0.0000 0.0000 0.0000 30.7701 0.0000 -1.0113
# 5 0.3695 -11.0836 -4.1374 0.0000 22.5582 0.0000
# 6 0.0000 0.0000 0.0000 -1.0113 0.0000 19.5530
#
#
#
# Elastic Compliance Matrix: (Units=1/GPa)
#
#
# Indices 1 2 3 4 5 6 
#
# 1 0.009701 -0.001351 -0.003110 0.000000 -0.001393 0.000000
# 2 -0.001351 0.011977 -0.006176 0.000000 0.004774 0.000000
# 3 -0.003110 -0.006176 0.016661 0.000000 0.000072 0.000000
# 4 0.000000 0.000000 0.000000 0.032554 0.000000 0.001684
# 5 -0.001393 0.004774 0.000072 0.000000 0.046711 0.000000
# 6 0.000000 0.000000 0.000000 0.001684 0.000000 0.051230
#
#
# Mechanical properties :
#
#
# Convention : Reuss Voigt Hill
#
# Bulk Modulus (GPa) = 58.60306 60.44351 59.52329
# Shear Modulus (GPa) = 25.53637 28.33953 26.93795
#
# Velocity S-wave (km/s) = 3.55878 3.74902 3.65514
# Velocity P-wave (km/s) = 6.77872 6.97979 6.87999
#
# Compressibility (1/GPa) = 0.01706396
#
# Stress axis : x y z
#
# Youngs Moduli (GPa) = 103.07827 83.49325 60.01950
#
# Poissons Ratio (x) = 0.11280 0.18668
# Poissons Ratio (y) = 0.13926 0.37071
# Poissons Ratio (z) = 0.32061 0.51569
#
# Static dielectric constant tensor:
#      x y z
#    x 3.918240 0.000000 -0.025690 
#    y 0.000000 3.602000 0.000000 
#    z -0.025690 0.000000 3.462590 
# 
# 
# High freq. dielectric constant tensor:
#      x y z
#    x 1.805750 0.000000 -0.002800 
#    y 0.000000 1.776450 0.000000 
#    z -0.002800 0.000000 1.774270 
# 
# From -- ./inp_files/96211.got.cif
#   From: 2010.06.25/outbox.cif.g09.slc.cpg/sg15_49_cif.got.tgz:96211.got - 2010.06.28 07:06:18.
