data_PCOD8133900
_publ_section_title
;
Structure prediction by ZEFSAII (Michael W. Deem and Ramdas Pophale) SiO2 
 PCOD8133900
Probable space group: C 2/C
;
_chemical_formula_sum "Si O2"
_cell_formula_units_Z 56
_cell_length_a 17.781488
_cell_length_b 4.993757
_cell_length_c 28.609279
_cell_angle_alpha 90.000000
_cell_angle_beta 97.028542
_cell_angle_gamma 90.000000
_cell_volume 2521.311536
_symmetry_space_group_name_H-M "C 2/C"
_symmetry_group_IT_number 15
_symmetry_cell_setting 'monoclinic'
loop_
_space_group_symop_operation_xyz
x,y,z
-x,y,1/2-z
-x,-y,-z
x,-y,1/2+z
1/2+x,1/2+y,z
1/2-x,1/2+y,1/2-z
1/2-x,1/2-y,-z
1/2+x,1/2-y,1/2+z
loop_
_atom_site_type_symbol
_atom_site_label
_atom_site_fract_x
_atom_site_fract_y
_atom_site_fract_z
Si Si1 0.277222 0.882315 0.642992
Si Si2 0.313450 0.129550 0.941160
Si Si3 0.797347 0.171698 0.741590
Si Si4 0.440625 0.006135 0.885845
Si Si5 0.387512 0.994382 0.574545
Si Si6 0.621272 0.481875 0.167936
Si Si7 0.173136 0.978348 0.980253
O O1 0.337373 0.054245 0.617240
O O2 0.207817 0.065243 0.656369
O O3 0.239859 0.656668 0.607815
O O4 0.319701 0.738532 0.689687
O O5 0.392287 0.000526 0.930503
O O6 0.263485 0.950983 0.973624
O O7 0.330686 0.420717 0.966260
O O8 0.766621 0.441885 0.763793
O O9 0.871962 0.066811 0.775512
O O10 0.526563 0.050247 0.906016
O O11 0.410210 0.226293 0.846951
O O12 0.435778 0.722796 0.860170
O O13 0.367988 0.196617 0.530679
O O14 0.370748 0.696500 0.555187
#
# Coordination Sequence:
#
# PCOD8133900 Si02
#       7
#     8   8   8   8   8   8   8
#     4   9  20  37  61  83 110 146 186 230 278 332
#     4   9  20  37  59  83 111 148 190 232 277 329
#     4  10  19  34  59  89 111 137 185 236 276 325
#     4  11  22  37  58  83 115 150 185 227 281 334
#     4  11  23  38  56  83 116 150 186 230 281 330
#     4  10  20  37  59  83 110 145 187 229 274 332
#     4  10  22  38  57  82 113 148 191 234 274 326
#
# _framework density 22.210661999999999
#
# number of rings (size 3 to 8) (size 9 to 14) (size 15 to 20)
#    0.000    2.000    0.000    4.286    0.000   12.000 
#    0.000    0.714    0.000    5.143    0.000    0.000 
#    0.000    0.000    0.000    0.000    0.000    0.000 
#
# Total GULP energy -347092.645794 kJ/mol
# GULP energy per Si atom -12396.165921 kJ/mol
# Density = 2.216011 g / cm^3
# Si number density = 22.210662 Si / 1000 Ang^3
#
#
#
# Elastic Constant Matrix: (Units=GPa)
#
#
# Indices 1 2 3 4 5 6 
#
# 1 104.8849 9.9048 28.4578 0.0000 21.2038 0.0000
# 2 9.9048 62.6375 3.4596 0.0000 1.8057 0.0000
# 3 28.4578 3.4596 107.9602 0.0000 7.4241 0.0000
# 4 0.0000 0.0000 0.0000 38.2153 0.0000 7.7692
# 5 21.2038 1.8057 7.4241 0.0000 26.4925 0.0000
# 6 0.0000 0.0000 0.0000 7.7692 0.0000 21.8614
#
#
#
# Elastic Compliance Matrix: (Units=1/GPa)
#
#
# Indices 1 2 3 4 5 6 
#
# 1 0.012174 -0.001527 -0.002546 0.000000 -0.008926 0.000000
# 2 -0.001527 0.016209 -0.000127 0.000000 0.000153 0.000000
# 3 -0.002546 -0.000127 0.009990 0.000000 -0.000753 0.000000
# 4 0.000000 0.000000 0.000000 0.028205 0.000000 -0.010024
# 5 -0.008926 0.000153 -0.000753 0.000000 0.045091 0.000000
# 6 0.000000 0.000000 0.000000 -0.010024 0.000000 0.049305
#
#
# Mechanical properties :
#
#
# Convention : Reuss Voigt Hill
#
# Bulk Modulus (GPa) = 33.36553 39.90301 36.63427
# Shear Modulus (GPa) = 27.87599 32.89120 30.38359
#
# Velocity S-wave (km/s) = 3.54654 3.85239 3.70262
# Velocity P-wave (km/s) = 5.64141 6.14757 5.89992
#
# Compressibility (1/GPa) = 0.02997105
#
# Stress axis : x y z
#
# Youngs Moduli (GPa) = 82.14360 61.69419 100.10306
#
# Poissons Ratio (x) = 0.09421 0.25488
# Poissons Ratio (y) = 0.12544 0.01276
# Poissons Ratio (z) = 0.20916 0.00786
#
# Static dielectric constant tensor:
#      x y z
#    x 3.836970 0.000000 -0.127340 
#    y 0.000000 3.853460 0.000000 
#    z -0.127340 0.000000 4.415740 
# 
# 
# High freq. dielectric constant tensor:
#      x y z
#    x 1.834080 0.000000 0.010320 
#    y 0.000000 1.875390 0.000000 
#    z 0.010320 0.000000 1.893400 
# 
# From -- ./inp_files/314841.got.cif
#   From: 2010.06.25/outbox.cif.g09.slc.cpg/sg15_158_cif.got.tgz:314841.got - 2010.06.28 07:06:18.
