data_PCOD8133543
_publ_section_title
;
Structure prediction by ZEFSAII (Michael W. Deem and Ramdas Pophale) SiO2 
 PCOD8133543
Probable space group: C 2/C
;
_chemical_formula_sum "Si O2"
_cell_formula_units_Z 64
_cell_length_a 14.865582
_cell_length_b 14.504439
_cell_length_c 17.311479
_cell_angle_alpha 90.000000
_cell_angle_beta 58.412720
_cell_angle_gamma 90.000000
_cell_volume 3179.630893
_symmetry_space_group_name_H-M "C 2/C"
_symmetry_group_IT_number 15
_symmetry_cell_setting 'monoclinic'
loop_
_space_group_symop_operation_xyz
x,y,z
-x,y,1/2-z
-x,-y,-z
x,-y,1/2+z
1/2+x,1/2+y,z
1/2-x,1/2+y,1/2-z
1/2-x,1/2-y,-z
1/2+x,1/2-y,1/2+z
loop_
_atom_site_type_symbol
_atom_site_label
_atom_site_fract_x
_atom_site_fract_y
_atom_site_fract_z
Si Si1 0.295019 0.894874 0.267360
Si Si2 0.157817 0.166161 0.116181
Si Si3 0.485328 0.007282 0.165213
Si Si4 0.992436 0.088202 0.094942
Si Si5 0.060362 0.885681 0.398932
Si Si6 0.205052 0.191935 0.268102
Si Si7 0.550086 0.208401 0.310580
Si Si8 0.334334 0.875746 0.424112
O O1 0.171463 0.903461 0.305725
O O2 0.338290 0.796549 0.217401
O O3 0.299102 0.910436 0.356894
O O4 0.366928 0.973197 0.195156
O O5 0.202680 0.154667 0.181653
O O6 0.135270 0.269215 0.097312
O O7 0.044264 0.118749 0.152743
O O8 0.240868 0.111532 0.026473
O O9 0.500000 0.997905 0.250000
O O10 0.499659 0.113477 0.132961
O O11 0.569456 0.939030 0.087379
O O12 0.871825 0.127242 0.145602
O O13 0.005529 0.977709 0.087670
O O14 0.058729 0.130067 0.992378
O O15 0.014302 0.792238 0.381869
O O16 0.322969 0.192478 0.250593
O O17 0.500000 0.229593 0.250000
#
# Coordination Sequence:
#
# PCOD8133543 Si02
#       8
#     8   8   8   8   8   8   8   8
#     4   9  16  34  55  86 112 143 189 235 282 344
#     4  10  19  33  58  89 119 145 178 246 302 337
#     4   9  17  31  57  80 109 152 194 228 278 345
#     4  11  21  37  60  89 115 151 190 239 287 353
#     4  10  22  37  59  81 115 156 196 231 286 341
#     4  10  21  35  60  87 113 145 193 235 297 343
#     4  10  22  41  58  79 113 162 196 237 277 337
#     4   9  17  30  55  87 115 145 183 233 294 347
#
# _framework density 20.128122999999999
#
# number of rings (size 3 to 8) (size 9 to 14) (size 15 to 20)
#    0.000    2.250    1.250    1.875    1.750    3.000 
#    0.000    1.250    5.500    0.000    0.000    0.000 
#    0.000    0.000    0.000    0.000    0.000    0.000 
#
# Total GULP energy -396518.937768 kJ/mol
# GULP energy per Si atom -12391.216805 kJ/mol
# Density = 2.008231 g / cm^3
# Si number density = 20.128123 Si / 1000 Ang^3
#
#
#
# Elastic Constant Matrix: (Units=GPa)
#
#
# Indices 1 2 3 4 5 6 
#
# 1 103.2319 34.3021 27.7320 0.0000 2.3411 0.0000
# 2 34.3021 118.0478 47.8106 0.0000 0.1851 0.0000
# 3 27.7320 47.8106 51.2000 0.0000 -6.7496 0.0000
# 4 0.0000 0.0000 0.0000 27.7768 0.0000 -0.9020
# 5 2.3411 0.1851 -6.7496 0.0000 23.0798 0.0000
# 6 0.0000 0.0000 0.0000 -0.9020 0.0000 23.2873
#
#
#
# Elastic Compliance Matrix: (Units=1/GPa)
#
#
# Indices 1 2 3 4 5 6 
#
# 1 0.011632 -0.001082 -0.005662 0.000000 -0.002827 0.000000
# 2 -0.001082 0.014086 -0.013071 0.000000 -0.003826 0.000000
# 3 -0.005662 -0.013071 0.036293 0.000000 0.011293 0.000000
# 4 0.000000 0.000000 0.000000 0.036047 0.000000 0.001396
# 5 -0.002827 -0.003826 0.011293 0.000000 0.046948 0.000000
# 6 0.000000 0.000000 0.000000 0.001396 0.000000 0.042996
#
#
# Mechanical properties :
#
#
# Convention : Reuss Voigt Hill
#
# Bulk Modulus (GPa) = 44.68570 54.68545 49.68558
# Shear Modulus (GPa) = 21.26824 25.67111 23.46967
#
# Velocity S-wave (km/s) = 3.25413 3.57513 3.41840
# Velocity P-wave (km/s) = 6.03059 6.65355 6.34971
#
# Compressibility (1/GPa) = 0.02237852
#
# Stress axis : x y z
#
# Youngs Moduli (GPa) = 85.97148 70.99432 27.55353
#
# Poissons Ratio (x) = 0.07683 0.15602
# Poissons Ratio (y) = 0.09304 0.36016
# Poissons Ratio (z) = 0.48680 0.92799
#
# Static dielectric constant tensor:
#      x y z
#    x 3.604450 0.000000 -0.186590 
#    y 0.000000 3.805470 0.000000 
#    z -0.186590 0.000000 3.508030 
# 
# 
# High freq. dielectric constant tensor:
#      x y z
#    x 1.775520 0.000000 -0.013870 
#    y 0.000000 1.792360 0.000000 
#    z -0.013870 0.000000 1.758440 
# 
# From -- ./inp_files/205414.got.cif
#   From: 2010.06.25/outbox.cif.g09.slc.cpg/sg15_103_cif.got.tgz:205414.got - 2010.06.28 07:06:18.
