data_PCOD8133299
_publ_section_title
;
Structure prediction by ZEFSAII (Michael W. Deem and Ramdas Pophale) SiO2 
 PCOD8133299
Probable space group: C 2/C
;
_chemical_formula_sum "Si O2"
_cell_formula_units_Z 56
_cell_length_a 8.319882
_cell_length_b 29.802567
_cell_length_c 18.174179
_cell_angle_alpha 90.000000
_cell_angle_beta 41.419037
_cell_angle_gamma 90.000000
_cell_volume 2981.230632
_symmetry_space_group_name_H-M "C 2/C"
_symmetry_group_IT_number 15
_symmetry_cell_setting 'monoclinic'
loop_
_space_group_symop_operation_xyz
x,y,z
-x,y,1/2-z
-x,-y,-z
x,-y,1/2+z
1/2+x,1/2+y,z
1/2-x,1/2+y,1/2-z
1/2-x,1/2-y,-z
1/2+x,1/2-y,1/2+z
loop_
_atom_site_type_symbol
_atom_site_label
_atom_site_fract_x
_atom_site_fract_y
_atom_site_fract_z
Si Si1 0.541628 0.595206 0.315659
Si Si2 0.554660 0.137431 0.507970
Si Si3 0.073254 0.390437 0.600863
Si Si4 0.959889 0.948809 0.532157
Si Si5 0.174794 0.374665 0.122361
Si Si6 0.204698 0.781391 0.118542
Si Si7 0.589769 0.691972 0.497641
O O1 0.500000 0.571853 0.250000
O O2 0.348135 0.635968 0.393640
O O3 0.514650 0.558124 0.388755
O O4 0.808592 0.616196 0.227003
O O5 0.432691 0.106286 0.486632
O O6 0.512215 0.118242 0.604663
O O7 0.439174 0.186546 0.544486
O O8 0.194932 0.435169 0.592254
O O9 0.214911 0.346962 0.578237
O O10 0.155359 0.917881 0.422691
O O11 0.000000 0.000000 0.500000
O O12 0.000000 0.369583 0.250000
O O13 0.331153 0.328626 0.061558
O O14 0.319989 0.731900 0.086350
O O15 0.000000 0.790392 0.250000
O O16 0.069679 0.789225 0.087457
#
# Coordination Sequence:
#
# PCOD8133299 Si02
#       7
#     8   8   8   8   8   8   8
#     4   9  18  35  57  80 107 140 175 217 267 313
#     4   9  19  34  53  79 106 137 179 218 260 318
#     4   9  18  36  58  76 104 141 174 218 269 316
#     4  10  21  36  55  82 107 134 177 219 261 324
#     4  10  20  36  53  72 105 142 175 218 272 321
#     4  10  19  33  52  74 105 141 178 222 266 312
#     4   9  20  34  50  77 104 136 185 222 260 322
#
# _framework density 18.784189000000001
#
# number of rings (size 3 to 8) (size 9 to 14) (size 15 to 20)
#    0.000    2.571    0.000    1.286    0.000    5.143 
#    0.000   14.286    0.000    0.000    0.000    0.000 
#    0.000    0.000    0.000    0.000    0.000    0.000 
#
# Total GULP energy -347023.275843 kJ/mol
# GULP energy per Si atom -12393.688423 kJ/mol
# Density = 1.874143 g / cm^3
# Si number density = 18.784189 Si / 1000 Ang^3
#
#
#
# Elastic Constant Matrix: (Units=GPa)
#
#
# Indices 1 2 3 4 5 6 
#
# 1 105.3971 47.4313 56.6639 0.0000 1.6888 0.0000
# 2 47.4313 115.2621 50.6656 0.0000 -3.8276 0.0000
# 3 56.6639 50.6656 116.8018 0.0000 3.5734 0.0000
# 4 0.0000 0.0000 0.0000 18.5600 0.0000 1.1739
# 5 1.6888 -3.8276 3.5734 0.0000 25.9361 0.0000
# 6 0.0000 0.0000 0.0000 1.1739 0.0000 20.0160
#
#
#
# Elastic Compliance Matrix: (Units=1/GPa)
#
#
# Indices 1 2 3 4 5 6 
#
# 1 0.013842 -0.003431 -0.005206 0.000000 -0.000690 0.000000
# 2 -0.003431 0.011700 -0.003485 0.000000 0.002430 0.000000
# 3 -0.005206 -0.003485 0.012658 0.000000 -0.001919 0.000000
# 4 0.000000 0.000000 0.000000 0.054080 0.000000 -0.003172
# 5 -0.000690 0.002430 -0.001919 0.000000 0.039224 0.000000
# 6 0.000000 0.000000 0.000000 -0.003172 0.000000 0.050146
#
#
# Mechanical properties :
#
#
# Convention : Reuss Voigt Hill
#
# Bulk Modulus (GPa) = 71.65332 71.88696 71.77014
# Shear Modulus (GPa) = 23.74787 25.08242 24.41515
#
# Velocity S-wave (km/s) = 3.55948 3.65813 3.60915
# Velocity P-wave (km/s) = 7.42439 7.49637 7.46047
#
# Compressibility (1/GPa) = 0.01395609
#
# Stress axis : x y z
#
# Youngs Moduli (GPa) = 72.24630 85.46741 79.00415
#
# Poissons Ratio (x) = 0.29320 0.41127
# Poissons Ratio (y) = 0.24785 0.27536
# Poissons Ratio (z) = 0.37609 0.29789
#
# Static dielectric constant tensor:
#      x y z
#    x 3.861060 0.000000 0.092010 
#    y 0.000000 3.155600 0.000000 
#    z 0.092010 0.000000 3.519230 
# 
# 
# High freq. dielectric constant tensor:
#      x y z
#    x 1.743660 0.000000 0.006160 
#    y 0.000000 1.694620 0.000000 
#    z 0.006160 0.000000 1.734250 
# 
# From -- ./inp_files/82153.got.cif
#   From: 2010.06.25/outbox.cif.g09.slc.cpg/sg15_42_cif.got.tgz:82153.got - 2010.06.28 07:06:18.
