data_PCOD8133429
_publ_section_title
;
Structure prediction by ZEFSAII (Michael W. Deem and Ramdas Pophale) SiO2 
 PCOD8133429
Probable space group: C 2/C
;
_chemical_formula_sum "Si O2"
_cell_formula_units_Z 64
_cell_length_a 9.310520
_cell_length_b 19.893233
_cell_length_c 27.057860
_cell_angle_alpha 90.000000
_cell_angle_beta 133.487267
_cell_angle_gamma 90.000000
_cell_volume 3636.022211
_symmetry_space_group_name_H-M "C 2/C"
_symmetry_group_IT_number 15
_symmetry_cell_setting 'monoclinic'
loop_
_space_group_symop_operation_xyz
x,y,z
-x,y,1/2-z
-x,-y,-z
x,-y,1/2+z
1/2+x,1/2+y,z
1/2-x,1/2+y,1/2-z
1/2-x,1/2-y,-z
1/2+x,1/2-y,1/2+z
loop_
_atom_site_type_symbol
_atom_site_label
_atom_site_fract_x
_atom_site_fract_y
_atom_site_fract_z
Si Si1 0.558006 0.672695 0.819944
Si Si2 0.721768 0.172695 0.819944
Si Si3 0.242558 0.265730 0.578599
Si Si4 0.819412 0.588125 0.452005
Si Si5 0.248962 0.057015 0.916690
Si Si6 0.582203 0.557015 0.583310
Si Si7 0.988610 0.088125 0.452005
Si Si8 0.571837 0.734270 0.078599
O O1 0.500000 0.683065 0.750000
O O2 0.367165 0.685936 0.808583
O O3 0.641994 0.596946 0.846981
O O4 0.724928 0.725713 0.874566
O O5 0.500000 0.183065 0.750000
O O6 0.773335 0.225713 0.874566
O O7 0.745931 0.096946 0.846982
O O8 0.238409 0.345043 0.591904
O O9 0.444464 0.247171 0.597232
O O10 0.054297 0.250001 0.500000
O O11 0.776906 0.521644 0.408646
O O12 0.696846 0.585195 0.473423
O O13 0.044647 0.592118 0.522618
O O14 0.122893 0.063859 0.936447
O O15 0.545827 0.592117 0.522618
O O16 0.642321 0.478356 0.591354
O O17 0.870792 0.154958 0.408096
#
# Coordination Sequence:
#
# PCOD8133429 Si02
#       8
#     8   8   8   8   8   8   8   8
#     4  11  23  37  54  76 107 144 182 223 269 323
#     4  11  23  37  54  76 107 144 182 223 269 323
#     4  10  19  33  55  82 110 142 177 218 268 320
#     4   9  17  31  53  79 107 135 170 216 263 312
#     4   9  18  32  51  77 105 136 173 217 262 310
#     4   9  18  32  51  77 105 136 173 217 262 310
#     4   9  17  31  53  79 107 135 170 216 263 312
#     4  10  19  33  55  82 110 142 177 218 268 320
#
# _framework density 17.601652999999999
#
# number of rings (size 3 to 8) (size 9 to 14) (size 15 to 20)
#    0.000    2.250    2.500    0.750    0.000    2.500 
#    0.000    1.250    0.000    3.000    0.000    0.000 
#    0.000    0.000    0.000    0.000    0.000    0.000 
#
# Total GULP energy -396716.732319 kJ/mol
# GULP energy per Si atom -12397.397885 kJ/mol
# Density = 1.756159 g / cm^3
# Si number density = 17.601653 Si / 1000 Ang^3
#
#
#
# Elastic Constant Matrix: (Units=GPa)
#
#
# Indices 1 2 3 4 5 6 
#
# 1 79.6466 48.7508 54.0341 0.0000 2.2689 0.0000
# 2 48.7508 110.3438 50.7090 0.0000 0.1355 0.0000
# 3 54.0341 50.7090 91.6135 -0.0001 -1.4407 0.0001
# 4 0.0000 0.0000 -0.0001 19.7359 0.0000 -0.4226
# 5 2.2689 0.1355 -1.4407 0.0000 28.9440 0.0001
# 6 0.0000 0.0000 0.0001 -0.4226 0.0001 25.8450
#
#
#
# Elastic Compliance Matrix: (Units=1/GPa)
#
#
# Indices 1 2 3 4 5 6 
#
# 1 0.023164 -0.005279 -0.010777 0.000000 -0.002328 0.000000
# 2 -0.005279 0.013362 -0.004280 0.000000 0.000138 0.000000
# 3 -0.010777 -0.004280 0.019670 0.000000 0.001844 0.000000
# 4 0.000000 0.000000 0.000000 0.050687 0.000000 0.000829
# 5 -0.002328 0.000138 0.001844 0.000000 0.034823 0.000000
# 6 0.000000 0.000000 0.000000 0.000829 0.000000 0.038706
#
#
# Mechanical properties :
#
#
# Convention : Reuss Voigt Hill
#
# Bulk Modulus (GPa) = 64.41757 65.39907 64.90832
# Shear Modulus (GPa) = 22.09866 23.44567 22.77217
#
# Velocity S-wave (km/s) = 3.54713 3.65364 3.60078
# Velocity P-wave (km/s) = 7.31116 7.41852 7.36504
#
# Compressibility (1/GPa) = 0.01552371
#
# Stress axis : x y z
#
# Youngs Moduli (GPa) = 43.16999 74.84172 50.83867
#
# Poissons Ratio (x) = 0.39506 0.54790
# Poissons Ratio (y) = 0.22788 0.21760
# Poissons Ratio (z) = 0.46525 0.32034
#
# Static dielectric constant tensor:
#      x y z
#    x 3.303920 0.000000 -0.020070 
#    y 0.000000 3.802160 0.000000 
#    z -0.020070 0.000000 3.013950 
# 
# 
# High freq. dielectric constant tensor:
#      x y z
#    x 1.684650 0.000000 -0.002800 
#    y 0.000000 1.699710 0.000000 
#    z -0.002800 0.000000 1.644130 
# 
# From -- ./inp_files/266126.got.cif
#   From: 2010.06.25/outbox.cif.g09.slc.cpg/sg15_134_cif.got.tgz:266126.got - 2010.06.28 07:06:18.
