data_PCOD8133211
_publ_section_title
;
Structure prediction by ZEFSAII (Michael W. Deem and Ramdas Pophale) SiO2 
 PCOD8133211
Probable space group: C 2/C
;
_chemical_formula_sum "Si O2"
_cell_formula_units_Z 52
_cell_length_a 10.277148
_cell_length_b 18.735973
_cell_length_c 18.872902
_cell_angle_alpha 90.000000
_cell_angle_beta 134.336581
_cell_angle_gamma 90.000000
_cell_volume 2599.222137
_symmetry_space_group_name_H-M "C 2/C"
_symmetry_group_IT_number 15
_symmetry_cell_setting 'monoclinic'
loop_
_space_group_symop_operation_xyz
x,y,z
-x,y,1/2-z
-x,-y,-z
x,-y,1/2+z
1/2+x,1/2+y,z
1/2-x,1/2+y,1/2-z
1/2-x,1/2-y,-z
1/2+x,1/2-y,1/2+z
loop_
_atom_site_type_symbol
_atom_site_label
_atom_site_fract_x
_atom_site_fract_y
_atom_site_fract_z
Si Si1 0.383747 0.359146 0.854878
Si Si2 0.488460 0.578525 0.965679
Si Si3 0.835308 0.352554 0.527745
Si Si4 0.500000 0.600660 0.250000
Si Si5 0.178133 0.241504 0.855172
Si Si6 0.819421 0.510602 0.725136
Si Si7 0.121231 0.466597 0.606760
O O1 0.463176 0.351370 0.805782
O O2 0.279142 0.286386 0.832547
O O3 0.260851 0.430502 0.814144
O O4 0.534637 0.368056 0.975540
O O5 0.666297 0.598613 0.987844
O O6 0.312737 0.576032 0.847877
O O7 0.500000 0.500000 0.000000
O O8 0.877021 0.290894 0.599617
O O9 0.797626 0.322325 0.434128
O O10 0.022171 0.395799 0.597022
O O11 0.672627 0.551983 0.337709
O O12 0.000000 0.208781 0.750000
O O13 0.866574 0.523825 0.825207
O O14 0.000000 0.516409 0.750000
O O15 0.000000 0.500000 0.500000
#
# Coordination Sequence:
#
# PCOD8133211 Si02
#       7
#     8   8   8   4   8   8   8
#     4   9  18  34  56  85 114 157 204 244 293 356
#     4   9  18  32  58  82 121 149 194 245 296 358
#     4  10  22  37  57  93 112 149 202 255 294 353
#     4  10  22  36  56  86 116 168 198 234 306 372
#     4  10  19  37  64  83 113 148 202 258 296 342
#     4  10  19  32  56  84 116 163 197 236 298 372
#     4  11  24  35  55  83 127 154 195 246 305 364
#
# _framework density 20.005986
#
# number of rings (size 3 to 8) (size 9 to 14) (size 15 to 20)
#    0.000    2.154    0.000    5.077    8.615    1.231 
#    0.000    0.769    0.000    0.000   16.000    0.000 
#    0.000    0.000    0.000    0.000    0.000    0.000 
#
# Total GULP energy -322185.600719 kJ/mol
# GULP energy per Si atom -12391.753874 kJ/mol
# Density = 1.996045 g / cm^3
# Si number density = 20.005986 Si / 1000 Ang^3
#
#
#
# Elastic Constant Matrix: (Units=GPa)
#
#
# Indices 1 2 3 4 5 6 
#
# 1 110.5467 15.5637 54.2090 0.0000 -2.9447 0.0000
# 2 15.5637 27.2655 22.7488 0.0000 0.3524 0.0000
# 3 54.2090 22.7488 158.0282 0.0000 -6.5531 0.0000
# 4 0.0000 0.0000 0.0000 18.7827 0.0000 -17.9195
# 5 -2.9447 0.3524 -6.5531 0.0000 36.4533 0.0000
# 6 0.0000 0.0000 0.0000 -17.9195 0.0000 3.6539
#
#
#
# Elastic Compliance Matrix: (Units=1/GPa)
#
#
# Indices 1 2 3 4 5 6 
#
# 1 0.011185 -0.003637 -0.003299 0.000000 0.000346 0.000000
# 2 -0.003637 0.042946 -0.005001 0.000000 -0.001608 0.000000
# 3 -0.003299 -0.005001 0.008232 0.000000 0.001262 0.000000
# 4 0.000000 0.000000 0.000000 -0.014472 0.000000 -0.070975
# 5 0.000346 -0.001608 0.001262 0.000000 0.027703 0.000000
# 6 0.000000 0.000000 0.000000 -0.070975 0.000000 -0.074394
#
#
# Mechanical properties :
#
#
# Convention : Reuss Voigt Hill
#
# Bulk Modulus (GPa) = 25.98159 53.43149 39.70654
# Shear Modulus (GPa) = 131.91646 25.33259 78.62452
#
# Velocity S-wave (km/s) = 8.12906 3.56230 6.27581
# Velocity P-wave (km/s) = 10.05604 6.60952 8.50910
#
# Compressibility (1/GPa) = 0.03848879
#
# Stress axis : x y z
#
# Youngs Moduli (GPa) = 89.40662 23.28511 121.47810
#
# Poissons Ratio (x) = 0.08468 0.40075
# Poissons Ratio (y) = 0.32513 0.60757
# Poissons Ratio (z) = 0.29495 0.11646
#
# Static dielectric constant tensor:
#      x y z
#    x 3.562310 0.000000 -0.451190 
#    y 0.000000 3.472530 0.000000 
#    z -0.451190 0.000000 3.137570 
# 
# 
# High freq. dielectric constant tensor:
#      x y z
#    x 1.769080 0.000000 -0.012890 
#    y 0.000000 1.738790 0.000000 
#    z -0.012890 0.000000 1.808790 
# 
# From -- ./inp_files/192585.got.cif
#   From: 2010.06.25/outbox.cif.g09.slc.cpg/sg15_97_cif.got.tgz:192585.got - 2010.06.28 07:06:18.
