data_PCOD8133441
_publ_section_title
;
Structure prediction by ZEFSAII (Michael W. Deem and Ramdas Pophale) SiO2 
 PCOD8133441
Probable space group: C 2/C
;
_chemical_formula_sum "Si O2"
_cell_formula_units_Z 64
_cell_length_a 20.429256
_cell_length_b 11.716032
_cell_length_c 14.621308
_cell_angle_alpha 90.000000
_cell_angle_beta 108.372233
_cell_angle_gamma 90.000000
_cell_volume 3321.228457
_symmetry_space_group_name_H-M "C 2/C"
_symmetry_group_IT_number 15
_symmetry_cell_setting 'monoclinic'
loop_
_space_group_symop_operation_xyz
x,y,z
-x,y,1/2-z
-x,-y,-z
x,-y,1/2+z
1/2+x,1/2+y,z
1/2-x,1/2+y,1/2-z
1/2-x,1/2-y,-z
1/2+x,1/2-y,1/2+z
loop_
_atom_site_type_symbol
_atom_site_label
_atom_site_fract_x
_atom_site_fract_y
_atom_site_fract_z
Si Si1 0.339344 0.598630 0.905611
Si Si2 0.186971 0.509062 0.833093
Si Si3 0.351474 0.184493 0.820970
Si Si4 0.419794 0.413721 0.820478
Si Si5 0.682690 0.891439 0.011711
Si Si6 0.580066 0.548529 0.387830
Si Si7 0.332883 0.658691 0.586745
Si Si8 0.802627 0.725771 0.250944
O O1 0.263643 0.549761 0.890029
O O2 0.377582 0.507491 0.857764
O O3 0.334128 0.724955 0.858733
O O4 0.379020 0.621604 0.018128
O O5 0.141608 0.610963 0.769577
O O6 0.152630 0.466545 0.914018
O O7 0.189157 0.409661 0.757081
O O8 0.408085 0.284182 0.849708
O O9 0.277232 0.243697 0.793788
O O10 0.358195 0.095352 0.910078
O O11 0.397552 0.414719 0.704155
O O12 0.499431 0.441822 0.868983
O O13 0.675624 0.756079 0.992098
O O14 0.763940 0.920066 0.057787
O O15 0.601521 0.416846 0.412505
O O16 0.346506 0.712554 0.691436
#
# Coordination Sequence:
#
# PCOD8133441 Si02
#       8
#     8   8   8   8   8   8   8   8
#     4  11  19  34  55  84 117 143 191 230 289 346
#     4  10  19  33  55  84 113 146 183 234 294 339
#     4  10  20  34  54  81 116 151 181 231 295 353
#     4  11  23  38  52  83 116 153 194 233 292 335
#     4   9  17  30  54  82 111 150 184 227 286 350
#     4  11  22  35  56  81 113 158 185 241 281 343
#     4   9  15  30  52  78 111 144 187 221 279 343
#     4   9  18  32  54  80 113 144 179 238 282 341
#
# _framework density 19.269977999999998
#
# number of rings (size 3 to 8) (size 9 to 14) (size 15 to 20)
#    0.000    2.000    3.750    1.875    0.000    0.000 
#    2.250    1.250    0.000    0.750   13.000    0.000 
#    0.000    0.000    0.000    0.000    0.000    0.000 
#
# Total GULP energy -396587.893603 kJ/mol
# GULP energy per Si atom -12393.371675 kJ/mol
# Density = 1.922612 g / cm^3
# Si number density = 19.269978 Si / 1000 Ang^3
#
#
#
# Elastic Constant Matrix: (Units=GPa)
#
#
# Indices 1 2 3 4 5 6 
#
# 1 54.8131 26.3538 28.6164 0.0000 1.8660 0.0000
# 2 26.3538 65.7806 25.7942 0.0000 9.8833 0.0000
# 3 28.6164 25.7942 115.1670 0.0000 0.3045 0.0000
# 4 0.0000 0.0000 0.0000 28.5764 0.0000 -1.5136
# 5 1.8660 9.8833 0.3045 0.0000 20.5395 0.0000
# 6 0.0000 0.0000 0.0000 -1.5136 0.0000 27.9439
#
#
#
# Elastic Compliance Matrix: (Units=1/GPa)
#
#
# Indices 1 2 3 4 5 6 
#
# 1 0.024415 -0.008426 -0.004184 0.000000 0.001898 0.000000
# 2 -0.008426 0.020987 -0.002582 0.000000 -0.009295 0.000000
# 3 -0.004184 -0.002582 0.010297 0.000000 0.001470 0.000000
# 4 0.000000 0.000000 0.000000 0.035095 0.000000 0.001901
# 5 0.001898 -0.009295 0.001470 0.000000 0.052965 0.000000
# 6 0.000000 0.000000 0.000000 0.001901 0.000000 0.035889
#
#
# Mechanical properties :
#
#
# Convention : Reuss Voigt Hill
#
# Bulk Modulus (GPa) = 39.50395 44.14330 41.82363
# Shear Modulus (GPa) = 22.88642 25.74504 24.31573
#
# Velocity S-wave (km/s) = 3.45000 3.65912 3.55610
# Velocity P-wave (km/s) = 6.03447 6.38825 6.21388
#
# Compressibility (1/GPa) = 0.02531392
#
# Stress axis : x y z
#
# Youngs Moduli (GPa) = 40.95873 47.64912 97.11338
#
# Poissons Ratio (x) = 0.40148 0.40636
# Poissons Ratio (y) = 0.34511 0.25077
# Poissons Ratio (z) = 0.17139 0.12304
#
# Static dielectric constant tensor:
#      x y z
#    x 3.170480 0.000000 -0.198940 
#    y 0.000000 3.433650 0.000000 
#    z -0.198940 0.000000 3.793620 
# 
# 
# High freq. dielectric constant tensor:
#      x y z
#    x 1.706210 0.000000 -0.018330 
#    y 0.000000 1.733640 0.000000 
#    z -0.018330 0.000000 1.763550 
# 
# From -- ./inp_files/167672.got.cif
#   From: 2010.06.25/outbox.cif.g09.slc.cpg/sg15_84_cif.got.tgz:167672.got - 2010.06.28 07:06:18.
