data_PCOD8133893
_publ_section_title
;
Structure prediction by ZEFSAII (Michael W. Deem and Ramdas Pophale) SiO2 
 PCOD8133893
Probable space group: C 2/C
;
_chemical_formula_sum "Si O2"
_cell_formula_units_Z 52
_cell_length_a 21.475133
_cell_length_b 20.426254
_cell_length_c 8.483517
_cell_angle_alpha 90.000000
_cell_angle_beta 44.771169
_cell_angle_gamma 90.000000
_cell_volume 2620.861505
_symmetry_space_group_name_H-M "C 2/C"
_symmetry_group_IT_number 15
_symmetry_cell_setting 'monoclinic'
loop_
_space_group_symop_operation_xyz
x,y,z
-x,y,1/2-z
-x,-y,-z
x,-y,1/2+z
1/2+x,1/2+y,z
1/2-x,1/2+y,1/2-z
1/2-x,1/2-y,-z
1/2+x,1/2-y,1/2+z
loop_
_atom_site_type_symbol
_atom_site_label
_atom_site_fract_x
_atom_site_fract_y
_atom_site_fract_z
Si Si1 0.000000 0.473494 0.250000
Si Si2 0.251653 0.144832 0.025305
Si Si3 0.091787 0.421432 0.388191
Si Si4 0.642989 0.743653 0.036552
Si Si5 0.000000 0.019581 0.250000
Si Si6 0.430132 0.589163 0.092124
Si Si7 0.027726 0.216801 0.954816
Si Si8 0.000000 0.687252 0.250000
O O1 0.036280 0.429057 0.326083
O O2 0.922341 0.518391 0.465745
O O3 0.220270 0.193882 0.945131
O O4 0.167118 0.116800 0.269536
O O5 0.305821 0.085766 0.844827
O O6 0.315521 0.183097 0.034622
O O7 0.064373 0.355508 0.526797
O O8 0.610115 0.720605 0.924871
O O9 0.562291 0.742190 0.303869
O O10 0.063960 0.066491 0.236153
O O11 0.939927 0.974060 0.466677
O O12 0.508064 0.643113 0.925652
O O13 0.056148 0.264494 0.761607
#
# Coordination Sequence:
#
# PCOD8133893 Si02
#       8
#     4   8   8   8   4   8   8   4
#     4   9  22  40  58  80 114 159 202 222 276 343
#     4  10  19  34  59  87 118 143 185 243 292 334
#     4  10  21  38  58  83 116 153 193 238 274 345
#     4   9  19  34  57  83 117 150 184 224 301 354
#     4  10  21  40  60  82 105 162 196 228 274 350
#     4  10  21  37  62  82 115 145 199 234 283 334
#     4  10  19  36  59  87 110 154 188 234 283 362
#     4  11  21  32  60  86 115 151 194 230 284 345
#
# _framework density 19.840803999999999
#
# number of rings (size 3 to 8) (size 9 to 14) (size 15 to 20)
#    0.000    2.154    1.538    2.308    2.154    1.231 
#    0.000    0.769    6.769    0.000    0.000    0.000 
#    0.000    0.000    0.000    0.000    0.000    0.000 
#
# Total GULP energy -322307.538995 kJ/mol
# GULP energy per Si atom -12396.443808 kJ/mol
# Density = 1.979565 g / cm^3
# Si number density = 19.840804 Si / 1000 Ang^3
#
#
#
# Elastic Constant Matrix: (Units=GPa)
#
#
# Indices 1 2 3 4 5 6 
#
# 1 85.2090 33.3758 26.9655 0.0000 1.2440 0.0000
# 2 33.3758 87.9173 24.3007 0.0000 0.6729 0.0000
# 3 26.9655 24.3007 46.0294 0.0000 1.0733 0.0000
# 4 0.0000 0.0000 0.0000 37.1134 0.0000 1.7759
# 5 1.2440 0.6729 1.0733 0.0000 33.1365 0.0000
# 6 0.0000 0.0000 0.0000 1.7759 0.0000 32.4808
#
#
#
# Elastic Compliance Matrix: (Units=1/GPa)
#
#
# Indices 1 2 3 4 5 6 
#
# 1 0.015498 -0.003950 -0.006988 0.000000 -0.000275 0.000000
# 2 -0.003950 0.014325 -0.005249 0.000000 0.000027 0.000000
# 3 -0.006988 -0.005249 0.028603 0.000000 -0.000558 0.000000
# 4 0.000000 0.000000 0.000000 0.027015 0.000000 -0.001477
# 5 -0.000275 0.000027 -0.000558 0.000000 0.030206 0.000000
# 6 0.000000 0.000000 0.000000 -0.001477 0.000000 0.030868
#
#
# Mechanical properties :
#
#
# Convention : Reuss Voigt Hill
#
# Bulk Modulus (GPa) = 38.38414 43.15998 40.77206
# Shear Modulus (GPa) = 26.65628 29.51370 28.08499
#
# Velocity S-wave (km/s) = 3.66937 3.86103 3.76642
# Velocity P-wave (km/s) = 6.11068 6.45578 6.28560
#
# Compressibility (1/GPa) = 0.02605242
#
# Stress axis : x y z
#
# Youngs Moduli (GPa) = 64.52273 69.81027 34.96137
#
# Poissons Ratio (x) = 0.27576 0.24430
# Poissons Ratio (y) = 0.25487 0.18351
# Poissons Ratio (z) = 0.45086 0.36644
#
# Static dielectric constant tensor:
#      x y z
#    x 3.603720 0.000000 0.121900 
#    y 0.000000 3.815480 0.000000 
#    z 0.121900 0.000000 3.416000 
# 
# 
# High freq. dielectric constant tensor:
#      x y z
#    x 1.764390 0.000000 0.010820 
#    y 0.000000 1.785970 0.000000 
#    z 0.010820 0.000000 1.751170 
# 
# From -- ./inp_files/40797.got.cif
#   From: 2010.06.25/outbox.cif.g09.slc.cpg/sg15_21_cif.got.tgz:40797.got - 2010.06.28 07:06:18.
