data_PCOD8133126
_publ_section_title
;
Structure prediction by ZEFSAII (Michael W. Deem and Ramdas Pophale) SiO2 
 PCOD8133126
Probable space group: C 2/C
;
_chemical_formula_sum "Si O2"
_cell_formula_units_Z 52
_cell_length_a 8.080153
_cell_length_b 11.735171
_cell_length_c 29.037952
_cell_angle_alpha 90.000000
_cell_angle_beta 107.339271
_cell_angle_gamma 90.000000
_cell_volume 2628.310946
_symmetry_space_group_name_H-M "C 2/C"
_symmetry_group_IT_number 15
_symmetry_cell_setting 'monoclinic'
loop_
_space_group_symop_operation_xyz
x,y,z
-x,y,1/2-z
-x,-y,-z
x,-y,1/2+z
1/2+x,1/2+y,z
1/2-x,1/2+y,1/2-z
1/2-x,1/2-y,-z
1/2+x,1/2-y,1/2+z
loop_
_atom_site_type_symbol
_atom_site_label
_atom_site_fract_x
_atom_site_fract_y
_atom_site_fract_z
Si Si1 0.828417 0.209147 0.593472
Si Si2 0.699972 0.110659 0.672097
Si Si3 0.123419 0.244552 0.372097
Si Si4 0.500000 0.280611 0.250000
Si Si5 0.110425 0.894023 0.055361
Si Si6 0.595806 0.854872 0.667893
Si Si7 0.010259 0.144815 0.050673
O O1 0.795185 0.115257 0.630492
O O2 0.645089 0.251046 0.558666
O O3 0.927501 0.147453 0.560585
O O4 0.938275 0.316736 0.621834
O O5 0.558177 0.211138 0.662648
O O6 0.842882 0.136296 0.722795
O O7 0.605602 0.990956 0.673185
O O8 0.228759 0.350297 0.401889
O O9 0.222629 0.187592 0.337995
O O10 0.096317 0.152084 0.410489
O O11 0.432850 0.198823 0.284653
O O12 0.120741 0.029548 0.057909
O O13 0.121194 0.849786 0.003533
#
# Coordination Sequence:
#
# PCOD8133126 Si02
#       7
#     8   8   8   4   8   8   8
#     4   9  19  35  53  78 108 140 175 209 253 307
#     4  10  21  38  57  77 105 136 169 214 263 311
#     4  10  21  35  54  78 104 138 176 211 255 308
#     4  10  24  38  54  82 102 126 174 216 260 322
#     4  10  19  32  52  78 108 141 176 213 251 295
#     4  10  21  38  57  77 105 136 169 214 263 311
#     4  10  19  32  52  78 108 141 176 213 251 295
#
# _framework density 19.784568
#
# number of rings (size 3 to 8) (size 9 to 14) (size 15 to 20)
#    0.000    2.154    0.000    2.769    0.000    3.077 
#    0.000    3.077    0.000   14.769    0.000    0.000 
#    0.000    0.000    0.000    0.000    0.000    0.000 
#
# Total GULP energy -322469.494977 kJ/mol
# GULP energy per Si atom -12402.672884 kJ/mol
# Density = 1.973954 g / cm^3
# Si number density = 19.784568 Si / 1000 Ang^3
#
#
#
# Elastic Constant Matrix: (Units=GPa)
#
#
# Indices 1 2 3 4 5 6 
#
# 1 68.6880 -4.6515 20.8407 0.0000 -11.5288 0.0000
# 2 -4.6515 57.4131 17.0056 0.0000 -4.6440 0.0000
# 3 20.8407 17.0056 78.2708 0.0000 -12.2814 0.0000
# 4 0.0000 0.0000 0.0000 15.1159 0.0000 -4.1437
# 5 -11.5288 -4.6440 -12.2814 0.0000 27.2419 0.0000
# 6 0.0000 0.0000 0.0000 -4.1437 0.0000 22.4958
#
#
#
# Elastic Compliance Matrix: (Units=1/GPa)
#
#
# Indices 1 2 3 4 5 6 
#
# 1 0.017052 0.003128 -0.004309 0.000000 0.005807 0.000000
# 2 0.003128 0.019243 -0.004618 0.000000 0.002522 0.000000
# 3 -0.004309 -0.004618 0.015622 0.000000 0.004432 0.000000
# 4 0.000000 0.000000 0.000000 0.069674 0.000000 0.012834
# 5 0.005807 0.002522 0.004432 0.000000 0.041594 0.000000
# 6 0.000000 0.000000 0.000000 0.012834 0.000000 0.046817
#
#
# Mechanical properties :
#
#
# Convention : Reuss Voigt Hill
#
# Bulk Modulus (GPa) = 24.80202 30.08462 27.44332
# Shear Modulus (GPa) = 21.27302 24.38252 22.82777
#
# Velocity S-wave (km/s) = 3.28263 3.51437 3.40047
# Velocity P-wave (km/s) = 5.18949 5.63088 5.41468
#
# Compressibility (1/GPa) = 0.04031930
#
# Stress axis : x y z
#
# Youngs Moduli (GPa) = 58.64281 51.96743 64.01155
#
# Poissons Ratio (x) = -0.16253 0.27581
# Poissons Ratio (y) = -0.18341 0.29559
# Poissons Ratio (z) = 0.25268 0.23998
#
# Static dielectric constant tensor:
#      x y z
#    x 3.597710 0.000000 -0.098720 
#    y 0.000000 3.367610 0.000000 
#    z -0.098720 0.000000 3.578170 
# 
# 
# High freq. dielectric constant tensor:
#      x y z
#    x 1.776010 0.000000 -0.004520 
#    y 0.000000 1.764560 0.000000 
#    z -0.004520 0.000000 1.770820 
# 
# From -- ./inp_files/287639.got.cif
#   From: 2010.06.25/outbox.cif.g09.slc.cpg/sg15_144_cif.got.tgz:287639.got - 2010.06.28 07:06:18.
