data_PCOD8133671
_publ_section_title
;
Structure prediction by ZEFSAII (Michael W. Deem and Ramdas Pophale) SiO2 
 PCOD8133671
Probable space group: C 2/C
;
_chemical_formula_sum "Si O2"
_cell_formula_units_Z 64
_cell_length_a 12.391001
_cell_length_b 23.668248
_cell_length_c 12.474142
_cell_angle_alpha 90.000000
_cell_angle_beta 83.491449
_cell_angle_gamma 90.000000
_cell_volume 3634.754460
_symmetry_space_group_name_H-M "C 2/C"
_symmetry_group_IT_number 15
_symmetry_cell_setting 'monoclinic'
loop_
_space_group_symop_operation_xyz
x,y,z
-x,y,1/2-z
-x,-y,-z
x,-y,1/2+z
1/2+x,1/2+y,z
1/2-x,1/2+y,1/2-z
1/2-x,1/2-y,-z
1/2+x,1/2-y,1/2+z
loop_
_atom_site_type_symbol
_atom_site_label
_atom_site_fract_x
_atom_site_fract_y
_atom_site_fract_z
Si Si1 0.089067 0.049222 0.481269
Si Si2 0.279755 0.954754 0.794036
Si Si3 0.489300 0.659525 0.923608
Si Si4 0.443873 0.052865 0.457129
Si Si5 0.909454 0.638562 0.174740
Si Si6 0.163383 0.753739 0.415426
Si Si7 0.235250 0.557691 0.860222
Si Si8 0.336128 0.659582 0.756213
O O1 0.162990 0.043397 0.366338
O O2 0.034894 0.111931 0.483739
O O3 0.157604 0.046033 0.582290
O O4 0.000000 0.000000 0.500000
O O5 0.377727 0.969275 0.862358
O O6 0.306711 0.892957 0.741724
O O7 0.288115 0.000446 0.699782
O O8 0.381043 0.678867 0.869230
O O9 0.568546 0.631659 0.826092
O O10 0.552484 0.713909 0.967537
O O11 0.534284 0.098400 0.418295
O O12 0.362019 0.078299 0.553328
O O13 0.500000 0.000000 0.500000
O O14 0.000000 0.658619 0.250000
O O15 0.863819 0.690973 0.115814
O O16 0.250000 0.750000 0.500000
O O17 0.211826 0.786714 0.304929
O O18 0.248048 0.610199 0.777971
#
# Coordination Sequence:
#
# PCOD8133671 Si02
#       8
#     8   8   8   8   8   8   8   8
#     4  10  20  33  53  82 112 143 179 219 271 326
#     4  10  21  33  54  82 109 144 180 220 273 324
#     4   8  16  33  52  73 105 141 174 213 262 318
#     4  10  20  35  54  79 110 143 182 223 268 319
#     4  10  20  37  55  76 109 147 180 219 274 326
#     4  10  20  34  56  80 101 139 187 228 266 313
#     4  10  19  34  54  80 110 143 182 221 265 324
#     4   8  16  32  54  74 101 141 177 213 261 319
#
# _framework density 17.607792
#
# number of rings (size 3 to 8) (size 9 to 14) (size 15 to 20)
#    0.750    1.750    1.250    1.500    0.000    3.500 
#    0.000    1.250    0.000    7.500    0.000    0.000 
#    0.000    0.000    0.000    0.000    0.000    0.000 
#
# Total GULP energy -396486.532444 kJ/mol
# GULP energy per Si atom -12390.204139 kJ/mol
# Density = 1.756772 g / cm^3
# Si number density = 17.607792 Si / 1000 Ang^3
#
#
#
# Elastic Constant Matrix: (Units=GPa)
#
#
# Indices 1 2 3 4 5 6 
#
# 1 80.2881 60.2296 42.8571 0.0000 0.3097 0.0000
# 2 60.2296 116.2762 54.5886 0.0000 14.1743 0.0000
# 3 42.8571 54.5886 78.5279 0.0000 3.1182 0.0000
# 4 0.0000 0.0000 0.0000 34.4161 0.0000 1.0609
# 5 0.3097 14.1743 3.1182 0.0000 28.2879 0.0000
# 6 0.0000 0.0000 0.0000 1.0609 0.0000 26.0584
#
#
#
# Elastic Compliance Matrix: (Units=1/GPa)
#
#
# Indices 1 2 3 4 5 6 
#
# 1 0.022895 -0.009704 -0.005959 0.000000 0.005269 0.000000
# 2 -0.009704 0.017773 -0.006738 0.000000 -0.008056 0.000000
# 3 -0.005959 -0.006738 0.020624 0.000000 0.001168 0.000000
# 4 0.000000 0.000000 0.000000 0.029093 0.000000 -0.001184
# 5 0.005269 -0.008056 0.001168 0.000000 0.039201 0.000000
# 6 0.000000 0.000000 0.000000 -0.001184 0.000000 0.038424
#
#
# Mechanical properties :
#
#
# Convention : Reuss Voigt Hill
#
# Bulk Modulus (GPa) = 60.64546 65.60477 63.12512
# Shear Modulus (GPa) = 22.90338 25.58028 24.24183
#
# Velocity S-wave (km/s) = 3.61051 3.81567 3.71451
# Velocity P-wave (km/s) = 7.20404 7.53341 7.37057
#
# Compressibility (1/GPa) = 0.01648928
#
# Stress axis : x y z
#
# Youngs Moduli (GPa) = 43.67694 56.26652 48.48717
#
# Poissons Ratio (x) = 0.54603 0.28891
# Poissons Ratio (y) = 0.42386 0.32673
# Poissons Ratio (z) = 0.26025 0.37915
#
# Static dielectric constant tensor:
#      x y z
#    x 1.739110 0.000000 1.329030 
#    y 0.000000 3.261460 0.000000 
#    z 1.329030 0.000000 2.006380 
# 
# 
# High freq. dielectric constant tensor:
#      x y z
#    x 1.671480 0.000000 -0.000500 
#    y 0.000000 1.673010 0.000000 
#    z -0.000500 0.000000 1.673100 
# 
# From -- ./inp_files/90822.got.cif
#   From: 2010.06.25/outbox.cif.g09.slc.cpg/sg15_46_cif.got.tgz:90822.got - 2010.06.28 07:06:18.
