data_PCOD8133522
_publ_section_title
;
Structure prediction by ZEFSAII (Michael W. Deem and Ramdas Pophale) SiO2 
 PCOD8133522
Probable space group: C 2/C
;
_chemical_formula_sum "Si O2"
_cell_formula_units_Z 56
_cell_length_a 23.555600
_cell_length_b 11.389691
_cell_length_c 11.651564
_cell_angle_alpha 90.000000
_cell_angle_beta 60.422235
_cell_angle_gamma 90.000000
_cell_volume 2718.648695
_symmetry_space_group_name_H-M "C 2/C"
_symmetry_group_IT_number 15
_symmetry_cell_setting 'monoclinic'
loop_
_space_group_symop_operation_xyz
x,y,z
-x,y,1/2-z
-x,-y,-z
x,-y,1/2+z
1/2+x,1/2+y,z
1/2-x,1/2+y,1/2-z
1/2-x,1/2-y,-z
1/2+x,1/2-y,1/2+z
loop_
_atom_site_type_symbol
_atom_site_label
_atom_site_fract_x
_atom_site_fract_y
_atom_site_fract_z
Si Si1 0.807371 0.219634 0.787572
Si Si2 0.699193 0.677058 0.974316
Si Si3 0.549016 0.771372 0.794565
Si Si4 0.960662 0.619952 0.543198
Si Si5 0.760174 0.440423 0.970874
Si Si6 0.098924 0.522808 0.104065
Si Si7 0.930079 0.720381 0.809584
O O1 0.800796 0.219496 0.657102
O O2 0.882459 0.206147 0.755267
O O3 0.773808 0.339615 0.863797
O O4 0.770969 0.110412 0.881578
O O5 0.713493 0.538491 0.962553
O O6 0.750000 0.750000 0.000000
O O7 0.627468 0.691935 0.101189
O O8 0.500000 0.710150 0.750000
O O9 0.562449 0.907021 0.742566
O O10 0.510492 0.776703 0.953785
O O11 0.903364 0.604892 0.505730
O O12 0.921163 0.661351 0.693643
O O13 0.000000 0.500000 0.500000
O O14 0.826701 0.504918 0.938674
O O15 0.066573 0.394819 0.110673
O O16 0.000000 0.786581 0.750000
#
# Coordination Sequence:
#
# PCOD8133522 Si02
#       7
#     8   8   8   8   8   8   8
#     4  10  24  45  70  94 136 175 222 281 328 406
#     4  12  27  41  66 102 136 175 222 278 332 402
#     4   9  18  37  60  93 122 167 221 269 336 394
#     4  11  19  30  58  87 126 166 206 278 332 385
#     4  10  24  45  67  94 129 181 224 268 341 398
#     4  10  19  33  57  89 124 163 216 269 334 388
#     4  12  22  36  57  94 133 168 215 269 340 386
#
# _framework density 20.598468
#
# number of rings (size 3 to 8) (size 9 to 14) (size 15 to 20)
#    0.000    1.429    4.286    1.286    4.000    0.000 
#    0.000    0.714    0.000    2.571    0.000    0.000 
#    0.000    0.000    0.000    0.000    0.000    0.000 
#
# Total GULP energy -347052.636005 kJ/mol
# GULP energy per Si atom -12394.737000 kJ/mol
# Density = 2.055159 g / cm^3
# Si number density = 20.598468 Si / 1000 Ang^3
#
#
#
# Elastic Constant Matrix: (Units=GPa)
#
#
# Indices 1 2 3 4 5 6 
#
# 1 115.8123 32.8898 57.6937 0.0000 -9.4966 0.0000
# 2 32.8898 63.0820 37.1382 0.0000 -5.9204 0.0000
# 3 57.6937 37.1382 137.5199 0.0000 1.5218 0.0000
# 4 0.0000 0.0000 0.0000 23.2276 0.0000 -4.3856
# 5 -9.4966 -5.9204 1.5218 0.0000 34.7476 0.0000
# 6 0.0000 0.0000 0.0000 -4.3856 0.0000 25.3818
#
#
#
# Elastic Compliance Matrix: (Units=1/GPa)
#
#
# Indices 1 2 3 4 5 6 
#
# 1 0.011899 -0.003545 -0.004066 0.000000 0.002826 0.000000
# 2 -0.003545 0.020325 -0.004031 0.000000 0.002671 0.000000
# 3 -0.004066 -0.004031 0.010091 0.000000 -0.002240 0.000000
# 4 0.000000 0.000000 0.000000 0.044504 0.000000 0.007690
# 5 0.002826 0.002671 -0.002240 0.000000 0.030104 0.000000
# 6 0.000000 0.000000 0.000000 0.007690 0.000000 0.040727
#
#
# Mechanical properties :
#
#
# Convention : Reuss Voigt Hill
#
# Bulk Modulus (GPa) = 52.54764 63.53972 58.04368
# Shear Modulus (GPa) = 26.69853 29.25091 27.97472
#
# Velocity S-wave (km/s) = 3.60410 3.77245 3.68923
# Velocity P-wave (km/s) = 6.54868 7.06321 6.81081
#
# Compressibility (1/GPa) = 0.01903035
#
# Stress axis : x y z
#
# Youngs Moduli (GPa) = 84.04420 49.20166 99.10013
#
# Poissons Ratio (x) = 0.17441 0.40292
# Poissons Ratio (y) = 0.29792 0.39949
# Poissons Ratio (z) = 0.34170 0.19834
#
# Static dielectric constant tensor:
#      x y z
#    x 3.938660 0.000000 0.028600 
#    y 0.000000 3.318340 0.000000 
#    z 0.028600 0.000000 3.918470 
# 
# 
# High freq. dielectric constant tensor:
#      x y z
#    x 1.817240 0.000000 -0.001170 
#    y 0.000000 1.755960 0.000000 
#    z -0.001170 0.000000 1.818860 
# 
# From -- ./inp_files/117490.got.cif
#   From: 2010.06.25/outbox.cif.g09.slc.cpg/sg15_59_cif.got.tgz:117490.got - 2010.06.28 07:06:18.
