data_PCOD8133060
_publ_section_title
;
Structure prediction by ZEFSAII (Michael W. Deem and Ramdas Pophale) SiO2 
 PCOD8133060
Probable space group: C 2/C
;
_chemical_formula_sum "Si O2"
_cell_formula_units_Z 56
_cell_length_a 14.350517
_cell_length_b 16.216554
_cell_length_c 30.801303
_cell_angle_alpha 90.000000
_cell_angle_beta 151.049999
_cell_angle_gamma 90.000000
_cell_volume 3469.620901
_symmetry_space_group_name_H-M "C 2/C"
_symmetry_group_IT_number 15
_symmetry_cell_setting 'monoclinic'
loop_
_space_group_symop_operation_xyz
x,y,z
-x,y,1/2-z
-x,-y,-z
x,-y,1/2+z
1/2+x,1/2+y,z
1/2-x,1/2+y,1/2-z
1/2-x,1/2-y,-z
1/2+x,1/2-y,1/2+z
loop_
_atom_site_type_symbol
_atom_site_label
_atom_site_fract_x
_atom_site_fract_y
_atom_site_fract_z
Si Si1 0.898493 0.904570 0.252588
Si Si2 0.732866 0.012195 0.421000
Si Si3 0.278919 0.758235 0.663030
Si Si4 0.079091 0.651954 0.409787
Si Si5 0.181876 0.479356 0.726496
Si Si6 0.106859 0.069279 0.103358
Si Si7 0.213821 0.187263 0.924193
O O1 0.777468 0.820129 0.194797
O O2 0.000000 0.937387 0.250000
O O3 0.070497 0.887689 0.356172
O O4 0.761000 0.972043 0.217323
O O5 0.881973 0.946505 0.502027
O O6 0.746106 0.098496 0.453268
O O7 0.515339 0.976593 0.337040
O O8 0.770622 0.030183 0.385838
O O9 0.500000 0.790935 0.750000
O O10 0.144402 0.832797 0.623898
O O11 0.200230 0.727165 0.584484
O O12 0.085485 0.745578 0.397082
O O13 0.114728 0.651476 0.476202
O O14 0.871621 0.612252 0.313464
O O15 0.333851 0.474536 0.827554
#
# Coordination Sequence:
#
# PCOD8133060 Si02
#       7
#     8   8   8   8   8   8   8
#     4   9  19  32  50  71  93 131 175 206 243 285
#     4   9  20  28  48  81 100 128 163 193 257 304
#     4   9  16  29  49  71  95 130 174 204 245 283
#     4   9  17  28  48  74 101 119 162 205 248 289
#     4  10  19  32  48  72 106 127 163 207 246 295
#     4  11  17  31  52  74 105 132 157 202 254 303
#     4   9  15  29  49  74  96 122 165 213 240 280
#
# _framework density 16.140091999999999
#
# number of rings (size 3 to 8) (size 9 to 14) (size 15 to 20)
#    0.857    2.000    1.429    3.857    0.000    0.000 
#    0.000    3.571    0.000    0.000    0.000    0.000 
#    0.000    0.000    0.000    0.000    0.000    0.000 
#
# Total GULP energy -346917.769322 kJ/mol
# GULP energy per Si atom -12389.920333 kJ/mol
# Density = 1.610336 g / cm^3
# Si number density = 16.140092 Si / 1000 Ang^3
#
#
#
# Elastic Constant Matrix: (Units=GPa)
#
#
# Indices 1 2 3 4 5 6 
#
# 1 70.4188 29.7202 32.7892 -0.0010 -8.6292 -0.0003
# 2 29.7202 50.1216 22.7629 -0.0010 -1.7811 -0.0003
# 3 32.7892 22.7629 77.9702 -0.0052 -22.1297 -0.0010
# 4 -0.0010 -0.0010 -0.0052 19.9579 -0.0010 0.5724
# 5 -8.6292 -1.7811 -22.1297 -0.0010 26.9237 0.0000
# 6 -0.0003 -0.0003 -0.0010 0.5724 0.0000 20.1755
#
#
#
# Elastic Compliance Matrix: (Units=1/GPa)
#
#
# Indices 1 2 3 4 5 6 
#
# 1 0.021194 -0.009991 -0.005551 -0.000001 0.001570 0.000000
# 2 -0.009991 0.028286 -0.005783 -0.000001 -0.006084 0.000000
# 3 -0.005551 -0.005783 0.021174 0.000006 0.015242 0.000001
# 4 -0.000001 -0.000001 0.000006 0.050146 0.000006 -0.001423
# 5 0.001570 -0.006084 0.015242 0.000006 0.049771 0.000001
# 6 0.000000 0.000000 0.000001 -0.001423 0.000001 0.049605
#
#
# Mechanical properties :
#
#
# Convention : Reuss Voigt Hill
#
# Bulk Modulus (GPa) = 35.70815 41.00613 38.35714
# Shear Modulus (GPa) = 18.37146 20.96064 19.66605
#
# Velocity S-wave (km/s) = 3.37746 3.60761 3.49443
# Velocity P-wave (km/s) = 6.11404 6.54330 6.33231
#
# Compressibility (1/GPa) = 0.02800481
#
# Stress axis : x y z
#
# Youngs Moduli (GPa) = 47.18258 35.35330 47.22740
#
# Poissons Ratio (x) = 0.35321 0.26214
# Poissons Ratio (y) = 0.47139 0.27313
# Poissons Ratio (z) = 0.26190 0.20446
#
# Static dielectric constant tensor:
#      x y z
#    x 2.844220 0.000000 -0.259700 
#    y 0.000000 2.847600 0.000000 
#    z -0.259700 0.000000 3.076840 
# 
# 
# High freq. dielectric constant tensor:
#      x y z
#    x 1.594980 0.000000 -0.032060 
#    y 0.000000 1.602210 0.000000 
#    z -0.032060 0.000000 1.620390 
# 
# From -- ./inp_files/314232.got.cif
#   From: 2010.06.25/outbox.cif.g09.slc.cpg/sg15_158_cif.got.tgz:314232.got - 2010.06.28 07:06:18.
