data_PCOD8133374
_publ_section_title
;
Structure prediction by ZEFSAII (Michael W. Deem and Ramdas Pophale) SiO2 
 PCOD8133374
Probable space group: C 2/C
;
_chemical_formula_sum "Si O2"
_cell_formula_units_Z 48
_cell_length_a 10.285547
_cell_length_b 13.014506
_cell_length_c 31.314524
_cell_angle_alpha 90.000000
_cell_angle_beta 143.279626
_cell_angle_gamma 90.000000
_cell_volume 2506.322015
_symmetry_space_group_name_H-M "C 2/C"
_symmetry_group_IT_number 15
_symmetry_cell_setting 'monoclinic'
loop_
_space_group_symop_operation_xyz
x,y,z
-x,y,1/2-z
-x,-y,-z
x,-y,1/2+z
1/2+x,1/2+y,z
1/2-x,1/2+y,1/2-z
1/2-x,1/2-y,-z
1/2+x,1/2-y,1/2+z
loop_
_atom_site_type_symbol
_atom_site_label
_atom_site_fract_x
_atom_site_fract_y
_atom_site_fract_z
Si Si1 0.876194 0.002245 0.387998
Si Si2 0.653821 0.661631 0.002179
Si Si3 0.014799 0.474934 0.857383
Si Si4 0.018137 0.216965 0.456688
Si Si5 0.254873 0.830819 0.320756
Si Si6 0.705183 0.873823 0.772602
O O1 0.651873 0.979934 0.353920
O O2 0.021277 0.902637 0.432263
O O3 0.841391 0.030674 0.328773
O O4 0.995778 0.097810 0.440612
O O5 0.500310 0.717801 0.996802
O O6 0.839095 0.589428 0.071464
O O7 0.750000 0.750000 0.000000
O O8 0.893841 0.567187 0.849143
O O9 0.842917 0.397720 0.789466
O O10 0.250000 0.250000 0.500000
O O11 0.824562 0.287211 0.385907
O O12 0.322074 0.738338 0.305458
O O13 0.000000 0.859592 0.250000
O O14 0.500000 0.856506 0.750000
#
# Coordination Sequence:
#
# PCOD8133374 Si02
#       6
#     8   8   8   8   8   8
#     4   9  18  34  55  79 105 143 190 230 274 337
#     4  11  22  35  55  84 117 144 182 242 289 328
#     4  10  19  36  56  77 111 151 188 226 284 349
#     4  10  19  36  60  81 106 149 196 231 277 346
#     4  10  19  33  54  80 109 147 192 239 284 343
#     4   8  17  32  53  77 100 136 186 230 271 327
#
# _framework density 19.151568000000001
#
# number of rings (size 3 to 8) (size 9 to 14) (size 15 to 20)
#    0.000    2.333    0.000    7.000    0.000    2.667 
#    0.000    8.333    0.000    0.000    0.000    0.000 
#    0.000    0.000    0.000    0.000    0.000    0.000 
#
# Total GULP energy -297344.769607 kJ/mol
# GULP energy per Si atom -12389.365400 kJ/mol
# Density = 1.910798 g / cm^3
# Si number density = 19.151568 Si / 1000 Ang^3
#
#
#
# Elastic Constant Matrix: (Units=GPa)
#
#
# Indices 1 2 3 4 5 6 
#
# 1 58.2679 45.4905 25.8790 0.0000 13.3256 0.0000
# 2 45.4905 105.3034 33.2855 0.0000 7.8537 0.0000
# 3 25.8790 33.2855 87.5789 0.0000 5.3153 0.0000
# 4 0.0000 0.0000 0.0000 32.8217 0.0000 6.0514
# 5 13.3256 7.8537 5.3153 0.0000 19.9644 0.0000
# 6 0.0000 0.0000 0.0000 6.0514 0.0000 23.8209
#
#
#
# Elastic Compliance Matrix: (Units=1/GPa)
#
#
# Indices 1 2 3 4 5 6 
#
# 1 0.031048 -0.010984 -0.004070 0.000000 -0.015319 0.000000
# 2 -0.010984 0.014884 -0.002542 0.000000 0.002153 0.000000
# 3 -0.004070 -0.002542 0.013581 0.000000 0.000101 0.000000
# 4 0.000000 0.000000 0.000000 0.031965 0.000000 -0.008120
# 5 -0.015319 0.002153 0.000101 0.000000 0.059441 0.000000
# 6 0.000000 0.000000 0.000000 -0.008120 0.000000 0.044043
#
#
# Mechanical properties :
#
#
# Convention : Reuss Voigt Hill
#
# Bulk Modulus (GPa) = 41.11558 51.16224 46.13891
# Shear Modulus (GPa) = 20.98538 25.08774 23.03656
#
# Velocity S-wave (km/s) = 3.31381 3.62326 3.47198
# Velocity P-wave (km/s) = 6.01306 6.65405 6.34166
#
# Compressibility (1/GPa) = 0.02432168
#
# Stress axis : x y z
#
# Youngs Moduli (GPa) = 32.20772 67.18559 73.63209
#
# Poissons Ratio (x) = 0.73794 0.29971
# Poissons Ratio (y) = 0.35376 0.18717
# Poissons Ratio (z) = 0.13110 0.17078
#
# Static dielectric constant tensor:
#      x y z
#    x 3.166910 0.000000 -0.105480 
#    y 0.000000 3.642520 0.000000 
#    z -0.105480 0.000000 3.854590 
# 
# 
# High freq. dielectric constant tensor:
#      x y z
#    x 1.698500 0.000000 -0.005930 
#    y 0.000000 1.747360 0.000000 
#    z -0.005930 0.000000 1.759910 
# 
# From -- ./inp_files/308129.got.cif
#   From: 2010.06.25/outbox.cif.g09.slc.cpg/sg15_155_cif.got.tgz:308129.got - 2010.06.28 07:06:18.
