data_PCOD8133887
_publ_section_title
;
Structure prediction by ZEFSAII (Michael W. Deem and Ramdas Pophale) SiO2 
 PCOD8133887
Probable space group: C 2/C
;
_chemical_formula_sum "Si O2"
_cell_formula_units_Z 48
_cell_length_a 13.650422
_cell_length_b 20.569726
_cell_length_c 21.614709
_cell_angle_alpha 90.000000
_cell_angle_beta 155.123728
_cell_angle_gamma 90.000000
_cell_volume 2553.026608
_symmetry_space_group_name_H-M "C 2/C"
_symmetry_group_IT_number 15
_symmetry_cell_setting 'monoclinic'
loop_
_space_group_symop_operation_xyz
x,y,z
-x,y,1/2-z
-x,-y,-z
x,-y,1/2+z
1/2+x,1/2+y,z
1/2-x,1/2+y,1/2-z
1/2-x,1/2-y,-z
1/2+x,1/2-y,1/2+z
loop_
_atom_site_type_symbol
_atom_site_label
_atom_site_fract_x
_atom_site_fract_y
_atom_site_fract_z
Si Si1 0.902124 0.249129 0.475084
Si Si2 0.112316 0.590105 0.748734
Si Si3 0.364159 0.637286 0.615879
Si Si4 0.239915 0.696342 0.735698
Si Si5 0.463538 0.049219 0.140115
Si Si6 0.652213 0.399356 0.568296
O O1 0.730947 0.292615 0.417598
O O2 0.904016 0.273584 0.404325
O O3 0.803567 0.176464 0.419168
O O4 0.155453 0.249233 0.654939
O O5 0.068195 0.649507 0.675891
O O6 0.000000 0.607362 0.750000
O O7 0.999174 0.527586 0.650768
O O8 0.385372 0.579768 0.918597
O O9 0.500000 0.604182 0.750000
O O10 0.538746 0.651507 0.658942
O O11 0.160371 0.585636 0.487473
O O12 0.716237 0.083251 0.292353
O O13 0.289513 0.056799 0.097950
#
# Coordination Sequence:
#
# PCOD8133887 Si02
#       6
#     8   8   8   8   8   8
#     4  10  19  34  59  86 124 141 184 250 305 350
#     4  11  22  38  56  82 121 161 197 238 282 346
#     4  10  20  33  56  90 122 150 180 246 312 350
#     4  10  21  35  57  87 122 146 195 240 300 353
#     4  11  20  33  59  84 119 144 195 246 286 339
#     4  10  21  33  58  93 108 143 198 244 295 333
#
# _framework density 18.801214000000002
#
# number of rings (size 3 to 8) (size 9 to 14) (size 15 to 20)
#    0.000    1.667    5.000    2.000    7.000    0.000 
#    0.000    6.667    0.000    0.000    0.000    0.000 
#    0.000    0.000    0.000    0.000    0.000    0.000 
#
# Total GULP energy -297392.120049 kJ/mol
# GULP energy per Si atom -12391.338335 kJ/mol
# Density = 1.875842 g / cm^3
# Si number density = 18.801214 Si / 1000 Ang^3
#
#
#
# Elastic Constant Matrix: (Units=GPa)
#
#
# Indices 1 2 3 4 5 6 
#
# 1 84.9775 51.2140 46.5533 -0.0073 -11.0458 0.0111
# 2 51.2140 98.1995 46.5804 0.0085 -6.1570 0.0018
# 3 46.5533 46.5804 105.3266 0.0213 -19.4531 0.0051
# 4 -0.0073 0.0085 0.0213 28.5098 -0.0167 8.8108
# 5 -11.0458 -6.1570 -19.4531 -0.0167 36.9503 0.0083
# 6 0.0111 0.0018 0.0051 8.8108 0.0083 20.3402
#
#
#
# Elastic Compliance Matrix: (Units=1/GPa)
#
#
# Indices 1 2 3 4 5 6 
#
# 1 0.019244 -0.007657 -0.004755 0.000017 0.001974 -0.000017
# 2 -0.007657 0.015963 -0.003995 -0.000007 -0.001732 0.000008
# 3 -0.004755 -0.003995 0.014375 -0.000008 0.005481 0.000000
# 4 0.000017 -0.000007 -0.000008 0.040497 0.000022 -0.017542
# 5 0.001974 -0.001732 0.005481 0.000022 0.030250 -0.000024
# 6 -0.000017 0.000008 0.000000 -0.017542 -0.000024 0.056762
#
#
# Mechanical properties :
#
#
# Convention : Reuss Voigt Hill
#
# Bulk Modulus (GPa) = 59.63803 64.13321 61.88562
# Shear Modulus (GPa) = 23.20230 26.77046 24.98638
#
# Velocity S-wave (km/s) = 3.51677 3.77751 3.64947
# Velocity P-wave (km/s) = 6.94834 7.29461 7.12358
#
# Compressibility (1/GPa) = 0.01676782
#
# Stress axis : x y z
#
# Youngs Moduli (GPa) = 51.96429 62.64356 69.56513
#
# Poissons Ratio (x) = 0.47967 0.33077
# Poissons Ratio (y) = 0.39790 0.27793
# Poissons Ratio (z) = 0.24708 0.25028
#
# Static dielectric constant tensor:
#      x y z
#    x 3.326110 0.000010 -0.336460 
#    y 0.000010 3.365630 -0.000110 
#    z -0.336460 -0.000110 3.800560 
# 
# 
# High freq. dielectric constant tensor:
#      x y z
#    x 1.707860 0.000000 -0.020630 
#    y 0.000000 1.723300 -0.000010 
#    z -0.020630 -0.000010 1.728610 
# 
# From -- ./inp_files/99535.got.cif
#   From: 2010.06.25/outbox.cif.g09.slc.cpg/sg15_50_cif.got.tgz:99535.got - 2010.06.28 07:06:18.
