data_PCOD8133359
_publ_section_title
;
Structure prediction by ZEFSAII (Michael W. Deem and Ramdas Pophale) SiO2 
 PCOD8133359
Probable space group: C 2/C
;
_chemical_formula_sum "Si O2"
_cell_formula_units_Z 56
_cell_length_a 23.455157
_cell_length_b 16.616579
_cell_length_c 20.430255
_cell_angle_alpha 90.000000
_cell_angle_beta 21.206187
_cell_angle_gamma 90.000000
_cell_volume 2880.265789
_symmetry_space_group_name_H-M "C 2/C"
_symmetry_group_IT_number 15
_symmetry_cell_setting 'monoclinic'
loop_
_space_group_symop_operation_xyz
x,y,z
-x,y,1/2-z
-x,-y,-z
x,-y,1/2+z
1/2+x,1/2+y,z
1/2-x,1/2+y,1/2-z
1/2-x,1/2-y,-z
1/2+x,1/2-y,1/2+z
loop_
_atom_site_type_symbol
_atom_site_label
_atom_site_fract_x
_atom_site_fract_y
_atom_site_fract_z
Si Si1 0.131038 0.857972 0.801728
Si Si2 0.286162 0.478296 0.329816
Si Si3 0.334024 0.954899 0.183148
Si Si4 0.181925 0.723937 0.209495
Si Si5 0.589380 0.157076 0.087081
Si Si6 0.803214 0.207659 0.661962
Si Si7 0.619770 0.579930 0.460162
O O1 0.252568 0.784572 0.674346
O O2 0.106116 0.898325 0.898737
O O3 0.204425 0.924390 0.673032
O O4 0.959914 0.828462 0.960788
O O5 0.260930 0.457157 0.281889
O O6 0.143381 0.436834 0.523327
O O7 0.453131 0.439871 0.171544
O O8 0.338788 0.858866 0.193127
O O9 0.233621 0.002269 0.345488
O O10 0.500000 0.000000 0.000000
O O11 0.154207 0.766413 0.309167
O O12 0.309976 0.653594 0.074839
O O13 0.017997 0.686509 0.359065
O O14 0.250950 0.790016 0.085429
O O15 0.500000 0.169544 0.250000
#
# Coordination Sequence:
#
# PCOD8133359 Si02
#       7
#     8   8   8   8   8   8   8
#     4  10  20  31  49  78 111 146 175 215 267 337
#     4  11  20  38  50  73 114 147 183 233 276 315
#     4  11  20  31  52  81 114 147 185 213 263 338
#     4  11  22  36  55  81 113 145 183 227 282 328
#     4  12  24  39  58  78 104 147 196 240 278 323
#     4  11  20  33  53  81 116 147 177 213 273 339
#     4  10  19  33  54  75 111 153 174 215 272 334
#
# _framework density 19.44265
#
# number of rings (size 3 to 8) (size 9 to 14) (size 15 to 20)
#    0.000    1.143    4.286    4.714    6.000    0.000 
#    0.000    0.000    0.000    0.000    0.000    1.000 
#    0.000    0.000    0.000    0.000    0.000    0.000 
#
# Total GULP energy -347051.770220 kJ/mol
# GULP energy per Si atom -12394.706079 kJ/mol
# Density = 1.939840 g / cm^3
# Si number density = 19.442650 Si / 1000 Ang^3
#
#
#
# Elastic Constant Matrix: (Units=GPa)
#
#
# Indices 1 2 3 4 5 6 
#
# 1 25.2378 26.7852 22.3546 0.0254 -8.6107 -0.0112
# 2 26.7852 146.1308 57.7925 0.0558 -13.4383 -0.0297
# 3 22.3546 57.7925 96.0489 0.0664 -18.6782 -0.0462
# 4 0.0254 0.0558 0.0664 37.0359 -0.0335 -10.2288
# 5 -8.6107 -13.4383 -18.6782 -0.0335 24.6894 0.0163
# 6 -0.0112 -0.0297 -0.0462 -10.2288 0.0163 17.9895
#
#
#
# Elastic Compliance Matrix: (Units=1/GPa)
#
#
# Indices 1 2 3 4 5 6 
#
# 1 0.056571 -0.006561 -0.007124 -0.000009 0.010769 -0.000009
# 2 -0.006561 0.009760 -0.004405 -0.000003 -0.000309 -0.000001
# 3 -0.007124 -0.004405 0.016146 -0.000005 0.007332 0.000020
# 4 -0.000009 -0.000003 -0.000005 0.032031 0.000023 0.018213
# 5 0.010769 -0.000309 0.007332 0.000023 0.049638 -0.000007
# 6 -0.000009 -0.000001 0.000020 0.018213 -0.000007 0.065944
#
#
# Mechanical properties :
#
#
# Convention : Reuss Voigt Hill
#
# Bulk Modulus (GPa) = 21.60068 53.47580 37.53824
# Shear Modulus (GPa) = 17.74913 26.64198 22.19556
#
# Velocity S-wave (km/s) = 3.02470 3.70575 3.38241
# Velocity P-wave (km/s) = 4.83037 6.77305 5.88246
#
# Compressibility (1/GPa) = 0.04629484
#
# Stress axis : x y z
#
# Youngs Moduli (GPa) = 17.67680 102.46200 61.93428
#
# Poissons Ratio (x) = 0.67230 0.44124
# Poissons Ratio (y) = 0.11598 0.27284
# Poissons Ratio (z) = 0.12594 0.45138
#
# Static dielectric constant tensor:
#      x y z
#    x 3.009060 -0.000050 -0.373010 
#    y -0.000050 4.265580 0.000080 
#    z -0.373010 0.000080 3.603510 
# 
# 
# High freq. dielectric constant tensor:
#      x y z
#    x 1.677920 0.000000 -0.043890 
#    y 0.000000 1.784030 0.000010 
#    z -0.043890 0.000010 1.755190 
# 
# From -- ./inp_files/67176.got.cif
#   From: 2010.06.25/outbox.cif.g09.slc.cpg/sg15_34_cif.got.tgz:67176.got - 2010.06.28 07:06:18.
