data_PCOD8133128
_publ_section_title
;
Structure prediction by ZEFSAII (Michael W. Deem and Ramdas Pophale) SiO2 
 PCOD8133128
Probable space group: C 2/C
;
_chemical_formula_sum "Si O2"
_cell_formula_units_Z 56
_cell_length_a 19.882020
_cell_length_b 26.020465
_cell_length_c 5.418479
_cell_angle_alpha 90.000000
_cell_angle_beta 119.153401
_cell_angle_gamma 90.000000
_cell_volume 2448.080238
_symmetry_space_group_name_H-M "C 2/C"
_symmetry_group_IT_number 15
_symmetry_cell_setting 'monoclinic'
loop_
_space_group_symop_operation_xyz
x,y,z
-x,y,1/2-z
-x,-y,-z
x,-y,1/2+z
1/2+x,1/2+y,z
1/2-x,1/2+y,1/2-z
1/2-x,1/2-y,-z
1/2+x,1/2-y,1/2+z
loop_
_atom_site_type_symbol
_atom_site_label
_atom_site_fract_x
_atom_site_fract_y
_atom_site_fract_z
Si Si1 0.761391 0.528661 0.552440
Si Si2 0.880893 0.606005 0.904423
Si Si3 0.500000 0.032511 0.250000
Si Si4 0.500000 0.140618 0.750000
Si Si5 0.924399 0.143700 0.343845
Si Si6 0.420579 0.529143 0.263677
Si Si7 0.407732 0.683496 0.811486
Si Si8 0.581315 0.203527 0.265576
O O1 0.786648 0.504943 0.335183
O O2 0.801521 0.584506 0.647943
O O3 0.670435 0.536457 0.393122
O O4 0.953289 0.604816 0.848309
O O5 0.865718 0.663659 0.982353
O O6 0.920451 0.565519 0.161171
O O7 0.500000 0.000000 0.500000
O O8 0.433794 0.177090 0.521127
O O9 0.954650 0.085528 0.371467
O O10 0.877758 0.150644 0.519352
O O11 0.999473 0.179996 0.499466
O O12 0.874518 0.161235 0.012797
O O13 0.446890 0.490449 0.534207
O O14 0.378453 0.741705 0.711933
O O15 0.500000 0.212661 0.250000
#
# Coordination Sequence:
#
# PCOD8133128 Si02
#       8
#     8   8   4   4   8   8   8   8
#     4  10  23  40  59  78 107 148 195 234 274 327
#     4  11  22  34  52  79 107 145 189 230 281 332
#     4  12  23  32  46  70 106 136 168 225 286 328
#     4  10  19  32  52  78 110 142 180 229 276 332
#     4  10  19  34  58  84 116 144 184 221 272 334
#     4  10  21  40  61  83 109 149 191 228 270 324
#     4  10  20  34  55  88 113 148 175 219 281 336
#     4  10  19  33  53  78 112 146 185 219 272 340
#
# _framework density 22.875067999999999
#
# number of rings (size 3 to 8) (size 9 to 14) (size 15 to 20)
#    0.000    1.714    3.571    3.000    4.000    0.000 
#    0.000    8.571    0.000    1.714    0.000    0.000 
#    0.000    0.000    0.000    0.000    0.000    0.000 
#
# Total GULP energy -346919.021771 kJ/mol
# GULP energy per Si atom -12389.965063 kJ/mol
# Density = 2.282300 g / cm^3
# Si number density = 22.875068 Si / 1000 Ang^3
#
#
#
# Elastic Constant Matrix: (Units=GPa)
#
#
# Indices 1 2 3 4 5 6 
#
# 1 38.8332 26.7806 45.0675 0.0000 -12.1410 0.0000
# 2 26.7806 162.9485 64.1315 0.0000 -10.1911 0.0000
# 3 45.0675 64.1315 153.0105 0.0000 -35.8528 0.0000
# 4 0.0000 0.0000 0.0000 32.1867 0.0000 0.3373
# 5 -12.1410 -10.1911 -35.8528 0.0000 36.1582 0.0000
# 6 0.0000 0.0000 0.0000 0.3373 0.0000 8.9116
#
#
#
# Elastic Compliance Matrix: (Units=1/GPa)
#
#
# Indices 1 2 3 4 5 6 
#
# 1 0.040039 -0.002418 -0.010146 0.000000 0.002702 0.000000
# 2 -0.002418 0.007541 -0.002789 0.000000 -0.001452 0.000000
# 3 -0.010146 -0.002789 0.012649 0.000000 0.008350 0.000000
# 4 0.000000 0.000000 0.000000 0.031081 0.000000 -0.001176
# 5 0.002702 -0.001452 0.008350 0.000000 0.036433 0.000000
# 6 0.000000 0.000000 0.000000 -0.001176 0.000000 0.112258
#
#
# Mechanical properties :
#
#
# Convention : Reuss Voigt Hill
#
# Bulk Modulus (GPa) = 33.87203 69.63904 51.75553
# Shear Modulus (GPa) = 17.82224 30.03881 23.93052
#
# Velocity S-wave (km/s) = 2.79429 3.62770 3.23792
# Velocity P-wave (km/s) = 5.02496 6.93226 6.05419
#
# Compressibility (1/GPa) = 0.02952289
#
# Stress axis : x y z
#
# Youngs Moduli (GPa) = 24.97577 132.60771 79.05614
#
# Poissons Ratio (x) = 0.32066 0.80214
# Poissons Ratio (y) = 0.06039 0.22046
# Poissons Ratio (z) = 0.25341 0.36979
#
# Static dielectric constant tensor:
#      x y z
#    x 3.947980 0.000000 -0.652450 
#    y 0.000000 4.155660 0.000000 
#    z -0.652450 0.000000 4.973580 
# 
# 
# High freq. dielectric constant tensor:
#      x y z
#    x 1.855790 0.000000 -0.032410 
#    y 0.000000 1.909390 0.000000 
#    z -0.032410 0.000000 1.918640 
# 
# From -- ./inp_files/16191.got.cif
#   From: 2010.06.25/outbox.cif.g09.slc.cpg/sg15_9_cif.got.tgz:16191.got - 2010.06.28 07:06:18.
