data_PCOD8133818
_publ_section_title
;
Structure prediction by ZEFSAII (Michael W. Deem and Ramdas Pophale) SiO2 
 PCOD8133818
Probable space group: C 2/C
;
_chemical_formula_sum "Si O2"
_cell_formula_units_Z 60
_cell_length_a 8.321570
_cell_length_b 19.709288
_cell_length_c 19.576321
_cell_angle_alpha 90.000000
_cell_angle_beta 106.621393
_cell_angle_gamma 90.000000
_cell_volume 3076.597118
_symmetry_space_group_name_H-M "C 2/C"
_symmetry_group_IT_number 15
_symmetry_cell_setting 'monoclinic'
loop_
_space_group_symop_operation_xyz
x,y,z
-x,y,1/2-z
-x,-y,-z
x,-y,1/2+z
1/2+x,1/2+y,z
1/2-x,1/2+y,1/2-z
1/2-x,1/2-y,-z
1/2+x,1/2-y,1/2+z
loop_
_atom_site_type_symbol
_atom_site_label
_atom_site_fract_x
_atom_site_fract_y
_atom_site_fract_z
Si Si1 0.028717 0.589788 0.078144
Si Si2 0.500000 0.601927 0.750000
Si Si3 0.500206 0.301415 0.374949
Si Si4 0.611895 0.173912 0.324783
Si Si5 0.833661 0.999089 0.133608
Si Si6 0.259193 0.786158 0.929922
Si Si7 0.154610 0.091209 0.987778
Si Si8 0.463393 0.621528 0.377317
O O1 0.138738 0.521130 0.100528
O O2 0.129719 0.646041 0.047680
O O3 0.991817 0.615804 0.149544
O O4 0.853757 0.579020 0.018309
O O5 0.560359 0.649632 0.694661
O O6 0.646289 0.553119 0.799816
O O7 0.633429 0.242536 0.371283
O O8 0.330842 0.266055 0.382358
O O9 0.604650 0.338022 0.446848
O O10 0.500000 0.199293 0.250000
O O11 0.788318 0.143394 0.322599
O O12 0.950866 0.064705 0.159909
O O13 0.904501 0.967103 0.071474
O O14 0.073146 0.810225 0.887860
O O15 0.250000 0.750000 0.000000
O O16 0.063081 0.090926 0.049641
#
# Coordination Sequence:
#
# PCOD8133818 Si02
#       8
#     8   4   8   8   8   8   8   8
#     4   9  21  34  56  86 110 153 193 241 287 325
#     4  10  22  38  60  76 116 162 198 228 286 362
#     4  10  20  37  59  85 113 156 189 231 299 350
#     4  10  21  36  59  79 116 149 195 236 280 360
#     4  10  21  37  57  82 116 153 197 235 280 340
#     4  10  19  34  57  88 123 137 184 249 294 344
#     4  10  19  35  60  84 116 150 193 236 286 347
#     4  10  21  35  58  90 109 152 188 245 295 328
#
# _framework density 19.502065999999999
#
# number of rings (size 3 to 8) (size 9 to 14) (size 15 to 20)
#    0.000    2.133    2.000    0.800    3.733    1.600 
#    0.000    0.000    0.000    3.200    0.000    0.000 
#    0.000    0.000    0.000    0.000    0.000    0.000 
#
# Total GULP energy -371742.955813 kJ/mol
# GULP energy per Si atom -12391.431860 kJ/mol
# Density = 1.945768 g / cm^3
# Si number density = 19.502066 Si / 1000 Ang^3
#
#
#
# Elastic Constant Matrix: (Units=GPa)
#
#
# Indices 1 2 3 4 5 6 
#
# 1 97.0322 40.0048 23.8880 0.0000 8.5494 0.0000
# 2 40.0048 97.8186 33.5402 0.0000 3.6992 0.0000
# 3 23.8880 33.5402 70.4254 0.0000 5.7931 0.0000
# 4 0.0000 0.0000 0.0000 33.2999 0.0000 1.2400
# 5 8.5494 3.6992 5.7931 0.0000 20.1724 0.0000
# 6 0.0000 0.0000 0.0000 1.2400 0.0000 28.7770
#
#
#
# Elastic Compliance Matrix: (Units=1/GPa)
#
#
# Indices 1 2 3 4 5 6 
#
# 1 0.012999 -0.004499 -0.001927 0.000000 -0.004131 0.000000
# 2 -0.004499 0.013782 -0.005107 0.000000 0.000846 0.000000
# 3 -0.001927 -0.005107 0.017556 0.000000 -0.003289 0.000000
# 4 0.000000 0.000000 0.000000 0.030078 0.000000 -0.001296
# 5 -0.004131 0.000846 -0.003289 0.000000 0.052113 0.000000
# 6 0.000000 0.000000 0.000000 -0.001296 0.000000 0.034806
#
#
# Mechanical properties :
#
#
# Convention : Reuss Voigt Hill
#
# Bulk Modulus (GPa) = 47.01314 51.12690 49.07002
# Shear Modulus (GPa) = 26.11087 27.63940 26.87513
#
# Velocity S-wave (km/s) = 3.66304 3.76873 3.71626
# Velocity P-wave (km/s) = 6.48456 6.72390 6.60531
#
# Compressibility (1/GPa) = 0.02127065
#
# Stress axis : x y z
#
# Youngs Moduli (GPa) = 76.92804 72.55661 56.96124
#
# Poissons Ratio (x) = 0.32646 0.10974
# Poissons Ratio (y) = 0.34613 0.29092
# Poissons Ratio (z) = 0.14821 0.37057
#
# Static dielectric constant tensor:
#      x y z
#    x 3.567920 0.000000 -0.049180 
#    y 0.000000 3.692920 0.000000 
#    z -0.049180 0.000000 3.528610 
# 
# 
# High freq. dielectric constant tensor:
#      x y z
#    x 1.746380 0.000000 -0.003940 
#    y 0.000000 1.770120 0.000000 
#    z -0.003940 0.000000 1.752750 
# 
# From -- ./inp_files/233555.got.cif
#   From: 2010.06.25/outbox.cif.g09.slc.cpg/sg15_117_cif.got.tgz:233555.got - 2010.06.28 07:06:18.
