data_PCOD8133205
_publ_section_title
;
Structure prediction by ZEFSAII (Michael W. Deem and Ramdas Pophale) SiO2 
 PCOD8133205
Probable space group: C 2/C
;
_chemical_formula_sum "Si O2"
_cell_formula_units_Z 60
_cell_length_a 13.209895
_cell_length_b 11.574611
_cell_length_c 24.134380
_cell_angle_alpha 90.000000
_cell_angle_beta 129.079021
_cell_angle_gamma 90.000000
_cell_volume 2864.565723
_symmetry_space_group_name_H-M "C 2/C"
_symmetry_group_IT_number 15
_symmetry_cell_setting 'monoclinic'
loop_
_space_group_symop_operation_xyz
x,y,z
-x,y,1/2-z
-x,-y,-z
x,-y,1/2+z
1/2+x,1/2+y,z
1/2-x,1/2+y,1/2-z
1/2-x,1/2-y,-z
1/2+x,1/2-y,1/2+z
loop_
_atom_site_type_symbol
_atom_site_label
_atom_site_fract_x
_atom_site_fract_y
_atom_site_fract_z
Si Si1 0.788829 0.914396 0.341209
Si Si2 0.727049 0.618907 0.787552
Si Si3 0.000000 0.479816 0.250000
Si Si4 0.892316 0.305377 0.919756
Si Si5 0.638358 0.603358 0.284173
Si Si6 0.491472 0.021336 0.368985
Si Si7 0.860674 0.160911 0.341214
Si Si8 0.893118 0.696406 0.544920
O O1 0.631913 0.901581 0.296613
O O2 0.836612 0.045723 0.368625
O O3 0.822332 0.865990 0.291984
O O4 0.879950 0.833800 0.410800
O O5 0.627868 0.537329 0.787443
O O6 0.858857 0.544976 0.833441
O O7 0.755952 0.742525 0.825830
O O8 0.001339 0.557304 0.307040
O O9 0.743909 0.347698 0.862496
O O10 0.991110 0.365864 0.909323
O O11 0.938745 0.331697 0.997850
O O12 0.500000 0.659980 0.250000
O O13 0.677630 0.633902 0.235099
O O14 0.604667 0.927389 0.422452
O O15 0.007446 0.208713 0.395678
O O16 0.750000 0.750000 0.500000
#
# Coordination Sequence:
#
# PCOD8133205 Si02
#       8
#     8   8   4   8   8   8   8   8
#     4  10  20  33  57  83 115 157 191 239 298 352
#     4   8  17  34  52  76 111 145 185 236 297 342
#     4  10  20  36  60  90 114 148 206 248 284 354
#     4  11  21  35  59  85 122 158 197 243 308 356
#     4  10  19  32  56  83 108 147 195 248 288 346
#     4   9  20  37  57  86 114 154 195 249 299 347
#     4  10  20  38  54  79 122 149 191 244 302 357
#     4  11  22  37  60  88 117 156 205 251 296 357
#
# _framework density 20.945582999999999
#
# number of rings (size 3 to 8) (size 9 to 14) (size 15 to 20)
#    0.000    2.133    1.333    2.800    0.933    0.533 
#    1.200    0.000    0.000    1.600    0.000    0.000 
#    0.000    0.000    0.000    0.000    0.000    0.000 
#
# Total GULP energy -371669.228596 kJ/mol
# GULP energy per Si atom -12388.974287 kJ/mol
# Density = 2.089791 g / cm^3
# Si number density = 20.945583 Si / 1000 Ang^3
#
#
#
# Elastic Constant Matrix: (Units=GPa)
#
#
# Indices 1 2 3 4 5 6 
#
# 1 42.6002 28.2292 5.6748 0.0000 -2.4798 0.0000
# 2 28.2292 136.3322 30.8795 0.0000 -0.1842 0.0000
# 3 5.6748 30.8795 67.7481 0.0000 -8.6641 0.0000
# 4 0.0000 0.0000 0.0000 18.6461 0.0000 2.2133
# 5 -2.4798 -0.1842 -8.6641 0.0000 37.9624 0.0000
# 6 0.0000 0.0000 0.0000 2.2133 0.0000 21.5140
#
#
#
# Elastic Compliance Matrix: (Units=1/GPa)
#
#
# Indices 1 2 3 4 5 6 
#
# 1 0.027345 -0.005794 0.000592 0.000000 0.001893 0.000000
# 2 -0.005794 0.009433 -0.003973 0.000000 -0.001239 0.000000
# 3 0.000592 -0.003973 0.017021 0.000000 0.003904 0.000000
# 4 0.000000 0.000000 0.000000 0.054293 0.000000 -0.005586
# 5 0.001893 -0.001239 0.003904 0.000000 0.027351 0.000000
# 6 0.000000 0.000000 0.000000 -0.005586 0.000000 0.047056
#
#
# Mechanical properties :
#
#
# Convention : Reuss Voigt Hill
#
# Bulk Modulus (GPa) = 28.20831 41.80527 35.00679
# Shear Modulus (GPa) = 23.51137 27.75096 25.63117
#
# Velocity S-wave (km/s) = 3.35400 3.64388 3.50194
# Velocity P-wave (km/s) = 5.33815 6.14053 5.75334
#
# Compressibility (1/GPa) = 0.03545054
#
# Stress axis : x y z
#
# Youngs Moduli (GPa) = 36.57033 106.01294 58.75107
#
# Poissons Ratio (x) = 0.61420 -0.03480
# Poissons Ratio (y) = 0.21188 0.23340
# Poissons Ratio (z) = -0.02166 0.42115
#
# Static dielectric constant tensor:
#      x y z
#    x 3.627950 0.000000 -0.030610 
#    y 0.000000 4.211760 0.000000 
#    z -0.030610 0.000000 3.758680 
# 
# 
# High freq. dielectric constant tensor:
#      x y z
#    x 1.788240 0.000000 -0.001070 
#    y 0.000000 1.822020 0.000000 
#    z -0.001070 0.000000 1.808620 
# 
# From -- ./inp_files/273648.got.cif
#   From: 2010.06.25/outbox.cif.g09.slc.cpg/sg15_137_cif.got.tgz:273648.got - 2010.06.28 07:06:18.
