data_PCOD8133178
_publ_section_title
;
Structure prediction by ZEFSAII (Michael W. Deem and Ramdas Pophale) SiO2 
 PCOD8133178
Probable space group: C 2/C
;
_chemical_formula_sum "Si O2"
_cell_formula_units_Z 48
_cell_length_a 14.162540
_cell_length_b 38.237165
_cell_length_c 5.076105
_cell_angle_alpha 90.000000
_cell_angle_beta 111.746201
_cell_angle_gamma 90.000000
_cell_volume 2553.263238
_symmetry_space_group_name_H-M "C 2/C"
_symmetry_group_IT_number 15
_symmetry_cell_setting 'monoclinic'
loop_
_space_group_symop_operation_xyz
x,y,z
-x,y,1/2-z
-x,-y,-z
x,-y,1/2+z
1/2+x,1/2+y,z
1/2-x,1/2+y,1/2-z
1/2-x,1/2-y,-z
1/2+x,1/2-y,1/2+z
loop_
_atom_site_type_symbol
_atom_site_label
_atom_site_fract_x
_atom_site_fract_y
_atom_site_fract_z
Si Si1 0.500000 0.262079 0.750000
Si Si2 0.000000 0.873499 0.750000
Si Si3 0.832996 0.815559 0.551543
Si Si4 0.000000 0.719861 0.250000
Si Si5 0.895392 0.477555 0.707246
Si Si6 0.000000 0.921490 0.250000
Si Si7 0.277210 0.208634 0.047065
Si Si8 0.677148 0.476088 0.378560
O O1 0.407773 0.284529 0.543384
O O2 0.541428 0.240796 0.544857
O O3 0.102977 0.851211 0.889439
O O4 0.015503 0.897461 0.515743
O O5 0.745866 0.813334 0.241438
O O6 0.787329 0.809602 0.791396
O O7 0.103308 0.700270 0.267486
O O8 0.897284 0.511587 0.515307
O O9 0.789332 0.458187 0.529639
O O10 0.000000 0.455799 0.750000
O O11 0.098514 0.945219 0.324392
O O12 0.250000 0.250000 0.000000
O O13 0.661914 0.506419 0.578481
#
# Coordination Sequence:
#
# PCOD8133178 Si02
#       8
#     4   4   8   4   8   4   8   8
#     4  11  18  32  50  77 108 140 166 213 264 347
#     4  11  26  41  60  80 104 159 206 234 262 336
#     4  11  22  38  55  75 111 145 185 225 280 321
#     4  12  22  29  52  84 112 127 178 207 284 351
#     4   8  14  25  43  72 108 142 174 208 265 334
#     4  12  22  38  56  85 114 150 202 234 278 350
#     4  12  21  35  55  85 111 144 166 229 286 349
#     4  10  19  32  54  85 121 151 177 236 302 337
#
# _framework density 18.799469999999999
#
# number of rings (size 3 to 8) (size 9 to 14) (size 15 to 20)
#    0.000    1.333    3.333    4.000    0.000    2.667 
#    0.000    0.000    0.000    0.000   13.000    0.000 
#    0.000    0.000    0.000    0.000    0.000    0.000 
#
# Total GULP energy -297402.356629 kJ/mol
# GULP energy per Si atom -12391.764860 kJ/mol
# Density = 1.875668 g / cm^3
# Si number density = 18.799470 Si / 1000 Ang^3
#
#
#
# Elastic Constant Matrix: (Units=GPa)
#
#
# Indices 1 2 3 4 5 6 
#
# 1 115.9249 36.7992 23.8866 0.0000 21.9736 0.0000
# 2 36.7992 58.5538 25.2991 0.0000 10.4475 0.0000
# 3 23.8866 25.2991 92.3752 0.0000 -0.2462 0.0000
# 4 0.0000 0.0000 0.0000 19.8473 0.0000 -11.8412
# 5 21.9736 10.4475 -0.2462 0.0000 47.8667 0.0000
# 6 0.0000 0.0000 0.0000 -11.8412 0.0000 -52.9702
#
#
#
# Elastic Compliance Matrix: (Units=1/GPa)
#
#
# Indices 1 2 3 4 5 6 
#
# 1 0.011560 -0.005958 -0.001368 0.000000 -0.004013 0.000000
# 2 -0.005958 0.023348 -0.004860 0.000000 -0.002386 0.000000
# 3 -0.001368 -0.004860 0.012515 0.000000 0.001753 0.000000
# 4 0.000000 0.000000 0.000000 0.044456 0.000000 -0.009938
# 5 -0.004013 -0.002386 0.001753 0.000000 0.023264 0.000000
# 6 0.000000 0.000000 0.000000 -0.009938 0.000000 -0.016657
#
#
# Mechanical properties :
#
#
# Convention : Reuss Voigt Hill
#
# Bulk Modulus (GPa) = 43.38258 48.75819 46.07038
# Shear Modulus (GPa) = 38.30179 15.00670 26.65424
#
# Velocity S-wave (km/s) = 4.51864 2.82840 3.76948
# Velocity P-wave (km/s) = 7.09582 6.05464 6.59581
#
# Compressibility (1/GPa) = 0.02305073
#
# Stress axis : x y z
#
# Youngs Moduli (GPa) = 86.50324 42.82954 79.90430
#
# Poissons Ratio (x) = 0.25518 0.10933
# Poissons Ratio (y) = 0.51538 0.38835
# Poissons Ratio (z) = 0.11836 0.20816
#
# Static dielectric constant tensor:
#      x y z
#    x 4.182750 0.000000 0.343150 
#    y 0.000000 2.950470 0.000000 
#    z 0.343150 0.000000 3.794740 
# 
# 
# High freq. dielectric constant tensor:
#      x y z
#    x 1.761200 0.000000 -0.001180 
#    y 0.000000 1.654940 0.000000 
#    z -0.001180 0.000000 1.756340 
# 
# From -- ./inp_files/9204.got.cif
#   From: 2010.06.25/outbox.cif.g09.slc.cpg/sg15_5_cif.got.tgz:9204.got - 2010.06.28 07:06:18.
