data_PCOD8133470
_publ_section_title
;
Structure prediction by ZEFSAII (Michael W. Deem and Ramdas Pophale) SiO2 
 PCOD8133470
Probable space group: C 2/C
;
_chemical_formula_sum "Si O2"
_cell_formula_units_Z 64
_cell_length_a 22.817550
_cell_length_b 20.815035
_cell_length_c 8.890242
_cell_angle_alpha 90.000000
_cell_angle_beta 124.011258
_cell_angle_gamma 90.000000
_cell_volume 3500.067195
_symmetry_space_group_name_H-M "C 2/C"
_symmetry_group_IT_number 15
_symmetry_cell_setting 'monoclinic'
loop_
_space_group_symop_operation_xyz
x,y,z
-x,y,1/2-z
-x,-y,-z
x,-y,1/2+z
1/2+x,1/2+y,z
1/2-x,1/2+y,1/2-z
1/2-x,1/2-y,-z
1/2+x,1/2-y,1/2+z
loop_
_atom_site_type_symbol
_atom_site_label
_atom_site_fract_x
_atom_site_fract_y
_atom_site_fract_z
Si Si1 0.859400 0.251792 0.712542
Si Si2 0.269163 0.167878 0.882708
Si Si3 0.784611 0.680332 0.561373
Si Si4 0.950582 0.861036 0.798234
Si Si5 0.812972 0.941911 0.079921
Si Si6 0.445893 0.365034 0.295071
Si Si7 0.578519 0.774044 0.386276
Si Si8 0.687183 0.576163 0.276580
O O1 0.789522 0.223326 0.691059
O O2 0.840403 0.307290 0.566515
O O3 0.899579 0.196284 0.674724
O O4 0.906576 0.279174 0.914776
O O5 0.283842 0.153565 0.729607
O O6 0.246124 0.103188 0.932142
O O7 0.750000 0.750000 0.500000
O O8 0.865625 0.682461 0.623515
O O9 0.742141 0.632154 0.392591
O O10 0.916095 0.799188 0.667679
O O11 0.891708 0.905297 0.786492
O O12 0.000000 0.900166 0.750000
O O13 0.007959 0.838537 0.001883
O O14 0.890844 0.922256 0.254815
O O15 0.792784 0.013117 0.101418
O O16 0.811640 0.936800 0.898481
O O17 0.500000 0.391190 0.250000
O O18 0.500000 0.802220 0.250000
#
# Coordination Sequence:
#
# PCOD8133470 Si02
#       8
#     8   8   8   8   8   8   8   8
#     4  10  19  33  56  81 120 153 201 252 302 351
#     4  10  22  36  58  86 116 154 203 257 305 350
#     4  12  23  37  62  90 119 155 206 255 312 361
#     4  11  22  36  56  84 125 167 205 250 294 356
#     4  11  26  41  60  84 120 167 212 253 303 363
#     4  11  22  36  54  86 125 166 208 246 298 361
#     4  11  21  36  56  90 122 160 194 251 313 362
#     4  12  25  42  61  85 121 166 214 253 303 366
#
# _framework density 18.285363
#
# number of rings (size 3 to 8) (size 9 to 14) (size 15 to 20)
#    0.000    1.000    6.250    1.500    8.750    1.000 
#    0.000    0.000    0.000    0.000    0.000    8.750 
#    0.000    0.000    0.000    0.000    0.000    0.000 
#
# Total GULP energy -396770.496949 kJ/mol
# GULP energy per Si atom -12399.078030 kJ/mol
# Density = 1.824374 g / cm^3
# Si number density = 18.285363 Si / 1000 Ang^3
#
#
#
# Elastic Constant Matrix: (Units=GPa)
#
#
# Indices 1 2 3 4 5 6 
#
# 1 99.0587 40.9948 28.6233 0.0000 -0.7995 0.0000
# 2 40.9948 88.7175 35.4675 0.0000 6.5643 0.0000
# 3 28.6233 35.4675 110.9206 0.0000 -0.7647 0.0000
# 4 0.0000 0.0000 0.0000 20.8215 0.0000 -8.5079
# 5 -0.7995 6.5643 -0.7647 0.0000 33.8869 0.0000
# 6 0.0000 0.0000 0.0000 -8.5079 0.0000 19.8063
#
#
#
# Elastic Compliance Matrix: (Units=1/GPa)
#
#
# Indices 1 2 3 4 5 6 
#
# 1 0.012784 -0.005376 -0.001571 0.000000 0.001308 0.000000
# 2 -0.005376 0.015417 -0.003564 0.000000 -0.003194 0.000000
# 3 -0.001571 -0.003564 0.010567 0.000000 0.000892 0.000000
# 4 0.000000 0.000000 0.000000 0.058252 0.000000 0.025022
# 5 0.001308 -0.003194 0.000892 0.000000 0.030180 0.000000
# 6 0.000000 0.000000 0.000000 0.025022 0.000000 0.061237
#
#
# Mechanical properties :
#
#
# Convention : Reuss Voigt Hill
#
# Bulk Modulus (GPa) = 56.35303 56.54087 56.44695
# Shear Modulus (GPa) = 23.21531 27.81035 25.51283
#
# Velocity S-wave (km/s) = 3.56703 3.90411 3.73937
# Velocity P-wave (km/s) = 6.91740 7.16319 7.04137
#
# Compressibility (1/GPa) = 0.01774527
#
# Stress axis : x y z
#
# Youngs Moduli (GPa) = 78.22028 64.86237 94.63648
#
# Poissons Ratio (x) = 0.34871 0.14867
# Poissons Ratio (y) = 0.42052 0.33733
# Poissons Ratio (z) = 0.12288 0.23120
#
# Static dielectric constant tensor:
#      x y z
#    x 3.574510 0.000000 -0.086740 
#    y 0.000000 3.095780 0.000000 
#    z -0.086740 0.000000 3.628530 
# 
# 
# High freq. dielectric constant tensor:
#      x y z
#    x 1.710390 0.000000 -0.008540 
#    y 0.000000 1.672510 0.000000 
#    z -0.008540 0.000000 1.722840 
# 
# From -- ./inp_files/63440.got.cif
#   From: 2010.06.25/outbox.cif.g09.slc.cpg/sg15_32_cif.got.tgz:63440.got - 2010.06.28 07:06:18.
