data_PCOD8133280
_publ_section_title
;
Structure prediction by ZEFSAII (Michael W. Deem and Ramdas Pophale) SiO2 
 PCOD8133280
Probable space group: C 2/C
;
_chemical_formula_sum "Si O2"
_cell_formula_units_Z 56
_cell_length_a 9.156462
_cell_length_b 32.711647
_cell_length_c 13.265019
_cell_angle_alpha 90.000000
_cell_angle_beta 133.764543
_cell_angle_gamma 90.000000
_cell_volume 2869.382883
_symmetry_space_group_name_H-M "C 2/C"
_symmetry_group_IT_number 15
_symmetry_cell_setting 'monoclinic'
loop_
_space_group_symop_operation_xyz
x,y,z
-x,y,1/2-z
-x,-y,-z
x,-y,1/2+z
1/2+x,1/2+y,z
1/2-x,1/2+y,1/2-z
1/2-x,1/2-y,-z
1/2+x,1/2-y,1/2+z
loop_
_atom_site_type_symbol
_atom_site_label
_atom_site_fract_x
_atom_site_fract_y
_atom_site_fract_z
Si Si1 0.823703 0.871434 0.895244
Si Si2 0.246114 0.996849 0.998062
Si Si3 0.482153 0.293373 0.579760
Si Si4 0.331789 0.781412 0.897204
Si Si5 0.828699 0.960124 0.836406
Si Si6 0.502018 0.943153 0.509399
Si Si7 0.962765 0.641053 0.068007
O O1 0.999991 0.839035 0.955658
O O2 0.905039 0.917681 0.924469
O O3 0.746449 0.861930 0.971022
O O4 0.646749 0.866082 0.730825
O O5 0.405275 0.959857 0.051204
O O6 0.269622 0.011463 0.124366
O O7 0.295481 0.033253 0.941659
O O8 0.017480 0.981599 0.872051
O O9 0.434001 0.262394 0.465601
O O10 0.690186 0.278406 0.731263
O O11 0.298767 0.295311 0.569775
O O12 0.511062 0.814581 0.969899
O O13 0.658859 0.952784 0.673517
O O14 0.463399 0.894585 0.483255
#
# Coordination Sequence:
#
# PCOD8133280 Si02
#       7
#     8   8   8   8   8   8   8
#     4   9  17  30  50  75  99 125 163 212 259 298
#     4  10  20  30  50  76  96 134 170 204 266 312
#     4   9  18  32  52  78 103 131 167 209 255 309
#     4   9  18  32  52  78 103 131 167 209 255 309
#     4  10  19  33  50  74 104 132 170 220 258 301
#     4  10  19  33  50  74 104 132 170 220 258 301
#     4   9  17  30  50  75  99 125 163 212 259 298
#
# _framework density 19.516390999999999
#
# number of rings (size 3 to 8) (size 9 to 14) (size 15 to 20)
#    0.000    2.571    1.429    0.857    2.000    0.571 
#    0.000    0.000    0.000   10.286    0.000    0.000 
#    0.000    0.000    0.000    0.000    0.000    0.000 
#
# Total GULP energy -347091.584407 kJ/mol
# GULP energy per Si atom -12396.128015 kJ/mol
# Density = 1.947197 g / cm^3
# Si number density = 19.516391 Si / 1000 Ang^3
#
#
#
# Elastic Constant Matrix: (Units=GPa)
#
#
# Indices 1 2 3 4 5 6 
#
# 1 107.2531 55.5704 18.5649 0.0000 -0.8679 0.0000
# 2 55.5704 129.1563 32.0448 0.0000 -4.4089 0.0000
# 3 18.5649 32.0448 28.6017 0.0000 -5.1918 0.0000
# 4 0.0000 0.0000 0.0000 27.3497 0.0000 -1.5269
# 5 -0.8679 -4.4089 -5.1918 0.0000 15.7375 0.0000
# 6 0.0000 0.0000 0.0000 -1.5269 0.0000 34.0998
#
#
#
# Elastic Compliance Matrix: (Units=1/GPa)
#
#
# Indices 1 2 3 4 5 6 
#
# 1 0.012199 -0.004524 -0.003146 0.000000 -0.001633 0.000000
# 2 -0.004524 0.012416 -0.011050 0.000000 -0.000417 0.000000
# 3 -0.003146 -0.011050 0.051900 0.000000 0.013853 0.000000
# 4 0.000000 0.000000 0.000000 0.036655 0.000000 0.001641
# 5 -0.001633 -0.000417 0.013853 0.000000 0.067906 0.000000
# 6 0.000000 0.000000 0.000000 0.001641 0.000000 0.029399
#
#
# Mechanical properties :
#
#
# Convention : Reuss Voigt Hill
#
# Bulk Modulus (GPa) = 25.59181 53.04125 39.31653
# Shear Modulus (GPa) = 19.16139 26.02614 22.59376
#
# Velocity S-wave (km/s) = 3.13678 3.65575 3.40616
# Velocity P-wave (km/s) = 5.12452 6.71238 5.97146
#
# Compressibility (1/GPa) = 0.03907499
#
# Stress axis : x y z
#
# Youngs Moduli (GPa) = 81.97369 80.53834 19.26776
#
# Poissons Ratio (x) = 0.36435 0.06062
# Poissons Ratio (y) = 0.37084 0.21292
# Poissons Ratio (z) = 0.25790 0.88998
#
# Static dielectric constant tensor:
#      x y z
#    x 3.744220 0.000000 -0.055570 
#    y 0.000000 3.904330 0.000000 
#    z -0.055570 0.000000 3.108310 
# 
# 
# High freq. dielectric constant tensor:
#      x y z
#    x 1.768480 0.000000 -0.005640 
#    y 0.000000 1.765460 0.000000 
#    z -0.005640 0.000000 1.705780 
# 
# From -- ./inp_files/139307.got.cif
#   From: 2010.06.25/outbox.cif.g09.slc.cpg/sg15_70_cif.got.tgz:139307.got - 2010.06.28 07:06:18.
