data_PCOD8133683
_publ_section_title
;
Structure prediction by ZEFSAII (Michael W. Deem and Ramdas Pophale) SiO2 
 PCOD8133683
Probable space group: C 2/C
;
_chemical_formula_sum "Si O2"
_cell_formula_units_Z 60
_cell_length_a 11.138445
_cell_length_b 25.671622
_cell_length_c 11.841863
_cell_angle_alpha 90.000000
_cell_angle_beta 117.635700
_cell_angle_gamma 90.000000
_cell_volume 2999.782947
_symmetry_space_group_name_H-M "C 2/C"
_symmetry_group_IT_number 15
_symmetry_cell_setting 'monoclinic'
loop_
_space_group_symop_operation_xyz
x,y,z
-x,y,1/2-z
-x,-y,-z
x,-y,1/2+z
1/2+x,1/2+y,z
1/2-x,1/2+y,1/2-z
1/2-x,1/2-y,-z
1/2+x,1/2-y,1/2+z
loop_
_atom_site_type_symbol
_atom_site_label
_atom_site_fract_x
_atom_site_fract_y
_atom_site_fract_z
Si Si1 0.571669 0.280329 0.984976
Si Si2 0.850374 0.854997 0.301103
Si Si3 0.867527 0.006763 0.020761
Si Si4 0.171344 0.155354 0.177815
Si Si5 0.860483 0.108569 0.559717
Si Si6 0.647983 0.915436 0.355539
Si Si7 0.812287 0.671712 0.456507
Si Si8 0.000000 0.078418 0.250000
O O1 0.416693 0.292829 0.886045
O O2 0.664098 0.313188 0.938498
O O3 0.615727 0.297611 0.132060
O O4 0.584011 0.218515 0.972982
O O5 0.832056 0.856336 0.158097
O O6 0.711764 0.876253 0.292283
O O7 0.977559 0.890871 0.394758
O O8 0.892775 0.042747 0.139203
O O9 0.818528 0.951625 0.051275
O O10 0.739782 0.032680 0.901188
O O11 0.000000 0.000000 0.000000
O O12 0.298122 0.166420 0.314668
O O13 0.076978 0.111530 0.190739
O O14 0.223662 0.133813 0.080214
O O15 0.500000 0.932910 0.250000
O O16 0.636811 0.882612 0.467847
#
# Coordination Sequence:
#
# PCOD8133683 Si02
#       8
#     8   8   8   8   8   8   8   4
#     4   9  18  30  55  82 113 149 195 250 310 354
#     4   9  18  37  55  88 118 153 202 259 304 358
#     4  12  21  34  60  93 116 160 207 251 309 357
#     4  11  18  33  54  86 119 145 197 260 296 347
#     4  10  20  33  61  86 118 154 205 262 297 346
#     4  11  23  39  57  86 128 158 199 255 311 371
#     4  10  19  34  54  83 114 153 193 246 310 357
#     4  12  18  32  56  88 122 138 198 268 290 340
#
# _framework density 20.001446000000001
#
# number of rings (size 3 to 8) (size 9 to 14) (size 15 to 20)
#    0.000    1.600    5.333    1.600    0.000    3.200 
#    0.000    1.333    0.000    3.200    0.000    0.000 
#    0.000    0.000    0.000    0.000    0.000    0.000 
#
# Total GULP energy -371888.955582 kJ/mol
# GULP energy per Si atom -12396.298519 kJ/mol
# Density = 1.995592 g / cm^3
# Si number density = 20.001446 Si / 1000 Ang^3
#
#
#
# Elastic Constant Matrix: (Units=GPa)
#
#
# Indices 1 2 3 4 5 6 
#
# 1 51.5827 16.7944 29.1077 0.0000 10.2001 0.0000
# 2 16.7944 77.5596 23.3168 0.0000 4.3249 0.0000
# 3 29.1077 23.3168 129.1210 0.0000 -5.4952 0.0000
# 4 0.0000 0.0000 0.0000 24.5098 0.0000 -2.1276
# 5 10.2001 4.3249 -5.4952 0.0000 31.1351 0.0000
# 6 0.0000 0.0000 0.0000 -2.1276 0.0000 10.0982
#
#
#
# Elastic Compliance Matrix: (Units=1/GPa)
#
#
# Indices 1 2 3 4 5 6 
#
# 1 0.025302 -0.003343 -0.005474 0.000000 -0.008791 0.000000
# 2 -0.003343 0.014247 -0.001871 0.000000 -0.001214 0.000000
# 3 -0.005474 -0.001871 0.009475 0.000000 0.003726 0.000000
# 4 0.000000 0.000000 0.000000 0.041560 0.000000 0.008757
# 5 -0.008791 -0.001214 0.003726 0.000000 0.035824 0.000000
# 6 0.000000 0.000000 0.000000 0.008757 0.000000 0.100873
#
#
# Mechanical properties :
#
#
# Convention : Reuss Voigt Hill
#
# Bulk Modulus (GPa) = 36.16833 44.07790 40.12311
# Shear Modulus (GPa) = 19.38931 25.75158 22.57044
#
# Velocity S-wave (km/s) = 3.11689 3.59205 3.36287
# Velocity P-wave (km/s) = 5.57454 6.26809 5.93146
#
# Compressibility (1/GPa) = 0.02764850
#
# Stress axis : x y z
#
# Youngs Moduli (GPa) = 39.52222 70.18867 105.53908
#
# Poissons Ratio (x) = 0.23463 0.57776
# Poissons Ratio (y) = 0.13212 0.19745
# Poissons Ratio (z) = 0.21636 0.13131
#
# Static dielectric constant tensor:
#      x y z
#    x 3.195520 0.000000 -0.115470 
#    y 0.000000 3.578180 0.000000 
#    z -0.115470 0.000000 3.756040 
# 
# 
# High freq. dielectric constant tensor:
#      x y z
#    x 1.726570 0.000000 -0.007840 
#    y 0.000000 1.773800 0.000000 
#    z -0.007840 0.000000 1.790340 
# 
# From -- ./inp_files/90871.got.cif
#   From: 2010.06.25/outbox.cif.g09.slc.cpg/sg15_46_cif.got.tgz:90871.got - 2010.06.28 07:06:18.
