data_PCOD8133216
_publ_section_title
;
Structure prediction by ZEFSAII (Michael W. Deem and Ramdas Pophale) SiO2 
 PCOD8133216
Probable space group: C 2/C
;
_chemical_formula_sum "Si O2"
_cell_formula_units_Z 44
_cell_length_a 12.065539
_cell_length_b 15.003091
_cell_length_c 13.151584
_cell_angle_alpha 90.000000
_cell_angle_beta 114.737340
_cell_angle_gamma 90.000000
_cell_volume 2162.240925
_symmetry_space_group_name_H-M "C 2/C"
_symmetry_group_IT_number 15
_symmetry_cell_setting 'monoclinic'
loop_
_space_group_symop_operation_xyz
x,y,z
-x,y,1/2-z
-x,-y,-z
x,-y,1/2+z
1/2+x,1/2+y,z
1/2-x,1/2+y,1/2-z
1/2-x,1/2-y,-z
1/2+x,1/2-y,1/2+z
loop_
_atom_site_type_symbol
_atom_site_label
_atom_site_fract_x
_atom_site_fract_y
_atom_site_fract_z
Si Si1 0.584869 0.008427 0.688439
Si Si2 0.124232 0.257944 0.851056
Si Si3 0.898308 0.398600 0.497632
Si Si4 0.500000 0.569187 0.250000
Si Si5 0.642718 0.434540 0.438053
Si Si6 0.806833 0.111872 0.328044
O O1 0.500000 0.033375 0.750000
O O2 0.523222 0.933018 0.594396
O O3 0.716358 0.971490 0.772081
O O4 0.596410 0.098158 0.623540
O O5 0.130865 0.152245 0.860885
O O6 0.232332 0.297835 0.822476
O O7 0.000000 0.289221 0.750000
O O8 0.130650 0.300012 0.968196
O O9 0.785617 0.462884 0.488619
O O10 0.556337 0.510163 0.361515
O O11 0.395529 0.628145 0.264954
O O12 0.609313 0.414129 0.542370
#
# Coordination Sequence:
#
# PCOD8133216 Si02
#       6
#     8   8   8   4   8   8
#     4  11  18  32  58  87 116 143 195 248 303 346
#     4  11  20  39  65  86 116 156 209 246 292 361
#     4  10  19  32  56  87 112 148 189 248 298 343
#     4  12  24  38  60  90 124 156 198 254 298 354
#     4  11  22  38  62  86 118 160 204 245 295 362
#     4  11  21  38  58  89 121 156 198 250 299 352
#
# _framework density 20.349257999999999
#
# number of rings (size 3 to 8) (size 9 to 14) (size 15 to 20)
#    0.000    1.091    8.182    2.727    0.000    0.000 
#    0.000    0.000    8.000    1.091    0.000    0.000 
#    0.000    0.000    0.000    0.000    0.000    0.000 
#
# Total GULP energy -272673.749747 kJ/mol
# GULP energy per Si atom -12394.261352 kJ/mol
# Density = 2.030294 g / cm^3
# Si number density = 20.349258 Si / 1000 Ang^3
#
#
#
# Elastic Constant Matrix: (Units=GPa)
#
#
# Indices 1 2 3 4 5 6 
#
# 1 125.3460 27.4501 42.1630 0.0000 -27.2947 0.0000
# 2 27.4501 59.3218 19.6864 0.0000 -13.0768 0.0000
# 3 42.1630 19.6864 91.0522 0.0000 -15.8832 0.0000
# 4 0.0000 0.0000 0.0000 24.9059 0.0000 -0.4750
# 5 -27.2947 -13.0768 -15.8832 0.0000 46.4921 0.0000
# 6 0.0000 0.0000 0.0000 -0.4750 0.0000 14.0096
#
#
#
# Elastic Compliance Matrix: (Units=1/GPa)
#
#
# Indices 1 2 3 4 5 6 
#
# 1 0.010746 -0.002829 -0.003618 0.000000 0.004277 0.000000
# 2 -0.002829 0.019634 -0.002405 0.000000 0.003040 0.000000
# 3 -0.003618 -0.002405 0.013494 0.000000 0.001809 0.000000
# 4 0.000000 0.000000 0.000000 0.040177 0.000000 0.001362
# 5 0.004277 0.003040 0.001809 0.000000 0.025493 0.000000
# 6 0.000000 0.000000 0.000000 0.001362 0.000000 0.071426
#
#
# Mechanical properties :
#
#
# Convention : Reuss Voigt Hill
#
# Bulk Modulus (GPa) = 38.21180 50.47990 44.34585
# Shear Modulus (GPa) = 24.10826 29.50955 26.80891
#
# Velocity S-wave (km/s) = 3.44572 3.81222 3.63359
# Velocity P-wave (km/s) = 5.88637 6.65116 6.28042
#
# Compressibility (1/GPa) = 0.02616992
#
# Stress axis : x y z
#
# Youngs Moduli (GPa) = 93.05919 50.93084 74.10819
#
# Poissons Ratio (x) = 0.14408 0.26815
# Poissons Ratio (y) = 0.26325 0.17822
# Poissons Ratio (z) = 0.33672 0.12248
#
# Static dielectric constant tensor:
#      x y z
#    x 3.818500 0.000000 0.077500 
#    y 0.000000 3.206560 0.000000 
#    z 0.077500 0.000000 4.036560 
# 
# 
# High freq. dielectric constant tensor:
#      x y z
#    x 1.798080 0.000000 0.012050 
#    y 0.000000 1.743880 0.000000 
#    z 0.012050 0.000000 1.813230 
# 
# From -- ./inp_files/87532.got.cif
#   From: 2010.06.25/outbox.cif.g09.slc.cpg/sg15_44_cif.got.tgz:87532.got - 2010.06.28 07:06:18.
