data_PCOD8133430
_publ_section_title
;
Structure prediction by ZEFSAII (Michael W. Deem and Ramdas Pophale) SiO2 
 PCOD8133430
Probable space group: C 2/C
;
_chemical_formula_sum "Si O2"
_cell_formula_units_Z 60
_cell_length_a 11.158751
_cell_length_b 21.396849
_cell_length_c 15.537735
_cell_angle_alpha 90.000000
_cell_angle_beta 64.725541
_cell_angle_gamma 90.000000
_cell_volume 3354.692098
_symmetry_space_group_name_H-M "C 2/C"
_symmetry_group_IT_number 15
_symmetry_cell_setting 'monoclinic'
loop_
_space_group_symop_operation_xyz
x,y,z
-x,y,1/2-z
-x,-y,-z
x,-y,1/2+z
1/2+x,1/2+y,z
1/2-x,1/2+y,1/2-z
1/2-x,1/2-y,-z
1/2+x,1/2-y,1/2+z
loop_
_atom_site_type_symbol
_atom_site_label
_atom_site_fract_x
_atom_site_fract_y
_atom_site_fract_z
Si Si1 0.899245 0.278893 0.551683
Si Si2 0.500000 0.279892 0.750000
Si Si3 0.241367 0.781427 0.263055
Si Si4 0.358999 0.471784 0.023881
Si Si5 0.338560 0.571532 0.896594
Si Si6 0.351266 0.663424 0.446819
Si Si7 0.152720 0.921101 0.299033
Si Si8 0.202727 0.701581 0.944841
O O1 0.868386 0.265283 0.662007
O O2 0.798150 0.329606 0.543314
O O3 0.877850 0.212066 0.514234
O O4 0.044646 0.305903 0.493177
O O5 0.617883 0.233546 0.737988
O O6 0.540176 0.325213 0.660163
O O7 0.212434 0.852944 0.292802
O O8 0.243507 0.770463 0.160807
O O9 0.289038 0.463421 0.139681
O O10 0.500000 0.500000 0.000000
O O11 0.285841 0.518424 0.979210
O O12 0.374161 0.405460 0.973917
O O13 0.306203 0.551537 0.807315
O O14 0.494554 0.583666 0.856865
O O15 0.263336 0.634267 0.946030
O O16 0.250000 0.750000 0.000000
#
# Coordination Sequence:
#
# PCOD8133430 Si02
#       8
#     8   4   8   8   8   8   8   8
#     4  10  20  36  56  81 112 142 182 235 284 322
#     4  10  20  32  56  88 110 140 184 238 286 332
#     4  10  19  33  55  82 110 146 186 227 282 334
#     4  10  20  33  56  77 109 150 184 232 281 331
#     4   9  20  34  50  82 105 144 192 225 276 333
#     4  10  20  35  55  83 113 139 182 237 284 326
#     4   9  17  33  53  73 109 143 183 233 269 330
#     4  11  22  34  56  82 118 151 186 230 275 346
#
# _framework density 17.885396
#
# number of rings (size 3 to 8) (size 9 to 14) (size 15 to 20)
#    0.000    2.133    2.667    0.800    1.867    3.733 
#    0.000    2.000    0.000    0.000    0.000    7.467 
#    0.000    0.000    0.000    0.000    0.000    0.000 
#
# Total GULP energy -371856.514490 kJ/mol
# GULP energy per Si atom -12395.217150 kJ/mol
# Density = 1.784469 g / cm^3
# Si number density = 17.885396 Si / 1000 Ang^3
#
#
#
# Elastic Constant Matrix: (Units=GPa)
#
#
# Indices 1 2 3 4 5 6 
#
# 1 52.7410 38.5409 43.5901 0.0000 3.7553 0.0000
# 2 38.5409 104.3543 65.4446 0.0000 17.1301 0.0000
# 3 43.5901 65.4446 137.6578 0.0000 21.8592 0.0000
# 4 0.0000 0.0000 0.0000 30.8826 0.0000 7.3704
# 5 3.7553 17.1301 21.8592 0.0000 30.0060 0.0000
# 6 0.0000 0.0000 0.0000 7.3704 0.0000 26.9533
#
#
#
# Elastic Compliance Matrix: (Units=1/GPa)
#
#
# Indices 1 2 3 4 5 6 
#
# 1 0.029663 -0.007722 -0.006595 0.000000 0.005501 0.000000
# 2 -0.007722 0.015990 -0.004366 0.000000 -0.004982 0.000000
# 3 -0.006595 -0.004366 0.012328 0.000000 -0.005663 0.000000
# 4 0.000000 0.000000 0.000000 0.034641 0.000000 -0.009473
# 5 0.005501 -0.004982 -0.005663 0.000000 0.039608 0.000000
# 6 0.000000 0.000000 0.000000 -0.009473 0.000000 0.039692
#
#
# Mechanical properties :
#
#
# Convention : Reuss Voigt Hill
#
# Bulk Modulus (GPa) = 48.50906 65.54493 57.02699
# Shear Modulus (GPa) = 23.13112 27.38023 25.25567
#
# Velocity S-wave (km/s) = 3.60014 3.91688 3.76185
# Velocity P-wave (km/s) = 6.66802 7.56192 7.12899
#
# Compressibility (1/GPa) = 0.02061471
#
# Stress axis : x y z
#
# Youngs Moduli (GPa) = 33.71226 62.53722 81.11932
#
# Poissons Ratio (x) = 0.48292 0.53499
# Poissons Ratio (y) = 0.26033 0.35415
# Poissons Ratio (z) = 0.22234 0.27302
#
# Static dielectric constant tensor:
#      x y z
#    x 2.851730 0.000000 0.404530 
#    y 0.000000 3.195050 0.000000 
#    z 0.404530 0.000000 3.898870 
# 
# 
# High freq. dielectric constant tensor:
#      x y z
#    x 1.676970 0.000000 0.017780 
#    y 0.000000 1.675000 0.000000 
#    z 0.017780 0.000000 1.711760 
# 
# From -- ./inp_files/147854.got.cif
#   From: 2010.06.25/outbox.cif.g09.slc.cpg/sg15_74_cif.got.tgz:147854.got - 2010.06.28 07:06:18.
