data_PCOD8133811
_publ_section_title
;
Structure prediction by ZEFSAII (Michael W. Deem and Ramdas Pophale) SiO2 
 PCOD8133811
Probable space group: C 2/C
;
_chemical_formula_sum "Si O2"
_cell_formula_units_Z 52
_cell_length_a 12.190022
_cell_length_b 21.832072
_cell_length_c 14.051515
_cell_angle_alpha 90.000000
_cell_angle_beta 43.978610
_cell_angle_gamma 90.000000
_cell_volume 2596.724719
_symmetry_space_group_name_H-M "C 2/C"
_symmetry_group_IT_number 15
_symmetry_cell_setting 'monoclinic'
loop_
_space_group_symop_operation_xyz
x,y,z
-x,y,1/2-z
-x,-y,-z
x,-y,1/2+z
1/2+x,1/2+y,z
1/2-x,1/2+y,1/2-z
1/2-x,1/2-y,-z
1/2+x,1/2-y,1/2+z
loop_
_atom_site_type_symbol
_atom_site_label
_atom_site_fract_x
_atom_site_fract_y
_atom_site_fract_z
Si Si1 0.311544 0.795433 0.382216
Si Si2 0.968664 0.231751 0.563552
Si Si3 0.874947 0.579473 0.910254
Si Si4 0.733976 0.647814 0.355464
Si Si5 0.000000 0.262556 0.750000
Si Si6 0.652397 0.054462 0.087528
Si Si7 0.025011 0.371345 0.953138
O O1 0.500000 0.789194 0.250000
O O2 0.250000 0.750000 0.500000
O O3 0.264752 0.863951 0.446906
O O4 0.216346 0.779796 0.345108
O O5 0.069251 0.182501 0.440633
O O6 0.998606 0.220158 0.657069
O O7 0.023874 0.300423 0.501545
O O8 0.786149 0.514060 0.977001
O O9 0.000000 0.568804 0.750000
O O10 0.960063 0.595815 0.955530
O O11 0.709680 0.588655 0.438893
O O12 0.807949 0.628519 0.207853
O O13 0.848529 0.693521 0.341934
O O14 0.500000 0.054195 0.250000
O O15 0.610723 0.091644 0.017710
#
# Coordination Sequence:
#
# PCOD8133811 Si02
#       7
#     8   8   8   8   4   8   8
#     4  11  25  41  59  89 122 162 202 251 307 366
#     4  11  22  36  61  90 121 155 200 252 305 362
#     4  10  21  36  56  84 118 161 205 245 291 362
#     4  10  19  35  58  92 119 155 194 259 303 355
#     4  10  20  34  58  90 126 148 202 240 318 352
#     4   9  17  35  57  86 121 152 204 246 296 361
#     4  10  19  34  57  87 118 158 205 242 301 353
#
# _framework density 20.025227000000001
#
# number of rings (size 3 to 8) (size 9 to 14) (size 15 to 20)
#    0.000    1.846    5.385    0.923    4.308    0.000 
#    0.000    0.769    0.000    0.000    2.000    0.000 
#    0.000    0.000    0.000    0.000    0.000    0.000 
#
# Total GULP energy -322207.366280 kJ/mol
# GULP energy per Si atom -12392.591011 kJ/mol
# Density = 1.997965 g / cm^3
# Si number density = 20.025227 Si / 1000 Ang^3
#
#
#
# Elastic Constant Matrix: (Units=GPa)
#
#
# Indices 1 2 3 4 5 6 
#
# 1 92.7072 34.0775 43.5484 -0.0005 13.4374 0.0003
# 2 34.0775 155.8412 33.1433 -0.0001 1.2216 0.0000
# 3 43.5484 33.1433 67.7853 -0.0009 11.5215 0.0009
# 4 -0.0005 -0.0001 -0.0009 14.9193 0.0006 -2.2759
# 5 13.4374 1.2216 11.5215 0.0006 36.3371 -0.0004
# 6 0.0003 0.0000 0.0009 -2.2759 -0.0004 22.3246
#
#
#
# Elastic Compliance Matrix: (Units=1/GPa)
#
#
# Indices 1 2 3 4 5 6 
#
# 1 0.016039 -0.001564 -0.009027 0.000000 -0.003016 0.000000
# 2 -0.001564 0.007343 -0.002793 0.000000 0.001217 0.000000
# 3 -0.009027 -0.002793 0.022549 0.000001 -0.003718 -0.000001
# 4 0.000000 0.000000 0.000001 0.068086 -0.000001 0.006941
# 5 -0.003016 0.001217 -0.003718 -0.000001 0.029773 0.000001
# 6 0.000000 0.000000 -0.000001 0.006941 0.000001 0.045501
#
#
# Mechanical properties :
#
#
# Convention : Reuss Voigt Hill
#
# Bulk Modulus (GPa) = 52.17926 59.76355 55.97140
# Shear Modulus (GPa) = 22.47732 28.42050 25.44891
#
# Velocity S-wave (km/s) = 3.35393 3.77136 3.56876
# Velocity P-wave (km/s) = 6.41185 6.99093 6.70764
#
# Compressibility (1/GPa) = 0.01916470
#
# Stress axis : x y z
#
# Youngs Moduli (GPa) = 62.34819 136.18215 44.34780
#
# Poissons Ratio (x) = 0.21296 0.40032
# Poissons Ratio (y) = 0.09750 0.12384
# Poissons Ratio (z) = 0.56281 0.38030
#
# Static dielectric constant tensor:
#      x y z
#    x 3.872290 0.000000 0.183140 
#    y 0.000000 4.226600 0.000000 
#    z 0.183140 0.000000 3.363590 
# 
# 
# High freq. dielectric constant tensor:
#      x y z
#    x 1.769990 0.000000 0.033030 
#    y 0.000000 1.787930 0.000000 
#    z 0.033030 0.000000 1.748240 
# 
# From -- ./inp_files/147064.got.cif
#   From: 2010.06.25/outbox.cif.g09.slc.cpg/sg15_74_cif.got.tgz:147064.got - 2010.06.28 07:06:18.
