data_PCOD8133736
_publ_section_title
;
Structure prediction by ZEFSAII (Michael W. Deem and Ramdas Pophale) SiO2 
 PCOD8133736
Probable space group: C 2/C
;
_chemical_formula_sum "Si O2"
_cell_formula_units_Z 64
_cell_length_a 8.459632
_cell_length_b 22.990743
_cell_length_c 20.551353
_cell_angle_alpha 90.000000
_cell_angle_beta 52.322863
_cell_angle_gamma 90.000000
_cell_volume 3163.573857
_symmetry_space_group_name_H-M "C 2/C"
_symmetry_group_IT_number 15
_symmetry_cell_setting 'monoclinic'
loop_
_space_group_symop_operation_xyz
x,y,z
-x,y,1/2-z
-x,-y,-z
x,-y,1/2+z
1/2+x,1/2+y,z
1/2-x,1/2+y,1/2-z
1/2-x,1/2-y,-z
1/2+x,1/2-y,1/2+z
loop_
_atom_site_type_symbol
_atom_site_label
_atom_site_fract_x
_atom_site_fract_y
_atom_site_fract_z
Si Si1 0.534123 0.026082 0.920314
Si Si2 0.719097 0.637200 0.669220
Si Si3 0.773025 0.076520 0.323159
Si Si4 0.558504 0.800327 0.485142
Si Si5 0.033779 0.682905 0.344728
Si Si6 0.857876 0.733135 0.724156
Si Si7 0.889386 0.189029 0.096460
Si Si8 0.736018 0.611860 0.026316
O O1 0.704105 0.074864 0.873650
O O2 0.609844 0.975462 0.852353
O O3 0.325453 0.060443 0.956890
O O4 0.500000 0.000000 0.000000
O O5 0.500000 0.627896 0.750000
O O6 0.734116 0.678990 0.601686
O O7 0.840411 0.669008 0.697416
O O8 0.697296 0.130893 0.298871
O O9 0.776728 0.089431 0.397781
O O10 0.000000 0.058564 0.250000
O O11 0.559909 0.816377 0.559877
O O12 0.549440 0.730816 0.478956
O O13 0.381187 0.831959 0.489586
O O14 0.140498 0.743524 0.301052
O O15 0.846472 0.672949 0.343450
O O16 0.947199 0.778980 0.649457
O O17 0.000000 0.730339 0.750000
O O18 0.017754 0.130224 0.056008
#
# Coordination Sequence:
#
# PCOD8133736 Si02
#       8
#     8   8   8   8   8   8   8   8
#     4   9  19  36  59  83 108 145 194 239 280 342
#     4  10  20  37  60  88 117 149 193 244 295 347
#     4  10  19  34  56  78 104 143 187 231 278 333
#     4   9  19  34  53  81 116 152 186 227 283 350
#     4  11  21  34  54  85 117 149 191 236 283 343
#     4  11  22  36  56  84 120 157 191 235 293 354
#     4  11  20  33  53  81 115 153 187 233 288 340
#     4   9  18  32  52  78 107 140 187 231 272 329
#
# _framework density 20.230284000000001
#
# number of rings (size 3 to 8) (size 9 to 14) (size 15 to 20)
#    0.000    2.000    0.000    6.375    0.000    2.000 
#    0.000    0.625    0.000    6.000    0.000    0.000 
#    0.000    0.000    0.000    0.000    0.000    0.000 
#
# Total GULP energy -396482.509965 kJ/mol
# GULP energy per Si atom -12390.078436 kJ/mol
# Density = 2.018424 g / cm^3
# Si number density = 20.230284 Si / 1000 Ang^3
#
#
#
# Elastic Constant Matrix: (Units=GPa)
#
#
# Indices 1 2 3 4 5 6 
#
# 1 79.1345 37.0511 27.9329 0.0000 -16.6870 0.0000
# 2 37.0511 103.8556 41.3206 0.0000 -12.2283 0.0000
# 3 27.9329 41.3206 94.1355 0.0000 -22.5829 0.0000
# 4 0.0000 0.0000 0.0000 41.9683 0.0000 -7.9021
# 5 -16.6870 -12.2283 -22.5829 0.0000 31.2098 0.0000
# 6 0.0000 0.0000 0.0000 -7.9021 0.0000 14.6744
#
#
#
# Elastic Compliance Matrix: (Units=1/GPa)
#
#
# Indices 1 2 3 4 5 6 
#
# 1 0.016583 -0.004634 -0.001446 0.000000 0.006004 0.000000
# 2 -0.004634 0.012989 -0.004477 0.000000 -0.000628 0.000000
# 3 -0.001446 -0.004477 0.015018 0.000000 0.008339 0.000000
# 4 0.000000 0.000000 0.000000 0.026516 0.000000 0.014279
# 5 0.006004 -0.000628 0.008339 0.000000 0.041040 0.000000
# 6 0.000000 0.000000 0.000000 0.014279 0.000000 0.075835
#
#
# Mechanical properties :
#
#
# Convention : Reuss Voigt Hill
#
# Bulk Modulus (GPa) = 42.59725 54.41498 48.50611
# Shear Modulus (GPa) = 23.04995 28.95856 26.00426
#
# Velocity S-wave (km/s) = 3.37913 3.78755 3.58915
# Velocity P-wave (km/s) = 6.02715 6.78849 6.41912
#
# Compressibility (1/GPa) = 0.02347570
#
# Stress axis : x y z
#
# Youngs Moduli (GPa) = 60.30335 76.98664 66.58676
#
# Poissons Ratio (x) = 0.35673 0.09630
# Poissons Ratio (y) = 0.27942 0.29813
# Poissons Ratio (z) = 0.08722 0.34469
#
# Static dielectric constant tensor:
#      x y z
#    x 3.415670 0.000000 -0.317970 
#    y 0.000000 3.987720 0.000000 
#    z -0.317970 0.000000 4.128520 
# 
# 
# High freq. dielectric constant tensor:
#      x y z
#    x 1.747650 0.000000 -0.020590 
#    y 0.000000 1.784460 0.000000 
#    z -0.020590 0.000000 1.811200 
# 
# From -- ./inp_files/234425.got.cif
#   From: 2010.06.25/outbox.cif.g09.slc.cpg/sg15_118_cif.got.tgz:234425.got - 2010.06.28 07:06:18.
