data_PCOD8133388
_publ_section_title
;
Structure prediction by ZEFSAII (Michael W. Deem and Ramdas Pophale) SiO2 
 PCOD8133388
Probable space group: C 2/C
;
_chemical_formula_sum "Si O2"
_cell_formula_units_Z 64
_cell_length_a 8.276449
_cell_length_b 24.722210
_cell_length_c 17.302484
_cell_angle_alpha 90.000000
_cell_angle_beta 89.970965
_cell_angle_gamma 90.000000
_cell_volume 3540.297309
_symmetry_space_group_name_H-M "C 2/C"
_symmetry_group_IT_number 15
_symmetry_cell_setting 'monoclinic'
loop_
_space_group_symop_operation_xyz
x,y,z
-x,y,1/2-z
-x,-y,-z
x,-y,1/2+z
1/2+x,1/2+y,z
1/2-x,1/2+y,1/2-z
1/2-x,1/2-y,-z
1/2+x,1/2-y,1/2+z
loop_
_atom_site_type_symbol
_atom_site_label
_atom_site_fract_x
_atom_site_fract_y
_atom_site_fract_z
Si Si1 0.191969 0.659595 0.260815
Si Si2 0.843338 0.224937 0.391164
Si Si3 0.795298 0.332038 0.466045
Si Si4 0.942531 0.080575 0.508500
Si Si5 0.076400 0.399431 0.527190
Si Si6 0.227397 0.983946 0.063348
Si Si7 0.597919 0.053707 0.326180
Si Si8 0.862730 0.848461 0.598304
O O1 0.279574 0.708010 0.306705
O O2 0.214921 0.604341 0.308542
O O3 0.292276 0.649074 0.183755
O O4 0.000000 0.672060 0.250000
O O5 0.832674 0.290103 0.396841
O O6 0.720778 0.199924 0.453458
O O7 0.027535 0.205527 0.408262
O O8 0.634168 0.367262 0.448518
O O9 0.940200 0.373465 0.474743
O O10 0.064060 0.051669 0.568864
O O11 0.029380 0.099523 0.428122
O O12 0.802817 0.038651 0.485490
O O13 0.136603 0.449967 0.478451
O O14 0.209222 0.351566 0.540468
O O15 0.024477 0.424952 0.608653
O O16 0.294328 0.002542 0.146969
O O17 0.500000 0.036003 0.250000
#
# Coordination Sequence:
#
# PCOD8133388 Si02
#       8
#     8   8   8   8   8   8   8   8
#     4  11  19  35  56  81 112 138 177 230 286 333
#     4  10  20  32  52  80 108 141 177 222 280 331
#     4  10  19  34  53  77 109 142 180 226 273 323
#     4   9  19  35  55  81 113 141 187 229 278 318
#     4  11  19  34  56  83 110 146 185 228 273 329
#     4  10  20  33  56  83 109 146 185 227 273 330
#     4  11  19  32  54  84 112 142 177 228 286 336
#     4  10  19  33  54  84 111 138 177 234 276 324
#
# _framework density 18.077577000000002
#
# number of rings (size 3 to 8) (size 9 to 14) (size 15 to 20)
#    0.000    1.750    5.000    1.500    0.000    0.500 
#    0.000    2.500    0.000    3.000    0.000    0.000 
#    0.000    0.000    0.000    0.000    0.000    0.000 
#
# Total GULP energy -396541.522154 kJ/mol
# GULP energy per Si atom -12391.922567 kJ/mol
# Density = 1.803643 g / cm^3
# Si number density = 18.077577 Si / 1000 Ang^3
#
#
#
# Elastic Constant Matrix: (Units=GPa)
#
#
# Indices 1 2 3 4 5 6 
#
# 1 99.3857 62.2197 45.9507 0.0000 5.5254 0.0000
# 2 62.2197 117.5101 57.4101 0.0000 7.4016 0.0000
# 3 45.9507 57.4101 81.9574 0.0000 11.9014 0.0000
# 4 0.0000 0.0000 0.0000 25.1968 0.0000 -2.2217
# 5 5.5254 7.4016 11.9014 0.0000 25.5693 0.0000
# 6 0.0000 0.0000 0.0000 -2.2217 0.0000 26.5312
#
#
#
# Elastic Compliance Matrix: (Units=1/GPa)
#
#
# Indices 1 2 3 4 5 6 
#
# 1 0.016148 -0.006267 -0.004740 0.000000 0.000531 0.000000
# 2 -0.006267 0.015376 -0.007301 0.000000 0.000302 0.000000
# 3 -0.004740 -0.007301 0.020932 0.000000 -0.006605 0.000000
# 4 0.000000 0.000000 0.000000 0.039983 0.000000 0.003348
# 5 0.000531 0.000302 -0.006605 0.000000 0.041982 0.000000
# 6 0.000000 0.000000 0.000000 0.003348 0.000000 0.037972
#
#
# Mechanical properties :
#
#
# Convention : Reuss Voigt Hill
#
# Bulk Modulus (GPa) = 63.13371 70.00158 66.56765
# Shear Modulus (GPa) = 23.33293 24.34431 23.83862
#
# Velocity S-wave (km/s) = 3.59654 3.67367 3.63531
# Velocity P-wave (km/s) = 7.22817 7.53667 7.38403
#
# Compressibility (1/GPa) = 0.01583940
#
# Stress axis : x y z
#
# Youngs Moduli (GPa) = 61.92856 65.03549 47.77288
#
# Poissons Ratio (x) = 0.40761 0.22646
# Poissons Ratio (y) = 0.38814 0.34877
# Poissons Ratio (z) = 0.29356 0.47480
#
# Static dielectric constant tensor:
#      x y z
#    x 3.582250 0.000000 0.017010 
#    y 0.000000 3.403870 0.000000 
#    z 0.017010 0.000000 3.142320 
# 
# 
# High freq. dielectric constant tensor:
#      x y z
#    x 1.716830 0.000000 0.001280 
#    y 0.000000 1.688860 0.000000 
#    z 0.001280 0.000000 1.664870 
# 
# From -- ./inp_files/192971.got.cif
#   From: 2010.06.25/outbox.cif.g09.slc.cpg/sg15_97_cif.got.tgz:192971.got - 2010.06.28 07:06:18.
