data_PCOD8133212
_publ_section_title
;
Structure prediction by ZEFSAII (Michael W. Deem and Ramdas Pophale) SiO2 
 PCOD8133212
Probable space group: C 2/C
;
_chemical_formula_sum "Si O2"
_cell_formula_units_Z 40
_cell_length_a 21.505975
_cell_length_b 17.435353
_cell_length_c 14.808434
_cell_angle_alpha 90.000000
_cell_angle_beta 24.637918
_cell_angle_gamma 90.000000
_cell_volume 2314.795369
_symmetry_space_group_name_H-M "C 2/C"
_symmetry_group_IT_number 15
_symmetry_cell_setting 'monoclinic'
loop_
_space_group_symop_operation_xyz
x,y,z
-x,y,1/2-z
-x,-y,-z
x,-y,1/2+z
1/2+x,1/2+y,z
1/2-x,1/2+y,1/2-z
1/2-x,1/2-y,-z
1/2+x,1/2-y,1/2+z
loop_
_atom_site_type_symbol
_atom_site_label
_atom_site_fract_x
_atom_site_fract_y
_atom_site_fract_z
Si Si1 0.165099 0.924968 0.268073
Si Si2 0.402667 0.807715 0.965007
Si Si3 0.915688 0.238697 0.621037
Si Si4 0.909718 0.786354 0.781443
Si Si5 0.534832 0.461110 0.806853
O O1 0.060935 0.850910 0.381782
O O2 0.112496 0.961005 0.433905
O O3 0.154156 0.983165 0.198349
O O4 0.336081 0.894810 0.053249
O O5 0.500000 0.790055 0.750000
O O6 0.513405 0.797325 0.902225
O O7 0.263422 0.747405 0.152919
O O8 0.999064 0.254574 0.417955
O O9 0.892256 0.877479 0.793316
O O10 0.000000 0.764983 0.750000
O O11 0.750000 0.750000 0.000000
O O12 0.500000 0.489260 0.750000
#
# Coordination Sequence:
#
# PCOD8133212 Si02
#       5
#     8   8   8   8   8
#     4   8  19  33  52  80 106 143 186 224 264 339
#     4  10  19  34  52  79 110 141 183 233 274 318
#     4   9  19  32  53  80 110 140 182 225 272 325
#     4  10  19  32  56  85 108 139 176 226 278 333
#     4   9  17  34  55  78 107 148 182 218 276 343
#
# _framework density 17.280145000000001
#
# number of rings (size 3 to 8) (size 9 to 14) (size 15 to 20)
#    1.200    1.600    0.000    1.800    2.800    0.800 
#    0.000    1.000    0.000    1.200    0.000    0.000 
#    0.000    0.000    0.000    0.000    0.000    0.000 
#
# Total GULP energy -247767.636383 kJ/mol
# GULP energy per Si atom -12388.381819 kJ/mol
# Density = 1.724081 g / cm^3
# Si number density = 17.280145 Si / 1000 Ang^3
#
#
#
# Elastic Constant Matrix: (Units=GPa)
#
#
# Indices 1 2 3 4 5 6 
#
# 1 89.0461 24.8001 34.7448 0.0007 20.9275 -0.0005
# 2 24.8001 29.0181 14.8505 0.0003 5.9431 -0.0003
# 3 34.7448 14.8505 118.5000 0.0005 9.9874 -0.0004
# 4 0.0007 0.0003 0.0005 28.1924 -0.0003 6.1801
# 5 20.9275 5.9431 9.9874 -0.0003 35.0437 0.0003
# 6 -0.0005 -0.0003 -0.0004 6.1801 0.0003 60.8705
#
#
#
# Elastic Compliance Matrix: (Units=1/GPa)
#
#
# Indices 1 2 3 4 5 6 
#
# 1 0.017483 -0.011854 -0.003002 0.000000 -0.007575 0.000000
# 2 -0.011854 0.045754 -0.002255 0.000000 -0.000038 0.000000
# 3 -0.003002 -0.002255 0.009650 0.000000 -0.000575 0.000000
# 4 0.000000 0.000000 0.000000 0.036278 0.000001 -0.003683
# 5 -0.007575 -0.000038 -0.000575 0.000001 0.033230 0.000000
# 6 0.000000 0.000000 0.000000 -0.003683 0.000000 0.016802
#
#
# Mechanical properties :
#
#
# Convention : Reuss Voigt Hill
#
# Bulk Modulus (GPa) = 25.86336 42.81722 34.34029
# Shear Modulus (GPa) = 24.23556 35.63257 29.93407
#
# Velocity S-wave (km/s) = 3.74907 4.54591 4.16658
# Velocity P-wave (km/s) = 5.80864 7.23780 6.56224
#
# Compressibility (1/GPa) = 0.03866474
#
# Stress axis : x y z
#
# Youngs Moduli (GPa) = 57.19763 21.85594 103.62535
#
# Poissons Ratio (x) = 0.25908 0.31110
# Poissons Ratio (y) = 0.67803 0.23368
# Poissons Ratio (z) = 0.17172 0.04929
#
# Static dielectric constant tensor:
#      x y z
#    x 3.510810 0.000000 0.280380 
#    y 0.000000 2.997330 0.000000 
#    z 0.280380 0.000000 3.239280 
# 
# 
# High freq. dielectric constant tensor:
#      x y z
#    x 1.662950 0.000000 0.018630 
#    y 0.000000 1.638870 0.000000 
#    z 0.018630 0.000000 1.668700 
# 
# From -- ./inp_files/30298.got.cif
#   From: 2010.06.25/outbox.cif.g09.slc.cpg/sg15_16_cif.got.tgz:30298.got - 2010.06.28 07:06:18.
