data_PCOD8133787
_publ_section_title
;
Structure prediction by ZEFSAII (Michael W. Deem and Ramdas Pophale) SiO2 
 PCOD8133787
Probable space group: C 2/C
;
_chemical_formula_sum "Si O2"
_cell_formula_units_Z 48
_cell_length_a 13.694622
_cell_length_b 13.220348
_cell_length_c 14.837089
_cell_angle_alpha 90.000000
_cell_angle_beta 119.250049
_cell_angle_gamma 90.000000
_cell_volume 2343.715426
_symmetry_space_group_name_H-M "C 2/C"
_symmetry_group_IT_number 15
_symmetry_cell_setting 'monoclinic'
loop_
_space_group_symop_operation_xyz
x,y,z
-x,y,1/2-z
-x,-y,-z
x,-y,1/2+z
1/2+x,1/2+y,z
1/2-x,1/2+y,1/2-z
1/2-x,1/2-y,-z
1/2+x,1/2-y,1/2+z
loop_
_atom_site_type_symbol
_atom_site_label
_atom_site_fract_x
_atom_site_fract_y
_atom_site_fract_z
Si Si1 0.334748 0.871306 0.422297
Si Si2 0.993319 0.335385 0.848648
Si Si3 0.581830 0.404224 0.861399
Si Si4 0.728010 0.085214 0.174321
Si Si5 0.599361 0.661170 0.107251
Si Si6 0.394688 0.630197 0.592391
O O1 0.417705 0.889481 0.544970
O O2 0.379042 0.781881 0.377323
O O3 0.217124 0.833828 0.408046
O O4 0.322426 0.972383 0.357430
O O5 0.012168 0.215356 0.849741
O O6 0.000000 0.382667 0.750000
O O7 0.871557 0.343031 0.839148
O O8 0.500000 0.355113 0.750000
O O9 0.712876 0.381928 0.895082
O O10 0.534459 0.356681 0.933187
O O11 0.562514 0.524516 0.851177
O O12 0.826877 0.092762 0.292023
O O13 0.631217 0.618684 0.024626
#
# Coordination Sequence:
#
# PCOD8133787 Si02
#       6
#     8   8   8   8   8   8
#     4  10  21  37  56  81 113 144 178 226 274 316
#     4  11  20  34  58  86 110 140 180 225 270 324
#     4   9  19  34  53  76 108 145 180 222 271 319
#     4  10  21  36  55  79 110 145 180 220 271 326
#     4  10  19  35  56  80 107 143 184 228 269 317
#     4  10  19  34  57  82 106 139 186 231 268 314
#
# _framework density 20.480301999999998
#
# number of rings (size 3 to 8) (size 9 to 14) (size 15 to 20)
#    0.000    2.000    0.000    5.500    0.000    2.667 
#    0.000    5.833    0.000   14.000    0.000    0.000 
#    0.000    0.000    0.000    0.000    0.000    0.000 
#
# Total GULP energy -297394.963171 kJ/mol
# GULP energy per Si atom -12391.456799 kJ/mol
# Density = 2.043369 g / cm^3
# Si number density = 20.480302 Si / 1000 Ang^3
#
#
#
# Elastic Constant Matrix: (Units=GPa)
#
#
# Indices 1 2 3 4 5 6 
#
# 1 182.7292 72.2098 18.1953 0.0000 -6.3558 0.0000
# 2 72.2098 62.0624 35.9745 0.0000 -7.8934 0.0000
# 3 18.1953 35.9745 84.6391 0.0000 -1.4010 0.0000
# 4 0.0000 0.0000 0.0000 27.2854 0.0000 -0.5428
# 5 -6.3558 -7.8934 -1.4010 0.0000 20.7162 0.0000
# 6 0.0000 0.0000 0.0000 -0.5428 0.0000 35.3609
#
#
#
# Elastic Compliance Matrix: (Units=1/GPa)
#
#
# Indices 1 2 3 4 5 6 
#
# 1 0.011221 -0.015828 0.004277 0.000000 -0.002299 0.000000
# 2 -0.015828 0.044950 -0.015517 0.000000 0.011222 0.000000
# 3 0.004277 -0.015517 0.017434 0.000000 -0.003421 0.000000
# 4 0.000000 0.000000 0.000000 0.036661 0.000000 0.000563
# 5 -0.002299 0.011222 -0.003421 0.000000 0.051611 0.000000
# 6 0.000000 0.000000 0.000000 0.000563 0.000000 0.028288
#
#
# Mechanical properties :
#
#
# Convention : Reuss Voigt Hill
#
# Bulk Modulus (GPa) = 51.36094 64.68778 58.02436
# Shear Modulus (GPa) = 19.93692 30.20923 25.07308
#
# Velocity S-wave (km/s) = 3.12343 3.84479 3.50273
# Velocity P-wave (km/s) = 6.17579 7.16685 6.68970
#
# Compressibility (1/GPa) = 0.01947005
#
# Stress axis : x y z
#
# Youngs Moduli (GPa) = 89.11519 22.24691 57.35892
#
# Poissons Ratio (x) = 0.35212 -0.24532
# Poissons Ratio (y) = 1.41049 0.89004
# Poissons Ratio (z) = -0.38114 0.34521
#
# Static dielectric constant tensor:
#      x y z
#    x 4.196200 0.000000 -0.197960 
#    y 0.000000 3.425300 0.000000 
#    z -0.197960 0.000000 3.706200 
# 
# 
# High freq. dielectric constant tensor:
#      x y z
#    x 1.819430 0.000000 -0.008280 
#    y 0.000000 1.776460 0.000000 
#    z -0.008280 0.000000 1.788900 
# 
# From -- ./inp_files/143760.got.cif
#   From: 2010.06.25/outbox.cif.g09.slc.cpg/sg15_72_cif.got.tgz:143760.got - 2010.06.28 07:06:18.
