data_PCOD8133705
_publ_section_title
;
Structure prediction by ZEFSAII (Michael W. Deem and Ramdas Pophale) SiO2 
 PCOD8133705
Probable space group: C 2/C
;
_chemical_formula_sum "Si O2"
_cell_formula_units_Z 52
_cell_length_a 22.309835
_cell_length_b 27.041777
_cell_length_c 5.246372
_cell_angle_alpha 90.000000
_cell_angle_beta 51.878190
_cell_angle_gamma 90.000000
_cell_volume 2490.002968
_symmetry_space_group_name_H-M "C 2/C"
_symmetry_group_IT_number 15
_symmetry_cell_setting 'monoclinic'
loop_
_space_group_symop_operation_xyz
x,y,z
-x,y,1/2-z
-x,-y,-z
x,-y,1/2+z
1/2+x,1/2+y,z
1/2-x,1/2+y,1/2-z
1/2-x,1/2-y,-z
1/2+x,1/2-y,1/2+z
loop_
_atom_site_type_symbol
_atom_site_label
_atom_site_fract_x
_atom_site_fract_y
_atom_site_fract_z
Si Si1 0.704279 0.301517 0.331148
Si Si2 0.107159 0.361683 0.125860
Si Si3 0.283898 0.472984 0.668253
Si Si4 0.500000 0.203309 0.250000
Si Si5 0.634053 0.776795 0.707464
Si Si6 0.778262 0.138580 0.234505
Si Si7 0.397474 0.973113 0.382190
O O1 0.641380 0.259019 0.436346
O O2 0.679578 0.331313 0.648898
O O3 0.786330 0.274261 0.159015
O O4 0.708501 0.336568 0.072804
O O5 0.044628 0.331947 0.442455
O O6 0.075688 0.416561 0.162759
O O7 0.119192 0.333782 0.825501
O O8 0.189249 0.363369 0.050423
O O9 0.316626 0.495354 0.319179
O O10 0.311755 0.416631 0.630239
O O11 0.193278 0.475903 0.888760
O O12 0.438860 0.239005 0.269520
O O13 0.431005 0.001709 0.539485
#
# Coordination Sequence:
#
# PCOD8133705 Si02
#       7
#     8   8   8   4   8   8   8
#     4  10  21  36  57  80 103 138 180 226 270 322
#     4  10  22  35  55  76 104 139 187 227 272 319
#     4   9  16  27  47  76 106 138 173 212 264 312
#     4  12  22  38  54  76 102 144 180 230 272 322
#     4  10  23  36  56  76 105 135 183 226 277 321
#     4  10  19  34  55  79 109 141 180 226 263 312
#     4   9  19  33  52  72  98 134 180 230 272 305
#
# _framework density 20.883510000000001
#
# number of rings (size 3 to 8) (size 9 to 14) (size 15 to 20)
#    0.000    2.154    1.538    1.385    4.308    5.538 
#    0.000    0.769    0.000    0.000    0.000    0.000 
#    0.000    0.000    0.000   13.846    0.000   12.615 
#
# Total GULP energy -322341.275167 kJ/mol
# GULP energy per Si atom -12397.741353 kJ/mol
# Density = 2.083598 g / cm^3
# Si number density = 20.883510 Si / 1000 Ang^3
#
#
#
# Elastic Constant Matrix: (Units=GPa)
#
#
# Indices 1 2 3 4 5 6 
#
# 1 119.6659 60.9421 24.6847 0.0000 19.3524 0.0000
# 2 60.9421 104.8484 5.4693 0.0000 5.1088 0.0000
# 3 24.6847 5.4693 39.0554 0.0000 15.1524 0.0000
# 4 0.0000 0.0000 0.0000 24.6686 0.0000 15.8079
# 5 19.3524 5.1088 15.1524 0.0000 29.5067 0.0000
# 6 0.0000 0.0000 0.0000 15.8079 0.0000 19.6129
#
#
#
# Elastic Compliance Matrix: (Units=1/GPa)
#
#
# Indices 1 2 3 4 5 6 
#
# 1 0.014386 -0.007803 -0.006074 0.000000 -0.004966 0.000000
# 2 -0.007803 0.013875 0.002417 0.000000 0.001474 0.000000
# 3 -0.006074 0.002417 0.034619 0.000000 -0.014213 0.000000
# 4 0.000000 0.000000 0.000000 0.083840 0.000000 -0.067575
# 5 -0.004966 0.001474 -0.014213 0.000000 0.044191 0.000000
# 6 0.000000 0.000000 0.000000 -0.067575 0.000000 0.105452
#
#
# Mechanical properties :
#
#
# Convention : Reuss Voigt Hill
#
# Bulk Modulus (GPa) = 25.02443 49.52909 37.27676
# Shear Modulus (GPa) = 15.03291 26.25588 20.64439
#
# Velocity S-wave (km/s) = 2.68591 3.54962 3.14753
# Velocity P-wave (km/s) = 4.65056 6.36931 5.57655
#
# Compressibility (1/GPa) = 0.03996094
#
# Stress axis : x y z
#
# Youngs Moduli (GPa) = 69.51002 72.07104 28.88577
#
# Poissons Ratio (x) = 0.56238 0.17544
# Poissons Ratio (y) = 0.54240 -0.06981
# Poissons Ratio (z) = 0.42217 -0.17419
#
# Static dielectric constant tensor:
#      x y z
#    x 3.766610 0.000000 0.233040 
#    y 0.000000 3.918960 0.000000 
#    z 0.233040 0.000000 3.536120 
# 
# 
# High freq. dielectric constant tensor:
#      x y z
#    x 1.795830 0.000000 0.037760 
#    y 0.000000 1.817820 0.000000 
#    z 0.037760 0.000000 1.787720 
# 
# From -- ./inp_files/11297.got.cif
#   From: 2010.06.25/outbox.cif.g09.slc.cpg/sg15_6_cif.got.tgz:11297.got - 2010.06.28 07:06:18.
