data_PCOD8133579
_publ_section_title
;
Structure prediction by ZEFSAII (Michael W. Deem and Ramdas Pophale) SiO2 
 PCOD8133579
Probable space group: C 2/C
;
_chemical_formula_sum "Si O2"
_cell_formula_units_Z 56
_cell_length_a 13.914250
_cell_length_b 20.361869
_cell_length_c 23.113571
_cell_angle_alpha 90.000000
_cell_angle_beta 153.520092
_cell_angle_gamma 90.000000
_cell_volume 2919.888965
_symmetry_space_group_name_H-M "C 2/C"
_symmetry_group_IT_number 15
_symmetry_cell_setting 'monoclinic'
loop_
_space_group_symop_operation_xyz
x,y,z
-x,y,1/2-z
-x,-y,-z
x,-y,1/2+z
1/2+x,1/2+y,z
1/2-x,1/2+y,1/2-z
1/2-x,1/2-y,-z
1/2+x,1/2-y,1/2+z
loop_
_atom_site_type_symbol
_atom_site_label
_atom_site_fract_x
_atom_site_fract_y
_atom_site_fract_z
Si Si1 0.724518 0.920885 0.746616
Si Si2 0.959941 0.118515 0.894752
Si Si3 0.324871 0.327857 0.204382
Si Si4 0.442863 0.955144 0.285208
Si Si5 0.631528 0.493151 0.928991
Si Si6 0.736176 0.816682 0.848796
Si Si7 0.621009 0.056908 0.532496
O O1 0.759217 0.854336 0.800457
O O2 0.526075 0.910542 0.596317
O O3 0.674762 0.975723 0.767927
O O4 0.932005 0.942598 0.820477
O O5 0.943702 0.164027 0.829545
O O6 0.716022 0.103876 0.783330
O O7 0.088740 0.051214 0.952003
O O8 0.084017 0.158523 0.010284
O O9 0.500000 0.328534 0.250000
O O10 0.204660 0.258114 0.135950
O O11 0.168547 0.389227 0.107274
O O12 0.500000 0.947132 0.250000
O O13 0.658051 0.951680 0.439836
O O14 0.666458 0.526407 0.884550
O O15 0.500000 0.824498 0.750000
O O16 0.500000 0.000000 0.500000
#
# Coordination Sequence:
#
# PCOD8133579 Si02
#       7
#     8   8   8   8   8   8   8
#     4  10  21  35  58  91 122 155 196 249 302 360
#     4  11  22  39  59  87 123 154 199 248 300 359
#     4  11  24  38  61  86 123 160 199 250 304 361
#     4  10  19  33  60  88 119 154 193 245 302 350
#     4  10  19  35  60  88 121 151 198 250 304 352
#     4  11  24  37  60  88 122 162 198 243 305 365
#     4  11  22  37  61  90 122 156 203 253 308 356
#
# _framework density 19.178812000000001
#
# number of rings (size 3 to 8) (size 9 to 14) (size 15 to 20)
#    0.000    1.429    1.429    6.429    2.000    3.429 
#    0.000    0.000    0.000    7.714    0.000    0.000 
#    0.000    0.000    0.000    0.000    0.000    0.000 
#
# Total GULP energy -347237.101260 kJ/mol
# GULP energy per Si atom -12401.325045 kJ/mol
# Density = 1.913516 g / cm^3
# Si number density = 19.178812 Si / 1000 Ang^3
#
#
#
# Elastic Constant Matrix: (Units=GPa)
#
#
# Indices 1 2 3 4 5 6 
#
# 1 84.8104 28.5003 32.3442 0.0061 -1.4733 0.0015
# 2 28.5003 105.0292 41.2924 0.0032 -2.9916 0.0021
# 3 32.3442 41.2924 98.3585 -0.0327 -6.9450 -0.0063
# 4 0.0061 0.0032 -0.0327 29.8476 -0.0121 0.7437
# 5 -1.4733 -2.9916 -6.9450 -0.0121 41.3284 -0.0031
# 6 0.0015 0.0021 -0.0063 0.7437 -0.0031 29.5619
#
#
#
# Elastic Compliance Matrix: (Units=1/GPa)
#
#
# Indices 1 2 3 4 5 6 
#
# 1 0.013963 -0.002376 -0.003614 -0.000007 -0.000282 -0.000001
# 2 -0.002376 0.011808 -0.004171 -0.000005 0.000069 -0.000001
# 3 -0.003614 -0.004171 0.013233 0.000016 0.001793 0.000003
# 4 -0.000007 -0.000005 0.000016 0.033525 0.000012 -0.000843
# 5 -0.000282 0.000069 0.001793 0.000012 0.024493 0.000003
# 6 -0.000001 -0.000001 0.000003 -0.000843 0.000003 0.033849
#
#
# Mechanical properties :
#
#
# Convention : Reuss Voigt Hill
#
# Bulk Modulus (GPa) = 53.52818 54.71910 54.12364
# Shear Modulus (GPa) = 31.76256 32.55165 32.15710
#
# Velocity S-wave (km/s) = 4.07397 4.12426 4.09919
# Velocity P-wave (km/s) = 7.07816 7.16047 7.11943
#
# Compressibility (1/GPa) = 0.01868175
#
# Stress axis : x y z
#
# Youngs Moduli (GPa) = 71.61870 84.69077 75.56956
#
# Poissons Ratio (x) = 0.20124 0.27310
# Poissons Ratio (y) = 0.17017 0.31519
# Poissons Ratio (z) = 0.25882 0.35323
#
# Static dielectric constant tensor:
#      x y z
#    x 3.463460 0.000080 0.135630 
#    y 0.000080 3.733340 -0.000100 
#    z 0.135630 -0.000100 3.569640 
# 
# 
# High freq. dielectric constant tensor:
#      x y z
#    x 1.748890 0.000000 -0.005590 
#    y 0.000000 1.725960 0.000000 
#    z -0.005590 0.000000 1.751630 
# 
# From -- ./inp_files/240808.got.cif
#   From: 2010.06.25/outbox.cif.g09.slc.cpg/sg15_121_cif.got.tgz:240808.got - 2010.06.28 07:06:18.
