data_PCOD8133095
_publ_section_title
;
Structure prediction by ZEFSAII (Michael W. Deem and Ramdas Pophale) SiO2 
 PCOD8133095
Probable space group: C 2/C
;
_chemical_formula_sum "Si O2"
_cell_formula_units_Z 60
_cell_length_a 13.665418
_cell_length_b 25.562485
_cell_length_c 17.340885
_cell_angle_alpha 90.000000
_cell_angle_beta 30.401539
_cell_angle_gamma 90.000000
_cell_volume 3065.466871
_symmetry_space_group_name_H-M "C 2/C"
_symmetry_group_IT_number 15
_symmetry_cell_setting 'monoclinic'
loop_
_space_group_symop_operation_xyz
x,y,z
-x,y,1/2-z
-x,-y,-z
x,-y,1/2+z
1/2+x,1/2+y,z
1/2-x,1/2+y,1/2-z
1/2-x,1/2-y,-z
1/2+x,1/2-y,1/2+z
loop_
_atom_site_type_symbol
_atom_site_label
_atom_site_fract_x
_atom_site_fract_y
_atom_site_fract_z
Si Si1 0.986123 0.201755 0.571535
Si Si2 0.117919 0.192341 0.029336
Si Si3 0.779279 0.099954 0.879195
Si Si4 0.500000 0.747645 0.250000
Si Si5 0.702495 0.970648 0.571488
Si Si6 0.291177 0.285516 0.354716
Si Si7 0.926750 0.917163 0.121250
Si Si8 0.778724 0.416013 0.398672
O O1 0.943187 0.213435 0.512219
O O2 0.811109 0.217592 0.747683
O O3 0.024230 0.140295 0.555562
O O4 0.170552 0.236754 0.469197
O O5 0.329301 0.216111 0.895825
O O6 0.137196 0.129620 0.024745
O O7 0.964738 0.210451 0.199008
O O8 0.686995 0.158612 0.946413
O O9 0.775573 0.076610 0.795094
O O10 0.000000 0.108313 0.750000
O O11 0.683653 0.058782 0.002463
O O12 0.500000 0.958912 0.750000
O O13 0.886177 0.953982 0.498195
O O14 0.731524 0.032955 0.539603
O O15 0.500000 0.281518 0.250000
O O16 0.796434 0.930761 0.135943
O O17 0.000000 0.395680 0.250000
#
# Coordination Sequence:
#
# PCOD8133095 Si02
#       8
#     8   8   8   4   8   8   8   8
#     4  10  20  32  53  79 110 140 183 214 269 324
#     4  10  20  37  57  81 110 143 179 226 268 325
#     4   8  17  35  53  77 109 149 183 219 277 332
#     4  10  20  36  58  78 110 140 176 218 280 310
#     4  10  20  35  57  82 108 141 185 233 282 327
#     4  10  19  32  50  79 111 148 178 217 267 332
#     4   9  19  36  57  77 110 149 181 226 279 334
#     4  10  20  37  59  81 107 147 191 227 275 328
#
# _framework density 19.572876000000001
#
# number of rings (size 3 to 8) (size 9 to 14) (size 15 to 20)
#    0.000    2.400    0.667    2.400    0.000    1.600 
#    3.600    2.667    0.000    0.000    0.000    0.000 
#    0.000    0.000    0.000    0.000    0.000    0.000 
#
# Total GULP energy -371694.318297 kJ/mol
# GULP energy per Si atom -12389.810610 kJ/mol
# Density = 1.952833 g / cm^3
# Si number density = 19.572876 Si / 1000 Ang^3
#
#
#
# Elastic Constant Matrix: (Units=GPa)
#
#
# Indices 1 2 3 4 5 6 
#
# 1 80.8204 26.1686 25.4193 -0.0285 18.0752 0.0021
# 2 26.1686 112.5137 48.6714 -0.0139 12.9042 -0.0053
# 3 25.4193 48.6714 71.4959 -0.1102 16.1688 -0.0090
# 4 -0.0285 -0.0139 -0.1102 1.6976 0.0317 2.1269
# 5 18.0752 12.9042 16.1688 0.0317 35.7411 0.0040
# 6 0.0021 -0.0053 -0.0090 2.1269 0.0040 24.6827
#
#
#
# Elastic Compliance Matrix: (Units=1/GPa)
#
#
# Indices 1 2 3 4 5 6 
#
# 1 0.015103 -0.001550 -0.003023 0.000173 -0.005711 -0.000017
# 2 -0.001550 0.012775 -0.008110 -0.000499 -0.000159 0.000043
# 3 -0.003023 -0.008110 0.021809 0.001558 -0.005410 -0.000127
# 4 0.000173 -0.000499 0.001558 0.660487 -0.001191 -0.056914
# 5 -0.005711 -0.000159 -0.005410 -0.001191 0.033373 0.000096
# 6 -0.000017 0.000043 -0.000127 -0.056914 0.000096 0.045419
#
#
# Mechanical properties :
#
#
# Convention : Reuss Voigt Hill
#
# Bulk Modulus (GPa) = 41.11769 51.70543 46.41156
# Shear Modulus (GPa) = 6.07949 23.39568 14.73758
#
# Velocity S-wave (km/s) = 1.76432 3.46108 2.74699
# Velocity P-wave (km/s) = 5.02031 6.51508 5.81592
#
# Compressibility (1/GPa) = 0.02432043
#
# Stress axis : x y z
#
# Youngs Moduli (GPa) = 66.21200 78.27867 45.85364
#
# Poissons Ratio (x) = 0.12134 0.13859
# Poissons Ratio (y) = 0.10264 0.37189
# Poissons Ratio (z) = 0.20013 0.63486
#
# Static dielectric constant tensor:
#      x y z
#    x 4.169010 -0.000030 0.611720 
#    y -0.000030 3.686970 0.000090 
#    z 0.611720 0.000090 3.623200 
# 
# 
# High freq. dielectric constant tensor:
#      x y z
#    x 1.760610 0.000000 0.016460 
#    y 0.000000 1.770090 0.000010 
#    z 0.016460 0.000010 1.736620 
# 
# From -- ./inp_files/207230.got.cif
#   From: 2010.06.25/outbox.cif.g09.slc.cpg/sg15_104_cif.got.tgz:207230.got - 2010.06.28 07:06:18.
