data_PCOD8133779
_publ_section_title
;
Structure prediction by ZEFSAII (Michael W. Deem and Ramdas Pophale) SiO2 
 PCOD8133779
Probable space group: C 2/C
;
_chemical_formula_sum "Si O2"
_cell_formula_units_Z 48
_cell_length_a 23.736021
_cell_length_b 26.143020
_cell_length_c 5.305470
_cell_angle_alpha 90.000000
_cell_angle_beta 53.500785
_cell_angle_gamma 90.000000
_cell_volume 2646.492462
_symmetry_space_group_name_H-M "C 2/C"
_symmetry_group_IT_number 15
_symmetry_cell_setting 'monoclinic'
loop_
_space_group_symop_operation_xyz
x,y,z
-x,y,1/2-z
-x,-y,-z
x,-y,1/2+z
1/2+x,1/2+y,z
1/2-x,1/2+y,1/2-z
1/2-x,1/2-y,-z
1/2+x,1/2-y,1/2+z
loop_
_atom_site_type_symbol
_atom_site_label
_atom_site_fract_x
_atom_site_fract_y
_atom_site_fract_z
Si Si1 0.584978 0.024775 0.146368
Si Si2 0.500000 0.181633 0.750000
Si Si3 0.775019 0.815962 0.238901
Si Si4 0.649444 0.217855 0.357391
Si Si5 0.239721 0.363841 0.823732
Si Si6 0.238401 0.517657 0.284005
Si Si7 0.000000 0.618349 0.250000
O O1 0.551234 0.994692 0.997770
O O2 0.668319 0.016621 0.931151
O O3 0.567780 0.084337 0.146521
O O4 0.567530 0.216497 0.507323
O O5 0.481475 0.150271 0.547922
O O6 0.698261 0.788433 0.475761
O O7 0.833861 0.772147 0.055790
O O8 0.789704 0.850328 0.450602
O O9 0.778654 0.851322 0.982051
O O10 0.669237 0.170625 0.492242
O O11 0.219470 0.423163 0.865637
O O12 0.280735 0.505185 0.912454
#
# Coordination Sequence:
#
# PCOD8133779 Si02
#       7
#     8   4   8   8   8   8   4
#     4  10  21  34  47  58  91 135 186 216 243 281
#     4  12  28  33  56  76 108 132 182 227 262 298
#     4   9  20  36  60  72  97 128 185 216 273 325
#     4   9  23  36  55  78  99 131 177 227 271 308
#     4  10  19  34  57  75  95 138 182 214 261 315
#     4  10  21  30  47  72 101 133 171 221 253 286
#     4  12  26  37  46  68 102 154 182 209 254 302
#
# _framework density 18.137212999999999
#
# number of rings (size 3 to 8) (size 9 to 14) (size 15 to 20)
#    1.000    1.000    0.000    3.000   11.667    0.000 
#    0.000    0.000    0.000    0.000    0.000    0.000 
#    0.000    0.000    0.000   15.000    0.000    0.000 
#
# Total GULP energy -297333.964416 kJ/mol
# GULP energy per Si atom -12388.915184 kJ/mol
# Density = 1.809593 g / cm^3
# Si number density = 18.137213 Si / 1000 Ang^3
#
#
#
# Elastic Constant Matrix: (Units=GPa)
#
#
# Indices 1 2 3 4 5 6 
#
# 1 69.1181 39.6893 52.8295 0.0000 24.8479 0.0000
# 2 39.6893 91.5619 30.4536 0.0000 0.3715 0.0000
# 3 52.8295 30.4536 70.8946 0.0000 28.8995 0.0000
# 4 0.0000 0.0000 0.0000 19.5159 0.0000 7.6992
# 5 24.8479 0.3715 28.8995 0.0000 44.7428 0.0000
# 6 0.0000 0.0000 0.0000 7.6992 0.0000 23.9823
#
#
#
# Elastic Compliance Matrix: (Units=1/GPa)
#
#
# Indices 1 2 3 4 5 6 
#
# 1 0.040091 -0.009853 -0.022533 0.000000 -0.007628 0.000000
# 2 -0.009853 0.015920 -0.002271 0.000000 0.006807 0.000000
# 3 -0.022533 -0.002271 0.036329 0.000000 -0.010932 0.000000
# 4 0.000000 0.000000 0.000000 0.058671 0.000000 -0.018836
# 5 -0.007628 0.006807 -0.010932 0.000000 0.033591 0.000000
# 6 0.000000 0.000000 0.000000 -0.018836 0.000000 0.047744
#
#
# Mechanical properties :
#
#
# Convention : Reuss Voigt Hill
#
# Bulk Modulus (GPa) = 43.42940 53.05771 48.24355
# Shear Modulus (GPa) = 16.16368 24.88837 20.52603
#
# Velocity S-wave (km/s) = 2.98852 3.70838 3.36774
# Velocity P-wave (km/s) = 5.99210 6.90312 6.46368
#
# Compressibility (1/GPa) = 0.02302588
#
# Stress axis : x y z
#
# Youngs Moduli (GPa) = 24.94335 62.81320 27.52644
#
# Poissons Ratio (x) = 0.61888 0.62025
# Poissons Ratio (y) = 0.24576 0.06252
# Poissons Ratio (z) = 0.56205 0.14266
#
# Static dielectric constant tensor:
#      x y z
#    x 3.302290 0.000000 0.675560 
#    y 0.000000 3.166330 0.000000 
#    z 0.675560 0.000000 3.571270 
# 
# 
# High freq. dielectric constant tensor:
#      x y z
#    x 1.668230 0.000000 0.053780 
#    y 0.000000 1.691110 0.000000 
#    z 0.053780 0.000000 1.685670 
# 
# From -- ./inp_files/16332.got.cif
#   From: 2010.06.25/outbox.cif.g09.slc.cpg/sg15_9_cif.got.tgz:16332.got - 2010.06.28 07:06:18.
