data_PCOD8133920
_publ_section_title
;
Structure prediction by ZEFSAII (Michael W. Deem and Ramdas Pophale) SiO2 
 PCOD8133920
Probable space group: C 2/C
;
_chemical_formula_sum "Si O2"
_cell_formula_units_Z 64
_cell_length_a 19.233671
_cell_length_b 11.877046
_cell_length_c 18.012496
_cell_angle_alpha 90.000000
_cell_angle_beta 133.824630
_cell_angle_gamma 90.000000
_cell_volume 2968.645623
_symmetry_space_group_name_H-M "C 2/C"
_symmetry_group_IT_number 15
_symmetry_cell_setting 'monoclinic'
loop_
_space_group_symop_operation_xyz
x,y,z
-x,y,1/2-z
-x,-y,-z
x,-y,1/2+z
1/2+x,1/2+y,z
1/2-x,1/2+y,1/2-z
1/2-x,1/2-y,-z
1/2+x,1/2-y,1/2+z
loop_
_atom_site_type_symbol
_atom_site_label
_atom_site_fract_x
_atom_site_fract_y
_atom_site_fract_z
Si Si1 0.822378 0.104552 0.264537
Si Si2 0.623254 0.988734 0.621997
Si Si3 0.583905 0.164895 0.221173
Si Si4 0.875962 0.837832 0.965325
Si Si5 0.727020 0.025820 0.424580
Si Si6 0.713781 0.153004 0.796481
Si Si7 0.590879 0.383213 0.151390
Si Si8 0.392375 0.095842 0.036157
O O1 0.815340 0.140395 0.345735
O O2 0.825393 0.219897 0.219609
O O3 0.730367 0.033959 0.170952
O O4 0.908949 0.013413 0.319378
O O5 0.631335 0.092224 0.686221
O O6 0.565385 0.020739 0.502666
O O7 0.589864 0.876137 0.639001
O O8 0.661887 0.115877 0.332811
O O9 0.595409 0.300067 0.226043
O O10 0.474178 0.125646 0.158640
O O11 0.835445 0.925254 0.997488
O O12 0.851495 0.710966 0.971739
O O13 0.988988 0.860750 0.034934
O O14 0.691462 0.025928 0.483529
O O15 0.717629 0.902759 0.381183
O O16 0.820270 0.142035 0.839034
#
# Coordination Sequence:
#
# PCOD8133920 Si02
#       8
#     8   8   8   8   8   8   8   8
#     4  11  19  35  61  85 117 149 202 250 295 350
#     4  10  19  34  60  84 111 147 196 247 291 347
#     4  10  20  38  60  88 115 148 203 249 298 346
#     4  11  20  35  58  89 120 153 197 256 294 355
#     4  11  22  38  57  85 124 159 191 243 316 349
#     4  10  19  36  58  84 117 155 194 243 297 356
#     4  10  20  33  60  92 112 151 203 250 297 341
#     4  11  23  35  57  91 120 152 197 246 302 361
#
# _framework density 21.558653
#
# number of rings (size 3 to 8) (size 9 to 14) (size 15 to 20)
#    0.000    1.500    6.250    1.500    1.750    0.000 
#    0.000    0.625    0.000    0.000    6.500    0.000 
#    0.000    0.000    0.000    0.000    0.000    0.000 
#
# Total GULP energy -396505.176581 kJ/mol
# GULP energy per Si atom -12390.786768 kJ/mol
# Density = 2.150958 g / cm^3
# Si number density = 21.558653 Si / 1000 Ang^3
#
#
#
# Elastic Constant Matrix: (Units=GPa)
#
#
# Indices 1 2 3 4 5 6 
#
# 1 66.2802 23.1760 -3.8371 0.0000 -3.6224 0.0000
# 2 23.1760 143.7133 8.6762 0.0000 -9.1343 0.0000
# 3 -3.8371 8.6762 36.9854 0.0000 5.3158 0.0000
# 4 0.0000 0.0000 0.0000 22.6675 0.0000 4.6563
# 5 -3.6224 -9.1343 5.3158 0.0000 18.8347 0.0000
# 6 0.0000 0.0000 0.0000 4.6563 0.0000 22.7535
#
#
#
# Elastic Compliance Matrix: (Units=1/GPa)
#
#
# Indices 1 2 3 4 5 6 
#
# 1 0.016210 -0.002665 0.002131 0.000000 0.001224 0.000000
# 2 -0.002665 0.007807 -0.002687 0.000000 0.004032 0.000000
# 3 0.002131 -0.002687 0.029202 0.000000 -0.009135 0.000000
# 4 0.000000 0.000000 0.000000 0.046052 0.000000 -0.009424
# 5 0.001224 0.004032 -0.009135 0.000000 0.057863 0.000000
# 6 0.000000 0.000000 0.000000 -0.009424 0.000000 0.045878
#
#
# Mechanical properties :
#
#
# Convention : Reuss Voigt Hill
#
# Bulk Modulus (GPa) = 21.37859 33.66769 27.52314
# Shear Modulus (GPa) = 22.21779 27.44873 24.83326
#
# Velocity S-wave (km/s) = 3.21374 3.57208 3.39764
# Velocity P-wave (km/s) = 4.86917 5.71522 5.30907
#
# Compressibility (1/GPa) = 0.04677576
#
# Stress axis : x y z
#
# Youngs Moduli (GPa) = 61.69212 128.09745 34.24406
#
# Poissons Ratio (x) = 0.34137 -0.07297
# Poissons Ratio (y) = 0.16440 0.09202
# Poissons Ratio (z) = -0.13146 0.34423
#
# Static dielectric constant tensor:
#      x y z
#    x 3.849650 0.000000 0.254700 
#    y 0.000000 4.063610 0.000000 
#    z 0.254700 0.000000 3.750980 
# 
# 
# High freq. dielectric constant tensor:
#      x y z
#    x 1.822770 0.000000 0.024520 
#    y 0.000000 1.846370 0.000000 
#    z 0.024520 0.000000 1.833530 
# 
# From -- ./inp_files/215058.got.cif
#   From: 2010.06.25/outbox.cif.g09.slc.cpg/sg15_108_cif.got.tgz:215058.got - 2010.06.28 07:06:18.
