data_PCOD8133973
_publ_section_title
;
Structure prediction by ZEFSAII (Michael W. Deem and Ramdas Pophale) SiO2 
 PCOD8133973
Probable space group: C 2/C
;
_chemical_formula_sum "Si O2"
_cell_formula_units_Z 52
_cell_length_a 8.865701
_cell_length_b 10.784520
_cell_length_c 29.422251
_cell_angle_alpha 90.000000
_cell_angle_beta 124.440116
_cell_angle_gamma 90.000000
_cell_volume 2320.038161
_symmetry_space_group_name_H-M "C 2/C"
_symmetry_group_IT_number 15
_symmetry_cell_setting 'monoclinic'
loop_
_space_group_symop_operation_xyz
x,y,z
-x,y,1/2-z
-x,-y,-z
x,-y,1/2+z
1/2+x,1/2+y,z
1/2-x,1/2+y,1/2-z
1/2-x,1/2-y,-z
1/2+x,1/2-y,1/2+z
loop_
_atom_site_type_symbol
_atom_site_label
_atom_site_fract_x
_atom_site_fract_y
_atom_site_fract_z
Si Si1 0.621946 0.935676 0.663468
Si Si2 0.532582 0.215569 0.659654
Si Si3 0.012703 0.968009 0.055087
Si Si4 0.657703 0.803934 0.576518
Si Si5 0.000000 0.162361 0.250000
Si Si6 0.813454 0.342520 0.470728
Si Si7 0.768775 0.316324 0.629401
O O1 0.633496 0.902941 0.612584
O O2 0.821966 0.925604 0.720172
O O3 0.484728 0.840479 0.664851
O O4 0.531334 0.068778 0.654276
O O5 0.371804 0.281150 0.601880
O O6 0.503435 0.248346 0.707166
O O7 0.723139 0.265819 0.671886
O O8 0.807309 0.969013 0.042967
O O9 0.086086 0.831361 0.078640
O O10 0.150721 0.060846 0.102051
O O11 0.000000 0.000000 0.000000
O O12 0.533647 0.860809 0.514441
O O13 0.750000 0.250000 0.500000
O O14 0.782830 0.288416 0.415799
#
# Coordination Sequence:
#
# PCOD8133973 Si02
#       7
#     8   8   8   8   4   8   8
#     4  11  23  47  70  90 134 164 213 284 333 391
#     4  11  27  44  70 100 124 170 223 273 340 398
#     4  11  18  35  66  93 139 189 218 249 309 380
#     4  10  20  40  63  97 140 177 215 265 314 376
#     4  10  28  50  64  96 124 158 218 284 350 402
#     4  10  19  34  62  98 139 182 218 257 306 374
#     4  12  23  39  68 101 127 178 226 257 323 396
#
# _framework density 22.413423999999999
#
# number of rings (size 3 to 8) (size 9 to 14) (size 15 to 20)
#    0.000    1.231    7.692    0.000    0.000    6.154 
#    0.000    1.538    0.000    0.000    0.000    0.000 
#    0.000    0.000    0.000    0.000    0.000    0.000 
#
# Total GULP energy -322276.160753 kJ/mol
# GULP energy per Si atom -12395.236952 kJ/mol
# Density = 2.236241 g / cm^3
# Si number density = 22.413424 Si / 1000 Ang^3
#
#
#
# Elastic Constant Matrix: (Units=GPa)
#
#
# Indices 1 2 3 4 5 6 
#
# 1 135.1447 29.1789 49.3625 0.0000 23.0508 0.0000
# 2 29.1789 64.1091 27.5214 0.0000 5.8152 0.0000
# 3 49.3625 27.5214 84.8419 0.0000 22.0324 0.0000
# 4 0.0000 0.0000 0.0000 18.3610 0.0000 0.7705
# 5 23.0508 5.8152 22.0324 0.0000 41.4828 0.0000
# 6 0.0000 0.0000 0.0000 0.7705 0.0000 40.5757
#
#
#
# Elastic Compliance Matrix: (Units=1/GPa)
#
#
# Indices 1 2 3 4 5 6 
#
# 1 0.009983 -0.002453 -0.004247 0.000000 -0.002948 0.000000
# 2 -0.002453 0.018741 -0.005016 0.000000 0.001400 0.000000
# 3 -0.004247 -0.005016 0.017503 0.000000 -0.006233 0.000000
# 4 0.000000 0.000000 0.000000 0.054507 0.000000 -0.001035
# 5 -0.002948 0.001400 -0.006233 0.000000 0.028859 0.000000
# 6 0.000000 0.000000 0.000000 -0.001035 0.000000 0.024665
#
#
# Mechanical properties :
#
#
# Convention : Reuss Voigt Hill
#
# Bulk Modulus (GPa) = 43.86741 55.13570 49.50156
# Shear Modulus (GPa) = 26.98493 31.95274 29.46884
#
# Velocity S-wave (km/s) = 3.47358 3.77982 3.62993
# Velocity P-wave (km/s) = 5.97512 6.61076 6.30096
#
# Compressibility (1/GPa) = 0.02279597
#
# Stress axis : x y z
#
# Youngs Moduli (GPa) = 100.16817 53.35862 57.13186
#
# Poissons Ratio (x) = 0.13090 0.24265
# Poissons Ratio (y) = 0.24573 0.28655
# Poissons Ratio (z) = 0.42543 0.26762
#
# Static dielectric constant tensor:
#      x y z
#    x 4.660090 0.000000 0.504840 
#    y 0.000000 4.059870 0.000000 
#    z 0.504840 0.000000 3.984440 
# 
# 
# High freq. dielectric constant tensor:
#      x y z
#    x 1.901410 0.000000 0.017580 
#    y 0.000000 1.880790 0.000000 
#    z 0.017580 0.000000 1.861130 
# 
# From -- ./inp_files/307299.got.cif
#   From: 2010.06.25/outbox.cif.g09.slc.cpg/sg15_154_cif.got.tgz:307299.got - 2010.06.28 07:06:18.
