data_PCOD8133990
_publ_section_title
;
Structure prediction by ZEFSAII (Michael W. Deem and Ramdas Pophale) SiO2 
 PCOD8133990
Probable space group: C 2/C
;
_chemical_formula_sum "Si O2"
_cell_formula_units_Z 64
_cell_length_a 13.130043
_cell_length_b 15.721274
_cell_length_c 13.522261
_cell_angle_alpha 90.000000
_cell_angle_beta 112.767870
_cell_angle_gamma 90.000000
_cell_volume 2573.783132
_symmetry_space_group_name_H-M "C 2/C"
_symmetry_group_IT_number 15
_symmetry_cell_setting 'monoclinic'
loop_
_space_group_symop_operation_xyz
x,y,z
-x,y,1/2-z
-x,-y,-z
x,-y,1/2+z
1/2+x,1/2+y,z
1/2-x,1/2+y,1/2-z
1/2-x,1/2-y,-z
1/2+x,1/2-y,1/2+z
loop_
_atom_site_type_symbol
_atom_site_label
_atom_site_fract_x
_atom_site_fract_y
_atom_site_fract_z
Si Si1 0.707692 0.003979 0.001634
Si Si2 0.239955 0.788750 0.652332
Si Si3 0.018490 0.455910 0.138088
Si Si4 0.855358 0.150089 0.585955
Si Si5 0.472453 0.227487 0.845651
Si Si6 0.065305 0.937938 0.100129
Si Si7 0.231588 0.527386 0.283223
Si Si8 0.672733 0.667372 0.478899
O O1 0.574406 0.995663 0.963228
O O2 0.722457 0.010487 0.889217
O O3 0.767461 0.091627 0.062111
O O4 0.765016 0.922829 0.071425
O O5 0.163999 0.808179 0.528402
O O6 0.337805 0.722202 0.663261
O O7 0.155821 0.752040 0.700972
O O8 0.291420 0.872153 0.720311
O O9 0.009931 0.360575 0.088346
O O10 0.143594 0.492525 0.168431
O O11 0.000000 0.468038 0.250000
O O12 0.978304 0.111648 0.636897
O O13 0.500000 0.191301 0.750000
O O14 0.551328 0.307514 0.894967
O O15 0.143883 0.996959 0.200340
O O16 0.143322 0.866806 0.077482
O O17 0.000000 0.000000 0.000000
O O18 0.750000 0.750000 0.500000
#
# Coordination Sequence:
#
# PCOD8133990 Si02
#       8
#     8   8   8   8   8   8   8   8
#     4   9  17  32  58  91 118 159 207 257 311 367
#     4  10  20  37  59  91 117 160 206 264 312 369
#     4   9  18  34  57  81 117 168 201 242 314 386
#     4  10  19  34  64  90 122 156 212 266 314 369
#     4  11  22  36  59  86 123 164 204 262 321 372
#     4  11  17  33  62  96 117 166 211 254 314 381
#     4   9  18  33  62  81 119 170 212 242 316 386
#     4  11  19  32  59  95 121 155 213 261 307 369
#
# _framework density 24.866119000000001
#
# number of rings (size 3 to 8) (size 9 to 14) (size 15 to 20)
#    0.000    2.000    6.250    0.000    1.750    0.000 
#    0.000    1.875   19.250    1.500    0.000    0.000 
#    0.000    0.000    0.000    0.000    0.000    0.000 
#
# Total GULP energy -396440.480743 kJ/mol
# GULP energy per Si atom -12388.765023 kJ/mol
# Density = 2.480952 g / cm^3
# Si number density = 24.866119 Si / 1000 Ang^3
#
#
#
# Elastic Constant Matrix: (Units=GPa)
#
#
# Indices 1 2 3 4 5 6 
#
# 1 162.5250 79.9667 26.0971 0.0000 37.6001 0.0000
# 2 79.9667 180.3234 34.5861 0.0000 29.0192 0.0000
# 3 26.0971 34.5861 57.1654 0.0000 26.2365 0.0000
# 4 0.0000 0.0000 0.0000 17.1535 0.0000 13.6253
# 5 37.6001 29.0192 26.2365 0.0000 32.5867 0.0000
# 6 0.0000 0.0000 0.0000 13.6253 0.0000 45.8240
#
#
#
# Elastic Compliance Matrix: (Units=1/GPa)
#
#
# Indices 1 2 3 4 5 6 
#
# 1 0.009659 -0.003057 0.002071 0.000000 -0.010090 0.000000
# 2 -0.003057 0.007590 -0.002717 0.000000 -0.001045 0.000000
# 3 0.002071 -0.002717 0.028832 0.000000 -0.023183 0.000000
# 4 0.000000 0.000000 0.000000 0.076323 0.000000 -0.022694
# 5 -0.010090 -0.001045 -0.023183 0.000000 0.061925 0.000000
# 6 0.000000 0.000000 0.000000 -0.022694 0.000000 0.028570
#
#
# Mechanical properties :
#
#
# Convention : Reuss Voigt Hill
#
# Bulk Modulus (GPa) = 25.85712 75.70150 50.77931
# Shear Modulus (GPa) = 21.44106 36.40377 28.92242
#
# Velocity S-wave (km/s) = 2.93961 3.83036 3.41416
# Velocity P-wave (km/s) = 4.68432 7.07616 6.00062
#
# Compressibility (1/GPa) = 0.03867406
#
# Stress axis : x y z
#
# Youngs Moduli (GPa) = 103.53446 131.74477 34.68400
#
# Poissons Ratio (x) = 0.40270 -0.07182
# Poissons Ratio (y) = 0.31647 0.09425
# Poissons Ratio (z) = -0.21440 0.35801
#
# Static dielectric constant tensor:
#      x y z
#    x 5.032610 0.000000 0.198370 
#    y 0.000000 4.560630 0.000000 
#    z 0.198370 0.000000 4.202510 
# 
# 
# High freq. dielectric constant tensor:
#      x y z
#    x 2.005770 0.000000 0.008270 
#    y 0.000000 1.998570 0.000000 
#    z 0.008270 0.000000 1.953130 
# 
# From -- ./inp_files/205429.got.cif
#   From: 2010.06.25/outbox.cif.g09.slc.cpg/sg15_103_cif.got.tgz:205429.got - 2010.06.28 07:06:18.
