data_PCOD8133382
_publ_section_title
;
Structure prediction by ZEFSAII (Michael W. Deem and Ramdas Pophale) SiO2 
 PCOD8133382
Probable space group: C 2/C
;
_chemical_formula_sum "Si O2"
_cell_formula_units_Z 52
_cell_length_a 16.627993
_cell_length_b 16.112990
_cell_length_c 16.472268
_cell_angle_alpha 90.000000
_cell_angle_beta 145.724199
_cell_angle_gamma 90.000000
_cell_volume 2485.503350
_symmetry_space_group_name_H-M "C 2/C"
_symmetry_group_IT_number 15
_symmetry_cell_setting 'monoclinic'
loop_
_space_group_symop_operation_xyz
x,y,z
-x,y,1/2-z
-x,-y,-z
x,-y,1/2+z
1/2+x,1/2+y,z
1/2-x,1/2+y,1/2-z
1/2-x,1/2-y,-z
1/2+x,1/2-y,1/2+z
loop_
_atom_site_type_symbol
_atom_site_label
_atom_site_fract_x
_atom_site_fract_y
_atom_site_fract_z
Si Si1 0.558214 0.639925 0.190670
Si Si2 0.259450 0.103661 0.586551
Si Si3 0.577241 0.305150 0.530245
Si Si4 0.165066 0.932976 0.484003
Si Si5 0.255891 0.341751 0.244194
Si Si6 0.845566 0.971085 0.204293
Si Si7 0.000000 0.712717 0.750000
O O1 0.582675 0.638110 0.115018
O O2 0.671263 0.571395 0.320805
O O3 0.572660 0.732057 0.239507
O O4 0.396430 0.618013 0.081151
O O5 0.280852 0.142531 0.693263
O O6 0.370832 0.149633 0.618490
O O7 0.279886 0.003351 0.607387
O O8 0.680006 0.347275 0.547181
O O9 0.411995 0.298482 0.363728
O O10 0.637640 0.215115 0.602394
O O11 0.181754 0.920097 0.401296
O O12 0.006026 0.963624 0.372019
O O13 0.245941 0.430218 0.189464
#
# Coordination Sequence:
#
# PCOD8133382 Si02
#       7
#     8   8   8   8   8   8   4
#     4  10  19  33  54  82 109 149 187 228 276 336
#     4  10  20  34  53  79 114 146 185 228 283 333
#     4  10  20  36  58  82 114 148 188 231 277 330
#     4   9  18  35  56  81 107 147 189 229 272 329
#     4  10  20  37  57  84 114 150 188 231 276 331
#     4   9  18  34  58  82 108 143 195 232 265 323
#     4  12  20  32  54  82 116 140 176 238 288 334
#
# _framework density 20.921313999999999
#
# number of rings (size 3 to 8) (size 9 to 14) (size 15 to 20)
#    0.000    2.154    1.538    3.231    0.000    4.308 
#    0.000    1.538    0.000    2.769    0.000    0.000 
#    0.000    0.000    0.000    0.000    0.000    0.000 
#
# Total GULP energy -322097.626652 kJ/mol
# GULP energy per Si atom -12388.370256 kJ/mol
# Density = 2.087370 g / cm^3
# Si number density = 20.921314 Si / 1000 Ang^3
#
#
#
# Elastic Constant Matrix: (Units=GPa)
#
#
# Indices 1 2 3 4 5 6 
#
# 1 51.2128 26.8269 10.5237 -0.0007 -11.5146 -0.0005
# 2 26.8269 94.5842 30.6576 -0.0004 1.5786 -0.0003
# 3 10.5237 30.6576 43.0516 -0.0016 -1.7739 -0.0007
# 4 -0.0007 -0.0004 -0.0016 33.5541 -0.0013 -3.9516
# 5 -11.5146 1.5786 -1.7739 -0.0013 19.0529 -0.0004
# 6 -0.0005 -0.0003 -0.0007 -3.9516 -0.0004 34.1144
#
#
#
# Elastic Compliance Matrix: (Units=1/GPa)
#
#
# Indices 1 2 3 4 5 6 
#
# 1 0.027718 -0.008045 -0.000330 0.000001 0.017387 0.000001
# 2 -0.008045 0.016161 -0.009835 -0.000001 -0.007116 0.000000
# 3 -0.000330 -0.009835 0.030455 0.000002 0.003451 0.000001
# 4 0.000001 -0.000001 0.000002 0.030215 0.000003 0.003500
# 5 0.017387 -0.007116 0.003451 0.000003 0.063904 0.000001
# 6 0.000001 0.000000 0.000001 0.003500 0.000001 0.029719
#
#
# Mechanical properties :
#
#
# Convention : Reuss Voigt Hill
#
# Bulk Modulus (GPa) = 26.37625 36.09612 31.23618
# Shear Modulus (GPa) = 20.22421 25.40031 22.81226
#
# Velocity S-wave (km/s) = 3.11252 3.48816 3.30568
# Velocity P-wave (km/s) = 5.05488 5.78910 5.43440
#
# Compressibility (1/GPa) = 0.03791290
#
# Stress axis : x y z
#
# Youngs Moduli (GPa) = 36.07824 61.87749 32.83574
#
# Poissons Ratio (x) = 0.49778 0.01084
# Poissons Ratio (y) = 0.29024 0.32295
# Poissons Ratio (z) = 0.01191 0.60858
#
# Static dielectric constant tensor:
#      x y z
#    x 3.680440 0.000000 -0.088200 
#    y 0.000000 3.974170 0.000000 
#    z -0.088200 0.000000 3.404680 
# 
# 
# High freq. dielectric constant tensor:
#      x y z
#    x 1.811940 0.000000 -0.021470 
#    y 0.000000 1.817950 0.000000 
#    z -0.021470 0.000000 1.780100 
# 
# From -- ./inp_files/211699.got.cif
#   From: 2010.06.25/outbox.cif.g09.slc.cpg/sg15_106_cif.got.tgz:211699.got - 2010.06.28 07:06:18.
