data_PCOD8133343
_publ_section_title
;
Structure prediction by ZEFSAII (Michael W. Deem and Ramdas Pophale) SiO2 
 PCOD8133343
Probable space group: C 2/C
;
_chemical_formula_sum "Si O2"
_cell_formula_units_Z 56
_cell_length_a 6.207721
_cell_length_b 23.409619
_cell_length_c 23.568805
_cell_angle_alpha 90.000000
_cell_angle_beta 119.636078
_cell_angle_gamma 90.000000
_cell_volume 2976.978428
_symmetry_space_group_name_H-M "C 2/C"
_symmetry_group_IT_number 15
_symmetry_cell_setting 'monoclinic'
loop_
_space_group_symop_operation_xyz
x,y,z
-x,y,1/2-z
-x,-y,-z
x,-y,1/2+z
1/2+x,1/2+y,z
1/2-x,1/2+y,1/2-z
1/2-x,1/2-y,-z
1/2+x,1/2-y,1/2+z
loop_
_atom_site_type_symbol
_atom_site_label
_atom_site_fract_x
_atom_site_fract_y
_atom_site_fract_z
Si Si1 0.000000 0.558606 0.750000
Si Si2 0.868048 0.195963 0.355081
Si Si3 0.488518 0.120987 0.361277
Si Si4 0.686265 0.709532 0.907440
Si Si5 0.079166 0.706410 0.051619
Si Si6 0.991688 0.897318 0.182628
Si Si7 0.255364 0.508616 0.186884
Si Si8 0.000000 0.827177 0.750000
O O1 0.225312 0.597861 0.801076
O O2 0.078168 0.518689 0.709540
O O3 0.723103 0.135878 0.350214
O O4 0.699441 0.247009 0.356398
O O5 0.131167 0.196294 0.421575
O O6 0.915757 0.208509 0.294624
O O7 0.532737 0.154623 0.425484
O O8 0.236427 0.136647 0.297049
O O9 0.429643 0.054410 0.367321
O O10 0.475460 0.733347 0.923059
O O11 0.631171 0.647904 0.875047
O O12 0.948448 0.705861 0.973762
O O13 0.847633 0.958107 0.156484
O O14 0.000000 0.878903 0.250000
O O15 0.500000 0.535231 0.250000
#
# Coordination Sequence:
#
# PCOD8133343 Si02
#       8
#     4   8   8   8   8   8   8   4
#     4   8  18  32  51  78 102 137 174 212 268 318
#     4  10  21  33  53  81 109 141 181 221 280 321
#     4  10  19  33  53  80 112 138 173 225 271 326
#     4  10  20  39  57  72 110 148 182 227 265 326
#     4   9  21  36  55  80 102 145 189 221 270 322
#     4   9  20  35  53  80 104 138 183 217 268 319
#     4   9  18  33  54  78 107 141 177 216 271 325
#     4  10  20  32  49  84 110 133 172 218 272 320
#
# _framework density 18.811021
#
# number of rings (size 3 to 8) (size 9 to 14) (size 15 to 20)
#    0.000    2.857    0.714    0.857    2.000    6.857 
#    0.000    4.286    0.000    1.714    0.000    0.000 
#    0.000    0.000    0.000    0.000    0.000    0.000 
#
# Total GULP energy -346876.872515 kJ/mol
# GULP energy per Si atom -12388.459733 kJ/mol
# Density = 1.876821 g / cm^3
# Si number density = 18.811021 Si / 1000 Ang^3
#
#
#
# Elastic Constant Matrix: (Units=GPa)
#
#
# Indices 1 2 3 4 5 6 
#
# 1 111.7611 35.1020 27.5850 0.0000 8.6132 0.0000
# 2 35.1020 108.4138 41.9356 0.0000 2.0948 0.0000
# 3 27.5850 41.9356 69.5069 0.0000 -0.1063 0.0000
# 4 0.0000 0.0000 0.0000 27.6451 0.0000 8.4098
# 5 8.6132 2.0948 -0.1063 0.0000 17.6630 0.0000
# 6 0.0000 0.0000 0.0000 8.4098 0.0000 17.4953
#
#
#
# Elastic Compliance Matrix: (Units=1/GPa)
#
#
# Indices 1 2 3 4 5 6 
#
# 1 0.010762 -0.002260 -0.002915 0.000000 -0.004998 0.000000
# 2 -0.002260 0.012545 -0.006672 0.000000 -0.000426 0.000000
# 3 -0.002915 -0.006672 0.019573 0.000000 0.002331 0.000000
# 4 0.000000 0.000000 0.000000 0.042368 0.000000 -0.020366
# 5 -0.004998 -0.000426 0.002331 0.000000 0.059117 0.000000
# 6 0.000000 0.000000 0.000000 -0.020366 0.000000 0.066948
#
#
# Mechanical properties :
#
#
# Convention : Reuss Voigt Hill
#
# Bulk Modulus (GPa) = 52.12475 55.43635 53.78055
# Shear Modulus (GPa) = 20.71220 24.89798 22.80509
#
# Velocity S-wave (km/s) = 3.32183 3.64206 3.48562
# Velocity P-wave (km/s) = 6.51787 6.87170 6.69712
#
# Compressibility (1/GPa) = 0.01918474
#
# Stress axis : x y z
#
# Youngs Moduli (GPa) = 92.91725 79.71344 51.09054
#
# Poissons Ratio (x) = 0.18019 0.14893
# Poissons Ratio (y) = 0.21003 0.34089
# Poissons Ratio (z) = 0.27086 0.53187
#
# Static dielectric constant tensor:
#      x y z
#    x 3.750750 0.000000 0.085650 
#    y 0.000000 3.374340 0.000000 
#    z 0.085650 0.000000 3.211380 
# 
# 
# High freq. dielectric constant tensor:
#      x y z
#    x 1.746020 0.000000 0.006470 
#    y 0.000000 1.713320 0.000000 
#    z 0.006470 0.000000 1.703580 
# 
# From -- ./inp_files/261587.got.cif
#   From: 2010.06.25/outbox.cif.g09.slc.cpg/sg15_131_cif.got.tgz:261587.got - 2010.06.28 07:06:18.
