data_PCOD8133663
_publ_section_title
;
Structure prediction by ZEFSAII (Michael W. Deem and Ramdas Pophale) SiO2 
 PCOD8133663
Probable space group: C 2/C
;
_chemical_formula_sum "Si O2"
_cell_formula_units_Z 48
_cell_length_a 17.922759
_cell_length_b 9.004759
_cell_length_c 15.804900
_cell_angle_alpha 90.000000
_cell_angle_beta 90.703134
_cell_angle_gamma 90.000000
_cell_volume 2550.562721
_symmetry_space_group_name_H-M "C 2/C"
_symmetry_group_IT_number 15
_symmetry_cell_setting 'monoclinic'
loop_
_space_group_symop_operation_xyz
x,y,z
-x,y,1/2-z
-x,-y,-z
x,-y,1/2+z
1/2+x,1/2+y,z
1/2-x,1/2+y,1/2-z
1/2-x,1/2-y,-z
1/2+x,1/2-y,1/2+z
loop_
_atom_site_type_symbol
_atom_site_label
_atom_site_fract_x
_atom_site_fract_y
_atom_site_fract_z
Si Si1 0.962964 0.068140 0.837047
Si Si2 0.669651 0.261434 0.754918
Si Si3 0.408610 0.768218 0.600858
Si Si4 0.179252 0.896219 0.261361
Si Si5 0.578601 0.268334 0.589277
Si Si6 0.456506 0.923464 0.165859
O O1 0.881359 0.133185 0.813503
O O2 0.000000 0.010142 0.750000
O O3 0.010272 0.197499 0.880821
O O4 0.958332 0.930339 0.900574
O O5 0.742547 0.163330 0.771649
O O6 0.686205 0.429815 0.782063
O O7 0.645908 0.249456 0.656514
O O8 0.603101 0.203391 0.812694
O O9 0.344089 0.689708 0.653918
O O10 0.386649 0.748911 0.502937
O O11 0.412450 0.940885 0.623738
O O12 0.515161 0.143764 0.600300
O O13 0.500000 0.978952 0.250000
#
# Coordination Sequence:
#
# PCOD8133663 Si02
#       6
#     8   8   8   8   8   8
#     4   9  18  34  54  76 101 136 176 208 250 307
#     4  10  21  37  56  74 102 140 177 210 250 308
#     4  11  20  32  55  82 107 131 167 217 260 301
#     4  10  20  35  54  76 101 137 177 210 251 304
#     4  10  20  34  54  79 107 135 166 213 263 303
#     4  10  19  34  54  77 103 136 174 209 250 306
#
# _framework density 18.819375999999998
#
# number of rings (size 3 to 8) (size 9 to 14) (size 15 to 20)
#    0.000    2.000    0.000    7.000    0.000    2.000 
#    0.000    0.000    0.000    6.000    0.000    0.000 
#    0.000    0.000    0.000    0.000    0.000    0.000 
#
# Total GULP energy -297700.042309 kJ/mol
# GULP energy per Si atom -12404.168430 kJ/mol
# Density = 1.877654 g / cm^3
# Si number density = 18.819376 Si / 1000 Ang^3
#
#
#
# Elastic Constant Matrix: (Units=GPa)
#
#
# Indices 1 2 3 4 5 6 
#
# 1 72.6353 18.3037 2.3507 0.0000 1.8450 0.0000
# 2 18.3037 95.5738 18.0063 0.0000 -0.4299 0.0000
# 3 2.3507 18.0063 73.7807 0.0000 -7.8954 0.0000
# 4 0.0000 0.0000 0.0000 21.4260 0.0000 -0.5805
# 5 1.8450 -0.4299 -7.8954 0.0000 15.9088 0.0000
# 6 0.0000 0.0000 0.0000 -0.5805 0.0000 31.9895
#
#
#
# Elastic Compliance Matrix: (Units=1/GPa)
#
#
# Indices 1 2 3 4 5 6 
#
# 1 0.014515 -0.002794 0.000033 0.000000 -0.001742 0.000000
# 2 -0.002794 0.011523 -0.002804 0.000000 -0.000756 0.000000
# 3 0.000033 -0.002804 0.015027 0.000000 0.007378 0.000000
# 4 0.000000 0.000000 0.000000 0.046695 0.000000 0.000847
# 5 -0.001742 -0.000756 0.007378 0.000000 0.066702 0.000000
# 6 0.000000 0.000000 0.000000 0.000847 0.000000 0.031276
#
#
# Mechanical properties :
#
#
# Convention : Reuss Voigt Hill
#
# Bulk Modulus (GPa) = 33.40662 35.47902 34.44282
# Shear Modulus (GPa) = 24.17271 27.42013 25.79642
#
# Velocity S-wave (km/s) = 3.58782 3.82123 3.70636
# Velocity P-wave (km/s) = 5.91211 6.19374 6.05456
#
# Compressibility (1/GPa) = 0.02993419
#
# Stress axis : x y z
#
# Youngs Moduli (GPa) = 68.89602 86.78243 66.54903
#
# Poissons Ratio (x) = 0.24245 -0.00219
# Poissons Ratio (y) = 0.19248 0.18661
# Poissons Ratio (z) = -0.00227 0.24335
#
# Static dielectric constant tensor:
#      x y z
#    x 3.410600 0.000000 0.025610 
#    y 0.000000 3.424040 0.000000 
#    z 0.025610 0.000000 3.248260 
# 
# 
# High freq. dielectric constant tensor:
#      x y z
#    x 1.726240 0.000000 -0.001740 
#    y 0.000000 1.741110 0.000000 
#    z -0.001740 0.000000 1.710540 
# 
# From -- ./inp_files/159691.got.cif
#   From: 2010.06.25/outbox.cif.g09.slc.cpg/sg15_80_cif.got.tgz:159691.got - 2010.06.28 07:06:18.
