data_PCOD8133054
_publ_section_title
;
Structure prediction by ZEFSAII (Michael W. Deem and Ramdas Pophale) SiO2 
 PCOD8133054
Probable space group: C 2/C
;
_chemical_formula_sum "Si O2"
_cell_formula_units_Z 32
_cell_length_a 12.703948
_cell_length_b 30.239780
_cell_length_c 13.121163
_cell_angle_alpha 90.000000
_cell_angle_beta 157.765258
_cell_angle_gamma 90.000000
_cell_volume 1907.406411
_symmetry_space_group_name_H-M "C 2/C"
_symmetry_group_IT_number 15
_symmetry_cell_setting 'monoclinic'
loop_
_space_group_symop_operation_xyz
x,y,z
-x,y,1/2-z
-x,-y,-z
x,-y,1/2+z
1/2+x,1/2+y,z
1/2-x,1/2+y,1/2-z
1/2-x,1/2-y,-z
1/2+x,1/2-y,1/2+z
loop_
_atom_site_type_symbol
_atom_site_label
_atom_site_fract_x
_atom_site_fract_y
_atom_site_fract_z
Si Si1 0.184465 0.451613 0.758216
Si Si2 0.699178 0.364594 0.519764
Si Si3 0.152312 0.005175 0.287955
Si Si4 0.538896 0.273366 0.165138
O O1 0.239274 0.401594 0.840777
O O2 0.202473 0.456410 0.650480
O O3 0.882062 0.468277 0.525910
O O4 0.415954 0.482419 0.011637
O O5 0.538528 0.324073 0.430418
O O6 0.000000 0.347515 0.750000
O O7 0.500000 0.382698 0.250000
O O8 0.000000 0.026145 0.250000
O O9 0.500000 0.264901 0.250000
O O10 0.859708 0.260326 0.433851
#
# Coordination Sequence:
#
# PCOD8133054 Si02
#       4
#     8   8   8   8
#     4  10  20  30  44  65  83 109 146 174 206 252
#     4  11  19  27  42  61  85 112 139 173 204 242
#     4  10  19  32  46  60  85 113 139 176 214 246
#     4   9  16  26  38  55  80 110 137 161 200 248
#
# _framework density 16.776709
#
# number of rings (size 3 to 8) (size 9 to 14) (size 15 to 20)
#    0.000    2.000    0.000    8.250    0.000    0.000 
#    0.000    0.000    0.000    0.000    0.000    0.000 
#    0.000    2.000    0.000    0.000    0.000   24.000 
#
# Total GULP energy -198231.668132 kJ/mol
# GULP energy per Si atom -12389.479258 kJ/mol
# Density = 1.673852 g / cm^3
# Si number density = 16.776709 Si / 1000 Ang^3
#
#
#
# Elastic Constant Matrix: (Units=GPa)
#
#
# Indices 1 2 3 4 5 6 
#
# 1 85.8751 10.8875 0.1208 -0.0085 -2.3768 -0.0071
# 2 10.8875 115.8355 39.4262 0.0056 -4.7359 0.0053
# 3 0.1208 39.4262 107.9295 0.0086 6.5164 0.0086
# 4 -0.0085 0.0056 0.0086 34.6723 0.0029 -6.4440
# 5 -2.3768 -4.7359 6.5164 0.0029 17.2735 0.0033
# 6 -0.0071 0.0053 0.0086 -6.4440 0.0033 12.9096
#
#
#
# Elastic Compliance Matrix: (Units=1/GPa)
#
#
# Indices 1 2 3 4 5 6 
#
# 1 0.011827 -0.001182 0.000348 0.000005 0.001172 0.000009
# 2 -0.001182 0.010277 -0.004004 -0.000002 0.004166 -0.000004
# 3 0.000348 -0.004004 0.011043 -0.000003 -0.005216 -0.000005
# 4 0.000005 -0.000002 -0.000003 0.031791 -0.000007 0.015869
# 5 0.001172 0.004166 -0.005216 -0.000007 0.061163 -0.000017
# 6 0.000009 -0.000004 -0.000005 0.015869 -0.000017 0.085383
#
#
# Mechanical properties :
#
#
# Convention : Reuss Voigt Hill
#
# Bulk Modulus (GPa) = 42.60908 45.61212 44.11060
# Shear Modulus (GPa) = 21.83557 30.25145 26.04351
#
# Velocity S-wave (km/s) = 3.61160 4.25099 3.94428
# Velocity P-wave (km/s) = 6.54557 7.16529 6.86243
#
# Compressibility (1/GPa) = 0.02346918
#
# Stress axis : x y z
#
# Youngs Moduli (GPa) = 84.55495 97.30166 90.55803
#
# Poissons Ratio (x) = 0.11502 -0.03150
# Poissons Ratio (y) = 0.09995 0.36264
# Poissons Ratio (z) = -0.02941 0.38964
#
# Static dielectric constant tensor:
#      x y z
#    x 2.972040 0.000010 0.046690 
#    y 0.000010 3.008300 0.000010 
#    z 0.046690 0.000010 3.679110 
# 
# 
# High freq. dielectric constant tensor:
#      x y z
#    x 1.580300 0.000000 0.009810 
#    y 0.000000 1.627020 0.000000 
#    z 0.009810 0.000000 1.684860 
# 
# From -- ./inp_files/5224.got.cif
#   From: 2010.06.25/outbox.cif.g09.slc.cpg/sg15_3_cif.got.tgz:5224.got - 2010.06.28 07:06:18.
