data_PCOD8133701
_publ_section_title
;
Structure prediction by ZEFSAII (Michael W. Deem and Ramdas Pophale) SiO2 
 PCOD8133701
Probable space group: C 2/C
;
_chemical_formula_sum "Si O2"
_cell_formula_units_Z 40
_cell_length_a 13.919069
_cell_length_b 15.782842
_cell_length_c 17.231363
_cell_angle_alpha 90.000000
_cell_angle_beta 146.174487
_cell_angle_gamma 90.000000
_cell_volume 2107.217680
_symmetry_space_group_name_H-M "C 2/C"
_symmetry_group_IT_number 15
_symmetry_cell_setting 'monoclinic'
loop_
_space_group_symop_operation_xyz
x,y,z
-x,y,1/2-z
-x,-y,-z
x,-y,1/2+z
1/2+x,1/2+y,z
1/2-x,1/2+y,1/2-z
1/2-x,1/2-y,-z
1/2+x,1/2-y,1/2+z
loop_
_atom_site_type_symbol
_atom_site_label
_atom_site_fract_x
_atom_site_fract_y
_atom_site_fract_z
Si Si1 0.833963 0.112085 0.259826
Si Si2 0.597481 0.570182 0.739220
Si Si3 0.895112 0.299182 0.254850
Si Si4 0.538497 0.149772 0.531607
Si Si5 0.491085 0.663227 0.973939
O O1 0.900306 0.197170 0.262757
O O2 0.627614 0.103019 0.114715
O O3 0.882760 0.113254 0.383521
O O4 0.923183 0.030890 0.281357
O O5 0.500000 0.602139 0.750000
O O6 0.507296 0.615493 0.606293
O O7 0.797784 0.593644 0.880024
O O8 0.699942 0.332299 0.116912
O O9 0.000000 0.329883 0.250000
O O10 0.983702 0.339074 0.390390
O O11 0.561724 0.241904 0.507879
#
# Coordination Sequence:
#
# PCOD8133701 Si02
#       5
#     8   8   8   8   8
#     4  10  19  34  55  78 106 132 165 214 263 302
#     4  11  22  35  53  77 104 137 174 212 254 299
#     4   9  18  33  55  81 106 133 166 206 258 315
#     4   9  20  37  54  74 104 139 172 209 253 304
#     4   9  20  37  54  74 104 139 172 209 253 304
#
# _framework density 18.982378000000001
#
# number of rings (size 3 to 8) (size 9 to 14) (size 15 to 20)
#    0.000    2.400    0.000    3.000    0.000    9.600 
#    0.000    1.000    0.000    0.000    0.000    0.000 
#    0.000    0.000    0.000    0.000    0.000    0.000 
#
# Total GULP energy -248042.557774 kJ/mol
# GULP energy per Si atom -12402.127889 kJ/mol
# Density = 1.893917 g / cm^3
# Si number density = 18.982378 Si / 1000 Ang^3
#
#
#
# Elastic Constant Matrix: (Units=GPa)
#
#
# Indices 1 2 3 4 5 6 
#
# 1 132.3790 44.0015 51.2948 0.0009 -17.9857 0.0003
# 2 44.0015 74.5835 29.7398 0.0017 -9.6272 0.0004
# 3 51.2948 29.7398 132.7063 0.0037 -24.7946 0.0013
# 4 0.0009 0.0017 0.0037 8.9152 0.0015 2.0957
# 5 -17.9857 -9.6272 -24.7946 0.0015 9.8045 0.0005
# 6 0.0003 0.0004 0.0013 2.0957 0.0005 13.9497
#
#
#
# Elastic Compliance Matrix: (Units=1/GPa)
#
#
# Indices 1 2 3 4 5 6 
#
# 1 0.011294 -0.004519 -0.000589 -0.000003 0.014791 0.000000
# 2 -0.004519 0.017260 -0.000955 -0.000003 0.006244 0.000000
# 3 -0.000589 -0.000955 0.014408 -0.000011 0.034417 -0.000001
# 4 -0.000003 -0.000003 -0.000011 0.116275 -0.000054 -0.017468
# 5 0.014791 0.006244 0.034417 -0.000054 0.222296 -0.000003
# 6 0.000000 0.000000 -0.000001 -0.017468 -0.000003 0.074310
#
#
# Mechanical properties :
#
#
# Convention : Reuss Voigt Hill
#
# Bulk Modulus (GPa) = 32.42936 65.52677 48.97807
# Shear Modulus (GPa) = 10.45483 20.84272 15.64878
#
# Velocity S-wave (km/s) = 2.34938 3.31721 2.87432
# Velocity P-wave (km/s) = 4.94778 7.01901 6.07236
#
# Compressibility (1/GPa) = 0.03083625
#
# Stress axis : x y z
#
# Youngs Moduli (GPa) = 88.54270 57.93586 69.40800
#
# Poissons Ratio (x) = 0.26180 0.04090
# Poissons Ratio (y) = 0.40011 0.06627
# Poissons Ratio (z) = 0.05218 0.05531
#
# Static dielectric constant tensor:
#      x y z
#    x 3.074010 0.000000 -0.113430 
#    y 0.000000 3.400110 0.000000 
#    z -0.113430 0.000000 3.687530 
# 
# 
# High freq. dielectric constant tensor:
#      x y z
#    x 1.706130 0.000000 -0.008570 
#    y 0.000000 1.736930 0.000000 
#    z -0.008570 0.000000 1.755700 
# 
# From -- ./inp_files/37968.got.cif
#   From: 2010.06.25/outbox.cif.g09.slc.cpg/sg15_19_cif.got.tgz:37968.got - 2010.06.28 07:06:18.
