data_PCOD8133839
_publ_section_title
;
Structure prediction by ZEFSAII (Michael W. Deem and Ramdas Pophale) SiO2 
 PCOD8133839
Probable space group: C 2/C
;
_chemical_formula_sum "Si O2"
_cell_formula_units_Z 60
_cell_length_a 20.627355
_cell_length_b 8.511959
_cell_length_c 19.203215
_cell_angle_alpha 90.000000
_cell_angle_beta 75.563460
_cell_angle_gamma 90.000000
_cell_volume 3265.222025
_symmetry_space_group_name_H-M "C 2/C"
_symmetry_group_IT_number 15
_symmetry_cell_setting 'monoclinic'
loop_
_space_group_symop_operation_xyz
x,y,z
-x,y,1/2-z
-x,-y,-z
x,-y,1/2+z
1/2+x,1/2+y,z
1/2-x,1/2+y,1/2-z
1/2-x,1/2-y,-z
1/2+x,1/2-y,1/2+z
loop_
_atom_site_type_symbol
_atom_site_label
_atom_site_fract_x
_atom_site_fract_y
_atom_site_fract_z
Si Si1 0.278429 0.189677 0.919239
Si Si2 0.178726 0.790571 0.827247
Si Si3 0.089336 0.147248 0.169199
Si Si4 0.381411 0.702004 0.799284
Si Si5 0.272303 0.171989 0.424261
Si Si6 0.000000 0.566884 0.250000
Si Si7 0.785375 0.139092 0.708853
Si Si8 0.958334 0.289068 0.177905
O O1 0.343658 0.295845 0.887285
O O2 0.225432 0.199716 0.868134
O O3 0.296890 0.007587 0.924394
O O4 0.250000 0.250000 0.000000
O O5 0.206152 0.807873 0.896725
O O6 0.215800 0.660385 0.769577
O O7 0.101303 0.738788 0.861099
O O8 0.191218 0.959364 0.788203
O O9 0.078951 0.251150 0.239792
O O10 0.022031 0.178484 0.140690
O O11 0.089625 0.969678 0.195021
O O12 0.331710 0.728350 0.876231
O O13 0.439196 0.826773 0.789441
O O14 0.344025 0.730957 0.734791
O O15 0.250000 0.250000 0.500000
O O16 0.982665 0.467339 0.184491
#
# Coordination Sequence:
#
# PCOD8133839 Si02
#       8
#     8   8   8   8   8   4   8   8
#     4  11  21  37  58  81 115 153 187 228 281 341
#     4  10  20  34  59  82 115 143 184 239 272 330
#     4  10  19  34  58  83 109 148 185 222 286 335
#     4  11  20  35  58  85 113 140 185 241 274 328
#     4  10  22  37  56  84 114 146 187 234 282 326
#     4  10  22  32  54  84 116 148 180 228 282 336
#     4  10  20  33  55  86 109 139 190 229 280 319
#     4  10  19  35  55  83 116 146 181 228 280 340
#
# _framework density 18.375473
#
# number of rings (size 3 to 8) (size 9 to 14) (size 15 to 20)
#    0.000    1.867    2.667    3.200    3.733    1.067 
#    0.000    0.000    2.933    4.000    0.000    0.000 
#    0.000    0.000    0.000    0.000    0.000    0.000 
#
# Total GULP energy -371700.892197 kJ/mol
# GULP energy per Si atom -12390.029740 kJ/mol
# Density = 1.833365 g / cm^3
# Si number density = 18.375473 Si / 1000 Ang^3
#
#
#
# Elastic Constant Matrix: (Units=GPa)
#
#
# Indices 1 2 3 4 5 6 
#
# 1 141.7908 56.6091 30.9813 0.0000 -2.4491 0.0000
# 2 56.6091 89.0047 32.8020 0.0000 7.6542 0.0000
# 3 30.9813 32.8020 79.7922 0.0000 -1.3747 0.0000
# 4 0.0000 0.0000 0.0000 25.7105 0.0000 -6.9205
# 5 -2.4491 7.6542 -1.3747 0.0000 16.0027 0.0000
# 6 0.0000 0.0000 0.0000 -6.9205 0.0000 31.9588
#
#
#
# Elastic Compliance Matrix: (Units=1/GPa)
#
#
# Indices 1 2 3 4 5 6 
#
# 1 0.009871 -0.006211 -0.001204 0.000000 0.004378 0.000000
# 2 -0.006211 0.017935 -0.005133 0.000000 -0.009970 0.000000
# 3 -0.001204 -0.005133 0.015172 0.000000 0.003574 0.000000
# 4 0.000000 0.000000 0.000000 0.041302 0.000000 0.008944
# 5 0.004378 -0.009970 0.003574 0.000000 0.068235 0.000000
# 6 0.000000 0.000000 0.000000 0.008944 0.000000 0.033227
#
#
# Mechanical properties :
#
#
# Convention : Reuss Voigt Hill
#
# Bulk Modulus (GPa) = 55.92341 61.26359 58.59350
# Shear Modulus (GPa) = 23.06290 27.41410 25.23850
#
# Velocity S-wave (km/s) = 3.54657 3.86668 3.71008
# Velocity P-wave (km/s) = 6.87537 7.30392 7.09288
#
# Compressibility (1/GPa) = 0.01788160
#
# Stress axis : x y z
#
# Youngs Moduli (GPa) = 101.30646 55.75732 65.91197
#
# Poissons Ratio (x) = 0.34631 0.07935
# Poissons Ratio (y) = 0.62922 0.33833
# Poissons Ratio (z) = 0.12197 0.28621
#
# Static dielectric constant tensor:
#      x y z
#    x 4.348450 0.000000 0.131530 
#    y 0.000000 3.615360 0.000000 
#    z 0.131530 0.000000 3.091950 
# 
# 
# High freq. dielectric constant tensor:
#      x y z
#    x 1.724110 0.000000 0.003510 
#    y 0.000000 1.724280 0.000000 
#    z 0.003510 0.000000 1.675830 
# 
# From -- ./inp_files/213886.got.cif
#   From: 2010.06.25/outbox.cif.g09.slc.cpg/sg15_107_cif.got.tgz:213886.got - 2010.06.28 07:06:18.
