data_PCOD8133117
_publ_section_title
;
Structure prediction by ZEFSAII (Michael W. Deem and Ramdas Pophale) SiO2 
 PCOD8133117
Probable space group: C 2/C
;
_chemical_formula_sum "Si O2"
_cell_formula_units_Z 56
_cell_length_a 23.617415
_cell_length_b 22.021505
_cell_length_c 5.719739
_cell_angle_alpha 90.000000
_cell_angle_beta 82.842036
_cell_angle_gamma 90.000000
_cell_volume 2951.600583
_symmetry_space_group_name_H-M "C 2/C"
_symmetry_group_IT_number 15
_symmetry_cell_setting 'monoclinic'
loop_
_space_group_symop_operation_xyz
x,y,z
-x,y,1/2-z
-x,-y,-z
x,-y,1/2+z
1/2+x,1/2+y,z
1/2-x,1/2+y,1/2-z
1/2-x,1/2-y,-z
1/2+x,1/2-y,1/2+z
loop_
_atom_site_type_symbol
_atom_site_label
_atom_site_fract_x
_atom_site_fract_y
_atom_site_fract_z
Si Si1 0.784440 0.840229 0.891848
Si Si2 0.170469 0.279857 0.881495
Si Si3 0.807050 0.024472 0.484732
Si Si4 0.438340 0.523834 0.410507
Si Si5 0.940730 0.261627 0.323627
Si Si6 0.049748 0.852559 0.391710
Si Si7 0.633844 0.701495 0.518447
O O1 0.716272 0.833158 0.888042
O O2 0.797013 0.903364 0.011419
O O3 0.816566 0.837431 0.628014
O O4 0.808459 0.783938 0.024709
O O5 0.159851 0.263703 0.616027
O O6 0.110854 0.300806 0.036170
O O7 0.872703 0.003118 0.441443
O O8 0.780210 0.997565 0.744549
O O9 0.465673 0.494611 0.640060
O O10 0.440520 0.596805 0.415922
O O11 0.965027 0.211923 0.491386
O O12 0.000000 0.300193 0.250000
O O13 0.917546 0.224580 0.115550
O O14 0.108750 0.845398 0.219569
O O15 0.000000 0.876057 0.250000
#
# Coordination Sequence:
#
# PCOD8133117 Si02
#       7
#     8   8   8   8   8   8   8
#     4  10  20  35  53  78 108 134 182 221 273 331
#     4   9  20  33  53  81 105 139 172 222 275 321
#     4  10  22  37  56  78 105 146 184 226 276 327
#     4  10  23  36  51  69  97 133 185 236 278 309
#     4  10  19  33  51  74 100 133 169 209 260 329
#     4  11  22  33  49  67  93 134 183 224 269 314
#     4  10  19  32  52  73  98 137 171 220 269 322
#
# _framework density 18.972756
#
# number of rings (size 3 to 8) (size 9 to 14) (size 15 to 20)
#    0.000    2.000    1.429    3.000   10.000    0.571 
#    0.000    0.000    0.000    0.000    0.000    0.000 
#    0.000    1.143    0.000    0.000    0.000    0.000 
#
# Total GULP energy -346968.649217 kJ/mol
# GULP energy per Si atom -12391.737472 kJ/mol
# Density = 1.892957 g / cm^3
# Si number density = 18.972756 Si / 1000 Ang^3
#
#
#
# Elastic Constant Matrix: (Units=GPa)
#
#
# Indices 1 2 3 4 5 6 
#
# 1 112.8210 19.8789 35.0760 0.0000 -7.6583 0.0000
# 2 19.8789 39.0646 29.3919 0.0000 0.0087 0.0000
# 3 35.0760 29.3919 84.9319 0.0000 2.3833 0.0000
# 4 0.0000 0.0000 0.0000 12.5607 0.0000 6.1791
# 5 -7.6583 0.0087 2.3833 0.0000 14.3975 0.0000
# 6 0.0000 0.0000 0.0000 6.1791 0.0000 17.1951
#
#
#
# Elastic Compliance Matrix: (Units=1/GPa)
#
#
# Indices 1 2 3 4 5 6 
#
# 1 0.010953 -0.002752 -0.003752 0.000000 0.006449 0.000000
# 2 -0.002752 0.035358 -0.011109 0.000000 0.000354 0.000000
# 3 -0.003752 -0.011109 0.017304 0.000000 -0.004854 0.000000
# 4 0.000000 0.000000 0.000000 0.096710 0.000000 -0.034753
# 5 0.006449 0.000354 -0.004854 0.000000 0.073690 0.000000
# 6 0.000000 0.000000 0.000000 -0.034753 0.000000 0.070645
#
#
# Mechanical properties :
#
#
# Convention : Reuss Voigt Hill
#
# Bulk Modulus (GPa) = 35.22610 45.05675 40.14143
# Shear Modulus (GPa) = 14.31232 18.99536 16.65384
#
# Velocity S-wave (km/s) = 2.74954 3.16759 2.96594
# Velocity P-wave (km/s) = 5.35602 6.09737 5.73868
#
# Compressibility (1/GPa) = 0.02838804
#
# Stress axis : x y z
#
# Youngs Moduli (GPa) = 91.30154 28.28247 57.78880
#
# Poissons Ratio (x) = 0.07783 0.21682
# Poissons Ratio (y) = 0.25127 0.64200
# Poissons Ratio (z) = 0.34256 0.31420
#
# Static dielectric constant tensor:
#      x y z
#    x 3.673150 0.000000 0.000090 
#    y 0.000000 2.945360 0.000000 
#    z 0.000090 0.000000 4.140270 
# 
# 
# High freq. dielectric constant tensor:
#      x y z
#    x 1.732990 0.000000 0.002430 
#    y 0.000000 1.665140 0.000000 
#    z 0.002430 0.000000 1.766570 
# 
# From -- ./inp_files/15643.got.cif
#   From: 2010.06.25/outbox.cif.g09.slc.cpg/sg15_8_cif.got.tgz:15643.got - 2010.06.28 07:06:18.
