data_PCOD8133843
_publ_section_title
;
Structure prediction by ZEFSAII (Michael W. Deem and Ramdas Pophale) SiO2 
 PCOD8133843
Probable space group: C 2/C
;
_chemical_formula_sum "Si O2"
_cell_formula_units_Z 64
_cell_length_a 14.506348
_cell_length_b 25.002769
_cell_length_c 17.790326
_cell_angle_alpha 90.000000
_cell_angle_beta 149.894860
_cell_angle_gamma 90.000000
_cell_volume 3236.514415
_symmetry_space_group_name_H-M "C 2/C"
_symmetry_group_IT_number 15
_symmetry_cell_setting 'monoclinic'
loop_
_space_group_symop_operation_xyz
x,y,z
-x,y,1/2-z
-x,-y,-z
x,-y,1/2+z
1/2+x,1/2+y,z
1/2-x,1/2+y,1/2-z
1/2-x,1/2-y,-z
1/2+x,1/2-y,1/2+z
loop_
_atom_site_type_symbol
_atom_site_label
_atom_site_fract_x
_atom_site_fract_y
_atom_site_fract_z
Si Si1 0.199015 0.377986 0.548851
Si Si2 0.536344 0.596341 0.389269
Si Si3 0.592967 0.053273 0.590674
Si Si4 0.575518 0.318720 0.575711
Si Si5 0.400165 0.630741 0.561630
Si Si6 0.897156 0.286478 0.915100
Si Si7 0.996529 0.018416 0.913273
Si Si8 0.717017 0.145755 0.586471
O O1 0.289982 0.376906 0.530657
O O2 0.346904 0.399768 0.711621
O O3 0.141179 0.318796 0.534799
O O4 0.023179 0.417547 0.425183
O O5 0.515911 0.627791 0.453548
O O6 0.566808 0.532765 0.416403
O O7 0.791581 0.038177 0.758104
O O8 0.598727 0.093155 0.523344
O O9 0.500000 0.000000 0.500000
O O10 0.653090 0.334189 0.548457
O O11 0.735672 0.294625 0.740662
O O12 0.413544 0.275237 0.450902
O O13 0.377346 0.568230 0.522930
O O14 0.257150 0.644314 0.526341
O O15 0.602325 0.646396 0.733957
O O16 0.092519 0.302741 0.016110
O O17 0.000000 0.000000 0.000000
#
# Coordination Sequence:
#
# PCOD8133843 Si02
#       8
#     8   8   8   8   8   8   8   8
#     4   9  20  37  60  87 116 150 201 236 278 347
#     4  10  20  36  60  89 117 153 193 236 289 342
#     4  10  19  34  58  83 117 159 193 228 275 341
#     4  11  22  39  62  83 114 153 192 241 298 341
#     4  10  21  37  60  87 117 154 190 235 287 346
#     4  10  22  40  61  85 113 151 192 246 291 339
#     4  11  21  35  57  86 126 155 186 234 288 340
#     4   9  21  37  58  88 114 147 198 234 285 344
#
# _framework density 19.774360000000001
#
# number of rings (size 3 to 8) (size 9 to 14) (size 15 to 20)
#    0.000    2.000    2.500    0.750    1.750    2.500 
#    0.000    0.625    0.000    0.000    0.000    0.000 
#    0.000    0.000    0.000    0.000    0.000    0.000 
#
# Total GULP energy -396700.478478 kJ/mol
# GULP energy per Si atom -12396.889952 kJ/mol
# Density = 1.972935 g / cm^3
# Si number density = 19.774360 Si / 1000 Ang^3
#
#
#
# Elastic Constant Matrix: (Units=GPa)
#
#
# Indices 1 2 3 4 5 6 
#
# 1 123.4219 25.7711 27.4955 0.0000 1.4279 -0.0001
# 2 25.7711 101.9874 27.1149 0.0000 0.5395 0.0000
# 3 27.4955 27.1149 38.7938 0.0001 -3.1596 0.0000
# 4 0.0000 0.0000 0.0001 29.5611 0.0002 -0.1673
# 5 1.4279 0.5395 -3.1596 0.0002 26.6751 0.0000
# 6 -0.0001 0.0000 0.0000 -0.1673 0.0000 19.9198
#
#
#
# Elastic Compliance Matrix: (Units=1/GPa)
#
#
# Indices 1 2 3 4 5 6 
#
# 1 0.009712 -0.000724 -0.006481 0.000000 -0.001273 0.000000
# 2 -0.000724 0.012139 -0.008066 0.000000 -0.001162 0.000000
# 3 -0.006481 -0.008066 0.036401 0.000000 0.004822 0.000000
# 4 0.000000 0.000000 0.000000 0.033830 0.000000 0.000284
# 5 -0.001273 -0.001162 0.004822 0.000000 0.038151 0.000000
# 6 0.000000 0.000000 0.000000 0.000284 0.000000 0.050204
#
#
# Mechanical properties :
#
#
# Convention : Reuss Voigt Hill
#
# Bulk Modulus (GPa) = 36.08814 47.21845 41.65329
# Shear Modulus (GPa) = 22.70514 27.48598 25.09556
#
# Velocity S-wave (km/s) = 3.39220 3.73229 3.56630
# Velocity P-wave (km/s) = 5.79934 6.51949 6.16993
#
# Compressibility (1/GPa) = 0.02770994
#
# Stress axis : x y z
#
# Youngs Moduli (GPa) = 102.96471 82.38136 27.47184
#
# Poissons Ratio (x) = 0.05967 0.17804
# Poissons Ratio (y) = 0.07458 0.22158
# Poissons Ratio (z) = 0.66731 0.66445
#
# Static dielectric constant tensor:
#      x y z
#    x 3.646790 0.000000 0.043410 
#    y 0.000000 3.717030 0.000000 
#    z 0.043410 0.000000 3.408110 
# 
# 
# High freq. dielectric constant tensor:
#      x y z
#    x 1.769790 0.000000 0.002390 
#    y 0.000000 1.780930 0.000000 
#    z 0.002390 0.000000 1.754150 
# 
# From -- ./inp_files/207386.got.cif
#   From: 2010.06.25/outbox.cif.g09.slc.cpg/sg15_104_cif.got.tgz:207386.got - 2010.06.28 07:06:18.
