data_PCOD8133519
_publ_section_title
;
Structure prediction by ZEFSAII (Michael W. Deem and Ramdas Pophale) SiO2 
 PCOD8133519
Probable space group: C 2/C
;
_chemical_formula_sum "Si O2"
_cell_formula_units_Z 52
_cell_length_a 12.468849
_cell_length_b 23.734040
_cell_length_c 8.661172
_cell_angle_alpha 90.000000
_cell_angle_beta 112.464970
_cell_angle_gamma 90.000000
_cell_volume 2368.644765
_symmetry_space_group_name_H-M "C 2/C"
_symmetry_group_IT_number 15
_symmetry_cell_setting 'monoclinic'
loop_
_space_group_symop_operation_xyz
x,y,z
-x,y,1/2-z
-x,-y,-z
x,-y,1/2+z
1/2+x,1/2+y,z
1/2-x,1/2+y,1/2-z
1/2-x,1/2-y,-z
1/2+x,1/2-y,1/2+z
loop_
_atom_site_type_symbol
_atom_site_label
_atom_site_fract_x
_atom_site_fract_y
_atom_site_fract_z
Si Si1 0.388414 0.685552 0.781227
Si Si2 0.500000 0.838025 0.250000
Si Si3 0.152901 0.423981 0.500468
Si Si4 0.693268 0.750411 0.301315
Si Si5 0.364049 0.435600 0.159194
Si Si6 0.112984 0.858374 0.879942
Si Si7 0.774532 0.487261 0.682416
O O1 0.500000 0.708788 0.750000
O O2 0.292153 0.735571 0.728591
O O3 0.338153 0.630361 0.669560
O O4 0.419341 0.670140 0.974854
O O5 0.555684 0.876896 0.415063
O O6 0.597621 0.799171 0.227594
O O7 0.282533 0.401150 0.540261
O O8 0.144534 0.445128 0.672209
O O9 0.138161 0.476643 0.376260
O O10 0.750000 0.750000 0.500000
O O11 0.639360 0.688211 0.259159
O O12 0.500000 0.448071 0.250000
O O13 0.295899 0.471622 0.246027
O O14 0.318573 0.451093 0.964544
O O15 0.000000 0.890956 0.750000
#
# Coordination Sequence:
#
# PCOD8133519 Si02
#       7
#     8   4   8   8   8   8   8
#     4  10  21  38  61  95 132 169 212 280 346 381
#     4  12  20  40  72 100 130 172 232 276 318 416
#     4  11  24  39  66  96 132 178 228 274 335 389
#     4  10  20  40  66  96 127 171 223 269 330 401
#     4  10  19  33  57  88 128 174 215 272 337 386
#     4  11  22  39  67  99 130 177 228 271 329 416
#     4  10  22  39  55  91 135 172 226 273 326 402
#
# _framework density 21.953482999999999
#
# number of rings (size 3 to 8) (size 9 to 14) (size 15 to 20)
#    0.000    1.538    5.385    0.462    4.308    3.077 
#    0.000    0.769    0.000    0.000    0.000    0.000 
#    0.000    0.000    0.000    0.000    0.000    0.000 
#
# Total GULP energy -322297.139014 kJ/mol
# GULP energy per Si atom -12396.043808 kJ/mol
# Density = 2.190352 g / cm^3
# Si number density = 21.953483 Si / 1000 Ang^3
#
#
#
# Elastic Constant Matrix: (Units=GPa)
#
#
# Indices 1 2 3 4 5 6 
#
# 1 98.2245 35.1552 36.4419 0.0000 -2.2639 0.0000
# 2 35.1552 80.9455 34.3733 0.0000 0.6077 0.0000
# 3 36.4419 34.3733 96.5697 0.0000 3.8959 0.0000
# 4 0.0000 0.0000 0.0000 30.7930 0.0000 3.0451
# 5 -2.2639 0.6077 3.8959 0.0000 32.4310 0.0000
# 6 0.0000 0.0000 0.0000 3.0451 0.0000 24.8464
#
#
#
# Elastic Compliance Matrix: (Units=1/GPa)
#
#
# Indices 1 2 3 4 5 6 
#
# 1 0.012998 -0.004181 -0.003474 0.000000 0.001403 0.000000
# 2 -0.004181 0.015902 -0.004079 0.000000 -0.000100 0.000000
# 3 -0.003474 -0.004079 0.013188 0.000000 -0.001750 0.000000
# 4 0.000000 0.000000 0.000000 0.032873 0.000000 -0.004029
# 5 0.001403 -0.000100 -0.001750 0.000000 0.031145 0.000000
# 6 0.000000 0.000000 0.000000 -0.004029 0.000000 0.040741
#
#
# Mechanical properties :
#
#
# Convention : Reuss Voigt Hill
#
# Bulk Modulus (GPa) = 53.69666 54.18674 53.94170
# Shear Modulus (GPa) = 28.32514 28.93203 28.62858
#
# Velocity S-wave (km/s) = 3.59588 3.63420 3.61509
# Velocity P-wave (km/s) = 6.46165 6.50738 6.48455
#
# Compressibility (1/GPa) = 0.01862313
#
# Stress axis : x y z
#
# Youngs Moduli (GPa) = 76.93442 62.88341 75.82428
#
# Poissons Ratio (x) = 0.26290 0.26338
# Poissons Ratio (y) = 0.32164 0.30926
# Poissons Ratio (z) = 0.26723 0.25648
#
# Static dielectric constant tensor:
#      x y z
#    x 3.940070 0.000000 0.077140 
#    y 0.000000 4.363510 0.000000 
#    z 0.077140 0.000000 4.088890 
# 
# 
# High freq. dielectric constant tensor:
#      x y z
#    x 1.850630 0.000000 0.010040 
#    y 0.000000 1.863060 0.000000 
#    z 0.010040 0.000000 1.857170 
# 
# From -- ./inp_files/33707.got.cif
#   From: 2010.06.25/outbox.cif.g09.slc.cpg/sg15_17_cif.got.tgz:33707.got - 2010.06.28 07:06:18.
