data_PCOD8133368
_publ_section_title
;
Structure prediction by ZEFSAII (Michael W. Deem and Ramdas Pophale) SiO2 
 PCOD8133368
Probable space group: C 2/C
;
_chemical_formula_sum "Si O2"
_cell_formula_units_Z 56
_cell_length_a 20.735703
_cell_length_b 13.683649
_cell_length_c 19.405584
_cell_angle_alpha 90.000000
_cell_angle_beta 29.267430
_cell_angle_gamma 90.000000
_cell_volume 2691.879265
_symmetry_space_group_name_H-M "C 2/C"
_symmetry_group_IT_number 15
_symmetry_cell_setting 'monoclinic'
loop_
_space_group_symop_operation_xyz
x,y,z
-x,y,1/2-z
-x,-y,-z
x,-y,1/2+z
1/2+x,1/2+y,z
1/2-x,1/2+y,1/2-z
1/2-x,1/2-y,-z
1/2+x,1/2-y,1/2+z
loop_
_atom_site_type_symbol
_atom_site_label
_atom_site_fract_x
_atom_site_fract_y
_atom_site_fract_z
Si Si1 0.000000 0.140891 0.750000
Si Si2 0.000000 0.534566 0.750000
Si Si3 0.714964 0.648835 0.348946
Si Si4 0.272727 0.473166 0.524235
Si Si5 0.855500 0.033692 0.651724
Si Si6 0.530489 0.778854 0.296487
Si Si7 0.560456 0.697180 0.841947
Si Si8 0.808115 0.835324 0.068014
O O1 0.974240 0.208248 0.706727
O O2 0.126311 0.071835 0.624101
O O3 0.127544 0.465608 0.626400
O O4 0.994406 0.603643 0.686713
O O5 0.723924 0.587370 0.409619
O O6 0.726103 0.568887 0.275457
O O7 0.572963 0.704986 0.486654
O O8 0.839150 0.719769 0.226261
O O9 0.309076 0.585615 0.505453
O O10 0.866198 0.091274 0.714649
O O11 0.802215 0.113757 0.647472
O O12 0.000000 0.000000 0.500000
O O13 0.500000 0.730242 0.250000
O O14 0.682217 0.763447 0.177568
O O15 0.438449 0.730982 0.440222
#
# Coordination Sequence:
#
# PCOD8133368 Si02
#       8
#     4   4   8   8   8   8   8   8
#     4  10  22  34  56  84 108 142 192 231 286 333
#     4   8  18  30  48  74 118 146 180 225 284 329
#     4   9  20  38  60  80 113 146 187 232 281 334
#     4   9  19  33  50  78 108 151 181 231 281 334
#     4   9  20  40  59  80 114 151 193 228 285 343
#     4   9  19  31  50  83 115 146 187 229 283 332
#     4  10  21  39  59  86 111 148 190 238 280 338
#     4  10  19  33  54  79 113 152 189 232 281 344
#
# _framework density 20.803311000000001
#
# number of rings (size 3 to 8) (size 9 to 14) (size 15 to 20)
#    0.429    2.286    0.000    1.286    1.000    6.286 
#    0.000    2.143    0.000    0.000    0.000    0.000 
#    0.000    0.000    0.000    0.000    0.000    0.000 
#
# Total GULP energy -346895.025702 kJ/mol
# GULP energy per Si atom -12389.108061 kJ/mol
# Density = 2.075596 g / cm^3
# Si number density = 20.803311 Si / 1000 Ang^3
#
#
#
# Elastic Constant Matrix: (Units=GPa)
#
#
# Indices 1 2 3 4 5 6 
#
# 1 74.8103 32.2260 21.5983 0.0000 -11.8777 0.0000
# 2 32.2260 80.4658 43.0490 0.0002 -22.7821 -0.0002
# 3 21.5983 43.0490 75.4939 0.0001 -32.5228 -0.0001
# 4 0.0000 0.0002 0.0001 22.9271 0.0000 -17.7038
# 5 -11.8777 -22.7821 -32.5228 0.0000 31.5279 0.0000
# 6 0.0000 -0.0002 -0.0001 -17.7038 0.0000 24.8200
#
#
#
# Elastic Compliance Matrix: (Units=1/GPa)
#
#
# Indices 1 2 3 4 5 6 
#
# 1 0.016266 -0.005716 -0.000961 0.000000 0.001007 0.000000
# 2 -0.005716 0.020225 -0.008152 0.000000 0.004052 0.000000
# 3 -0.000961 -0.008152 0.027854 0.000000 0.022480 0.000000
# 4 0.000000 0.000000 0.000000 0.097094 0.000000 0.069256
# 5 0.001007 0.004052 0.022480 0.000000 0.058215 0.000000
# 6 0.000000 0.000000 0.000000 0.069256 0.000000 0.089690
#
#
# Mechanical properties :
#
#
# Convention : Reuss Voigt Hill
#
# Bulk Modulus (GPa) = 28.82761 47.16852 37.99806
# Shear Modulus (GPa) = 14.26268 24.78144 19.52206
#
# Velocity S-wave (km/s) = 2.62123 3.45516 3.06667
# Velocity P-wave (km/s) = 4.80088 6.21613 5.55377
#
# Compressibility (1/GPa) = 0.03468897
#
# Stress axis : x y z
#
# Youngs Moduli (GPa) = 61.47610 49.44281 35.90115
#
# Poissons Ratio (x) = 0.28259 0.03449
# Poissons Ratio (y) = 0.35137 0.29268
# Poissons Ratio (z) = 0.05906 0.40308
#
# Static dielectric constant tensor:
#      x y z
#    x 3.959710 0.000000 -0.373240 
#    y 0.000000 3.166160 0.000000 
#    z -0.373240 0.000000 3.571680 
# 
# 
# High freq. dielectric constant tensor:
#      x y z
#    x 1.821830 0.000000 -0.025560 
#    y 0.000000 1.801120 0.000000 
#    z -0.025560 0.000000 1.779420 
# 
# From -- ./inp_files/215740.got.cif
#   From: 2010.06.25/outbox.cif.g09.slc.cpg/sg15_108_cif.got.tgz:215740.got - 2010.06.28 07:06:18.
