data_PCOD8133464
_publ_section_title
;
Structure prediction by ZEFSAII (Michael W. Deem and Ramdas Pophale) SiO2 
 PCOD8133464
Probable space group: C 2/C
;
_chemical_formula_sum "Si O2"
_cell_formula_units_Z 64
_cell_length_a 24.909490
_cell_length_b 9.653588
_cell_length_c 14.199758
_cell_angle_alpha 90.000000
_cell_angle_beta 89.115948
_cell_angle_gamma 90.000000
_cell_volume 3414.151901
_symmetry_space_group_name_H-M "C 2/C"
_symmetry_group_IT_number 15
_symmetry_cell_setting 'monoclinic'
loop_
_space_group_symop_operation_xyz
x,y,z
-x,y,1/2-z
-x,-y,-z
x,-y,1/2+z
1/2+x,1/2+y,z
1/2-x,1/2+y,1/2-z
1/2-x,1/2-y,-z
1/2+x,1/2-y,1/2+z
loop_
_atom_site_type_symbol
_atom_site_label
_atom_site_fract_x
_atom_site_fract_y
_atom_site_fract_z
Si Si1 0.403433 0.352173 0.373935
Si Si2 0.981461 0.883107 0.069234
Si Si3 0.126859 0.087939 0.823667
Si Si4 0.291441 0.925176 0.024105
Si Si5 0.859092 0.408059 0.653478
Si Si6 0.324822 0.617517 0.037265
Si Si7 0.129122 0.461016 0.637556
Si Si8 0.947784 0.406756 0.501188
O O1 0.467566 0.358850 0.365421
O O2 0.376570 0.436463 0.288357
O O3 0.377084 0.410015 0.470689
O O4 0.394109 0.190730 0.367928
O O5 0.932526 0.931449 0.134364
O O6 0.965370 0.752140 0.005548
O O7 0.000000 0.000000 0.000000
O O8 0.148444 0.243137 0.839575
O O9 0.166744 0.974382 0.868868
O O10 0.227497 0.929166 0.019240
O O11 0.314926 0.965200 0.920920
O O12 0.315938 0.779204 0.061178
O O13 0.306636 0.039203 0.100651
O O14 0.861687 0.490616 0.752421
O O15 0.912485 0.447503 0.593510
O O16 0.086794 0.569040 0.593090
O O17 0.000000 0.500000 0.500000
#
# Coordination Sequence:
#
# PCOD8133464 Si02
#       8
#     8   8   8   8   8   8   8   8
#     4  10  19  35  57  76 108 146 173 216 267 313
#     4  11  20  34  55  77 112 140 173 217 265 313
#     4  10  21  35  55  81 104 140 183 215 263 322
#     4   9  20  37  57  77 105 142 174 222 272 310
#     4   9  20  35  55  81 107 136 181 223 260 313
#     4  10  20  37  56  77 107 141 178 216 270 324
#     4   9  18  36  57  78 107 140 180 218 260 314
#     4  10  19  33  56  79 105 146 180 210 261 314
#
# _framework density 18.745504
#
# number of rings (size 3 to 8) (size 9 to 14) (size 15 to 20)
#    0.000    2.250    2.500    0.375    0.000    2.000 
#    2.250    0.000    2.750    0.000    0.000    0.000 
#    0.000    0.000    0.000    0.000    0.000    0.000 
#
# Total GULP energy -396698.326796 kJ/mol
# GULP energy per Si atom -12396.822712 kJ/mol
# Density = 1.870284 g / cm^3
# Si number density = 18.745504 Si / 1000 Ang^3
#
#
#
# Elastic Constant Matrix: (Units=GPa)
#
#
# Indices 1 2 3 4 5 6 
#
# 1 73.4685 23.5440 18.2062 0.0000 11.7633 0.0000
# 2 23.5440 53.0926 40.7566 0.0000 5.5801 0.0000
# 3 18.2062 40.7566 114.3064 0.0000 10.6972 0.0000
# 4 0.0000 0.0000 0.0000 24.2950 0.0000 3.3765
# 5 11.7633 5.5801 10.6972 0.0000 19.4958 0.0000
# 6 0.0000 0.0000 0.0000 3.3765 0.0000 27.1771
#
#
#
# Elastic Compliance Matrix: (Units=1/GPa)
#
#
# Indices 1 2 3 4 5 6 
#
# 1 0.017137 -0.007183 0.000640 0.000000 -0.008635 0.000000
# 2 -0.007183 0.029058 -0.009323 0.000000 0.001132 0.000000
# 3 0.000640 -0.009323 0.012393 0.000000 -0.004518 0.000000
# 4 0.000000 0.000000 0.000000 0.041884 0.000000 -0.005204
# 5 -0.008635 0.001132 -0.004518 0.000000 0.058658 0.000000
# 6 0.000000 0.000000 0.000000 -0.005204 0.000000 0.037442
#
#
# Mechanical properties :
#
#
# Convention : Reuss Voigt Hill
#
# Bulk Modulus (GPa) = 37.23477 45.09787 41.16632
# Shear Modulus (GPa) = 21.07419 24.75095 22.91257
#
# Velocity S-wave (km/s) = 3.35659 3.63763 3.49993
# Velocity P-wave (km/s) = 5.91005 6.46168 6.19201
#
# Compressibility (1/GPa) = 0.02685662
#
# Stress axis : x y z
#
# Youngs Moduli (GPa) = 58.35227 34.41407 80.68842
#
# Poissons Ratio (x) = 0.24720 -0.05162
# Poissons Ratio (y) = 0.41915 0.75223
# Poissons Ratio (z) = -0.03733 0.32083
#
# Static dielectric constant tensor:
#      x y z
#    x 3.523040 0.000000 -0.337070 
#    y 0.000000 3.372640 0.000000 
#    z -0.337070 0.000000 3.784920 
# 
# 
# High freq. dielectric constant tensor:
#      x y z
#    x 1.732390 0.000000 0.001860 
#    y 0.000000 1.715930 0.000000 
#    z 0.001860 0.000000 1.723800 
# 
# From -- ./inp_files/176621.got.cif
#   From: 2010.06.25/outbox.cif.g09.slc.cpg/sg15_89_cif.got.tgz:176621.got - 2010.06.28 07:06:18.
