data_PCOD8133680
_publ_section_title
;
Structure prediction by ZEFSAII (Michael W. Deem and Ramdas Pophale) SiO2 
 PCOD8133680
Probable space group: C 2/C
;
_chemical_formula_sum "Si O2"
_cell_formula_units_Z 36
_cell_length_a 19.107016
_cell_length_b 20.894451
_cell_length_c 8.125664
_cell_angle_alpha 90.000000
_cell_angle_beta 32.952788
_cell_angle_gamma 90.000000
_cell_volume 1764.574106
_symmetry_space_group_name_H-M "C 2/C"
_symmetry_group_IT_number 15
_symmetry_cell_setting 'monoclinic'
loop_
_space_group_symop_operation_xyz
x,y,z
-x,y,1/2-z
-x,-y,-z
x,-y,1/2+z
1/2+x,1/2+y,z
1/2-x,1/2+y,1/2-z
1/2-x,1/2-y,-z
1/2+x,1/2-y,1/2+z
loop_
_atom_site_type_symbol
_atom_site_label
_atom_site_fract_x
_atom_site_fract_y
_atom_site_fract_z
Si Si1 0.244212 0.807594 0.886342
Si Si2 0.355225 0.433711 0.853818
Si Si3 0.000000 0.258848 0.250000
Si Si4 0.150858 0.931676 0.249364
Si Si5 0.854629 0.199274 0.249042
O O1 0.379820 0.805322 0.520649
O O2 0.126217 0.796701 0.988079
O O3 0.250000 0.750000 0.000000
O O4 0.229041 0.875162 0.007437
O O5 0.501246 0.430438 0.496620
O O6 0.290201 0.499920 0.924045
O O7 0.291467 0.370937 0.901128
O O8 0.336399 0.425651 0.082941
O O9 0.976444 0.212743 0.132634
O O10 0.750000 0.250000 0.500000
#
# Coordination Sequence:
#
# PCOD8133680 Si02
#       5
#     8   8   4   8   8
#     4  11  22  36  57  84 115 151 188 230 283 338
#     4  10  19  34  54  82 113 140 182 233 281 333
#     4  10  22  38  56  82 116 148 190 236 278 336
#     4  10  20  33  55  83 111 144 180 230 289 334
#     4  10  20  36  57  80 111 146 184 231 276 329
#
# _framework density 20.401523999999998
#
# number of rings (size 3 to 8) (size 9 to 14) (size 15 to 20)
#    0.000    1.778    0.000    6.667    0.000    5.333 
#    0.000    0.000    0.000   12.000    0.000    0.000 
#    0.000    0.000    0.000    0.000    0.000    0.000 
#
# Total GULP energy -223001.159521 kJ/mol
# GULP energy per Si atom -12388.953307 kJ/mol
# Density = 2.035509 g / cm^3
# Si number density = 20.401524 Si / 1000 Ang^3
#
#
#
# Elastic Constant Matrix: (Units=GPa)
#
#
# Indices 1 2 3 4 5 6 
#
# 1 139.1701 61.3246 25.8650 0.0004 21.4073 -0.0002
# 2 61.3246 202.4192 41.1131 0.0000 13.6998 0.0000
# 3 25.8650 41.1131 61.9768 0.0006 7.2797 -0.0002
# 4 0.0004 0.0000 0.0006 30.7213 -0.0004 8.9601
# 5 21.4073 13.6998 7.2797 -0.0004 23.8834 0.0002
# 6 -0.0002 0.0000 -0.0002 8.9601 0.0002 38.3752
#
#
#
# Elastic Compliance Matrix: (Units=1/GPa)
#
#
# Indices 1 2 3 4 5 6 
#
# 1 0.009460 -0.002043 -0.001799 0.000000 -0.006759 0.000000
# 2 -0.002043 0.006264 -0.003211 0.000000 -0.000783 0.000000
# 3 -0.001799 -0.003211 0.019301 0.000000 -0.002429 0.000000
# 4 0.000000 0.000000 0.000000 0.034929 0.000001 -0.008155
# 5 -0.006759 -0.000783 -0.002429 0.000001 0.049118 0.000000
# 6 0.000000 0.000000 0.000000 -0.008155 0.000000 0.027963
#
#
# Mechanical properties :
#
#
# Convention : Reuss Voigt Hill
#
# Bulk Modulus (GPa) = 47.80179 73.35243 60.57711
# Shear Modulus (GPa) = 29.74185 36.94688 33.34436
#
# Velocity S-wave (km/s) = 3.82229 4.26019 4.04716
# Velocity P-wave (km/s) = 6.55448 7.76089 7.18306
#
# Compressibility (1/GPa) = 0.02091972
#
# Stress axis : x y z
#
# Youngs Moduli (GPa) = 105.71209 159.63212 51.81085
#
# Poissons Ratio (x) = 0.32615 0.09319
# Poissons Ratio (y) = 0.21598 0.16636
# Poissons Ratio (z) = 0.19014 0.51256
#
# Static dielectric constant tensor:
#      x y z
#    x 4.537770 0.000000 0.200710 
#    y 0.000000 3.997710 0.000000 
#    z 0.200710 0.000000 3.534670 
# 
# 
# High freq. dielectric constant tensor:
#      x y z
#    x 1.803940 0.000000 0.036520 
#    y 0.000000 1.814300 0.000000 
#    z 0.036520 0.000000 1.762820 
# 
# From -- ./inp_files/57664.got.cif
#   From: 2010.06.25/outbox.cif.g09.slc.cpg/sg15_29_cif.got.tgz:57664.got - 2010.06.28 07:06:18.
