data_PCOD8133970
_publ_section_title
;
Structure prediction by ZEFSAII (Michael W. Deem and Ramdas Pophale) SiO2 
 PCOD8133970
Probable space group: C 2/C
;
_chemical_formula_sum "Si O2"
_cell_formula_units_Z 52
_cell_length_a 8.145244
_cell_length_b 23.134452
_cell_length_c 23.629715
_cell_angle_alpha 90.000000
_cell_angle_beta 146.172308
_cell_angle_gamma 90.000000
_cell_volume 2478.796187
_symmetry_space_group_name_H-M "C 2/C"
_symmetry_group_IT_number 15
_symmetry_cell_setting 'monoclinic'
loop_
_space_group_symop_operation_xyz
x,y,z
-x,y,1/2-z
-x,-y,-z
x,-y,1/2+z
1/2+x,1/2+y,z
1/2-x,1/2+y,1/2-z
1/2-x,1/2-y,-z
1/2+x,1/2-y,1/2+z
loop_
_atom_site_type_symbol
_atom_site_label
_atom_site_fract_x
_atom_site_fract_y
_atom_site_fract_z
Si Si1 0.853922 0.472333 0.047273
Si Si2 0.368880 0.811517 0.551247
Si Si3 0.267924 0.037582 0.733343
Si Si4 0.320990 0.917866 0.463348
Si Si5 0.000000 0.838578 0.750000
Si Si6 0.330810 0.412066 0.795348
Si Si7 0.817262 0.105627 0.412852
O O1 0.100053 0.464589 0.166066
O O2 0.941159 0.434808 0.016524
O O3 0.826414 0.539436 0.020245
O O4 0.555209 0.445641 0.989737
O O5 0.250000 0.750000 0.500000
O O6 0.386131 0.852882 0.501931
O O7 0.700894 0.801632 0.671928
O O8 0.148072 0.840015 0.534765
O O9 0.500000 0.049999 0.750000
O O10 0.008937 0.084799 0.657405
O O11 0.084715 0.978274 0.666181
O O12 0.060536 0.881509 0.819920
O O13 0.331097 0.372928 0.851836
O O14 0.012343 0.419576 0.673445
#
# Coordination Sequence:
#
# PCOD8133970 Si02
#       7
#     8   8   8   8   4   8   8
#     4  11  22  38  63  99 132 168 199 263 339 390
#     4  11  25  45  66  90 125 168 224 270 317 377
#     4  12  22  34  59  96 136 166 204 256 330 395
#     4  11  24  39  62  95 137 168 210 262 322 394
#     4  10  22  40  68  88 122 168 216 268 312 380
#     4  10  19  34  62  95 124 161 209 256 319 384
#     4  10  19  38  62  92 124 160 212 263 316 388
#
# _framework density 20.977924999999999
#
# number of rings (size 3 to 8) (size 9 to 14) (size 15 to 20)
#    0.000    1.231    3.077    4.154    4.308    1.846 
#    4.154    3.077   10.154    0.000    0.000    0.000 
#    0.000    0.000    0.000    0.000    0.000    0.000 
#
# Total GULP energy -322278.554320 kJ/mol
# GULP energy per Si atom -12395.329012 kJ/mol
# Density = 2.093018 g / cm^3
# Si number density = 20.977925 Si / 1000 Ang^3
#
#
#
# Elastic Constant Matrix: (Units=GPa)
#
#
# Indices 1 2 3 4 5 6 
#
# 1 83.5271 37.1391 16.6242 0.0000 -3.7649 -0.0039
# 2 37.1391 119.4864 36.3958 0.0017 0.6119 0.0007
# 3 16.6242 36.3958 86.0017 0.0081 0.7340 0.0035
# 4 0.0000 0.0017 0.0081 24.2290 0.0005 -4.4449
# 5 -3.7649 0.6119 0.7340 0.0005 39.0101 -0.0019
# 6 -0.0039 0.0007 0.0035 -4.4449 -0.0019 21.9864
#
#
#
# Elastic Compliance Matrix: (Units=1/GPa)
#
#
# Indices 1 2 3 4 5 6 
#
# 1 0.014045 -0.004066 -0.001006 0.000001 0.001438 0.000003
# 2 -0.004066 0.010785 -0.003774 0.000000 -0.000491 0.000000
# 3 -0.001006 -0.003774 0.013422 -0.000005 -0.000290 -0.000003
# 4 0.000001 0.000000 -0.000005 0.042863 0.000000 0.008665
# 5 0.001438 -0.000491 -0.000290 0.000000 0.025786 0.000003
# 6 0.000003 0.000000 -0.000003 0.008665 0.000003 0.047235
#
#
# Mechanical properties :
#
#
# Convention : Reuss Voigt Hill
#
# Bulk Modulus (GPa) = 48.64112 52.14817 50.39465
# Shear Modulus (GPa) = 27.98259 30.30215 29.14237
#
# Velocity S-wave (km/s) = 3.65623 3.80475 3.73123
# Velocity P-wave (km/s) = 6.40790 6.64937 6.52975
#
# Compressibility (1/GPa) = 0.02055874
#
# Stress axis : x y z
#
# Youngs Moduli (GPa) = 71.19779 92.71963 74.50535
#
# Poissons Ratio (x) = 0.37704 0.07498
# Poissons Ratio (y) = 0.28952 0.28119
# Poissons Ratio (z) = 0.07165 0.34993
#
# Static dielectric constant tensor:
#      x y z
#    x 3.942080 0.000000 -0.035240 
#    y 0.000000 3.244500 -0.000010 
#    z -0.035240 -0.000010 3.974700 
# 
# 
# High freq. dielectric constant tensor:
#      x y z
#    x 1.840480 0.000000 -0.002300 
#    y 0.000000 1.751580 0.000000 
#    z -0.002300 0.000000 1.847660 
# 
# From -- ./inp_files/290245.got.cif
#   From: 2010.06.25/outbox.cif.g09.slc.cpg/sg15_146_cif.got.tgz:290245.got - 2010.06.28 07:06:18.
