data_PCOD8133269
_publ_section_title
;
Structure prediction by ZEFSAII (Michael W. Deem and Ramdas Pophale) SiO2 
 PCOD8133269
Probable space group: C 2/C
;
_chemical_formula_sum "Si O2"
_cell_formula_units_Z 40
_cell_length_a 20.620961
_cell_length_b 22.532851
_cell_length_c 9.102258
_cell_angle_alpha 90.000000
_cell_angle_beta 28.621100
_cell_angle_gamma 90.000000
_cell_volume 2025.925361
_symmetry_space_group_name_H-M "C 2/C"
_symmetry_group_IT_number 15
_symmetry_cell_setting 'monoclinic'
loop_
_space_group_symop_operation_xyz
x,y,z
-x,y,1/2-z
-x,-y,-z
x,-y,1/2+z
1/2+x,1/2+y,z
1/2-x,1/2+y,1/2-z
1/2-x,1/2-y,-z
1/2+x,1/2-y,1/2+z
loop_
_atom_site_type_symbol
_atom_site_label
_atom_site_fract_x
_atom_site_fract_y
_atom_site_fract_z
Si Si1 0.914887 0.805201 0.178185
Si Si2 0.251571 0.253595 0.249253
Si Si3 0.672851 0.545422 0.261361
Si Si4 0.855610 0.934766 0.356758
Si Si5 0.268890 0.667379 0.456278
O O1 0.874828 0.765293 0.398153
O O2 0.876633 0.772536 0.103316
O O3 0.831737 0.867390 0.352395
O O4 0.073363 0.815211 0.866740
O O5 0.300513 0.199755 0.045560
O O6 0.207561 0.308862 0.231621
O O7 0.712307 0.480078 0.124746
O O8 0.715156 0.552500 0.346435
O O9 0.514109 0.554118 0.556113
O O10 0.750687 0.596536 0.014020
#
# Coordination Sequence:
#
# PCOD8133269 Si02
#       5
#     8   8   8   8   8
#     4  10  19  33  48  69 103 130 155 199 237 274
#     4  10  20  30  48  70  94 134 168 188 230 292
#     4   9  17  28  44  66  94 127 154 182 234 295
#     4   9  17  28  44  66  94 127 154 182 234 295
#     4  10  19  33  48  69 103 130 155 199 237 274
#
# _framework density 19.744064000000002
#
# number of rings (size 3 to 8) (size 9 to 14) (size 15 to 20)
#    0.000    2.400    2.000    1.200    2.800    0.000 
#    0.000    0.000    0.000    0.000    0.000    0.000 
#    0.000  112.000    0.000    0.000    0.000    0.000 
#
# Total GULP energy -247891.565042 kJ/mol
# GULP energy per Si atom -12394.578252 kJ/mol
# Density = 1.969913 g / cm^3
# Si number density = 19.744064 Si / 1000 Ang^3
#
#
#
# Elastic Constant Matrix: (Units=GPa)
#
#
# Indices 1 2 3 4 5 6 
#
# 1 95.5843 50.0688 26.2317 0.0012 29.7852 -0.0012
# 2 50.0688 146.1523 41.7425 0.0003 20.3498 -0.0003
# 3 26.2317 41.7425 39.4449 0.0046 21.3981 -0.0028
# 4 0.0012 0.0003 0.0046 27.2409 -0.0026 5.5518
# 5 29.7852 20.3498 21.3981 -0.0026 25.9505 0.0023
# 6 -0.0012 -0.0003 -0.0028 5.5518 0.0023 26.7246
#
#
#
# Elastic Compliance Matrix: (Units=1/GPa)
#
#
# Indices 1 2 3 4 5 6 
#
# 1 0.018110 -0.004420 0.003672 -0.000004 -0.020349 0.000004
# 2 -0.004420 0.010920 -0.012165 0.000003 0.006541 -0.000003
# 3 0.003672 -0.012165 0.059519 -0.000017 -0.043753 0.000014
# 4 -0.000004 0.000003 -0.000017 0.038332 0.000021 -0.007963
# 5 -0.020349 0.006541 -0.043753 0.000021 0.092839 -0.000018
# 6 0.000004 -0.000003 0.000014 -0.007963 -0.000018 0.039073
#
#
# Mechanical properties :
#
#
# Convention : Reuss Voigt Hill
#
# Bulk Modulus (GPa) = 15.94296 57.47414 36.70855
# Shear Modulus (GPa) = 16.36521 26.85910 21.61216
#
# Velocity S-wave (km/s) = 2.88213 3.69231 3.31209
# Velocity P-wave (km/s) = 4.37812 6.88116 5.76707
#
# Compressibility (1/GPa) = 0.06272361
#
# Stress axis : x y z
#
# Youngs Moduli (GPa) = 55.21762 91.57449 16.80148
#
# Poissons Ratio (x) = 0.40474 -0.06170
# Poissons Ratio (y) = 0.24405 0.20439
# Poissons Ratio (z) = -0.20277 1.11401
#
# Static dielectric constant tensor:
#      x y z
#    x 3.618030 0.000000 0.453000 
#    y 0.000000 4.006510 0.000000 
#    z 0.453000 0.000000 3.202540 
# 
# 
# High freq. dielectric constant tensor:
#      x y z
#    x 1.760160 0.000000 0.044700 
#    y 0.000000 1.776960 0.000000 
#    z 0.044700 0.000000 1.717180 
# 
# From -- ./inp_files/30275.got.cif
#   From: 2010.06.25/outbox.cif.g09.slc.cpg/sg15_16_cif.got.tgz:30275.got - 2010.06.28 07:06:18.
