data_PCOD8133554
_publ_section_title
;
Structure prediction by ZEFSAII (Michael W. Deem and Ramdas Pophale) SiO2 
 PCOD8133554
Probable space group: C 2/C
;
_chemical_formula_sum "Si O2"
_cell_formula_units_Z 44
_cell_length_a 10.539552
_cell_length_b 11.754644
_cell_length_c 16.321011
_cell_angle_alpha 90.000000
_cell_angle_beta 103.695231
_cell_angle_gamma 90.000000
_cell_volume 1964.501036
_symmetry_space_group_name_H-M "C 2/C"
_symmetry_group_IT_number 15
_symmetry_cell_setting 'monoclinic'
loop_
_space_group_symop_operation_xyz
x,y,z
-x,y,1/2-z
-x,-y,-z
x,-y,1/2+z
1/2+x,1/2+y,z
1/2-x,1/2+y,1/2-z
1/2-x,1/2-y,-z
1/2+x,1/2-y,1/2+z
loop_
_atom_site_type_symbol
_atom_site_label
_atom_site_fract_x
_atom_site_fract_y
_atom_site_fract_z
Si Si1 0.717267 0.308506 0.202379
Si Si2 0.904290 0.838843 0.016099
Si Si3 0.187186 0.073106 0.546851
Si Si4 0.263313 0.419154 0.626256
Si Si5 0.500000 0.456880 0.250000
Si Si6 0.691529 0.839137 0.111680
O O1 0.780458 0.380640 0.135058
O O2 0.695892 0.178546 0.169840
O O3 0.585622 0.373930 0.206864
O O4 0.813665 0.299427 0.294678
O O5 0.913868 0.728860 0.958270
O O6 0.816676 0.936176 0.957604
O O7 0.834092 0.812384 0.092295
O O8 0.047613 0.880661 0.055788
O O9 0.220805 0.126899 0.463946
O O10 0.404479 0.461564 0.681877
O O11 0.163390 0.525738 0.607634
#
# Coordination Sequence:
#
# PCOD8133554 Si02
#       6
#     8   8   8   8   4   8
#     4  11  21  35  62  89 122 156 200 252 298 365
#     4   9  18  36  59  85 116 157 202 244 299 362
#     4  10  19  33  59  87 117 154 198 247 304 352
#     4  10  22  37  59  90 119 156 205 247 302 366
#     4  10  22  40  62  90 118 170 206 250 306 350
#     4   9  20  34  55  87 116 156 201 244 299 357
#
# _framework density 22.397545000000001
#
# number of rings (size 3 to 8) (size 9 to 14) (size 15 to 20)
#    0.000    2.182    0.000    4.909    7.636    0.000 
#    0.000    0.909    8.000    0.000    0.000    0.000 
#    0.000    0.000    0.000    0.000    0.000    0.000 
#
# Total GULP energy -272550.004840 kJ/mol
# GULP energy per Si atom -12388.636584 kJ/mol
# Density = 2.234657 g / cm^3
# Si number density = 22.397545 Si / 1000 Ang^3
#
#
#
# Elastic Constant Matrix: (Units=GPa)
#
#
# Indices 1 2 3 4 5 6 
#
# 1 20.0629 5.7088 10.1546 0.0000 -4.9757 0.0000
# 2 5.7088 112.1022 64.7728 0.0000 -8.1931 0.0000
# 3 10.1546 64.7728 174.2383 0.0000 -14.8758 0.0000
# 4 0.0000 0.0000 0.0000 46.1620 0.0000 -7.4625
# 5 -4.9757 -8.1931 -14.8758 0.0000 19.3422 0.0000
# 6 0.0000 0.0000 0.0000 -7.4625 0.0000 28.7340
#
#
#
# Elastic Compliance Matrix: (Units=1/GPa)
#
#
# Indices 1 2 3 4 5 6 
#
# 1 0.054005 -0.000819 -0.001805 0.000000 0.012157 0.000000
# 2 -0.000819 0.011424 -0.004071 0.000000 0.001497 0.000000
# 3 -0.001805 -0.004071 0.007675 0.000000 0.003714 0.000000
# 4 0.000000 0.000000 0.000000 0.022612 0.000000 0.005873
# 5 0.012157 0.001497 0.003714 0.000000 0.058318 0.000000
# 6 0.000000 0.000000 0.000000 0.005873 0.000000 0.036327
#
#
# Mechanical properties :
#
#
# Convention : Reuss Voigt Hill
#
# Bulk Modulus (GPa) = 16.74655 51.96399 34.35527
# Shear Modulus (GPa) = 22.35575 33.89881 28.12728
#
# Velocity S-wave (km/s) = 3.16275 3.89460 3.54760
# Velocity P-wave (km/s) = 4.56405 6.59356 5.67034
#
# Compressibility (1/GPa) = 0.05971378
#
# Stress axis : x y z
#
# Youngs Moduli (GPa) = 18.51683 87.53538 130.29247
#
# Poissons Ratio (x) = 0.07166 0.23519
# Poissons Ratio (y) = 0.01516 0.53046
# Poissons Ratio (z) = 0.03343 0.35638
#
# Static dielectric constant tensor:
#      x y z
#    x 3.380530 0.000000 -0.082310 
#    y 0.000000 4.206800 0.000000 
#    z -0.082310 0.000000 4.469420 
# 
# 
# High freq. dielectric constant tensor:
#      x y z
#    x 1.815380 0.000000 -0.010840 
#    y 0.000000 1.886160 0.000000 
#    z -0.010840 0.000000 1.914840 
# 
# From -- ./inp_files/195652.got.cif
#   From: 2010.06.25/outbox.cif.g09.slc.cpg/sg15_98_cif.got.tgz:195652.got - 2010.06.28 07:06:18.
