data_PCOD8133154
_publ_section_title
;
Structure prediction by ZEFSAII (Michael W. Deem and Ramdas Pophale) SiO2 
 PCOD8133154
Probable space group: C 2/C
;
_chemical_formula_sum "Si O2"
_cell_formula_units_Z 48
_cell_length_a 29.023281
_cell_length_b 16.395114
_cell_length_c 5.189935
_cell_angle_alpha 90.000000
_cell_angle_beta 66.067998
_cell_angle_gamma 90.000000
_cell_volume 2257.262882
_symmetry_space_group_name_H-M "C 2/C"
_symmetry_group_IT_number 15
_symmetry_cell_setting 'monoclinic'
loop_
_space_group_symop_operation_xyz
x,y,z
-x,y,1/2-z
-x,-y,-z
x,-y,1/2+z
1/2+x,1/2+y,z
1/2-x,1/2+y,1/2-z
1/2-x,1/2-y,-z
1/2+x,1/2-y,1/2+z
loop_
_atom_site_type_symbol
_atom_site_label
_atom_site_fract_x
_atom_site_fract_y
_atom_site_fract_z
Si Si1 0.059103 0.546482 0.603061
Si Si2 0.134591 0.670927 0.259153
Si Si3 0.477371 0.409155 0.049652
Si Si4 0.864386 0.136643 0.755262
Si Si5 0.804409 0.143843 0.382967
Si Si6 0.307083 0.836773 0.368562
O O1 0.076930 0.480856 0.346634
O O2 0.081578 0.632826 0.464070
O O3 0.000000 0.558875 0.750000
O O4 0.125519 0.767051 0.261150
O O5 0.174291 0.643540 0.387246
O O6 0.154747 0.634185 0.943086
O O7 0.500000 0.363371 0.250000
O O8 0.416982 0.410537 0.172231
O O9 0.500000 0.362349 0.750000
O O10 0.500000 0.500000 0.000000
O O11 0.837575 0.112987 0.548434
O O12 0.828512 0.106635 0.068868
O O13 0.746279 0.116866 0.549718
O O14 0.802679 0.240252 0.351354
#
# Coordination Sequence:
#
# PCOD8133154 Si02
#       6
#     8   8   8   8   8   8
#     4  10  21  37  54  75 102 145 186 214 266 327
#     4  10  19  32  53  82 108 142 175 229 271 320
#     4  10  21  37  55  78 103 143 188 221 270 333
#     4  10  19  32  53  83 111 135 182 226 277 317
#     4   9  17  30  50  80 113 140 167 224 273 335
#     4   9  17  30  50  80 113 138 174 212 284 330
#
# _framework density 21.264693999999999
#
# number of rings (size 3 to 8) (size 9 to 14) (size 15 to 20)
#    0.000    2.333    0.000    3.000    0.000    4.667 
#    0.000    2.500    0.000    0.000   86.667    0.000 
#    0.000    0.000    0.000    0.000    0.000    0.000 
#
# Total GULP energy -297470.668784 kJ/mol
# GULP energy per Si atom -12394.611199 kJ/mol
# Density = 2.121629 g / cm^3
# Si number density = 21.264694 Si / 1000 Ang^3
#
#
#
# Elastic Constant Matrix: (Units=GPa)
#
#
# Indices 1 2 3 4 5 6 
#
# 1 120.0969 25.7116 57.4134 0.0000 6.8097 0.0000
# 2 25.7116 30.1713 23.3810 0.0000 -7.2241 0.0000
# 3 57.4134 23.3810 172.4783 0.0000 8.3058 0.0000
# 4 0.0000 0.0000 0.0000 17.2487 0.0000 -5.4976
# 5 6.8097 -7.2241 8.3058 0.0000 41.7308 0.0000
# 6 0.0000 0.0000 0.0000 -5.4976 0.0000 19.0712
#
#
#
# Elastic Compliance Matrix: (Units=1/GPa)
#
#
# Indices 1 2 3 4 5 6 
#
# 1 0.011533 -0.008540 -0.002544 0.000000 -0.002854 0.000000
# 2 -0.008540 0.045827 -0.003855 0.000000 0.010094 0.000000
# 3 -0.002544 -0.003855 0.007249 0.000000 -0.001695 0.000000
# 4 0.000000 0.000000 0.000000 0.063841 0.000000 0.018403
# 5 -0.002854 0.010094 -0.001695 0.000000 0.026514 0.000000
# 6 0.000000 0.000000 0.000000 0.018403 0.000000 0.057740
#
#
# Mechanical properties :
#
#
# Convention : Reuss Voigt Hill
#
# Bulk Modulus (GPa) = 28.79415 59.52872 44.16143
# Shear Modulus (GPa) = 19.67275 30.02619 24.84947
#
# Velocity S-wave (km/s) = 3.04491 3.76176 3.42216
# Velocity P-wave (km/s) = 5.09236 6.85002 6.03552
#
# Compressibility (1/GPa) = 0.03472928
#
# Stress axis : x y z
#
# Youngs Moduli (GPa) = 86.70817 21.82137 137.95223
#
# Poissons Ratio (x) = 0.18636 0.35093
# Poissons Ratio (y) = 0.74051 0.53187
# Poissons Ratio (z) = 0.22057 0.08413
#
# Static dielectric constant tensor:
#      x y z
#    x 4.758710 0.000000 1.540210 
#    y 0.000000 3.295430 0.000000 
#    z 1.540210 0.000000 6.534980 
# 
# 
# High freq. dielectric constant tensor:
#      x y z
#    x 1.839410 0.000000 0.007280 
#    y 0.000000 1.778070 0.000000 
#    z 0.007280 0.000000 1.862700 
# 
# From -- ./inp_files/15415.got.cif
#   From: 2010.06.25/outbox.cif.g09.slc.cpg/sg15_8_cif.got.tgz:15415.got - 2010.06.28 07:06:18.
