data_PCOD8133461
_publ_section_title
;
Structure prediction by ZEFSAII (Michael W. Deem and Ramdas Pophale) SiO2 
 PCOD8133461
Probable space group: C 2/C
;
_chemical_formula_sum "Si O2"
_cell_formula_units_Z 64
_cell_length_a 21.528047
_cell_length_b 12.971117
_cell_length_c 14.002410
_cell_angle_alpha 90.000000
_cell_angle_beta 63.418449
_cell_angle_gamma 90.000000
_cell_volume 3496.771367
_symmetry_space_group_name_H-M "C 2/C"
_symmetry_group_IT_number 15
_symmetry_cell_setting 'monoclinic'
loop_
_space_group_symop_operation_xyz
x,y,z
-x,y,1/2-z
-x,-y,-z
x,-y,1/2+z
1/2+x,1/2+y,z
1/2-x,1/2+y,1/2-z
1/2-x,1/2-y,-z
1/2+x,1/2-y,1/2+z
loop_
_atom_site_type_symbol
_atom_site_label
_atom_site_fract_x
_atom_site_fract_y
_atom_site_fract_z
Si Si1 0.204449 0.614131 0.808186
Si Si2 0.011684 0.077635 0.903677
Si Si3 0.150640 0.423801 0.741682
Si Si4 0.705973 0.347364 0.800043
Si Si5 0.487106 0.197668 0.146886
Si Si6 0.839619 0.973273 0.279479
Si Si7 0.866238 0.359318 0.952772
Si Si8 0.637841 0.381383 0.044653
O O1 0.159672 0.541081 0.770054
O O2 0.185166 0.730331 0.794251
O O3 0.287251 0.591131 0.745773
O O4 0.182192 0.595036 0.932423
O O5 0.020559 0.201256 0.916526
O O6 0.079693 0.044981 0.798765
O O7 0.940296 0.074168 0.893266
O O8 0.000000 0.000000 0.000000
O O9 0.211555 0.353852 0.743763
O O10 0.078879 0.374152 0.825565
O O11 0.152988 0.426477 0.625864
O O12 0.678911 0.407240 0.725268
O O13 0.669090 0.398909 0.918019
O O14 0.500000 0.229014 0.250000
O O15 0.553585 0.130205 0.069212
O O16 0.821827 0.944088 0.401059
O O17 0.853837 0.239042 0.935692
#
# Coordination Sequence:
#
# PCOD8133461 Si02
#       8
#     8   8   8   8   8   8   8   8
#     4  10  21  34  55  78 104 141 176 223 262 310
#     4  11  19  31  51  80 107 135 168 219 268 314
#     4  10  19  33  56  78 105 138 176 220 264 310
#     4  10  20  34  51  80 107 136 179 215 264 316
#     4   9  18  33  55  81 104 133 176 226 262 303
#     4  11  20  32  54  76 108 137 175 212 268 315
#     4   9  18  34  56  78 100 132 182 222 259 306
#     4  10  19  34  55  78 104 137 174 224 260 308
#
# _framework density 18.302598
#
# number of rings (size 3 to 8) (size 9 to 14) (size 15 to 20)
#    0.000    2.000    1.250    4.875    0.000    2.500 
#    0.000    0.000    2.750    7.500    0.000    0.000 
#    0.000    0.000    0.000    0.000    0.000    0.000 
#
# Total GULP energy -396524.332883 kJ/mol
# GULP energy per Si atom -12391.385403 kJ/mol
# Density = 1.826094 g / cm^3
# Si number density = 18.302598 Si / 1000 Ang^3
#
#
#
# Elastic Constant Matrix: (Units=GPa)
#
#
# Indices 1 2 3 4 5 6 
#
# 1 100.2153 55.8006 30.4672 0.0000 -5.2717 0.0000
# 2 55.8006 111.8193 57.4329 0.0000 15.9236 0.0000
# 3 30.4672 57.4329 70.8000 0.0000 3.3457 0.0000
# 4 0.0000 0.0000 0.0000 31.1516 0.0000 4.4332
# 5 -5.2717 15.9236 3.3457 0.0000 27.6780 0.0000
# 6 0.0000 0.0000 0.0000 4.4332 0.0000 25.0588
#
#
#
# Elastic Compliance Matrix: (Units=1/GPa)
#
#
# Indices 1 2 3 4 5 6 
#
# 1 0.015272 -0.008897 0.000267 0.000000 0.007995 0.000000
# 2 -0.008897 0.022164 -0.013546 0.000000 -0.012808 0.000000
# 3 0.000267 -0.013546 0.024768 0.000000 0.004850 0.000000
# 4 0.000000 0.000000 0.000000 0.032930 0.000000 -0.005826
# 5 0.007995 -0.012808 0.004850 0.000000 0.044435 0.000000
# 6 0.000000 0.000000 0.000000 -0.005826 0.000000 0.040937
#
#
# Mechanical properties :
#
#
# Convention : Reuss Voigt Hill
#
# Bulk Modulus (GPa) = 56.01012 63.35956 59.68484
# Shear Modulus (GPa) = 21.66312 26.05326 23.85819
#
# Velocity S-wave (km/s) = 3.44409 3.77699 3.61438
# Velocity P-wave (km/s) = 6.81795 7.32897 7.07807
#
# Compressibility (1/GPa) = 0.01785392
#
# Stress axis : x y z
#
# Youngs Moduli (GPa) = 65.48139 45.11819 40.37435
#
# Poissons Ratio (x) = 0.40140 -0.01080
# Poissons Ratio (y) = 0.58257 0.54690
# Poissons Ratio (z) = -0.01751 0.61115
#
# Static dielectric constant tensor:
#      x y z
#    x 3.543630 0.000000 -0.241400 
#    y 0.000000 3.265920 0.000000 
#    z -0.241400 0.000000 3.352420 
# 
# 
# High freq. dielectric constant tensor:
#      x y z
#    x 1.720500 0.000000 -0.023990 
#    y 0.000000 1.691100 0.000000 
#    z -0.023990 0.000000 1.694580 
# 
# From -- ./inp_files/167643.got.cif
#   From: 2010.06.25/outbox.cif.g09.slc.cpg/sg15_84_cif.got.tgz:167643.got - 2010.06.28 07:06:18.
