data_PCOD8133334
_publ_section_title
;
Structure prediction by ZEFSAII (Michael W. Deem and Ramdas Pophale) SiO2 
 PCOD8133334
Probable space group: C 2/C
;
_chemical_formula_sum "Si O2"
_cell_formula_units_Z 44
_cell_length_a 24.445774
_cell_length_b 6.845437
_cell_length_c 16.721413
_cell_angle_alpha 90.000000
_cell_angle_beta 125.227732
_cell_angle_gamma 90.000000
_cell_volume 2285.749630
_symmetry_space_group_name_H-M "C 2/C"
_symmetry_group_IT_number 15
_symmetry_cell_setting 'monoclinic'
loop_
_space_group_symop_operation_xyz
x,y,z
-x,y,1/2-z
-x,-y,-z
x,-y,1/2+z
1/2+x,1/2+y,z
1/2-x,1/2+y,1/2-z
1/2-x,1/2-y,-z
1/2+x,1/2-y,1/2+z
loop_
_atom_site_type_symbol
_atom_site_label
_atom_site_fract_x
_atom_site_fract_y
_atom_site_fract_z
Si Si1 0.577377 0.355268 0.013998
Si Si2 0.938731 0.056943 0.340234
Si Si3 0.174069 0.149193 0.363368
Si Si4 0.500000 0.318816 0.250000
Si Si5 0.373320 0.684134 0.563126
Si Si6 0.323839 0.088726 0.487034
O O1 0.584345 0.397127 0.114061
O O2 0.621863 0.167166 0.030730
O O3 0.498984 0.310477 0.927353
O O4 0.603693 0.546143 0.989732
O O5 0.873739 0.177710 0.254629
O O6 0.965559 0.958776 0.283907
O O7 0.250420 0.156969 0.396859
O O8 0.159719 0.328206 0.411047
O O9 0.164202 0.943529 0.401473
O O10 0.560635 0.203144 0.344015
O O11 0.325568 0.853539 0.490016
#
# Coordination Sequence:
#
# PCOD8133334 Si02
#       6
#     8   8   8   4   8   8
#     4   9  19  34  53  74 108 136 169 214 265 306
#     4   9  17  36  54  73 105 143 169 216 263 307
#     4   9  19  34  53  74 105 139 177 211 259 305
#     4   8  16  30  54  76  96 134 182 208 252 304
#     4   9  17  32  52  76 103 136 168 217 258 302
#     4  10  19  33  53  79 103 135 176 217 253 315
#
# _framework density 19.249701000000002
#
# number of rings (size 3 to 8) (size 9 to 14) (size 15 to 20)
#    0.000    2.909    0.000    1.636    0.000    1.455 
#    3.273   11.818    0.000    0.000    0.000    0.000 
#    0.000    0.000    0.000    0.000    0.000    0.000 
#
# Total GULP energy -272617.955091 kJ/mol
# GULP energy per Si atom -12391.725231 kJ/mol
# Density = 1.920589 g / cm^3
# Si number density = 19.249701 Si / 1000 Ang^3
#
#
#
# Elastic Constant Matrix: (Units=GPa)
#
#
# Indices 1 2 3 4 5 6 
#
# 1 70.3127 14.1463 33.7414 0.0000 4.9110 0.0000
# 2 14.1463 66.0527 8.0239 0.0000 3.6588 0.0000
# 3 33.7414 8.0239 105.7759 0.0000 8.1781 0.0000
# 4 0.0000 0.0000 0.0000 16.3485 0.0000 1.9306
# 5 4.9110 3.6588 8.1781 0.0000 29.8914 0.0000
# 6 0.0000 0.0000 0.0000 1.9306 0.0000 22.7059
#
#
#
# Elastic Compliance Matrix: (Units=1/GPa)
#
#
# Indices 1 2 3 4 5 6 
#
# 1 0.017424 -0.003036 -0.005246 0.000000 -0.001056 0.000000
# 2 -0.003036 0.015883 -0.000127 0.000000 -0.001411 0.000000
# 3 -0.005246 -0.000127 0.011308 0.000000 -0.002216 0.000000
# 4 0.000000 0.000000 0.000000 0.061788 0.000000 -0.005254
# 5 -0.001056 -0.001411 -0.002216 0.000000 0.034407 0.000000
# 6 0.000000 0.000000 0.000000 -0.005254 0.000000 0.044488
#
#
# Mechanical properties :
#
#
# Convention : Reuss Voigt Hill
#
# Bulk Modulus (GPa) = 35.97525 39.32940 37.65232
# Shear Modulus (GPa) = 23.65367 26.20448 24.92908
#
# Velocity S-wave (km/s) = 3.50920 3.69357 3.60257
# Velocity P-wave (km/s) = 5.92863 6.21816 6.07512
#
# Compressibility (1/GPa) = 0.02779688
#
# Stress axis : x y z
#
# Youngs Moduli (GPa) = 57.39123 62.95946 88.42926
#
# Poissons Ratio (x) = 0.19114 0.46392
# Poissons Ratio (y) = 0.17424 0.01126
# Poissons Ratio (z) = 0.30109 0.00802
#
# Static dielectric constant tensor:
#      x y z
#    x 3.699370 0.000000 0.272010 
#    y 0.000000 3.020470 0.000000 
#    z 0.272010 0.000000 3.804420 
# 
# 
# High freq. dielectric constant tensor:
#      x y z
#    x 1.760320 0.000000 0.013070 
#    y 0.000000 1.703680 0.000000 
#    z 0.013070 0.000000 1.746580 
# 
# From -- ./inp_files/223713.got.cif
#   From: 2010.06.25/outbox.cif.g09.slc.cpg/sg15_112_cif.got.tgz:223713.got - 2010.06.28 07:06:18.
