data_PCOD8133534
_publ_section_title
;
Structure prediction by ZEFSAII (Michael W. Deem and Ramdas Pophale) SiO2 
 PCOD8133534
Probable space group: C 2/C
;
_chemical_formula_sum "Si O2"
_cell_formula_units_Z 48
_cell_length_a 19.543941
_cell_length_b 13.547715
_cell_length_c 17.907951
_cell_angle_alpha 90.000000
_cell_angle_beta 149.699457
_cell_angle_gamma 90.000000
_cell_volume 2392.302451
_symmetry_space_group_name_H-M "C 2/C"
_symmetry_group_IT_number 15
_symmetry_cell_setting 'monoclinic'
loop_
_space_group_symop_operation_xyz
x,y,z
-x,y,1/2-z
-x,-y,-z
x,-y,1/2+z
1/2+x,1/2+y,z
1/2-x,1/2+y,1/2-z
1/2-x,1/2-y,-z
1/2+x,1/2-y,1/2+z
loop_
_atom_site_type_symbol
_atom_site_label
_atom_site_fract_x
_atom_site_fract_y
_atom_site_fract_z
Si Si1 0.952898 0.131151 0.034194
Si Si2 0.299445 0.243799 0.732622
Si Si3 0.180023 0.422961 0.690195
Si Si4 0.612696 0.764288 0.913793
Si Si5 0.561038 0.589901 0.974618
Si Si6 0.618859 0.890679 0.058029
O O1 0.796487 0.167255 0.904566
O O2 0.971517 0.126713 0.961071
O O3 0.067832 0.203691 0.180433
O O4 0.979639 0.020738 0.091095
O O5 0.189096 0.326759 0.647824
O O6 0.361930 0.196959 0.865596
O O7 0.215445 0.518090 0.671866
O O8 0.033109 0.432339 0.587343
O O9 0.282583 0.417314 0.855057
O O10 0.500000 0.801842 0.750000
O O11 0.551082 0.667555 0.897439
O O12 0.750000 0.750000 0.000000
O O13 0.651797 0.851227 0.007529
#
# Coordination Sequence:
#
# PCOD8133534 Si02
#       6
#     8   8   8   8   8   8
#     4  10  20  31  57  80 115 145 182 262 285 340
#     4  11  18  32  52  85 113 141 180 239 317 333
#     4  10  19  33  58  83 113 152 179 269 288 339
#     4  12  26  38  57  82 127 169 184 224 282 373
#     4  10  20  36  55  81 112 156 207 226 296 339
#     4  11  21  34  55  84 123 143 202 229 303 351
#
# _framework density 20.064353000000001
#
# number of rings (size 3 to 8) (size 9 to 14) (size 15 to 20)
#    0.000    1.333    6.667    1.000    2.333    0.000 
#    0.000    0.000    0.000    0.000    0.000    5.833 
#    0.000    0.000    0.000    0.000    0.000    0.000 
#
# Total GULP energy -297356.421273 kJ/mol
# GULP energy per Si atom -12389.850886 kJ/mol
# Density = 2.001869 g / cm^3
# Si number density = 20.064353 Si / 1000 Ang^3
#
#
#
# Elastic Constant Matrix: (Units=GPa)
#
#
# Indices 1 2 3 4 5 6 
#
# 1 49.0525 14.6283 8.0634 0.0001 5.6414 0.0000
# 2 14.6283 101.4539 5.5052 0.0001 -3.0635 0.0001
# 3 8.0634 5.5052 64.4015 0.0004 18.1866 0.0002
# 4 0.0001 0.0001 0.0004 30.1590 0.0003 4.7399
# 5 5.6414 -3.0635 18.1866 0.0003 21.7360 0.0001
# 6 0.0000 0.0001 0.0002 4.7399 0.0001 23.3299
#
#
#
# Elastic Compliance Matrix: (Units=1/GPa)
#
#
# Indices 1 2 3 4 5 6 
#
# 1 0.022152 -0.003305 -0.000964 0.000000 -0.005409 0.000000
# 2 -0.003305 0.010523 -0.001502 0.000000 0.003597 0.000000
# 3 -0.000964 -0.001502 0.020643 0.000000 -0.017234 0.000000
# 4 0.000000 0.000000 0.000000 0.034251 0.000000 -0.006959
# 5 -0.005409 0.003597 -0.017234 0.000000 0.062337 0.000000
# 6 0.000000 0.000000 0.000000 -0.006959 0.000000 0.044277
#
#
# Mechanical properties :
#
#
# Convention : Reuss Voigt Hill
#
# Bulk Modulus (GPa) = 23.93577 30.14464 27.04021
# Shear Modulus (GPa) = 22.76329 27.49238 25.12783
#
# Velocity S-wave (km/s) = 3.37191 3.70565 3.54271
# Velocity P-wave (km/s) = 5.20722 5.77631 5.49913
#
# Compressibility (1/GPa) = 0.04177848
#
# Stress axis : x y z
#
# Youngs Moduli (GPa) = 45.14174 95.02671 48.44170
#
# Poissons Ratio (x) = 0.31408 0.04668
# Poissons Ratio (y) = 0.14920 0.07274
# Poissons Ratio (z) = 0.04350 0.14270
#
# Static dielectric constant tensor:
#      x y z
#    x 3.155480 0.000000 0.303520 
#    y 0.000000 4.364430 0.000000 
#    z 0.303520 0.000000 3.532910 
# 
# 
# High freq. dielectric constant tensor:
#      x y z
#    x 1.715270 0.000000 0.043640 
#    y 0.000000 1.805850 0.000000 
#    z 0.043640 0.000000 1.786560 
# 
# From -- ./inp_files/215474.got.cif
#   From: 2010.06.25/outbox.cif.g09.slc.cpg/sg15_108_cif.got.tgz:215474.got - 2010.06.28 07:06:18.
