data_PCOD8133026
_publ_section_title
;
Structure prediction by ZEFSAII (Michael W. Deem and Ramdas Pophale) SiO2 
 PCOD8133026
Probable space group: C 2/C
;
_chemical_formula_sum "Si O2"
_cell_formula_units_Z 64
_cell_length_a 11.190000
_cell_length_b 17.324152
_cell_length_c 21.615852
_cell_angle_alpha 90.000000
_cell_angle_beta 123.166403
_cell_angle_gamma 90.000000
_cell_volume 3507.713539
_symmetry_space_group_name_H-M "C 2/C"
_symmetry_group_IT_number 15
_symmetry_cell_setting 'monoclinic'
loop_
_space_group_symop_operation_xyz
x,y,z
-x,y,1/2-z
-x,-y,-z
x,-y,1/2+z
1/2+x,1/2+y,z
1/2-x,1/2+y,1/2-z
1/2-x,1/2-y,-z
1/2+x,1/2-y,1/2+z
loop_
_atom_site_type_symbol
_atom_site_label
_atom_site_fract_x
_atom_site_fract_y
_atom_site_fract_z
Si Si1 0.530402 0.212625 0.950035
Si Si2 0.021223 0.068825 0.829355
Si Si3 0.294757 0.742754 0.107036
Si Si4 0.495201 0.397421 0.820501
Si Si5 0.706775 0.853657 0.048367
Si Si6 0.343437 0.285526 0.310087
Si Si7 0.714795 0.305683 0.669645
Si Si8 0.375204 0.194609 0.101910
O O1 0.615219 0.196078 0.909754
O O2 0.433730 0.141389 0.947115
O O3 0.425377 0.284973 0.909875
O O4 0.637352 0.235452 0.034929
O O5 0.183728 0.084049 0.895532
O O6 0.000000 0.076061 0.750000
O O7 0.912543 0.129175 0.831139
O O8 0.002188 0.983100 0.851530
O O9 0.374845 0.660077 0.125393
O O10 0.279082 0.777054 0.171796
O O11 0.500000 0.409544 0.750000
O O12 0.338067 0.367270 0.794815
O O13 0.776084 0.769679 0.071930
O O14 0.660567 0.865438 0.963403
O O15 0.274079 0.269820 0.223104
O O16 0.459914 0.218553 0.354786
O O17 0.835557 0.341862 0.658074
#
# Coordination Sequence:
#
# PCOD8133026 Si02
#       8
#     8   8   8   8   8   8   8   8
#     4   9  18  31  51  77 106 135 180 229 267 316
#     4  10  21  34  54  79 113 140 181 230 282 325
#     4  10  19  32  55  78 105 140 184 225 271 327
#     4  10  20  37  52  77 109 150 179 226 280 336
#     4   9  16  31  50  75 105 142 169 223 277 322
#     4  11  18  32  57  87 103 136 189 230 265 328
#     4  10  19  31  55  79 105 142 185 226 270 331
#     4   9  17  28  51  79 107 128 178 228 272 308
#
# _framework density 18.245505000000001
#
# number of rings (size 3 to 8) (size 9 to 14) (size 15 to 20)
#    0.000    2.250    2.500    2.625    1.750    0.000 
#    0.000    1.250    0.000    0.000    9.750    0.000 
#    0.000    0.000    0.000    0.000    0.000    0.000 
#
# Total GULP energy -396431.887148 kJ/mol
# GULP energy per Si atom -12388.496473 kJ/mol
# Density = 1.820398 g / cm^3
# Si number density = 18.245505 Si / 1000 Ang^3
#
#
#
# Elastic Constant Matrix: (Units=GPa)
#
#
# Indices 1 2 3 4 5 6 
#
# 1 125.4165 36.9898 23.1673 0.0000 -15.0496 0.0000
# 2 36.9898 73.4666 21.9257 0.0000 0.7669 0.0000
# 3 23.1673 21.9257 73.2340 0.0000 -1.6615 0.0000
# 4 0.0000 0.0000 0.0000 11.8682 0.0000 3.3346
# 5 -15.0496 0.7669 -1.6615 0.0000 30.2213 0.0000
# 6 0.0000 0.0000 0.0000 3.3346 0.0000 16.0448
#
#
#
# Elastic Compliance Matrix: (Units=1/GPa)
#
#
# Indices 1 2 3 4 5 6 
#
# 1 0.010306 -0.004727 -0.001728 0.000000 0.005157 0.000000
# 2 -0.004727 0.017127 -0.003700 0.000000 -0.002992 0.000000
# 3 -0.001728 -0.003700 0.015311 0.000000 0.000075 0.000000
# 4 0.000000 0.000000 0.000000 0.089484 0.000000 -0.018598
# 5 0.005157 -0.002992 0.000075 0.000000 0.035737 0.000000
# 6 0.000000 0.000000 0.000000 -0.018598 0.000000 0.066191
#
#
# Mechanical properties :
#
#
# Convention : Reuss Voigt Hill
#
# Bulk Modulus (GPa) = 44.57616 48.47585 46.52601
# Shear Modulus (GPa) = 19.08801 24.29580 21.69190
#
# Velocity S-wave (km/s) = 3.23797 3.65307 3.45177
# Velocity P-wave (km/s) = 6.20191 6.66480 6.43752
#
# Compressibility (1/GPa) = 0.02243352
#
# Stress axis : x y z
#
# Youngs Moduli (GPa) = 97.03480 58.38676 65.31237
#
# Poissons Ratio (x) = 0.27599 0.11285
# Poissons Ratio (y) = 0.45868 0.24167
# Poissons Ratio (z) = 0.16767 0.21605
#
# Static dielectric constant tensor:
#      x y z
#    x 3.817750 0.000000 -0.110670 
#    y 0.000000 3.086670 0.000000 
#    z -0.110670 0.000000 3.530370 
# 
# 
# High freq. dielectric constant tensor:
#      x y z
#    x 1.726330 0.000000 -0.003440 
#    y 0.000000 1.641390 0.000000 
#    z -0.003440 0.000000 1.716350 
# 
# From -- ./inp_files/270426.got.cif
#   From: 2010.06.25/outbox.cif.g09.slc.cpg/sg15_136_cif.got.tgz:270426.got - 2010.06.28 07:06:18.
