data_PCOD8133407
_publ_section_title
;
Structure prediction by ZEFSAII (Michael W. Deem and Ramdas Pophale) SiO2 
 PCOD8133407
Probable space group: C 2/C
;
_chemical_formula_sum "Si O2"
_cell_formula_units_Z 52
_cell_length_a 8.966354
_cell_length_b 11.117340
_cell_length_c 25.783888
_cell_angle_alpha 90.000000
_cell_angle_beta 85.614898
_cell_angle_gamma 90.000000
_cell_volume 2562.665877
_symmetry_space_group_name_H-M "C 2/C"
_symmetry_group_IT_number 15
_symmetry_cell_setting 'monoclinic'
loop_
_space_group_symop_operation_xyz
x,y,z
-x,y,1/2-z
-x,-y,-z
x,-y,1/2+z
1/2+x,1/2+y,z
1/2-x,1/2+y,1/2-z
1/2-x,1/2-y,-z
1/2+x,1/2-y,1/2+z
loop_
_atom_site_type_symbol
_atom_site_label
_atom_site_fract_x
_atom_site_fract_y
_atom_site_fract_z
Si Si1 0.781537 0.476574 0.895570
Si Si2 0.804408 0.493934 0.559511
Si Si3 0.925508 0.466570 0.162955
Si Si4 0.049801 0.654917 0.016848
Si Si5 0.500000 0.861882 0.750000
Si Si6 0.704091 0.741579 0.663787
Si Si7 0.977997 0.112668 0.921505
O O1 0.855772 0.428391 0.946112
O O2 0.727732 0.360846 0.864368
O O3 0.646008 0.567687 0.910289
O O4 0.900857 0.551471 0.857724
O O5 0.843906 0.465225 0.617856
O O6 0.874062 0.626941 0.541098
O O7 0.624872 0.498717 0.559226
O O8 0.877315 0.391808 0.521407
O O9 0.909833 0.553109 0.212696
O O10 0.844554 0.340341 0.176314
O O11 0.041868 0.794681 0.030129
O O12 0.616962 0.775696 0.718192
O O13 0.586836 0.673671 0.628923
#
# Coordination Sequence:
#
# PCOD8133407 Si02
#       7
#     8   8   8   8   4   8   8
#     4   9  19  34  54  81 107 137 175 206 251 312
#     4   9  18  34  53  75 106 141 174 211 260 308
#     4   9  19  37  55  74 105 136 167 216 265 305
#     4   9  18  34  52  75 110 142 171 213 253 298
#     4  10  20  36  58  78  96 130 178 216 260 312
#     4   9  20  37  55  75 104 134 166 216 262 305
#     4  10  19  33  55  78 104 140 175 210 253 306
#
# _framework density 20.291367999999999
#
# number of rings (size 3 to 8) (size 9 to 14) (size 15 to 20)
#    0.000    2.769    0.000    1.385    0.000    4.308 
#    0.000   10.000    0.000    0.000    0.000    0.000 
#    0.000    0.000    0.000    0.000    0.000    0.000 
#
# Total GULP energy -322192.327089 kJ/mol
# GULP energy per Si atom -12392.012580 kJ/mol
# Density = 2.024518 g / cm^3
# Si number density = 20.291368 Si / 1000 Ang^3
#
#
#
# Elastic Constant Matrix: (Units=GPa)
#
#
# Indices 1 2 3 4 5 6 
#
# 1 94.5600 42.6998 2.9602 0.0000 -4.7763 0.0000
# 2 42.6998 66.8158 8.4920 0.0000 5.4216 0.0000
# 3 2.9602 8.4920 53.1612 0.0000 1.5143 0.0000
# 4 0.0000 0.0000 0.0000 20.5592 0.0000 -2.8405
# 5 -4.7763 5.4216 1.5143 0.0000 8.0926 0.0000
# 6 0.0000 0.0000 0.0000 -2.8405 0.0000 43.8826
#
#
#
# Elastic Compliance Matrix: (Units=1/GPa)
#
#
# Indices 1 2 3 4 5 6 
#
# 1 0.017138 -0.012512 0.000520 0.000000 0.018400 0.000000
# 2 -0.012512 0.025230 -0.002656 0.000000 -0.023790 0.000000
# 3 0.000520 -0.002656 0.019249 0.000000 -0.001515 0.000000
# 4 0.000000 0.000000 0.000000 0.049079 0.000000 0.003177
# 5 0.018400 -0.023790 -0.001515 0.000000 0.150652 0.000000
# 6 0.000000 0.000000 0.000000 0.003177 0.000000 0.022994
#
#
# Mechanical properties :
#
#
# Convention : Reuss Voigt Hill
#
# Bulk Modulus (GPa) = 30.93782 35.87123 33.40453
# Shear Modulus (GPa) = 15.41255 25.19921 20.30588
#
# Velocity S-wave (km/s) = 2.75900 3.52784 3.16684
# Velocity P-wave (km/s) = 5.04275 5.85753 5.46535
#
# Compressibility (1/GPa) = 0.03232289
#
# Stress axis : x y z
#
# Youngs Moduli (GPa) = 58.34929 39.63497 51.95024
#
# Poissons Ratio (x) = 0.49590 -0.02702
# Poissons Ratio (y) = 0.73004 0.13798
# Poissons Ratio (z) = -0.03035 0.10527
#
# Static dielectric constant tensor:
#      x y z
#    x 3.630830 0.000000 -0.111650 
#    y 0.000000 3.550340 0.000000 
#    z -0.111650 0.000000 3.751450 
# 
# 
# High freq. dielectric constant tensor:
#      x y z
#    x 1.783500 0.000000 -0.013700 
#    y 0.000000 1.775560 0.000000 
#    z -0.013700 0.000000 1.792850 
# 
# From -- ./inp_files/287623.got.cif
#   From: 2010.06.25/outbox.cif.g09.slc.cpg/sg15_144_cif.got.tgz:287623.got - 2010.06.28 07:06:18.
