data_PCOD8133214
_publ_section_title
;
Structure prediction by ZEFSAII (Michael W. Deem and Ramdas Pophale) SiO2 
 PCOD8133214
Probable space group: C 2/C
;
_chemical_formula_sum "Si O2"
_cell_formula_units_Z 48
_cell_length_a 14.561673
_cell_length_b 16.502985
_cell_length_c 9.612525
_cell_angle_alpha 90.000000
_cell_angle_beta 93.453441
_cell_angle_gamma 90.000000
_cell_volume 2305.801404
_symmetry_space_group_name_H-M "C 2/C"
_symmetry_group_IT_number 15
_symmetry_cell_setting 'monoclinic'
loop_
_space_group_symop_operation_xyz
x,y,z
-x,y,1/2-z
-x,-y,-z
x,-y,1/2+z
1/2+x,1/2+y,z
1/2-x,1/2+y,1/2-z
1/2-x,1/2-y,-z
1/2+x,1/2-y,1/2+z
loop_
_atom_site_type_symbol
_atom_site_label
_atom_site_fract_x
_atom_site_fract_y
_atom_site_fract_z
Si Si1 0.155926 0.301180 0.484733
Si Si2 0.867870 0.052796 0.003835
Si Si3 0.719015 0.916213 0.708272
Si Si4 0.229601 0.403339 0.259103
Si Si5 0.813767 0.127383 0.488019
Si Si6 0.498017 0.679573 0.414386
O O1 0.250000 0.250000 0.500000
O O2 0.146250 0.362137 0.615552
O O3 0.155757 0.351833 0.340145
O O4 0.065441 0.246733 0.484663
O O5 0.821439 0.082203 0.856884
O O6 0.868403 0.956650 0.009033
O O7 0.813771 0.087912 0.131713
O O8 0.969020 0.090871 0.028356
O O9 0.737048 0.877080 0.860472
O O10 0.684382 0.009547 0.715521
O O11 0.259144 0.352444 0.124833
O O12 0.893513 0.193047 0.460724
O O13 0.500000 0.684445 0.250000
#
# Coordination Sequence:
#
# PCOD8133214 Si02
#       6
#     8   8   8   8   8   8
#     4  11  20  38  58  81 120 158 189 234 294 347
#     4   9  17  33  53  82 120 153 177 216 287 357
#     4   9  17  35  58  83 114 155 190 229 285 350
#     4   9  19  34  59  86 112 151 194 234 284 341
#     4  10  19  32  56  86 115 147 193 229 279 346
#     4  12  21  34  54  82 119 157 185 224 291 351
#
# _framework density 20.817056000000001
#
# number of rings (size 3 to 8) (size 9 to 14) (size 15 to 20)
#    0.000    2.000    5.000    1.500    0.000    0.667 
#    0.000    3.333    0.000    1.000    0.000    0.000 
#    0.000    0.000    0.000    0.000    0.000    0.000 
#
# Total GULP energy -297505.861094 kJ/mol
# GULP energy per Si atom -12396.077546 kJ/mol
# Density = 2.076968 g / cm^3
# Si number density = 20.817056 Si / 1000 Ang^3
#
#
#
# Elastic Constant Matrix: (Units=GPa)
#
#
# Indices 1 2 3 4 5 6 
#
# 1 41.2381 30.0099 12.3777 0.0000 1.3084 0.0000
# 2 30.0099 82.7866 29.2417 0.0000 2.1158 0.0000
# 3 12.3777 29.2417 99.7592 0.0000 -0.9832 0.0000
# 4 0.0000 0.0000 0.0000 34.2470 0.0000 7.4543
# 5 1.3084 2.1158 -0.9832 0.0000 16.8166 0.0000
# 6 0.0000 0.0000 0.0000 7.4543 0.0000 26.9814
#
#
#
# Elastic Compliance Matrix: (Units=1/GPa)
#
#
# Indices 1 2 3 4 5 6 
#
# 1 0.032998 -0.011693 -0.000678 0.000000 -0.001136 0.000000
# 2 -0.011693 0.017681 -0.003747 0.000000 -0.001534 0.000000
# 3 -0.000678 -0.003747 0.011218 0.000000 0.001180 0.000000
# 4 0.000000 0.000000 0.000000 0.031068 0.000000 -0.008583
# 5 -0.001136 -0.001534 0.001180 0.000000 0.059815 0.000000
# 6 0.000000 0.000000 0.000000 -0.008583 0.000000 0.039434
#
#
# Mechanical properties :
#
#
# Convention : Reuss Voigt Hill
#
# Bulk Modulus (GPa) = 33.71427 40.78251 37.24839
# Shear Modulus (GPa) = 21.33672 25.75264 23.54468
#
# Velocity S-wave (km/s) = 3.20498 3.52105 3.36672
# Velocity P-wave (km/s) = 5.47051 6.01364 5.74849
#
# Compressibility (1/GPa) = 0.02966103
#
# Stress axis : x y z
#
# Youngs Moduli (GPa) = 30.30446 56.55870 89.14104
#
# Poissons Ratio (x) = 0.66136 0.06043
# Poissons Ratio (y) = 0.35436 0.33400
# Poissons Ratio (z) = 0.02054 0.21192
#
# Static dielectric constant tensor:
#      x y z
#    x 3.289980 0.000000 0.145970 
#    y 0.000000 3.969370 0.000000 
#    z 0.145970 0.000000 4.079400 
# 
# 
# High freq. dielectric constant tensor:
#      x y z
#    x 1.759610 0.000000 0.007550 
#    y 0.000000 1.811930 0.000000 
#    z 0.007550 0.000000 1.827860 
# 
# From -- ./inp_files/48019.got.cif
#   From: 2010.06.25/outbox.cif.g09.slc.cpg/sg15_25_cif.got.tgz:48019.got - 2010.06.28 07:06:18.
