data_PCOD8133684
_publ_section_title
;
Structure prediction by ZEFSAII (Michael W. Deem and Ramdas Pophale) SiO2 
 PCOD8133684
Probable space group: C 2/C
;
_chemical_formula_sum "Si O2"
_cell_formula_units_Z 56
_cell_length_a 25.106893
_cell_length_b 7.967068
_cell_length_c 18.675720
_cell_angle_alpha 90.000000
_cell_angle_beta 132.331597
_cell_angle_gamma 90.000000
_cell_volume 2761.632982
_symmetry_space_group_name_H-M "C 2/C"
_symmetry_group_IT_number 15
_symmetry_cell_setting 'monoclinic'
loop_
_space_group_symop_operation_xyz
x,y,z
-x,y,1/2-z
-x,-y,-z
x,-y,1/2+z
1/2+x,1/2+y,z
1/2-x,1/2+y,1/2-z
1/2-x,1/2-y,-z
1/2+x,1/2-y,1/2+z
loop_
_atom_site_type_symbol
_atom_site_label
_atom_site_fract_x
_atom_site_fract_y
_atom_site_fract_z
Si Si1 0.697497 0.003381 0.649355
Si Si2 0.680063 0.109272 0.856014
Si Si3 0.254168 0.664516 0.337333
Si Si4 0.078286 0.588946 0.641233
Si Si5 0.473850 0.267825 0.446393
Si Si6 0.333205 0.778207 0.000126
Si Si7 0.595439 0.500223 0.011971
O O1 0.753455 0.133388 0.662356
O O2 0.641421 0.118290 0.641589
O O3 0.735577 0.878823 0.738687
O O4 0.649972 0.907088 0.547901
O O5 0.609558 0.157823 0.745199
O O6 0.749336 0.229262 0.909697
O O7 0.702713 0.922425 0.850014
O O8 0.655199 0.122427 0.915523
O O9 0.336177 0.617783 0.423978
O O10 0.057536 0.389537 0.626543
O O11 0.012758 0.702638 0.554707
O O12 0.411322 0.389189 0.420948
O O13 0.525380 0.379376 0.441027
O O14 0.389398 0.623346 0.042838
#
# Coordination Sequence:
#
# PCOD8133684 Si02
#       7
#     8   8   8   8   8   8   8
#     4  11  19  33  56  83 110 141 187 242 292 338
#     4   9  21  37  56  82 113 150 188 232 297 351
#     4  10  20  32  56  84 109 143 188 242 292 336
#     4  10  19  35  55  86 109 146 191 244 279 343
#     4  10  20  32  57  83 111 144 192 236 283 329
#     4  10  20  37  57  80 117 152 183 235 297 352
#     4  10  19  34  54  84 111 144 187 234 284 340
#
# _framework density 20.277857999999998
#
# number of rings (size 3 to 8) (size 9 to 14) (size 15 to 20)
#    0.000    2.000    2.857    2.571    2.000    0.571 
#    0.000    0.714    0.000    1.714    0.000    0.000 
#    0.000    0.000    0.000    0.000    0.000    0.000 
#
# Total GULP energy -346898.830356 kJ/mol
# GULP energy per Si atom -12389.243941 kJ/mol
# Density = 2.023170 g / cm^3
# Si number density = 20.277858 Si / 1000 Ang^3
#
#
#
# Elastic Constant Matrix: (Units=GPa)
#
#
# Indices 1 2 3 4 5 6 
#
# 1 61.2609 19.4968 24.4022 0.0000 -12.4752 0.0000
# 2 19.4968 92.9352 26.5093 0.0000 -12.6277 0.0000
# 3 24.4022 26.5093 93.3703 0.0000 -18.7171 0.0000
# 4 0.0000 0.0000 0.0000 20.8713 0.0000 5.4918
# 5 -12.4752 -12.6277 -18.7171 0.0000 29.7185 0.0000
# 6 0.0000 0.0000 0.0000 5.4918 0.0000 28.6752
#
#
#
# Elastic Compliance Matrix: (Units=1/GPa)
#
#
# Indices 1 2 3 4 5 6 
#
# 1 0.019469 -0.002437 -0.003394 0.000000 0.005000 0.000000
# 2 -0.002437 0.012303 -0.002304 0.000000 0.002753 0.000000
# 3 -0.003394 -0.002304 0.013470 0.000000 0.006080 0.000000
# 4 0.000000 0.000000 0.000000 0.050455 0.000000 -0.009663
# 5 0.005000 0.002753 0.006080 0.000000 0.040747 0.000000
# 6 0.000000 0.000000 0.000000 -0.009663 0.000000 0.036724
#
#
# Mechanical properties :
#
#
# Convention : Reuss Voigt Hill
#
# Bulk Modulus (GPa) = 34.51641 43.15367 38.83504
# Shear Modulus (GPa) = 25.11351 27.66355 26.38853
#
# Velocity S-wave (km/s) = 3.52301 3.69755 3.61133
# Velocity P-wave (km/s) = 5.79719 6.28940 6.04830
#
# Compressibility (1/GPa) = 0.02897173
#
# Stress axis : x y z
#
# Youngs Moduli (GPa) = 51.36282 81.28240 74.23886
#
# Poissons Ratio (x) = 0.19808 0.25198
# Poissons Ratio (y) = 0.12517 0.17105
# Poissons Ratio (z) = 0.17433 0.18728
#
# Static dielectric constant tensor:
#      x y z
#    x 3.615980 0.000000 0.182680 
#    y 0.000000 3.749870 0.000000 
#    z 0.182680 0.000000 3.560300 
# 
# 
# High freq. dielectric constant tensor:
#      x y z
#    x 1.775430 0.000000 0.019450 
#    y 0.000000 1.799420 0.000000 
#    z 0.019450 0.000000 1.761800 
# 
# From -- ./inp_files/218639.got.cif
#   From: 2010.06.25/outbox.cif.g09.slc.cpg/sg15_110_cif.got.tgz:218639.got - 2010.06.28 07:06:18.
