data_PCOD8133293
_publ_section_title
;
Structure prediction by ZEFSAII (Michael W. Deem and Ramdas Pophale) SiO2 
 PCOD8133293
Probable space group: C 2/C
;
_chemical_formula_sum "Si O2"
_cell_formula_units_Z 28
_cell_length_a 21.932345
_cell_length_b 9.058663
_cell_length_c 8.241561
_cell_angle_alpha 90.000000
_cell_angle_beta 44.910621
_cell_angle_gamma 90.000000
_cell_volume 1156.019374
_symmetry_space_group_name_H-M "C 2/C"
_symmetry_group_IT_number 15
_symmetry_cell_setting 'monoclinic'
loop_
_space_group_symop_operation_xyz
x,y,z
-x,y,1/2-z
-x,-y,-z
x,-y,1/2+z
1/2+x,1/2+y,z
1/2-x,1/2+y,1/2-z
1/2-x,1/2-y,-z
1/2+x,1/2-y,1/2+z
loop_
_atom_site_type_symbol
_atom_site_label
_atom_site_fract_x
_atom_site_fract_y
_atom_site_fract_z
Si Si1 0.152840 0.932031 0.153783
Si Si2 0.862346 0.726146 0.734598
Si Si3 0.711158 0.217175 0.306965
Si Si4 0.000000 0.788033 0.250000
O O1 0.152434 0.826588 0.312114
O O2 0.072587 0.891119 0.191627
O O3 0.142328 0.097567 0.230001
O O4 0.244267 0.908466 0.886887
O O5 0.784564 0.684389 0.759435
O O6 0.953754 0.686779 0.476093
O O7 0.849704 0.646993 0.934316
#
# Coordination Sequence:
#
# PCOD8133293 Si02
#       4
#     8   8   8   4
#     4  10  19  33  51  78 107 132 165 209 255 305
#     4  10  19  33  51  78 107 132 165 209 255 305
#     4   9  19  32  49  74 102 140 173 194 250 305
#     4  10  20  30  50  80 110 130 154 208 276 308
#
# _framework density 24.221048
#
# number of rings (size 3 to 8) (size 9 to 14) (size 15 to 20)
#    0.000    2.286    0.000    4.286    0.000    1.143 
#    0.000    0.000    0.000    0.000    0.000  452.000 
#    0.000    0.000    0.000    0.000    0.000    0.000 
#
# Total GULP energy -173450.093040 kJ/mol
# GULP energy per Si atom -12389.292360 kJ/mol
# Density = 2.416592 g / cm^3
# Si number density = 24.221048 Si / 1000 Ang^3
#
#
#
# Elastic Constant Matrix: (Units=GPa)
#
#
# Indices 1 2 3 4 5 6 
#
# 1 113.0058 22.8834 21.3343 0.0000 10.6706 0.0000
# 2 22.8834 16.6506 3.4552 0.0000 -0.9835 0.0000
# 3 21.3343 3.4552 219.3962 0.0000 29.1707 0.0000
# 4 0.0000 0.0000 0.0000 18.5364 0.0000 3.2342
# 5 10.6706 -0.9835 29.1707 0.0000 42.8967 0.0000
# 6 0.0000 0.0000 0.0000 3.2342 0.0000 6.9494
#
#
#
# Elastic Compliance Matrix: (Units=1/GPa)
#
#
# Indices 1 2 3 4 5 6 
#
# 1 0.012848 -0.017737 -0.000540 0.000000 -0.003236 0.000000
# 2 -0.017737 0.084935 -0.000504 0.000000 0.006702 0.000000
# 3 -0.000540 -0.000504 0.005060 0.000000 -0.003318 0.000000
# 4 0.000000 0.000000 0.000000 0.058716 0.000000 -0.027326
# 5 -0.003236 0.006702 -0.003318 0.000000 0.026527 0.000000
# 6 0.000000 0.000000 0.000000 -0.027326 0.000000 0.156614
#
#
# Mechanical properties :
#
#
# Convention : Reuss Voigt Hill
#
# Bulk Modulus (GPa) = 15.31832 49.37761 32.34796
# Shear Modulus (GPa) = 12.37562 33.76847 23.07204
#
# Velocity S-wave (km/s) = 2.26286 3.73792 3.08971
# Velocity P-wave (km/s) = 3.62843 6.24979 5.11006
#
# Compressibility (1/GPa) = 0.06528132
#
# Stress axis : x y z
#
# Youngs Moduli (GPa) = 77.83179 11.77372 197.64656
#
# Poissons Ratio (x) = 0.20883 0.10670
# Poissons Ratio (y) = 1.38049 0.09961
# Poissons Ratio (z) = 0.04202 0.00593
#
# Static dielectric constant tensor:
#      x y z
#    x 4.550570 0.000000 0.521880 
#    y 0.000000 3.660880 0.000000 
#    z 0.521880 0.000000 5.407010 
# 
# 
# High freq. dielectric constant tensor:
#      x y z
#    x 1.964350 0.000000 0.032650 
#    y 0.000000 1.901650 0.000000 
#    z 0.032650 0.000000 1.982560 
# 
# From -- ./inp_files/27401.got.cif
#   From: 2010.06.25/outbox.cif.g09.slc.cpg/sg15_14_cif.got.tgz:27401.got - 2010.06.28 07:06:18.
