data_PCOD8133218
_publ_section_title
;
Structure prediction by ZEFSAII (Michael W. Deem and Ramdas Pophale) SiO2 
 PCOD8133218
Probable space group: C 2/C
;
_chemical_formula_sum "Si O2"
_cell_formula_units_Z 56
_cell_length_a 9.486807
_cell_length_b 15.377184
_cell_length_c 21.386014
_cell_angle_alpha 90.000000
_cell_angle_beta 113.011135
_cell_angle_gamma 90.000000
_cell_volume 2871.553882
_symmetry_space_group_name_H-M "C 2/C"
_symmetry_group_IT_number 15
_symmetry_cell_setting 'monoclinic'
loop_
_space_group_symop_operation_xyz
x,y,z
-x,y,1/2-z
-x,-y,-z
x,-y,1/2+z
1/2+x,1/2+y,z
1/2-x,1/2+y,1/2-z
1/2-x,1/2-y,-z
1/2+x,1/2-y,1/2+z
loop_
_atom_site_type_symbol
_atom_site_label
_atom_site_fract_x
_atom_site_fract_y
_atom_site_fract_z
Si Si1 0.792061 0.136051 0.831477
Si Si2 0.939219 0.017311 0.632630
Si Si3 0.326954 0.171260 0.331228
Si Si4 0.000000 0.889178 0.750000
Si Si5 0.413171 0.812584 0.095008
Si Si6 0.747626 0.372045 0.945993
Si Si7 0.256473 0.345825 0.183805
Si Si8 0.500000 0.799335 0.750000
O O1 0.875761 0.229049 0.849352
O O2 0.652153 0.136183 0.856028
O O3 0.739091 0.115721 0.751181
O O4 0.922211 0.068382 0.876331
O O5 0.827577 0.080411 0.652046
O O6 0.014886 0.948114 0.691878
O O7 0.848229 0.961706 0.564111
O O8 0.149408 0.171630 0.278522
O O9 0.348752 0.118011 0.399427
O O10 0.438918 0.137264 0.295197
O O11 0.361072 0.712128 0.082941
O O12 0.594928 0.816445 0.127939
O O13 0.356777 0.863045 0.023770
O O14 0.362160 0.260958 0.201853
#
# Coordination Sequence:
#
# PCOD8133218 Si02
#       8
#     8   8   8   4   8   8   8   4
#     4  10  19  34  57  90 110 148 194 239 278 351
#     4  11  19  36  58  82 118 146 184 235 303 336
#     4   9  19  33  58  81 114 146 191 229 293 345
#     4  10  19  34  56  85 112 154 174 240 297 342
#     4  10  22  39  61  82 116 156 208 227 276 352
#     4   9  22  39  59  84 115 159 194 237 283 351
#     4  11  19  35  58  86 111 151 187 241 292 349
#     4  10  19  32  56  89 108 142 194 246 283 348
#
# _framework density 19.501636000000001
#
# number of rings (size 3 to 8) (size 9 to 14) (size 15 to 20)
#    0.000    2.000    4.286    0.429   12.000    1.143 
#    0.000    3.571    0.000    0.000    0.000    0.000 
#    0.000    0.000    0.000    0.000    0.000    0.000 
#
# Total GULP energy -347033.305298 kJ/mol
# GULP energy per Si atom -12394.046618 kJ/mol
# Density = 1.945725 g / cm^3
# Si number density = 19.501636 Si / 1000 Ang^3
#
#
#
# Elastic Constant Matrix: (Units=GPa)
#
#
# Indices 1 2 3 4 5 6 
#
# 1 107.2747 23.7806 44.8474 0.0000 5.2043 0.0000
# 2 23.7806 55.6122 9.7771 0.0000 10.5743 0.0000
# 3 44.8474 9.7771 84.6636 0.0000 13.3464 0.0000
# 4 0.0000 0.0000 0.0000 22.7983 0.0000 4.6089
# 5 5.2043 10.5743 13.3464 0.0000 26.9528 0.0000
# 6 0.0000 0.0000 0.0000 4.6089 0.0000 31.0820
#
#
#
# Elastic Compliance Matrix: (Units=1/GPa)
#
#
# Indices 1 2 3 4 5 6 
#
# 1 0.013137 -0.004947 -0.006827 0.000000 0.002785 0.000000
# 2 -0.004947 0.021394 0.001434 0.000000 -0.008149 0.000000
# 3 -0.006827 0.001434 0.016425 0.000000 -0.007378 0.000000
# 4 0.000000 0.000000 0.000000 0.045218 0.000000 -0.006705
# 5 0.002785 -0.008149 -0.007378 0.000000 0.043414 0.000000
# 6 0.000000 0.000000 0.000000 -0.006705 0.000000 0.033167
#
#
# Mechanical properties :
#
#
# Convention : Reuss Voigt Hill
#
# Bulk Modulus (GPa) = 33.02720 44.92896 38.97808
# Shear Modulus (GPa) = 24.56662 27.44300 26.00481
#
# Velocity S-wave (km/s) = 3.55311 3.75536 3.65563
# Velocity P-wave (km/s) = 5.81422 6.47242 6.15213
#
# Compressibility (1/GPa) = 0.03027807
#
# Stress axis : x y z
#
# Youngs Moduli (GPa) = 76.11846 46.74138 60.88257
#
# Poissons Ratio (x) = 0.23123 0.41563
# Poissons Ratio (y) = 0.37656 -0.08733
# Poissons Ratio (z) = 0.51964 -0.06705
#
# Static dielectric constant tensor:
#      x y z
#    x 3.740690 0.000000 -0.182340 
#    y 0.000000 3.493010 0.000000 
#    z -0.182340 0.000000 3.555880 
# 
# 
# High freq. dielectric constant tensor:
#      x y z
#    x 1.756040 0.000000 -0.006970 
#    y 0.000000 1.746320 0.000000 
#    z -0.006970 0.000000 1.744160 
# 
# From -- ./inp_files/264835.got.cif
#   From: 2010.06.25/outbox.cif.g09.slc.cpg/sg15_133_cif.got.tgz:264835.got - 2010.06.28 07:06:18.
