data_PCOD8133204
_publ_section_title
;
Structure prediction by ZEFSAII (Michael W. Deem and Ramdas Pophale) SiO2 
 PCOD8133204
Probable space group: C 2/C
;
_chemical_formula_sum "Si O2"
_cell_formula_units_Z 48
_cell_length_a 14.096440
_cell_length_b 24.387898
_cell_length_c 7.885375
_cell_angle_alpha 90.000000
_cell_angle_beta 69.945666
_cell_angle_gamma 90.000000
_cell_volume 2546.489354
_symmetry_space_group_name_H-M "C 2/C"
_symmetry_group_IT_number 15
_symmetry_cell_setting 'monoclinic'
loop_
_space_group_symop_operation_xyz
x,y,z
-x,y,1/2-z
-x,-y,-z
x,-y,1/2+z
1/2+x,1/2+y,z
1/2-x,1/2+y,1/2-z
1/2-x,1/2-y,-z
1/2+x,1/2-y,1/2+z
loop_
_atom_site_type_symbol
_atom_site_label
_atom_site_fract_x
_atom_site_fract_y
_atom_site_fract_z
Si Si1 0.437799 0.784037 0.119765
Si Si2 0.691191 0.133976 0.973482
Si Si3 0.500000 0.610924 0.750000
Si Si4 0.376263 0.664244 0.086316
Si Si5 0.316677 0.452543 0.233262
Si Si6 0.880335 0.935862 0.818624
Si Si7 0.500000 0.168120 0.250000
O O1 0.500000 0.797459 0.250000
O O2 0.343859 0.826287 0.159543
O O3 0.390938 0.723575 0.158142
O O4 0.510173 0.792520 0.909767
O O5 0.715647 0.074420 0.876609
O O6 0.785884 0.163138 0.005916
O O7 0.599158 0.129324 0.166553
O O8 0.518930 0.648058 0.572353
O O9 0.594447 0.571291 0.707266
O O10 0.355959 0.622420 0.251336
O O11 0.320991 0.518239 0.244896
O O12 0.330257 0.434573 0.032639
O O13 0.000000 0.948368 0.750000
#
# Coordination Sequence:
#
# PCOD8133204 Si02
#       7
#     8   8   4   8   8   8   4
#     4  10  21  40  63  91 123 164 209 258 312 368
#     4   9  22  41  62  89 120 170 208 261 308 362
#     4  10  19  32  56  82 126 162 190 243 300 368
#     4  11  21  36  60  92 128 161 202 245 317 379
#     4  11  21  37  59  88 127 166 204 245 309 374
#     4  12  22  36  58  95 132 164 195 250 312 392
#     4   8  21  42  64  82 126 160 216 263 314 334
#
# _framework density 18.849478999999999
#
# number of rings (size 3 to 8) (size 9 to 14) (size 15 to 20)
#    1.000    0.667    2.500    4.000    0.000    1.333 
#    0.000    1.667    0.000    4.000    2.167    0.000 
#    0.000    0.000    0.000    0.000    0.000    0.000 
#
# Total GULP energy -297453.282447 kJ/mol
# GULP energy per Si atom -12393.886769 kJ/mol
# Density = 1.880658 g / cm^3
# Si number density = 18.849479 Si / 1000 Ang^3
#
#
#
# Elastic Constant Matrix: (Units=GPa)
#
#
# Indices 1 2 3 4 5 6 
#
# 1 80.6300 45.1916 41.9910 0.0000 5.2593 0.0000
# 2 45.1916 114.0865 47.6400 0.0000 -2.3961 0.0000
# 3 41.9910 47.6400 119.1093 0.0000 4.5877 0.0000
# 4 0.0000 0.0000 0.0000 29.1241 0.0000 -1.6639
# 5 5.2593 -2.3961 4.5877 0.0000 37.3466 0.0000
# 6 0.0000 0.0000 0.0000 -1.6639 0.0000 20.6554
#
#
#
# Elastic Compliance Matrix: (Units=1/GPa)
#
#
# Indices 1 2 3 4 5 6 
#
# 1 0.017640 -0.005375 -0.003979 0.000000 -0.002340 0.000000
# 2 -0.005375 0.012214 -0.003064 0.000000 0.001917 0.000000
# 3 -0.003979 -0.003064 0.011062 0.000000 -0.000995 0.000000
# 4 0.000000 0.000000 0.000000 0.034495 0.000000 0.002779
# 5 -0.002340 0.001917 -0.000995 0.000000 0.027351 0.000000
# 6 0.000000 0.000000 0.000000 0.002779 0.000000 0.048637
#
#
# Mechanical properties :
#
#
# Convention : Reuss Voigt Hill
#
# Bulk Modulus (GPa) = 62.18858 64.83009 63.50934
# Shear Modulus (GPa) = 27.53375 29.35875 28.44625
#
# Velocity S-wave (km/s) = 3.82608 3.95085 3.88896
# Velocity P-wave (km/s) = 7.25137 7.43508 7.34380
#
# Compressibility (1/GPa) = 0.01608012
#
# Stress axis : x y z
#
# Youngs Moduli (GPa) = 56.69032 81.87150 90.39766
#
# Poissons Ratio (x) = 0.44007 0.35967
# Poissons Ratio (y) = 0.30472 0.27700
# Poissons Ratio (z) = 0.22555 0.25087
#
# Static dielectric constant tensor:
#      x y z
#    x 3.320740 0.000000 -0.032820 
#    y 0.000000 3.444900 0.000000 
#    z -0.032820 0.000000 3.458830 
# 
# 
# High freq. dielectric constant tensor:
#      x y z
#    x 1.708880 0.000000 0.008920 
#    y 0.000000 1.725700 0.000000 
#    z 0.008920 0.000000 1.735150 
# 
# From -- ./inp_files/41685.got.cif
#   From: 2010.06.25/outbox.cif.g09.slc.cpg/sg15_21_cif.got.tgz:41685.got - 2010.06.28 07:06:18.
