data_PCOD8133286
_publ_section_title
;
Structure prediction by ZEFSAII (Michael W. Deem and Ramdas Pophale) SiO2 
 PCOD8133286
Probable space group: C 2/C
;
_chemical_formula_sum "Si O2"
_cell_formula_units_Z 56
_cell_length_a 14.095267
_cell_length_b 29.154133
_cell_length_c 14.248915
_cell_angle_alpha 90.000000
_cell_angle_beta 148.061034
_cell_angle_gamma 90.000000
_cell_volume 3097.588337
_symmetry_space_group_name_H-M "C 2/C"
_symmetry_group_IT_number 15
_symmetry_cell_setting 'monoclinic'
loop_
_space_group_symop_operation_xyz
x,y,z
-x,y,1/2-z
-x,-y,-z
x,-y,1/2+z
1/2+x,1/2+y,z
1/2-x,1/2+y,1/2-z
1/2-x,1/2-y,-z
1/2+x,1/2-y,1/2+z
loop_
_atom_site_type_symbol
_atom_site_label
_atom_site_fract_x
_atom_site_fract_y
_atom_site_fract_z
Si Si1 0.668112 0.224040 0.843894
Si Si2 0.977060 0.419630 0.838465
Si Si3 0.981981 0.186553 0.344700
Si Si4 0.770626 0.928104 0.224240
Si Si5 0.883536 0.519892 0.738818
Si Si6 0.104950 0.102425 0.109641
Si Si7 0.487469 0.515749 0.345758
O O1 0.500000 0.197020 0.750000
O O2 0.613549 0.263438 0.722344
O O3 0.750000 0.250000 0.000000
O O4 0.821434 0.189047 0.938327
O O5 0.983864 0.474587 0.859705
O O6 0.790010 0.397015 0.709516
O O7 0.000000 0.405729 0.750000
O O8 0.145425 0.401783 0.043005
O O9 0.877391 0.146649 0.309147
O O10 0.000000 0.173802 0.250000
O O11 0.637147 0.942013 0.197800
O O12 0.931083 0.895053 0.395149
O O13 0.860263 0.972281 0.251164
O O14 0.686381 0.502421 0.544646
O O15 0.000000 0.540949 0.750000
O O16 0.092419 0.056684 0.160453
O O17 0.500000 0.532452 0.250000
#
# Coordination Sequence:
#
# PCOD8133286 Si02
#       7
#     8   8   8   8   8   8   8
#     4   7  13  29  54  76 102 142 172 193 246 331
#     4  11  22  36  55  70  97 143 189 233 268 308
#     4   9  17  34  54  82 114 145 170 210 262 327
#     4  11  22  37  50  75 104 146 192 226 271 318
#     4  10  19  33  51  72  98 139 190 226 269 319
#     4  11  22  36  49  82 113 134 181 234 268 315
#     4  11  20  33  52  72 107 152 186 229 271 309
#
# _framework density 18.078582000000001
#
# number of rings (size 3 to 8) (size 9 to 14) (size 15 to 20)
#    0.000    2.286    2.857    3.429    2.000    0.000 
#    7.714    0.714    0.000    0.000    0.000    1.000 
#    0.000    0.000    0.000    0.000    0.000    0.000 
#
# Total GULP energy -346944.449366 kJ/mol
# GULP energy per Si atom -12390.873192 kJ/mol
# Density = 1.803743 g / cm^3
# Si number density = 18.078582 Si / 1000 Ang^3
#
#
#
# Elastic Constant Matrix: (Units=GPa)
#
#
# Indices 1 2 3 4 5 6 
#
# 1 119.2943 28.0353 52.6431 0.0000 10.0349 0.0000
# 2 28.0353 43.3632 19.4648 0.0000 6.0551 0.0000
# 3 52.6431 19.4648 105.3742 0.0000 -0.7394 0.0000
# 4 0.0000 0.0000 0.0000 5.0143 0.0000 -0.0476
# 5 10.0349 6.0551 -0.7394 0.0000 29.5663 0.0000
# 6 0.0000 0.0000 0.0000 -0.0476 0.0000 15.2355
#
#
#
# Elastic Compliance Matrix: (Units=1/GPa)
#
#
# Indices 1 2 3 4 5 6 
#
# 1 0.012111 -0.005079 -0.005135 0.000000 -0.003199 0.000000
# 2 -0.005079 0.028123 -0.002687 0.000000 -0.004103 0.000000
# 3 -0.005135 -0.002687 0.012570 0.000000 0.002607 0.000000
# 4 0.000000 0.000000 0.000000 0.199437 0.000000 0.000623
# 5 -0.003199 -0.004103 0.002607 0.000000 0.035814 0.000000
# 6 0.000000 0.000000 0.000000 0.000623 0.000000 0.065638
#
#
# Mechanical properties :
#
#
# Convention : Reuss Voigt Hill
#
# Bulk Modulus (GPa) = 37.03111 52.03534 44.53323
# Shear Modulus (GPa) = 12.87020 21.15579 17.01300
#
# Velocity S-wave (km/s) = 2.67105 3.42455 3.07100
# Velocity P-wave (km/s) = 5.48092 6.66949 6.10420
#
# Compressibility (1/GPa) = 0.02700432
#
# Stress axis : x y z
#
# Youngs Moduli (GPa) = 82.56837 35.55768 79.55554
#
# Poissons Ratio (x) = 0.18058 0.40851
# Poissons Ratio (y) = 0.41933 0.21373
# Poissons Ratio (z) = 0.42398 0.09553
#
# Static dielectric constant tensor:
#      x y z
#    x 13.138670 0.000000 14.927260 
#    y 0.000000 3.270000 0.000000 
#    z 14.927260 0.000000 26.201170 
# 
# 
# High freq. dielectric constant tensor:
#      x y z
#    x 1.691630 0.000000 0.015330 
#    y 0.000000 1.639020 0.000000 
#    z 0.015330 0.000000 1.720270 
# 
# From -- ./inp_files/157471.got.cif
#   From: 2010.06.25/outbox.cif.g09.slc.cpg/sg15_79_cif.got.tgz:157471.got - 2010.06.28 07:06:18.
