data_PCOD8133742
_publ_section_title
;
Structure prediction by ZEFSAII (Michael W. Deem and Ramdas Pophale) SiO2 
 PCOD8133742
Probable space group: C 2/C
;
_chemical_formula_sum "Si O2"
_cell_formula_units_Z 48
_cell_length_a 21.538044
_cell_length_b 15.001668
_cell_length_c 17.542602
_cell_angle_alpha 90.000000
_cell_angle_beta 24.151120
_cell_angle_gamma 90.000000
_cell_volume 2319.085668
_symmetry_space_group_name_H-M "C 2/C"
_symmetry_group_IT_number 15
_symmetry_cell_setting 'monoclinic'
loop_
_space_group_symop_operation_xyz
x,y,z
-x,y,1/2-z
-x,-y,-z
x,-y,1/2+z
1/2+x,1/2+y,z
1/2-x,1/2+y,1/2-z
1/2-x,1/2-y,-z
1/2+x,1/2-y,1/2+z
loop_
_atom_site_type_symbol
_atom_site_label
_atom_site_fract_x
_atom_site_fract_y
_atom_site_fract_z
Si Si1 0.676309 0.837905 0.047689
Si Si2 0.738901 0.626717 0.755893
Si Si3 0.738615 0.636324 0.363784
Si Si4 0.334609 0.937409 0.594110
Si Si5 0.009815 0.237932 0.922357
Si Si6 0.309432 0.951891 0.329668
O O1 0.500000 0.818865 0.250000
O O2 0.725570 0.916281 0.048274
O O3 0.750000 0.750000 0.000000
O O4 0.723549 0.874407 0.910788
O O5 0.762585 0.537292 0.677497
O O6 0.583539 0.676455 0.906292
O O7 0.715664 0.600154 0.869932
O O8 0.882522 0.693132 0.594055
O O9 0.793027 0.616446 0.216326
O O10 0.852723 0.709373 0.271633
O O11 0.567487 0.673728 0.553634
O O12 0.745121 0.551031 0.409165
O O13 0.514273 0.951298 0.389820
#
# Coordination Sequence:
#
# PCOD8133742 Si02
#       6
#     8   8   8   8   8   8
#     4  10  24  38  56  79 109 146 178 215 267 320
#     4  10  19  34  56  80 111 137 182 219 270 309
#     4  10  19  34  56  80 111 137 182 219 270 309
#     4  10  19  36  54  78 110 148 175 215 275 316
#     4  10  20  30  56  86 102 136 176 240 254 312
#     4  10  19  36  54  78 110 148 175 215 275 316
#
# _framework density 20.697813
#
# number of rings (size 3 to 8) (size 9 to 14) (size 15 to 20)
#    0.000    2.000    3.333    1.000    4.667    2.667 
#    3.000    0.000    0.000    6.000    0.000    0.000 
#    0.000    0.000    0.000    0.000    0.000    0.000 
#
# Total GULP energy -297395.469510 kJ/mol
# GULP energy per Si atom -12391.477896 kJ/mol
# Density = 2.065070 g / cm^3
# Si number density = 20.697813 Si / 1000 Ang^3
#
#
#
# Elastic Constant Matrix: (Units=GPa)
#
#
# Indices 1 2 3 4 5 6 
#
# 1 92.0035 61.3613 31.7992 0.0003 -13.7998 0.0000
# 2 61.3613 141.9340 39.2925 -0.0007 -25.6017 0.0006
# 3 31.7992 39.2925 52.8901 -0.0024 -27.0032 0.0018
# 4 0.0003 -0.0007 -0.0024 13.9722 0.0003 -21.5831
# 5 -13.7998 -25.6017 -27.0032 0.0003 36.6135 -0.0003
# 6 0.0000 0.0006 0.0018 -21.5831 -0.0003 43.1228
#
#
#
# Elastic Compliance Matrix: (Units=1/GPa)
#
#
# Indices 1 2 3 4 5 6 
#
# 1 0.016824 -0.005789 -0.007449 -0.000006 -0.003200 -0.000002
# 2 -0.005789 0.010969 -0.002994 0.000000 0.003280 0.000000
# 3 -0.007449 -0.002994 0.037063 0.000017 0.022434 0.000007
# 4 -0.000006 0.000000 0.000017 0.315479 0.000009 0.157898
# 5 -0.003200 0.003280 0.022434 0.000009 0.044945 0.000004
# 6 -0.000002 0.000000 0.000007 0.157898 0.000004 0.102218
#
#
# Mechanical properties :
#
#
# Convention : Reuss Voigt Hill
#
# Bulk Modulus (GPa) = 30.86974 61.30373 46.08673
# Shear Modulus (GPa) = 8.76027 29.03335 18.89681
#
# Velocity S-wave (km/s) = 2.05953 3.74936 3.02484
# Velocity P-wave (km/s) = 4.53899 6.95891 5.87489
#
# Compressibility (1/GPa) = 0.03239419
#
# Stress axis : x y z
#
# Youngs Moduli (GPa) = 59.43748 91.17013 26.98084
#
# Poissons Ratio (x) = 0.52776 0.20097
# Poissons Ratio (y) = 0.34407 0.08077
# Poissons Ratio (z) = 0.44273 0.27293
#
# Static dielectric constant tensor:
#      x y z
#    x 3.777030 0.000000 -0.368960 
#    y 0.000000 4.139650 0.000010 
#    z -0.368960 0.000010 3.550340 
# 
# 
# High freq. dielectric constant tensor:
#      x y z
#    x 1.792130 0.000000 -0.033740 
#    y 0.000000 1.836460 0.000000 
#    z -0.033740 0.000000 1.781110 
# 
# From -- ./inp_files/55422.got.cif
#   From: 2010.06.25/outbox.cif.g09.slc.cpg/sg15_28_cif.got.tgz:55422.got - 2010.06.28 07:06:18.
