data_PCOD8133252
_publ_section_title
;
Structure prediction by ZEFSAII (Michael W. Deem and Ramdas Pophale) SiO2 
 PCOD8133252
Probable space group: C 2/C
;
_chemical_formula_sum "Si O2"
_cell_formula_units_Z 52
_cell_length_a 11.565201
_cell_length_b 14.077486
_cell_length_c 23.157983
_cell_angle_alpha 90.000000
_cell_angle_beta 135.015155
_cell_angle_gamma 90.000000
_cell_volume 2665.318531
_symmetry_space_group_name_H-M "C 2/C"
_symmetry_group_IT_number 15
_symmetry_cell_setting 'monoclinic'
loop_
_space_group_symop_operation_xyz
x,y,z
-x,y,1/2-z
-x,-y,-z
x,-y,1/2+z
1/2+x,1/2+y,z
1/2-x,1/2+y,1/2-z
1/2-x,1/2-y,-z
1/2+x,1/2-y,1/2+z
loop_
_atom_site_type_symbol
_atom_site_label
_atom_site_fract_x
_atom_site_fract_y
_atom_site_fract_z
Si Si1 0.392484 0.410442 0.392264
Si Si2 0.671729 0.254678 0.300974
Si Si3 0.364266 0.426993 0.127736
Si Si4 0.176556 0.901751 0.580080
Si Si5 0.641656 0.846894 0.961357
Si Si6 0.000000 0.091286 0.250000
Si Si7 0.285120 0.226587 0.315088
O O1 0.496700 0.402011 0.370137
O O2 0.501194 0.400723 0.487953
O O3 0.300524 0.511033 0.366722
O O4 0.264994 0.322352 0.346602
O O5 0.500000 0.198199 0.250000
O O6 0.644241 0.356858 0.320894
O O7 0.816498 0.196039 0.381819
O O8 0.708734 0.265885 0.247361
O O9 0.403007 0.530606 0.167286
O O10 0.190948 0.415242 0.032739
O O11 0.320350 0.905369 0.583452
O O12 0.449966 0.825688 0.894665
O O13 0.750000 0.750000 0.000000
O O14 0.133012 0.156903 0.266260
#
# Coordination Sequence:
#
# PCOD8133252 Si02
#       7
#     8   8   8   8   8   4   8
#     4  10  19  37  61  87 125 157 200 251 319 370
#     4  12  18  33  65  91 111 151 218 259 294 356
#     4  11  20  40  63  90 120 167 208 255 316 366
#     4  10  19  32  61  99 113 150 200 270 303 346
#     4  11  18  38  69  95 114 159 221 264 293 363
#     4  12  28  40  54  88 140 172 190 258 340 374
#     4  12  23  40  59  90 128 169 207 258 313 380
#
# _framework density 19.509861999999998
#
# number of rings (size 3 to 8) (size 9 to 14) (size 15 to 20)
#    0.000    0.923    8.462    0.923    0.000    0.615 
#    1.385    1.538    0.000   17.538    0.000    0.000 
#    0.000    0.000    0.000    0.000    0.000    0.000 
#
# Total GULP energy -322196.340124 kJ/mol
# GULP energy per Si atom -12392.166928 kJ/mol
# Density = 1.946546 g / cm^3
# Si number density = 19.509862 Si / 1000 Ang^3
#
#
#
# Elastic Constant Matrix: (Units=GPa)
#
#
# Indices 1 2 3 4 5 6 
#
# 1 75.8229 56.7682 50.2306 0.0000 -3.5611 0.0000
# 2 56.7682 134.1876 51.7453 0.0000 -6.1659 0.0000
# 3 50.2306 51.7453 84.3778 0.0000 -15.3901 0.0000
# 4 0.0000 0.0000 0.0000 37.5672 0.0000 -2.9836
# 5 -3.5611 -6.1659 -15.3901 0.0000 26.0646 0.0000
# 6 0.0000 0.0000 0.0000 -2.9836 0.0000 32.9886
#
#
#
# Elastic Compliance Matrix: (Units=1/GPa)
#
#
# Indices 1 2 3 4 5 6 
#
# 1 0.026071 -0.006435 -0.012554 0.000000 -0.005373 0.000000
# 2 -0.006435 0.011393 -0.003166 0.000000 -0.000053 0.000000
# 3 -0.012554 -0.003166 0.023329 0.000000 0.011311 0.000000
# 4 0.000000 0.000000 0.000000 0.026812 0.000000 0.002425
# 5 -0.005373 -0.000053 0.011311 0.000000 0.044298 0.000000
# 6 0.000000 0.000000 0.000000 0.002425 0.000000 0.030533
#
#
# Mechanical properties :
#
#
# Convention : Reuss Voigt Hill
#
# Bulk Modulus (GPa) = 60.66514 67.98627 64.32571
# Shear Modulus (GPa) = 23.55839 28.36702 25.96271
#
# Velocity S-wave (km/s) = 3.47870 3.81725 3.65190
# Velocity P-wave (km/s) = 6.87730 7.37233 7.12911
#
# Compressibility (1/GPa) = 0.01648393
#
# Stress axis : x y z
#
# Youngs Moduli (GPa) = 38.35726 87.77365 42.86502
#
# Poissons Ratio (x) = 0.56484 0.53811
# Poissons Ratio (y) = 0.24684 0.13569
# Poissons Ratio (z) = 0.48152 0.27786
#
# Static dielectric constant tensor:
#      x y z
#    x 3.370640 0.000000 -0.139930 
#    y 0.000000 3.681620 0.000000 
#    z -0.139930 0.000000 3.845140 
# 
# 
# High freq. dielectric constant tensor:
#      x y z
#    x 1.729110 0.000000 -0.023270 
#    y 0.000000 1.754590 0.000000 
#    z -0.023270 0.000000 1.770340 
# 
# From -- ./inp_files/269993.got.cif
#   From: 2010.06.25/outbox.cif.g09.slc.cpg/sg15_135_cif.got.tgz:269993.got - 2010.06.28 07:06:18.
