data_PCOD8133917
_publ_section_title
;
Structure prediction by ZEFSAII (Michael W. Deem and Ramdas Pophale) SiO2 
 PCOD8133917
Probable space group: C 2/C
;
_chemical_formula_sum "Si O2"
_cell_formula_units_Z 60
_cell_length_a 24.446114
_cell_length_b 15.843549
_cell_length_c 11.012383
_cell_angle_alpha 90.000000
_cell_angle_beta 46.544626
_cell_angle_gamma 90.000000
_cell_volume 3096.182589
_symmetry_space_group_name_H-M "C 2/C"
_symmetry_group_IT_number 15
_symmetry_cell_setting 'monoclinic'
loop_
_space_group_symop_operation_xyz
x,y,z
-x,y,1/2-z
-x,-y,-z
x,-y,1/2+z
1/2+x,1/2+y,z
1/2-x,1/2+y,1/2-z
1/2-x,1/2-y,-z
1/2+x,1/2-y,1/2+z
loop_
_atom_site_type_symbol
_atom_site_label
_atom_site_fract_x
_atom_site_fract_y
_atom_site_fract_z
Si Si1 0.643303 0.520280 0.029310
Si Si2 0.500000 0.579454 0.750000
Si Si3 0.556843 0.021034 0.563316
Si Si4 0.075291 0.192198 0.057218
Si Si5 0.936791 0.629528 0.614346
Si Si6 0.339341 0.149169 0.989263
Si Si7 0.037928 0.185487 0.469962
Si Si8 0.819477 0.920311 0.777844
O O1 0.566226 0.479937 0.196954
O O2 0.627613 0.615508 0.014715
O O3 0.693414 0.521885 0.078967
O O4 0.675007 0.472024 0.859661
O O5 0.535301 0.640386 0.599921
O O6 0.500000 0.982172 0.750000
O O7 0.512930 0.097060 0.562916
O O8 0.631780 0.059796 0.504383
O O9 0.589105 0.945594 0.433246
O O10 0.129655 0.273381 0.977919
O O11 0.000000 0.211352 0.250000
O O12 0.041739 0.172231 0.976026
O O13 0.869744 0.655396 0.806347
O O14 0.952206 0.715350 0.518766
O O15 0.249332 0.145294 0.130490
O O16 0.108602 0.138761 0.297301
#
# Coordination Sequence:
#
# PCOD8133917 Si02
#       8
#     8   4   8   8   8   8   8   8
#     4  11  22  41  63  93 124 164 203 257 310 373
#     4  10  22  38  64  92 126 154 202 252 314 372
#     4   9  19  36  56  83 110 153 204 253 292 359
#     4  12  19  38  68  90 113 158 213 255 303 351
#     4  10  19  34  60  83 114 152 208 248 300 352
#     4  11  22  38  57  87 121 160 202 256 302 373
#     4  11  21  38  62  93 121 157 201 261 303 367
#     4  11  25  39  61  91 132 160 204 252 319 370
#
# _framework density 19.378703999999999
#
# number of rings (size 3 to 8) (size 9 to 14) (size 15 to 20)
#    0.000    1.333    4.667    1.200    2.800    4.267 
#    0.000    0.000    0.000    2.400    0.000    0.000 
#    0.000    0.000    0.000    0.000    0.000    0.000 
#
# Total GULP energy -371694.244980 kJ/mol
# GULP energy per Si atom -12389.808166 kJ/mol
# Density = 1.933460 g / cm^3
# Si number density = 19.378704 Si / 1000 Ang^3
#
#
#
# Elastic Constant Matrix: (Units=GPa)
#
#
# Indices 1 2 3 4 5 6 
#
# 1 79.9733 30.5833 30.0677 0.0000 -3.2726 0.0000
# 2 30.5833 81.2747 34.8670 0.0000 3.8343 0.0000
# 3 30.0677 34.8670 49.4432 0.0000 -5.8337 0.0000
# 4 0.0000 0.0000 0.0000 5.1991 0.0000 -12.3820
# 5 -3.2726 3.8343 -5.8337 0.0000 22.9811 0.0000
# 6 0.0000 0.0000 0.0000 -12.3820 0.0000 23.4706
#
#
#
# Elastic Compliance Matrix: (Units=1/GPa)
#
#
# Indices 1 2 3 4 5 6 
#
# 1 0.016643 -0.002868 -0.008002 0.000000 0.000817 0.000000
# 2 -0.002868 0.019064 -0.012497 0.000000 -0.006761 0.000000
# 3 -0.008002 -0.012497 0.035066 0.000000 0.009847 0.000000
# 4 0.000000 0.000000 0.000000 -0.750145 0.000000 -0.395743
# 5 0.000817 -0.006761 0.009847 0.000000 0.047258 0.000000
# 6 0.000000 0.000000 0.000000 -0.395743 0.000000 -0.166170
#
#
# Mechanical properties :
#
#
# Convention : Reuss Voigt Hill
#
# Bulk Modulus (GPa) = 41.60050 44.63636 43.11843
# Shear Modulus (GPa) = -6.72462 18.00836 5.64187
#
# Velocity S-wave (km/s) = -1.86484 3.05173 1.70813
# Velocity P-wave (km/s) = 4.10815 5.95828 5.11752
#
# Compressibility (1/GPa) = 0.02403817
#
# Stress axis : x y z
#
# Youngs Moduli (GPa) = 60.08521 52.45624 28.51773
#
# Poissons Ratio (x) = 0.15047 0.22819
# Poissons Ratio (y) = 0.17235 0.35638
# Poissons Ratio (z) = 0.48079 0.65554
#
# Static dielectric constant tensor:
#      x y z
#    x 3.768790 0.000000 -0.077730 
#    y 0.000000 3.557950 0.000000 
#    z -0.077730 0.000000 4.527430 
# 
# 
# High freq. dielectric constant tensor:
#      x y z
#    x 1.751340 0.000000 0.009740 
#    y 0.000000 1.762580 0.000000 
#    z 0.009740 0.000000 1.734390 
# 
# From -- ./inp_files/118777.got.cif
#   From: 2010.06.25/outbox.cif.g09.slc.cpg/sg15_60_cif.got.tgz:118777.got - 2010.06.28 07:06:18.
