data_PCOD8133267
_publ_section_title
;
Structure prediction by ZEFSAII (Michael W. Deem and Ramdas Pophale) SiO2 
 PCOD8133267
Probable space group: C 2/C
;
_chemical_formula_sum "Si O2"
_cell_formula_units_Z 64
_cell_length_a 28.896318
_cell_length_b 16.185208
_cell_length_c 9.312135
_cell_angle_alpha 90.000000
_cell_angle_beta 126.667552
_cell_angle_gamma 90.000000
_cell_volume 3493.382451
_symmetry_space_group_name_H-M "C 2/C"
_symmetry_group_IT_number 15
_symmetry_cell_setting 'monoclinic'
loop_
_space_group_symop_operation_xyz
x,y,z
-x,y,1/2-z
-x,-y,-z
x,-y,1/2+z
1/2+x,1/2+y,z
1/2-x,1/2+y,1/2-z
1/2-x,1/2-y,-z
1/2+x,1/2-y,1/2+z
loop_
_atom_site_type_symbol
_atom_site_label
_atom_site_fract_x
_atom_site_fract_y
_atom_site_fract_z
Si Si1 0.213409 0.999838 0.555513
Si Si2 0.929041 0.462927 0.019778
Si Si3 0.459364 0.898430 0.376089
Si Si4 0.819706 0.890663 0.759870
Si Si5 0.214938 0.716473 0.152950
Si Si6 0.319000 0.100144 0.176181
Si Si7 0.205152 0.366280 0.171130
Si Si8 0.868664 0.270339 0.254544
O O1 0.175628 0.053478 0.374729
O O2 0.256128 0.054107 0.730651
O O3 0.170487 0.947875 0.581126
O O4 0.254775 0.937460 0.546883
O O5 0.953233 0.552471 0.015726
O O6 0.865319 0.459569 0.835846
O O7 0.927291 0.451000 0.188907
O O8 0.972529 0.392378 0.036159
O O9 0.432732 0.805534 0.339632
O O10 0.755306 0.851398 0.647803
O O11 0.867585 0.816444 0.841691
O O12 0.181765 0.681972 0.228924
O O13 0.253003 0.790260 0.282335
O O14 0.166825 0.749664 0.954949
O O15 0.335779 0.120484 0.043569
O O16 0.162808 0.345950 0.223530
#
# Coordination Sequence:
#
# PCOD8133267 Si02
#       8
#     8   8   8   8   8   8   8   8
#     4  11  19  30  47  73 100 140 174 208 246 311
#     4  10  22  36  53  76  98 136 181 216 255 301
#     4  10  22  38  53  72 103 135 179 225 257 299
#     4  10  20  32  48  72 102 139 178 208 252 312
#     4  10  19  33  48  69 100 140 175 206 252 312
#     4  11  22  30  48  73 102 136 170 209 257 304
#     4  11  20  31  47  71 105 137 169 211 254 309
#     4  11  19  35  52  69 100 147 179 210 265 306
#
# _framework density 18.320353999999998
#
# number of rings (size 3 to 8) (size 9 to 14) (size 15 to 20)
#    0.000    1.500    5.000    1.875    3.500    0.000 
#    0.000    0.000    0.000    0.000    0.000    0.000 
#    0.000    9.000    1.500    1.125    0.000    0.000 
#
# Total GULP energy -396666.432834 kJ/mol
# GULP energy per Si atom -12395.826026 kJ/mol
# Density = 1.827866 g / cm^3
# Si number density = 18.320354 Si / 1000 Ang^3
#
#
#
# Elastic Constant Matrix: (Units=GPa)
#
#
# Indices 1 2 3 4 5 6 
#
# 1 41.7679 20.1592 8.4816 0.0000 -3.4972 0.0000
# 2 20.1592 71.3760 12.2250 0.0000 -5.4062 0.0000
# 3 8.4816 12.2250 57.7134 0.0000 -16.0063 0.0000
# 4 0.0000 0.0000 0.0000 25.8254 0.0000 -2.9143
# 5 -3.4972 -5.4062 -16.0063 0.0000 21.7063 0.0000
# 6 0.0000 0.0000 0.0000 -2.9143 0.0000 35.3315
#
#
#
# Elastic Compliance Matrix: (Units=1/GPa)
#
#
# Indices 1 2 3 4 5 6 
#
# 1 0.028091 -0.007470 -0.002271 0.000000 0.000991 0.000000
# 2 -0.007470 0.016574 -0.002014 0.000000 0.001440 0.000000
# 3 -0.002271 -0.002014 0.022435 0.000000 0.015676 0.000000
# 4 0.000000 0.000000 0.000000 0.039085 0.000000 0.003224
# 5 0.000991 0.001440 0.015676 0.000000 0.058147 0.000000
# 6 0.000000 0.000000 0.000000 0.003224 0.000000 0.028569
#
#
# Mechanical properties :
#
#
# Convention : Reuss Voigt Hill
#
# Bulk Modulus (GPa) = 22.94083 28.06542 25.50313
# Shear Modulus (GPa) = 21.65041 25.23876 23.44458
#
# Velocity S-wave (km/s) = 3.44142 3.71568 3.58117
# Velocity P-wave (km/s) = 5.32357 5.81041 5.57231
#
# Compressibility (1/GPa) = 0.04359040
#
# Stress axis : x y z
#
# Youngs Moduli (GPa) = 35.59811 60.33531 44.57320
#
# Poissons Ratio (x) = 0.45070 0.10124
# Poissons Ratio (y) = 0.26592 0.08976
# Poissons Ratio (z) = 0.08085 0.12150
#
# Static dielectric constant tensor:
#      x y z
#    x 3.294870 0.000000 -0.207380 
#    y 0.000000 3.406700 0.000000 
#    z -0.207380 0.000000 3.272640 
# 
# 
# High freq. dielectric constant tensor:
#      x y z
#    x 1.681940 0.000000 -0.035250 
#    y 0.000000 1.697520 0.000000 
#    z -0.035250 0.000000 1.697300 
# 
# From -- ./inp_files/61928.got.cif
#   From: 2010.06.25/outbox.cif.g09.slc.cpg/sg15_31_cif.got.tgz:61928.got - 2010.06.28 07:06:18.
