data_PCOD8133580
_publ_section_title
;
Structure prediction by ZEFSAII (Michael W. Deem and Ramdas Pophale) SiO2 
 PCOD8133580
Probable space group: C 2/C
;
_chemical_formula_sum "Si O2"
_cell_formula_units_Z 52
_cell_length_a 32.710097
_cell_length_b 15.988598
_cell_length_c 16.522288
_cell_angle_alpha 90.000000
_cell_angle_beta 162.554625
_cell_angle_gamma 90.000000
_cell_volume 2590.531159
_symmetry_space_group_name_H-M "C 2/C"
_symmetry_group_IT_number 15
_symmetry_cell_setting 'monoclinic'
loop_
_space_group_symop_operation_xyz
x,y,z
-x,y,1/2-z
-x,-y,-z
x,-y,1/2+z
1/2+x,1/2+y,z
1/2-x,1/2+y,1/2-z
1/2-x,1/2-y,-z
1/2+x,1/2-y,1/2+z
loop_
_atom_site_type_symbol
_atom_site_label
_atom_site_fract_x
_atom_site_fract_y
_atom_site_fract_z
Si Si1 0.143313 0.129583 0.171654
Si Si2 0.218946 0.046138 0.879819
Si Si3 0.989945 0.170086 0.420502
Si Si4 0.986872 0.493038 0.570053
Si Si5 0.808276 0.968853 0.499702
Si Si6 0.500000 0.426523 0.250000
Si Si7 0.046212 0.329029 0.248614
O O1 0.060014 0.180822 0.081696
O O2 0.291612 0.168954 0.448202
O O3 0.144073 0.031995 0.196726
O O4 0.069758 0.135560 0.946261
O O5 0.138929 0.128173 0.701100
O O6 0.374857 0.055060 0.141398
O O7 0.207801 0.033016 0.955507
O O8 0.008045 0.261014 0.417060
O O9 0.880790 0.116675 0.162751
O O10 0.844794 0.445935 0.322202
O O11 0.000000 0.500000 0.500000
O O12 0.979937 0.583101 0.599517
O O13 0.887182 0.013852 0.576738
O O14 0.000000 0.302068 0.250000
#
# Coordination Sequence:
#
# PCOD8133580 Si02
#       7
#     8   8   8   8   8   4   8
#     4  10  20  35  58  86 116 160 205 249 293 363
#     4   9  17  37  59  88 114 152 204 247 287 366
#     4  11  20  38  63  91 119 155 204 250 304 363
#     4   9  20  39  63  84 117 157 200 242 300 364
#     4  10  19  33  60  91 113 152 204 251 296 352
#     4  12  18  30  62  88 118 152 220 256 288 350
#     4  11  24  39  59  89 127 157 196 249 314 359
#
# _framework density 20.073103
#
# number of rings (size 3 to 8) (size 9 to 14) (size 15 to 20)
#    0.000    1.846    3.077    3.231    1.077    0.000 
#    0.000    3.077    6.769    0.000    0.000    0.000 
#    0.000    0.000    0.000    0.000    0.000    0.000 
#
# Total GULP energy -322397.113116 kJ/mol
# GULP energy per Si atom -12399.888966 kJ/mol
# Density = 2.002742 g / cm^3
# Si number density = 20.073103 Si / 1000 Ang^3
#
#
#
# Elastic Constant Matrix: (Units=GPa)
#
#
# Indices 1 2 3 4 5 6 
#
# 1 108.1128 34.0684 39.4342 0.0000 -4.3003 0.0000
# 2 34.0684 51.9722 39.7870 0.0000 4.0094 0.0000
# 3 39.4342 39.7870 125.1140 0.0000 11.4483 0.0000
# 4 0.0000 0.0000 0.0000 8.4803 0.0000 -5.4657
# 5 -4.3003 4.0094 11.4483 0.0000 35.0295 0.0000
# 6 0.0000 0.0000 0.0000 -5.4657 0.0000 25.7947
#
#
#
# Elastic Compliance Matrix: (Units=1/GPa)
#
#
# Indices 1 2 3 4 5 6 
#
# 1 0.012201 -0.006708 -0.001979 0.000000 0.002912 0.000000
# 2 -0.006708 0.029123 -0.006975 0.000000 -0.001877 0.000000
# 3 -0.001979 -0.006975 0.011116 0.000000 -0.003078 0.000000
# 4 0.000000 0.000000 0.000000 0.136571 0.000000 0.028938
# 5 0.002912 -0.001877 -0.003078 0.000000 0.030126 0.000000
# 6 0.000000 0.000000 0.000000 0.028938 0.000000 0.044899
#
#
# Mechanical properties :
#
#
# Convention : Reuss Voigt Hill
#
# Bulk Modulus (GPa) = 47.35707 56.86426 52.11067
# Shear Modulus (GPa) = 16.53446 25.32152 20.92799
#
# Velocity S-wave (km/s) = 2.87315 3.55556 3.23242
# Velocity P-wave (km/s) = 5.88644 6.72652 6.32046
#
# Compressibility (1/GPa) = 0.02111617
#
# Stress axis : x y z
#
# Youngs Moduli (GPa) = 81.96076 34.33753 89.95821
#
# Poissons Ratio (x) = 0.23032 0.17803
# Poissons Ratio (y) = 0.54975 0.62749
# Poissons Ratio (z) = 0.16220 0.23951
#
# Static dielectric constant tensor:
#      x y z
#    x 3.752560 0.000000 0.125390 
#    y 0.000000 3.184430 0.000000 
#    z 0.125390 0.000000 4.006690 
# 
# 
# High freq. dielectric constant tensor:
#      x y z
#    x 1.786180 0.000000 0.007390 
#    y 0.000000 1.737380 0.000000 
#    z 0.007390 0.000000 1.801480 
# 
# From -- ./inp_files/182894.got.cif
#   From: 2010.06.25/outbox.cif.g09.slc.cpg/sg15_92_cif.got.tgz:182894.got - 2010.06.28 07:06:18.
