data_PCOD8133726
_publ_section_title
;
Structure prediction by ZEFSAII (Michael W. Deem and Ramdas Pophale) SiO2 
 PCOD8133726
Probable space group: C 2/C
;
_chemical_formula_sum "Si O2"
_cell_formula_units_Z 64
_cell_length_a 20.392473
_cell_length_b 9.497874
_cell_length_c 30.970242
_cell_angle_alpha 90.000000
_cell_angle_beta 35.300171
_cell_angle_gamma 90.000000
_cell_volume 3466.279488
_symmetry_space_group_name_H-M "C 2/C"
_symmetry_group_IT_number 15
_symmetry_cell_setting 'monoclinic'
loop_
_space_group_symop_operation_xyz
x,y,z
-x,y,1/2-z
-x,-y,-z
x,-y,1/2+z
1/2+x,1/2+y,z
1/2-x,1/2+y,1/2-z
1/2-x,1/2-y,-z
1/2+x,1/2-y,1/2+z
loop_
_atom_site_type_symbol
_atom_site_label
_atom_site_fract_x
_atom_site_fract_y
_atom_site_fract_z
Si Si1 0.344262 0.823194 0.235987
Si Si2 0.059797 0.442646 0.534876
Si Si3 0.898888 0.352231 0.415875
Si Si4 0.658383 0.318654 0.402260
Si Si5 0.997620 0.135477 0.913125
Si Si6 0.177831 0.094355 0.988656
Si Si7 0.848693 0.505710 0.600819
Si Si8 0.810230 0.999634 0.240708
O O1 0.476077 0.858313 0.171463
O O2 0.284610 0.833973 0.314696
O O3 0.291618 0.943724 0.234200
O O4 0.323981 0.667675 0.226341
O O5 0.127900 0.534471 0.532626
O O6 0.140911 0.407835 0.449715
O O7 0.021616 0.301632 0.579828
O O8 0.952667 0.539587 0.577589
O O9 0.882143 0.198766 0.445355
O O10 0.812469 0.392661 0.423908
O O11 0.566868 0.396928 0.420263
O O12 0.650957 0.380564 0.453437
O O13 0.627848 0.156175 0.423165
O O14 0.074355 0.083686 0.831507
O O15 0.876190 0.059323 0.974527
O O16 0.727805 0.532199 0.689050
#
# Coordination Sequence:
#
# PCOD8133726 Si02
#       8
#     8   8   8   8   8   8   8   8
#     4  10  20  35  56  85 110 147 182 237 286 327
#     4  10  19  35  55  83 107 147 186 230 281 329
#     4  11  22  36  58  76 116 154 185 220 277 347
#     4   9  19  35  57  83 111 139 191 239 279 327
#     4  10  21  35  57  85 114 142 190 241 276 320
#     4  11  22  38  53  81 113 154 187 222 276 339
#     4   9  17  32  57  80 110 140 183 232 285 332
#     4  10  19  34  55  84 114 141 183 235 287 328
#
# _framework density 18.4636
#
# number of rings (size 3 to 8) (size 9 to 14) (size 15 to 20)
#    0.000    2.000    3.750    1.125    0.000    1.000 
#    4.500    0.000    0.000    0.750    0.000    0.000 
#    0.000    0.000    0.000    0.000    0.000    0.000 
#
# Total GULP energy -396611.229203 kJ/mol
# GULP energy per Si atom -12394.100913 kJ/mol
# Density = 1.842158 g / cm^3
# Si number density = 18.463600 Si / 1000 Ang^3
#
#
#
# Elastic Constant Matrix: (Units=GPa)
#
#
# Indices 1 2 3 4 5 6 
#
# 1 47.0987 19.0846 16.1904 -0.0023 -8.4250 0.0360
# 2 19.0846 53.6807 14.0119 -0.0108 -6.1933 -0.0137
# 3 16.1904 14.0119 78.0377 0.0008 -11.9495 -0.0023
# 4 -0.0023 -0.0108 0.0008 27.0410 -0.0020 -1.4039
# 5 -8.4250 -6.1933 -11.9495 -0.0020 28.9432 -0.0002
# 6 0.0360 -0.0137 -0.0023 -1.4039 -0.0002 17.5733
#
#
#
# Elastic Compliance Matrix: (Units=1/GPa)
#
#
# Indices 1 2 3 4 5 6 
#
# 1 0.026447 -0.007998 -0.003346 -0.000004 0.004606 -0.000061
# 2 -0.007998 0.022197 -0.002087 0.000010 0.001560 0.000034
# 3 -0.003346 -0.002087 0.014588 -0.000001 0.004602 0.000007
# 4 -0.000004 0.000010 -0.000001 0.037135 0.000003 0.002967
# 5 0.004606 0.001560 0.004602 0.000003 0.038125 -0.000007
# 6 -0.000061 0.000034 0.000007 0.002967 -0.000007 0.057142
#
#
# Mechanical properties :
#
#
# Convention : Reuss Voigt Hill
#
# Bulk Modulus (GPa) = 27.49513 30.82122 29.15817
# Shear Modulus (GPa) = 21.31125 23.34685 22.32905
#
# Velocity S-wave (km/s) = 3.40108 3.55981 3.48135
# Velocity P-wave (km/s) = 5.50881 5.79875 5.65564
#
# Compressibility (1/GPa) = 0.03637008
#
# Stress axis : x y z
#
# Youngs Moduli (GPa) = 37.81188 45.05140 68.54978
#
# Poissons Ratio (x) = 0.36031 0.22934
# Poissons Ratio (y) = 0.30241 0.14309
# Poissons Ratio (z) = 0.12650 0.09404
#
# Static dielectric constant tensor:
#      x y z
#    x 3.178680 0.000040 0.049500 
#    y 0.000040 3.298750 0.000030 
#    z 0.049500 0.000030 3.554700 
# 
# 
# High freq. dielectric constant tensor:
#      x y z
#    x 1.681630 0.000000 0.005450 
#    y 0.000000 1.706780 0.000000 
#    z 0.005450 0.000000 1.728480 
# 
# From -- ./inp_files/315684.got.cif
#   From: 2010.06.25/outbox.cif.g09.slc.cpg/sg15_158_cif.got.tgz:315684.got - 2010.06.28 07:06:18.
