data_PCOD8133977
_publ_section_title
;
Structure prediction by ZEFSAII (Michael W. Deem and Ramdas Pophale) SiO2 
 PCOD8133977
Probable space group: C 2/C
;
_chemical_formula_sum "Si O2"
_cell_formula_units_Z 32
_cell_length_a 16.809209
_cell_length_b 13.163900
_cell_length_c 7.292756
_cell_angle_alpha 90.000000
_cell_angle_beta 49.006531
_cell_angle_gamma 90.000000
_cell_volume 1217.997582
_symmetry_space_group_name_H-M "C 2/C"
_symmetry_group_IT_number 15
_symmetry_cell_setting 'monoclinic'
loop_
_space_group_symop_operation_xyz
x,y,z
-x,y,1/2-z
-x,-y,-z
x,-y,1/2+z
1/2+x,1/2+y,z
1/2-x,1/2+y,1/2-z
1/2-x,1/2-y,-z
1/2+x,1/2-y,1/2+z
loop_
_atom_site_type_symbol
_atom_site_label
_atom_site_fract_x
_atom_site_fract_y
_atom_site_fract_z
Si Si1 0.666168 0.378780 0.264652
Si Si2 0.703036 0.602241 0.104085
Si Si3 0.366472 0.242815 0.492321
Si Si4 0.054074 0.397909 0.352489
O O1 0.639566 0.359591 0.518949
O O2 0.785492 0.341703 0.036619
O O3 0.652211 0.498019 0.250412
O O4 0.590716 0.313850 0.240367
O O5 0.822993 0.581881 0.864670
O O6 0.697544 0.687239 0.266811
O O7 0.460418 0.185608 0.462026
O O8 0.000000 0.356716 0.250000
O O9 0.000000 0.500000 0.500000
#
# Coordination Sequence:
#
# PCOD8133977 Si02
#       4
#     8   8   8   8
#     4  10  19  34  63  89 123 159 224 262 313 366
#     4  11  20  39  64  93 125 168 216 269 313 384
#     4  10  22  38  60  91 128 169 217 263 317 383
#     4  11  23  39  58  91 136 165 203 264 338 380
#
# _framework density 26.272632000000002
#
# number of rings (size 3 to 8) (size 9 to 14) (size 15 to 20)
#    0.000    1.500    2.500    6.000    0.000    0.000 
#    4.500    0.000    0.000    1.500    0.000    0.000 
#    0.000    0.000    0.000    0.000    0.000    0.000 
#
# Total GULP energy -198369.825276 kJ/mol
# GULP energy per Si atom -12398.114080 kJ/mol
# Density = 2.621283 g / cm^3
# Si number density = 26.272632 Si / 1000 Ang^3
#
#
#
# Elastic Constant Matrix: (Units=GPa)
#
#
# Indices 1 2 3 4 5 6 
#
# 1 152.1759 70.4593 44.0345 0.0000 54.1530 0.0000
# 2 70.4593 150.1250 23.6897 0.0000 16.0801 0.0000
# 3 44.0345 23.6897 64.9091 0.0000 23.4837 0.0000
# 4 0.0000 0.0000 0.0000 41.6865 0.0000 13.9775
# 5 54.1530 16.0801 23.4837 0.0000 54.1978 0.0000
# 6 0.0000 0.0000 0.0000 13.9775 0.0000 58.2640
#
#
#
# Elastic Compliance Matrix: (Units=1/GPa)
#
#
# Indices 1 2 3 4 5 6 
#
# 1 0.013544 -0.004646 -0.003671 0.000000 -0.010564 0.000000
# 2 -0.004646 0.008724 -0.000919 0.000000 0.002452 0.000000
# 3 -0.003671 -0.000919 0.019931 0.000000 -0.004696 0.000000
# 4 0.000000 0.000000 0.000000 0.026087 0.000000 -0.006258
# 5 -0.010564 0.002452 -0.004696 0.000000 0.030313 0.000000
# 6 0.000000 0.000000 0.000000 -0.006258 0.000000 0.018665
#
#
# Mechanical properties :
#
#
# Convention : Reuss Voigt Hill
#
# Bulk Modulus (GPa) = 42.14655 71.50856 56.82756
# Shear Modulus (GPa) = 34.80835 46.09808 40.45322
#
# Velocity S-wave (km/s) = 3.64385 4.19334 3.92822
# Velocity P-wave (km/s) = 5.81209 7.12197 6.50011
#
# Compressibility (1/GPa) = 0.02372673
#
# Stress axis : x y z
#
# Youngs Moduli (GPa) = 73.83461 114.62588 50.17390
#
# Poissons Ratio (x) = 0.53254 0.18417
# Poissons Ratio (y) = 0.34303 0.04613
# Poissons Ratio (z) = 0.27102 0.10538
#
# Static dielectric constant tensor:
#      x y z
#    x 5.242850 0.000000 0.695380 
#    y 0.000000 4.934250 0.000000 
#    z 0.695380 0.000000 4.553970 
# 
# 
# High freq. dielectric constant tensor:
#      x y z
#    x 2.057600 0.000000 0.037010 
#    y 0.000000 2.068460 0.000000 
#    z 0.037010 0.000000 2.039230 
# 
# From -- ./inp_files/37382.got.cif
#   From: 2010.06.25/outbox.cif.g09.slc.cpg/sg15_19_cif.got.tgz:37382.got - 2010.06.28 07:06:18.
