data_PCOD8133826
_publ_section_title
;
Structure prediction by ZEFSAII (Michael W. Deem and Ramdas Pophale) SiO2 
 PCOD8133826
Probable space group: C 2/C
;
_chemical_formula_sum "Si O2"
_cell_formula_units_Z 48
_cell_length_a 14.061724
_cell_length_b 12.651600
_cell_length_c 28.296832
_cell_angle_alpha 90.000000
_cell_angle_beta 150.825649
_cell_angle_gamma 90.000000
_cell_volume 2453.966880
_symmetry_space_group_name_H-M "C 2/C"
_symmetry_group_IT_number 15
_symmetry_cell_setting 'monoclinic'
loop_
_space_group_symop_operation_xyz
x,y,z
-x,y,1/2-z
-x,-y,-z
x,-y,1/2+z
1/2+x,1/2+y,z
1/2-x,1/2+y,1/2-z
1/2-x,1/2-y,-z
1/2+x,1/2-y,1/2+z
loop_
_atom_site_type_symbol
_atom_site_label
_atom_site_fract_x
_atom_site_fract_y
_atom_site_fract_z
Si Si1 0.060387 0.335435 0.828985
Si Si2 0.898140 0.146506 0.815692
Si Si3 0.453465 0.246675 0.026931
Si Si4 0.570301 0.997946 0.150848
Si Si5 0.247773 0.029218 0.947527
Si Si6 0.724949 0.602770 0.347479
O O1 0.298041 0.322285 0.933132
O O2 0.000000 0.364187 0.750000
O O3 0.950666 0.227898 0.796592
O O4 0.992159 0.431242 0.832056
O O5 0.021948 0.037233 0.863829
O O6 0.674768 0.108690 0.714477
O O7 0.940196 0.194769 0.884445
O O8 0.330493 0.147388 0.992826
O O9 0.635633 0.200747 0.075179
O O10 0.711772 0.064005 0.176976
O O11 0.376928 0.957200 0.038765
O O12 0.264081 0.993144 0.900529
O O13 0.500000 0.638964 0.250000
#
# Coordination Sequence:
#
# PCOD8133826 Si02
#       6
#     8   8   8   8   8   8
#     4  11  23  38  62  91 117 159 210 240 291 366
#     4  11  20  36  65  85 121 159 195 252 300 348
#     4  10  20  39  59  87 126 155 196 249 301 353
#     4  11  21  37  58  89 127 154 196 251 299 351
#     4  10  19  34  57  93 122 149 193 253 307 347
#     4  11  21  34  59  94 127 150 192 251 312 348
#
# _framework density 19.560165999999999
#
# number of rings (size 3 to 8) (size 9 to 14) (size 15 to 20)
#    0.000    1.333    6.667    3.000    7.000    0.000 
#    0.000    1.667    3.667    3.000    0.000    0.000 
#    0.000    0.000    0.000    0.000    0.000    0.000 
#
# Total GULP energy -297386.978713 kJ/mol
# GULP energy per Si atom -12391.124113 kJ/mol
# Density = 1.951565 g / cm^3
# Si number density = 19.560166 Si / 1000 Ang^3
#
#
#
# Elastic Constant Matrix: (Units=GPa)
#
#
# Indices 1 2 3 4 5 6 
#
# 1 49.6235 34.3003 27.3547 -0.0002 -13.4243 0.0000
# 2 34.3003 53.9116 38.0804 -0.0001 -1.1071 0.0000
# 3 27.3547 38.0804 104.0377 -0.0023 -16.7459 -0.0004
# 4 -0.0002 -0.0001 -0.0023 32.1624 -0.0002 1.3073
# 5 -13.4243 -1.1071 -16.7459 -0.0002 28.4631 0.0000
# 6 0.0000 0.0000 -0.0004 1.3073 0.0000 33.4341
#
#
#
# Elastic Compliance Matrix: (Units=1/GPa)
#
#
# Indices 1 2 3 4 5 6 
#
# 1 0.045714 -0.030534 0.002691 0.000000 0.021956 0.000000
# 2 -0.030534 0.046040 -0.011989 -0.000001 -0.019664 0.000000
# 3 0.002691 -0.011989 0.014826 0.000001 0.009525 0.000000
# 4 0.000000 -0.000001 0.000001 0.031142 0.000001 -0.001218
# 5 0.021956 -0.019664 0.009525 0.000001 0.050328 0.000000
# 6 0.000000 0.000000 0.000000 -0.001218 0.000000 0.029957
#
#
# Mechanical properties :
#
#
# Convention : Reuss Voigt Hill
#
# Bulk Modulus (GPa) = 37.15338 45.22705 41.19021
# Shear Modulus (GPa) = 16.30563 26.00108 21.15336
#
# Velocity S-wave (km/s) = 2.89037 3.64989 3.29211
# Velocity P-wave (km/s) = 5.49314 6.39801 5.96277
#
# Compressibility (1/GPa) = 0.02691545
#
# Stress axis : x y z
#
# Youngs Moduli (GPa) = 21.87522 21.72013 67.45052
#
# Poissons Ratio (x) = 0.66321 -0.18150
# Poissons Ratio (y) = 0.66795 0.80863
# Poissons Ratio (z) = -0.05886 0.26039
#
# Static dielectric constant tensor:
#      x y z
#    x 3.434770 0.000000 0.308720 
#    y 0.000000 3.363060 0.000000 
#    z 0.308720 0.000000 4.119960 
# 
# 
# High freq. dielectric constant tensor:
#      x y z
#    x 1.737630 0.000000 0.007520 
#    y 0.000000 1.724280 0.000000 
#    z 0.007520 0.000000 1.787970 
# 
# From -- ./inp_files/296039.got.cif
#   From: 2010.06.25/outbox.cif.g09.slc.cpg/sg15_149_cif.got.tgz:296039.got - 2010.06.28 07:06:18.
