data_PCOD8133615
_publ_section_title
;
Structure prediction by ZEFSAII (Michael W. Deem and Ramdas Pophale) SiO2 
 PCOD8133615
Probable space group: C 2/C
;
_chemical_formula_sum "Si O2"
_cell_formula_units_Z 48
_cell_length_a 19.153695
_cell_length_b 15.291948
_cell_length_c 10.504411
_cell_angle_alpha 90.000000
_cell_angle_beta 123.259150
_cell_angle_gamma 90.000000
_cell_volume 2572.743642
_symmetry_space_group_name_H-M "C 2/C"
_symmetry_group_IT_number 15
_symmetry_cell_setting 'monoclinic'
loop_
_space_group_symop_operation_xyz
x,y,z
-x,y,1/2-z
-x,-y,-z
x,-y,1/2+z
1/2+x,1/2+y,z
1/2-x,1/2+y,1/2-z
1/2-x,1/2-y,-z
1/2+x,1/2-y,1/2+z
loop_
_atom_site_type_symbol
_atom_site_label
_atom_site_fract_x
_atom_site_fract_y
_atom_site_fract_z
Si Si1 0.724815 0.559284 0.724815
Si Si2 0.336167 0.787306 0.336168
Si Si3 0.347572 0.262510 0.347572
Si Si4 0.212304 0.500001 0.962304
Si Si5 0.405417 0.832636 0.659447
Si Si6 0.405417 0.832635 0.151388
O O1 0.814195 0.609284 0.814195
O O2 0.649888 0.630870 0.649889
O O3 0.725373 0.501805 0.597005
O O4 0.725374 0.501804 0.853740
O O5 0.250040 0.731082 0.250040
O O6 0.388045 0.771621 0.517745
O O7 0.388046 0.771621 0.258349
O O8 0.394062 0.228716 0.269773
O O9 0.394061 0.228719 0.518353
O O10 0.155735 0.414558 0.891536
O O11 0.155734 0.585443 0.919933
O O12 0.500000 0.867334 0.750000
O O13 0.500000 0.867332 0.250000
#
# Coordination Sequence:
#
# PCOD8133615 Si02
#       6
#     8   8   8   8   8   8
#     4   8  19  32  52  74 107 142 190 218 258 317
#     4   8  19  32  48  75 104 143 189 216 258 317
#     4  10  20  36  53  74 113 148 194 226 252 332
#     4  10  19  34  50  84 115 144 176 216 283 336
#     4  11  20  33  54  82 117 147 177 224 282 335
#     4  11  20  33  54  82 117 147 177 224 282 335
#
# _framework density 18.657126000000002
#
# number of rings (size 3 to 8) (size 9 to 14) (size 15 to 20)
#    1.000    1.333    0.000    3.500    0.000    0.000 
#    0.000    6.667    0.000    0.000    0.000    3.500 
#    0.000    0.000    0.000    0.000    0.000    0.000 
#
# Total GULP energy -297351.551272 kJ/mol
# GULP energy per Si atom -12389.647970 kJ/mol
# Density = 1.861466 g / cm^3
# Si number density = 18.657126 Si / 1000 Ang^3
#
#
#
# Elastic Constant Matrix: (Units=GPa)
#
#
# Indices 1 2 3 4 5 6 
#
# 1 39.0595 30.4406 37.6367 0.0000 -14.0749 0.0000
# 2 30.4406 64.6859 48.0132 0.0000 -8.0543 0.0000
# 3 37.6367 48.0132 160.3964 0.0000 -41.5279 0.0000
# 4 0.0000 0.0000 0.0000 17.9980 0.0000 -1.9187
# 5 -14.0749 -8.0543 -41.5279 0.0000 28.6481 0.0000
# 6 0.0000 0.0000 0.0000 -1.9187 0.0000 13.8085
#
#
#
# Elastic Compliance Matrix: (Units=1/GPa)
#
#
# Indices 1 2 3 4 5 6 
#
# 1 0.047924 -0.019691 -0.001102 0.000000 0.016412 0.000000
# 2 -0.019691 0.028398 -0.006912 0.000000 -0.011710 0.000000
# 3 -0.001102 -0.006912 0.012676 0.000000 0.015891 0.000000
# 4 0.000000 0.000000 0.000000 0.056397 0.000000 0.007836
# 5 0.016412 -0.011710 0.015891 0.000000 0.062713 0.000000
# 6 0.000000 0.000000 0.000000 0.007836 0.000000 0.073508
#
#
# Mechanical properties :
#
#
# Convention : Reuss Voigt Hill
#
# Bulk Modulus (GPa) = 29.77205 55.14700 42.45952
# Shear Modulus (GPa) = 14.35866 21.96101 18.15983
#
# Velocity S-wave (km/s) = 2.77719 3.43459 3.12323
# Velocity P-wave (km/s) = 5.12599 6.73430 5.98442
#
# Compressibility (1/GPa) = 0.03358855
#
# Stress axis : x y z
#
# Youngs Moduli (GPa) = 20.86655 35.21340 78.88667
#
# Poissons Ratio (x) = 0.69340 0.08690
# Poissons Ratio (y) = 0.41089 0.54527
# Poissons Ratio (z) = 0.02299 0.24340
#
# Static dielectric constant tensor:
#      x y z
#    x 3.142080 0.000000 -0.261690 
#    y 0.000000 3.071280 0.000000 
#    z -0.261690 0.000000 3.713240 
# 
# 
# High freq. dielectric constant tensor:
#      x y z
#    x 1.693810 0.000000 -0.023480 
#    y 0.000000 1.687440 0.000000 
#    z -0.023480 0.000000 1.745060 
# 
# From -- ./inp_files/61282.got.cif
#   From: 2010.06.25/outbox.cif.g09.slc.cpg/sg15_31_cif.got.tgz:61282.got - 2010.06.28 07:06:18.
