data_PCOD8133686
_publ_section_title
;
Structure prediction by ZEFSAII (Michael W. Deem and Ramdas Pophale) SiO2 
 PCOD8133686
Probable space group: C 2/C
;
_chemical_formula_sum "Si O2"
_cell_formula_units_Z 64
_cell_length_a 11.849069
_cell_length_b 24.973978
_cell_length_c 11.100306
_cell_angle_alpha 90.000000
_cell_angle_beta 94.763570
_cell_angle_gamma 90.000000
_cell_volume 3273.438565
_symmetry_space_group_name_H-M "C 2/C"
_symmetry_group_IT_number 15
_symmetry_cell_setting 'monoclinic'
loop_
_space_group_symop_operation_xyz
x,y,z
-x,y,1/2-z
-x,-y,-z
x,-y,1/2+z
1/2+x,1/2+y,z
1/2-x,1/2+y,1/2-z
1/2-x,1/2-y,-z
1/2+x,1/2-y,1/2+z
loop_
_atom_site_type_symbol
_atom_site_label
_atom_site_fract_x
_atom_site_fract_y
_atom_site_fract_z
Si Si1 0.689352 0.377339 0.750362
Si Si2 0.129491 0.535786 0.255174
Si Si3 0.916132 0.225182 0.534140
Si Si4 0.887211 0.105306 0.516840
Si Si5 0.867896 0.904551 0.506680
Si Si6 0.740294 0.262528 0.690578
Si Si7 0.224882 0.490151 0.023804
Si Si8 0.316406 0.709262 0.922102
O O1 0.803854 0.410962 0.770453
O O2 0.621204 0.393129 0.627097
O O3 0.730579 0.316683 0.764942
O O4 0.604952 0.390041 0.852419
O O5 0.153110 0.496306 0.141838
O O6 0.155835 0.515252 0.393175
O O7 0.000000 0.550954 0.250000
O O8 0.866625 0.165708 0.562253
O O9 0.852667 0.266212 0.617046
O O10 0.876226 0.243375 0.396517
O O11 0.050918 0.226160 0.559886
O O12 0.799917 0.062376 0.562197
O O13 0.015981 0.087537 0.557789
O O14 0.798258 0.853349 0.449931
O O15 0.800707 0.959278 0.496053
O O16 0.761782 0.214320 0.784906
O O17 0.250000 0.750000 0.000000
#
# Coordination Sequence:
#
# PCOD8133686 Si02
#       8
#     8   8   8   8   8   8   8   8
#     4   9  18  33  55  81 105 144 191 235 270 334
#     4  10  21  37  57  80 109 151 190 236 282 338
#     4   9  21  35  56  82 109 152 189 233 286 337
#     4   9  18  34  57  84 109 144 183 234 286 338
#     4  10  19  34  54  85 115 143 181 231 286 342
#     4  10  19  37  55  79 114 146 192 236 280 343
#     4  10  21  37  59  83 113 146 192 233 290 339
#     4  11  21  34  55  81 115 147 185 232 288 335
#
# _framework density 19.551307000000001
#
# number of rings (size 3 to 8) (size 9 to 14) (size 15 to 20)
#    0.000    2.250    1.250    1.500    0.000    2.500 
#    0.000    3.125    5.500    0.000    0.000    0.000 
#    0.000    0.000    0.000    0.000    0.000    0.000 
#
# Total GULP energy -396423.036887 kJ/mol
# GULP energy per Si atom -12388.219903 kJ/mol
# Density = 1.950681 g / cm^3
# Si number density = 19.551307 Si / 1000 Ang^3
#
#
#
# Elastic Constant Matrix: (Units=GPa)
#
#
# Indices 1 2 3 4 5 6 
#
# 1 71.5945 13.1152 3.7789 0.0000 4.1235 0.0000
# 2 13.1152 52.9852 6.8225 0.0000 13.3848 0.0000
# 3 3.7789 6.8225 75.4650 0.0000 2.6733 0.0000
# 4 0.0000 0.0000 0.0000 27.6169 0.0000 0.4521
# 5 4.1235 13.3848 2.6733 0.0000 21.4627 0.0000
# 6 0.0000 0.0000 0.0000 0.4521 0.0000 11.1999
#
#
#
# Elastic Compliance Matrix: (Units=1/GPa)
#
#
# Indices 1 2 3 4 5 6 
#
# 1 0.014651 -0.003414 -0.000402 0.000000 -0.000635 0.000000
# 2 -0.003414 0.023377 -0.001456 0.000000 -0.013741 0.000000
# 3 -0.000402 -0.001456 0.013427 0.000000 -0.000687 0.000000
# 4 0.000000 0.000000 0.000000 0.036234 0.000000 -0.001463
# 5 -0.000635 -0.013741 -0.000687 0.000000 0.055370 0.000000
# 6 0.000000 0.000000 0.000000 -0.001463 0.000000 0.089346
#
#
# Mechanical properties :
#
#
# Convention : Reuss Voigt Hill
#
# Bulk Modulus (GPa) = 24.44356 27.49755 25.97056
# Shear Modulus (GPa) = 19.48668 23.81111 21.64889
#
# Velocity S-wave (km/s) = 3.16047 3.49360 3.33120
# Velocity P-wave (km/s) = 5.08405 5.51076 5.30170
#
# Compressibility (1/GPa) = 0.04091058
#
# Stress axis : x y z
#
# Youngs Moduli (GPa) = 68.25555 42.77710 74.47529
#
# Poissons Ratio (x) = 0.14605 0.02997
# Poissons Ratio (y) = 0.23303 0.10841
# Poissons Ratio (z) = 0.02747 0.06227
#
# Static dielectric constant tensor:
#      x y z
#    x 3.413590 0.000000 0.009370 
#    y 0.000000 3.652930 0.000000 
#    z 0.009370 0.000000 3.793190 
# 
# 
# High freq. dielectric constant tensor:
#      x y z
#    x 1.752350 0.000000 -0.001190 
#    y 0.000000 1.756420 0.000000 
#    z -0.001190 0.000000 1.769130 
# 
# From -- ./inp_files/90852.got.cif
#   From: 2010.06.25/outbox.cif.g09.slc.cpg/sg15_46_cif.got.tgz:90852.got - 2010.06.28 07:06:18.
