data_PCOD8133106
_publ_section_title
;
Structure prediction by ZEFSAII (Michael W. Deem and Ramdas Pophale) SiO2 
 PCOD8133106
Probable space group: C 2/C
;
_chemical_formula_sum "Si O2"
_cell_formula_units_Z 60
_cell_length_a 16.752171
_cell_length_b 19.465665
_cell_length_c 10.253317
_cell_angle_alpha 90.000000
_cell_angle_beta 94.241130
_cell_angle_gamma 90.000000
_cell_volume 3334.370413
_symmetry_space_group_name_H-M "C 2/C"
_symmetry_group_IT_number 15
_symmetry_cell_setting 'monoclinic'
loop_
_space_group_symop_operation_xyz
x,y,z
-x,y,1/2-z
-x,-y,-z
x,-y,1/2+z
1/2+x,1/2+y,z
1/2-x,1/2+y,1/2-z
1/2-x,1/2-y,-z
1/2+x,1/2-y,1/2+z
loop_
_atom_site_type_symbol
_atom_site_label
_atom_site_fract_x
_atom_site_fract_y
_atom_site_fract_z
Si Si1 0.409904 0.054039 0.237658
Si Si2 0.707055 0.597444 0.473813
Si Si3 0.789431 0.123331 0.507842
Si Si4 0.781577 0.327571 0.756305
Si Si5 0.159837 0.486189 0.031269
Si Si6 0.500000 0.384993 0.250000
Si Si7 0.915647 0.018651 0.549862
Si Si8 0.845573 0.821127 0.286819
O O1 0.500000 0.081893 0.250000
O O2 0.350872 0.116957 0.251609
O O3 0.392684 0.996501 0.345299
O O4 0.399389 0.018766 0.097055
O O5 0.717894 0.653518 0.361331
O O6 0.784830 0.551095 0.489732
O O7 0.628981 0.552626 0.425378
O O8 0.700959 0.632262 0.614783
O O9 0.766528 0.174995 0.387217
O O10 0.712219 0.082642 0.551630
O O11 0.823516 0.165285 0.633559
O O12 0.855372 0.067951 0.459626
O O13 0.823330 0.257639 0.805871
O O14 0.564653 0.435794 0.322226
O O15 0.441030 0.334876 0.325131
O O16 0.000000 0.000000 0.500000
#
# Coordination Sequence:
#
# PCOD8133106 Si02
#       8
#     8   8   8   8   8   4   8   8
#     4  10  19  32  51  76 101 134 165 220 263 304
#     4  10  20  34  56  79 106 139 172 227 263 319
#     4   9  20  34  54  77 102 140 175 219 260 317
#     4  10  22  35  52  76 105 144 183 212 253 317
#     4   9  18  33  52  78 102 125 175 214 271 307
#     4  10  22  32  54  84 108 148 170 234 272 326
#     4  10  19  33  54  83 114 133 175 225 289 318
#     4  11  20  36  53  74 108 141 186 204 264 317
#
# _framework density 17.994402999999998
#
# number of rings (size 3 to 8) (size 9 to 14) (size 15 to 20)
#    0.000    2.133    1.333    2.000    2.800    3.200 
#    0.000    0.000    0.000    0.000    0.000    0.000 
#    0.000    0.000    0.000    0.000    0.000    0.000 
#
# Total GULP energy -371753.227369 kJ/mol
# GULP energy per Si atom -12391.774246 kJ/mol
# Density = 1.795345 g / cm^3
# Si number density = 17.994403 Si / 1000 Ang^3
#
#
#
# Elastic Constant Matrix: (Units=GPa)
#
#
# Indices 1 2 3 4 5 6 
#
# 1 94.0009 24.9329 31.0443 0.0000 0.1031 0.0000
# 2 24.9329 81.6985 23.1224 0.0000 4.1905 0.0000
# 3 31.0443 23.1224 63.4130 0.0000 14.9851 0.0000
# 4 0.0000 0.0000 0.0000 26.0575 0.0000 2.7388
# 5 0.1031 4.1905 14.9851 0.0000 18.6190 0.0000
# 6 0.0000 0.0000 0.0000 2.7388 0.0000 27.9828
#
#
#
# Elastic Compliance Matrix: (Units=1/GPa)
#
#
# Indices 1 2 3 4 5 6 
#
# 1 0.013694 -0.002434 -0.007321 0.000000 0.006364 0.000000
# 2 -0.002434 0.014101 -0.003956 0.000000 0.000024 0.000000
# 3 -0.007321 -0.003956 0.025408 0.000000 -0.019518 0.000000
# 4 0.000000 0.000000 0.000000 0.038776 0.000000 -0.003795
# 5 0.006364 0.000024 -0.019518 0.000000 0.069377 0.000000
# 6 0.000000 0.000000 0.000000 -0.003795 0.000000 0.036108
#
#
# Mechanical properties :
#
#
# Convention : Reuss Voigt Hill
#
# Bulk Modulus (GPa) = 38.78444 44.14575 41.46510
# Shear Modulus (GPa) = 21.41519 25.19939 23.30729
#
# Velocity S-wave (km/s) = 3.45353 3.74625 3.60287
# Velocity P-wave (km/s) = 6.12396 6.58019 6.35617
#
# Compressibility (1/GPa) = 0.02578353
#
# Stress axis : x y z
#
# Youngs Moduli (GPa) = 73.02247 70.91558 39.35721
#
# Poissons Ratio (x) = 0.17260 0.28812
# Poissons Ratio (y) = 0.17772 0.15569
# Poissons Ratio (z) = 0.53457 0.28053
#
# Static dielectric constant tensor:
#      x y z
#    x 3.517120 0.000000 0.017520 
#    y 0.000000 3.429420 0.000000 
#    z 0.017520 0.000000 3.483740 
# 
# 
# High freq. dielectric constant tensor:
#      x y z
#    x 1.701560 0.000000 -0.000320 
#    y 0.000000 1.685450 0.000000 
#    z -0.000320 0.000000 1.692320 
# 
# From -- ./inp_files/98329.got.cif
#   From: 2010.06.25/outbox.cif.g09.slc.cpg/sg15_50_cif.got.tgz:98329.got - 2010.06.28 07:06:18.
