data_PCOD8133258
_publ_section_title
;
Structure prediction by ZEFSAII (Michael W. Deem and Ramdas Pophale) SiO2 
 PCOD8133258
Probable space group: C 2/C
;
_chemical_formula_sum "Si O2"
_cell_formula_units_Z 64
_cell_length_a 17.495626
_cell_length_b 25.281475
_cell_length_c 8.389156
_cell_angle_alpha 90.000000
_cell_angle_beta 117.540742
_cell_angle_gamma 90.000000
_cell_volume 3290.168866
_symmetry_space_group_name_H-M "C 2/C"
_symmetry_group_IT_number 15
_symmetry_cell_setting 'monoclinic'
loop_
_space_group_symop_operation_xyz
x,y,z
-x,y,1/2-z
-x,-y,-z
x,-y,1/2+z
1/2+x,1/2+y,z
1/2-x,1/2+y,1/2-z
1/2-x,1/2-y,-z
1/2+x,1/2-y,1/2+z
loop_
_atom_site_type_symbol
_atom_site_label
_atom_site_fract_x
_atom_site_fract_y
_atom_site_fract_z
Si Si1 0.000660 0.606682 0.941372
Si Si2 0.682399 0.642599 0.625429
Si Si3 0.030578 0.720630 0.600623
Si Si4 0.497589 0.664530 0.437618
Si Si5 0.810072 0.142649 0.248057
Si Si6 0.725169 0.757297 0.295427
Si Si7 0.176858 0.556612 0.111291
Si Si8 0.821068 0.440755 0.264853
O O1 0.000000 0.608376 0.750000
O O2 0.007008 0.666934 0.015672
O O3 0.913511 0.578737 0.920734
O O4 0.082982 0.574340 0.085614
O O5 0.582400 0.632944 0.580187
O O6 0.691821 0.644111 0.444438
O O7 0.709214 0.700519 0.720950
O O8 0.743898 0.596849 0.754639
O O9 0.132957 0.715015 0.695784
O O10 0.000000 0.722681 0.750000
O O11 0.000884 0.775487 0.488294
O O12 0.500000 0.669384 0.250000
O O13 0.409245 0.634742 0.403762
O O14 0.774363 0.198767 0.283387
O O15 0.749957 0.095555 0.254245
O O16 0.750000 0.750000 0.500000
O O17 0.199518 0.498556 0.191046
O O18 0.177803 0.558720 0.923272
#
# Coordination Sequence:
#
# PCOD8133258 Si02
#       8
#     8   8   8   8   8   8   8   8
#     4   9  17  26  41  63  91 119 146 180 219 262
#     4   9  15  24  40  59  89 117 143 178 224 268
#     4   9  14  20  33  59  91 117 140 168 220 279
#     4   8  14  23  36  59  91 117 137 174 228 275
#     4   8  16  25  38  62  86 116 145 180 222 265
#     4   9  14  20  35  59  89 114 142 173 222 272
#     4  10  20  31  48  62  92 119 154 187 218 258
#     4  10  19  33  44  67  88 122 152 185 219 258
#
# _framework density 19.451889000000001
#
# number of rings (size 3 to 8) (size 9 to 14) (size 15 to 20)
#    0.000    3.000    1.250    2.625    7.000    0.000 
#    0.000    0.625    0.000    0.000    0.000    0.875 
#    0.000    0.000    0.000    0.000    0.000    0.000 
#
# Total GULP energy -396422.565298 kJ/mol
# GULP energy per Si atom -12388.205166 kJ/mol
# Density = 1.940762 g / cm^3
# Si number density = 19.451889 Si / 1000 Ang^3
#
#
#
# Elastic Constant Matrix: (Units=GPa)
#
#
# Indices 1 2 3 4 5 6 
#
# 1 72.3277 58.9812 42.3086 0.0000 51.2674 0.0000
# 2 58.9812 150.9838 39.8576 0.0000 44.5832 0.0000
# 3 42.3086 39.8576 36.4693 0.0000 35.7452 0.0000
# 4 0.0000 0.0000 0.0000 25.3145 0.0000 6.8779
# 5 51.2674 44.5832 35.7452 0.0000 41.1553 0.0000
# 6 0.0000 0.0000 0.0000 6.8779 0.0000 30.1214
#
#
#
# Elastic Compliance Matrix: (Units=1/GPa)
#
#
# Indices 1 2 3 4 5 6 
#
# 1 0.135024 -0.005151 0.056341 0.000000 -0.211555 0.000000
# 2 -0.005151 0.009957 -0.004192 0.000000 -0.000729 0.000000
# 3 0.056341 -0.004192 0.208340 0.000000 -0.246595 0.000000
# 4 0.000000 0.000000 0.000000 0.042116 0.000000 -0.009617
# 5 -0.211555 -0.000729 -0.246595 0.000000 0.502803 0.000000
# 6 0.000000 0.000000 0.000000 -0.009617 0.000000 0.035395
#
#
# Mechanical properties :
#
#
# Convention : Reuss Voigt Hill
#
# Bulk Modulus (GPa) = 2.23555 60.23060 31.23308
# Shear Modulus (GPa) = 5.05691 27.22713 16.14202
#
# Velocity S-wave (km/s) = 1.61411 3.74534 2.88383
# Velocity P-wave (km/s) = 2.15071 7.05227 5.21345
#
# Compressibility (1/GPa) = 0.44731712
#
# Stress axis : x y z
#
# Youngs Moduli (GPa) = 7.40608 100.42795 4.79985
#
# Poissons Ratio (x) = 0.51728 -0.27043
# Poissons Ratio (y) = 0.03815 0.02012
# Poissons Ratio (z) = -0.41727 0.42102
#
# Static dielectric constant tensor:
#      x y z
#    x 3.472360 0.000000 0.644810 
#    y 0.000000 3.912380 0.000000 
#    z 0.644810 0.000000 3.187340 
# 
# 
# High freq. dielectric constant tensor:
#      x y z
#    x 1.731840 0.000000 0.052630 
#    y 0.000000 1.758500 0.000000 
#    z 0.052630 0.000000 1.707140 
# 
# From -- ./inp_files/107822.got.cif
#   From: 2010.06.25/outbox.cif.g09.slc.cpg/sg15_54_cif.got.tgz:107822.got - 2010.06.28 07:06:18.
