data_PCOD8133080
_publ_section_title
;
Structure prediction by ZEFSAII (Michael W. Deem and Ramdas Pophale) SiO2 
 PCOD8133080
Probable space group: C 2/C
;
_chemical_formula_sum "Si O2"
_cell_formula_units_Z 48
_cell_length_a 27.939950
_cell_length_b 16.701853
_cell_length_c 15.915100
_cell_angle_alpha 90.000000
_cell_angle_beta 18.721456
_cell_angle_gamma 90.000000
_cell_volume 2383.751355
_symmetry_space_group_name_H-M "C 2/C"
_symmetry_group_IT_number 15
_symmetry_cell_setting 'monoclinic'
loop_
_space_group_symop_operation_xyz
x,y,z
-x,y,1/2-z
-x,-y,-z
x,-y,1/2+z
1/2+x,1/2+y,z
1/2-x,1/2+y,1/2-z
1/2-x,1/2-y,-z
1/2+x,1/2-y,1/2+z
loop_
_atom_site_type_symbol
_atom_site_label
_atom_site_fract_x
_atom_site_fract_y
_atom_site_fract_z
Si Si1 0.668676 0.943057 0.060591
Si Si2 0.952191 0.851091 0.414070
Si Si3 0.867106 0.214841 0.217751
Si Si4 0.327477 0.946947 0.631216
Si Si5 0.834321 0.995625 0.941253
Si Si6 0.404524 0.317599 0.831991
O O1 0.497353 0.922798 0.366768
O O2 0.755553 0.859673 0.915727
O O3 0.684464 0.986476 0.942818
O O4 0.734206 0.001378 0.023436
O O5 0.979379 0.798288 0.452497
O O6 0.775498 0.867635 0.700269
O O7 0.000000 0.803209 0.250000
O O8 0.044719 0.933855 0.263475
O O9 0.769700 0.294609 0.364550
O O10 0.959904 0.220794 0.150812
O O11 0.268931 0.002955 0.803818
O O12 0.924653 0.912999 0.794482
O O13 0.500000 0.281537 0.750000
#
# Coordination Sequence:
#
# PCOD8133080 Si02
#       6
#     8   8   8   8   8   8
#     4   9  18  30  50  74 101 130 169 213 250 302
#     4   9  18  32  54  75 102 133 174 211 254 307
#     4   9  20  34  50  80  99 135 177 208 252 315
#     4   9  17  29  48  74  98 130 169 204 254 303
#     4  10  19  32  49  80 103 131 165 217 263 300
#     4  10  20  32  52  75 106 133 169 216 261 298
#
# _framework density 20.136327999999999
#
# number of rings (size 3 to 8) (size 9 to 14) (size 15 to 20)
#    0.000    2.667    0.000    2.000    4.667    7.333 
#    0.000    0.000    3.667    1.000    0.000    0.000 
#    0.000    0.000    0.000    0.000    0.000    0.000 
#
# Total GULP energy -297335.075506 kJ/mol
# GULP energy per Si atom -12388.961479 kJ/mol
# Density = 2.009050 g / cm^3
# Si number density = 20.136328 Si / 1000 Ang^3
#
#
#
# Elastic Constant Matrix: (Units=GPa)
#
#
# Indices 1 2 3 4 5 6 
#
# 1 188.5611 12.5951 53.9701 -0.0011 24.8013 0.0010
# 2 12.5951 28.5128 -0.7543 -0.0008 12.0005 0.0005
# 3 53.9701 -0.7543 84.4904 -0.0008 21.2562 0.0008
# 4 -0.0011 -0.0008 -0.0008 17.9382 0.0007 3.7753
# 5 24.8013 12.0005 21.2562 0.0007 42.6004 -0.0007
# 6 0.0010 0.0005 0.0008 3.7753 -0.0007 12.3391
#
#
#
# Elastic Compliance Matrix: (Units=1/GPa)
#
#
# Indices 1 2 3 4 5 6 
#
# 1 0.006798 -0.002608 -0.004065 0.000000 -0.001195 0.000000
# 2 -0.002608 0.041788 0.005281 0.000003 -0.012889 -0.000004
# 3 -0.004065 0.005281 0.016305 0.000001 -0.007257 -0.000002
# 4 0.000000 0.000003 0.000001 0.059584 -0.000003 -0.018230
# 5 -0.001195 -0.012889 -0.007257 -0.000003 0.031421 0.000004
# 6 0.000000 -0.000004 -0.000002 -0.018230 0.000004 0.086621
#
#
# Mechanical properties :
#
#
# Convention : Reuss Voigt Hill
#
# Bulk Modulus (GPa) = 16.10084 48.13180 32.11632
# Shear Modulus (GPa) = 18.79676 30.29243 24.54459
#
# Velocity S-wave (km/s) = 3.05860 3.88282 3.49509
# Velocity P-wave (km/s) = 4.52622 6.63752 5.68081
#
# Compressibility (1/GPa) = 0.06210856
#
# Stress axis : x y z
#
# Youngs Moduli (GPa) = 147.09784 23.93022 61.33008
#
# Poissons Ratio (x) = 0.06240 0.24932
# Poissons Ratio (y) = 0.38358 -0.32390
# Poissons Ratio (z) = 0.59798 -0.12638
#
# Static dielectric constant tensor:
#      x y z
#    x 4.513220 0.000000 0.336440 
#    y 0.000000 3.133420 0.000000 
#    z 0.336440 0.000000 3.617430 
# 
# 
# High freq. dielectric constant tensor:
#      x y z
#    x 1.821590 0.000000 0.014340 
#    y 0.000000 1.731030 0.000000 
#    z 0.014340 0.000000 1.767240 
# 
# From -- ./inp_files/178910.got.cif
#   From: 2010.06.25/outbox.cif.g09.slc.cpg/sg15_90_cif.got.tgz:178910.got - 2010.06.28 07:06:18.
