data_PCOD8133777
_publ_section_title
;
Structure prediction by ZEFSAII (Michael W. Deem and Ramdas Pophale) SiO2 
 PCOD8133777
Probable space group: C 2/C
;
_chemical_formula_sum "Si O2"
_cell_formula_units_Z 60
_cell_length_a 14.942003
_cell_length_b 18.699034
_cell_length_c 10.501027
_cell_angle_alpha 90.000000
_cell_angle_beta 108.939005
_cell_angle_gamma 90.000000
_cell_volume 2775.164621
_symmetry_space_group_name_H-M "C 2/C"
_symmetry_group_IT_number 15
_symmetry_cell_setting 'monoclinic'
loop_
_space_group_symop_operation_xyz
x,y,z
-x,y,1/2-z
-x,-y,-z
x,-y,1/2+z
1/2+x,1/2+y,z
1/2-x,1/2+y,1/2-z
1/2-x,1/2-y,-z
1/2+x,1/2-y,1/2+z
loop_
_atom_site_type_symbol
_atom_site_label
_atom_site_fract_x
_atom_site_fract_y
_atom_site_fract_z
Si Si1 0.375660 0.685340 0.538639
Si Si2 0.269246 0.169662 0.649625
Si Si3 0.500000 0.579862 0.750000
Si Si4 0.858004 0.307521 0.939697
Si Si5 0.689256 0.469790 0.234019
Si Si6 0.608985 0.835400 0.819308
Si Si7 0.950344 0.262756 0.352836
Si Si8 0.261069 0.061145 0.030706
O O1 0.454742 0.632688 0.628242
O O2 0.358756 0.761010 0.600502
O O3 0.406615 0.696443 0.407405
O O4 0.279166 0.641834 0.499436
O O5 0.191773 0.230606 0.592490
O O6 0.307198 0.146079 0.527073
O O7 0.214008 0.108466 0.696409
O O8 0.362525 0.186499 0.775953
O O9 0.422555 0.528801 0.783713
O O10 0.842635 0.344542 0.797209
O O11 0.970781 0.301691 0.022654
O O12 0.716329 0.524200 0.134847
O O13 0.745613 0.484271 0.394044
O O14 0.500000 0.828133 0.750000
O O15 0.630765 0.911770 0.900294
O O16 0.000000 0.231814 0.250000
#
# Coordination Sequence:
#
# PCOD8133777 Si02
#       8
#     8   8   4   8   8   8   8   8
#     4  11  19  39  65  98 129 163 219 285 339 389
#     4  10  21  37  64  90 138 173 213 276 336 402
#     4  10  22  42  70  98 128 176 214 282 342 390
#     4  10  20  36  62 101 127 168 216 275 349 395
#     4  11  25  46  65  93 136 178 226 263 324 410
#     4  12  22  39  70  99 129 164 227 283 334 391
#     4  10  19  34  56  99 130 165 210 273 344 398
#     4  11  27  43  66  94 132 184 224 267 336 391
#
# _framework density 21.620339999999999
#
# number of rings (size 3 to 8) (size 9 to 14) (size 15 to 20)
#    0.000    1.333    2.000    4.400    1.867    2.133 
#    3.600    2.667    0.000    0.000    0.000    0.000 
#    0.000    0.000    0.000    0.000    0.000    0.000 
#
# Total GULP energy -371666.476930 kJ/mol
# GULP energy per Si atom -12388.882564 kJ/mol
# Density = 2.157113 g / cm^3
# Si number density = 21.620340 Si / 1000 Ang^3
#
#
#
# Elastic Constant Matrix: (Units=GPa)
#
#
# Indices 1 2 3 4 5 6 
#
# 1 48.8095 21.6353 21.3483 0.0000 -11.3820 0.0000
# 2 21.6353 54.2761 36.3276 0.0000 -1.7058 0.0000
# 3 21.3483 36.3276 117.4637 0.0000 -22.6230 0.0000
# 4 0.0000 0.0000 0.0000 24.6508 0.0000 -9.4177
# 5 -11.3820 -1.7058 -22.6230 0.0000 36.1880 0.0000
# 6 0.0000 0.0000 0.0000 -9.4177 0.0000 42.4247
#
#
#
# Elastic Compliance Matrix: (Units=1/GPa)
#
#
# Indices 1 2 3 4 5 6 
#
# 1 0.027018 -0.010408 -0.000170 0.000000 0.007901 0.000000
# 2 -0.010408 0.027727 -0.008029 0.000000 -0.006986 0.000000
# 3 -0.000170 -0.008029 0.012442 0.000000 0.007346 0.000000
# 4 0.000000 0.000000 0.000000 0.044326 0.000000 0.009840
# 5 0.007901 -0.006986 0.007346 0.000000 0.034382 0.000000
# 6 0.000000 0.000000 0.000000 0.009840 0.000000 0.025755
#
#
# Mechanical properties :
#
#
# Convention : Reuss Voigt Hill
#
# Bulk Modulus (GPa) = 33.36215 42.13019 37.74617
# Shear Modulus (GPa) = 22.84614 30.06857 26.45736
#
# Velocity S-wave (km/s) = 3.25421 3.73333 3.50197
# Velocity P-wave (km/s) = 5.43914 6.17352 5.81793
#
# Compressibility (1/GPa) = 0.02997409
#
# Stress axis : x y z
#
# Youngs Moduli (GPa) = 37.01243 36.06537 80.37201
#
# Poissons Ratio (x) = 0.37536 0.01365
# Poissons Ratio (y) = 0.38522 0.64531
# Poissons Ratio (z) = 0.00629 0.28957
#
# Static dielectric constant tensor:
#      x y z
#    x 1.290390 0.000000 -0.595690 
#    y 0.000000 3.452880 0.000000 
#    z -0.595690 0.000000 -2.339190 
# 
# 
# High freq. dielectric constant tensor:
#      x y z
#    x 1.862530 0.000000 -0.003080 
#    y 0.000000 1.804420 0.000000 
#    z -0.003080 0.000000 1.877490 
# 
# From -- ./inp_files/98808.got.cif
#   From: 2010.06.25/outbox.cif.g09.slc.cpg/sg15_50_cif.got.tgz:98808.got - 2010.06.28 07:06:18.
