data_PCOD8133141
_publ_section_title
;
Structure prediction by ZEFSAII (Michael W. Deem and Ramdas Pophale) SiO2 
 PCOD8133141
Probable space group: C 2/C
;
_chemical_formula_sum "Si O2"
_cell_formula_units_Z 52
_cell_length_a 25.307563
_cell_length_b 19.091089
_cell_length_c 9.341670
_cell_angle_alpha 90.000000
_cell_angle_beta 37.746818
_cell_angle_gamma 90.000000
_cell_volume 2762.994255
_symmetry_space_group_name_H-M "C 2/C"
_symmetry_group_IT_number 15
_symmetry_cell_setting 'monoclinic'
loop_
_space_group_symop_operation_xyz
x,y,z
-x,y,1/2-z
-x,-y,-z
x,-y,1/2+z
1/2+x,1/2+y,z
1/2-x,1/2+y,1/2-z
1/2-x,1/2-y,-z
1/2+x,1/2-y,1/2+z
loop_
_atom_site_type_symbol
_atom_site_label
_atom_site_fract_x
_atom_site_fract_y
_atom_site_fract_z
Si Si1 0.935264 0.833237 0.769813
Si Si2 0.613445 0.079928 0.390751
Si Si3 0.017969 0.928582 0.377294
Si Si4 0.799050 0.949990 0.434734
Si Si5 0.775125 0.082046 0.668014
Si Si6 0.500000 0.199678 0.750000
Si Si7 0.087265 0.556347 0.123922
O O1 0.000000 0.868025 0.750000
O O2 0.959866 0.865261 0.563016
O O3 0.949368 0.749055 0.743454
O O4 0.834639 0.849216 0.021221
O O5 0.569510 0.153643 0.517698
O O6 0.580927 0.051284 0.308112
O O7 0.590983 0.023531 0.560296
O O8 0.716060 0.093002 0.167487
O O9 0.118192 0.908523 0.184127
O O10 0.000000 0.939460 0.250000
O O11 0.000000 0.000000 0.500000
O O12 0.800125 0.956439 0.261412
O O13 0.797328 0.029893 0.491761
O O14 0.672229 0.099785 0.889899
O O15 0.000000 0.592763 0.250000
#
# Coordination Sequence:
#
# PCOD8133141 Si02
#       7
#     8   8   8   8   8   4   8
#     4  10  21  38  57  80 118 157 197 228 280 368
#     4  10  21  37  61  88 115 151 196 250 299 339
#     4  12  21  33  58  89 122 151 194 248 296 334
#     4  10  19  32  52  89 114 145 191 246 293 339
#     4  10  19  33  54  87 117 145 190 241 296 337
#     4  10  22  40  62  80 118 166 198 222 296 368
#     4  10  20  35  60  93 115 142 196 257 296 331
#
# _framework density 18.820163000000001
#
# number of rings (size 3 to 8) (size 9 to 14) (size 15 to 20)
#    0.462    1.231    3.846    1.846    0.000    0.000 
#    0.000    7.692    0.000    1.846    0.000    0.000 
#    0.000    0.000    0.000    0.000    0.000    0.000 
#
# Total GULP energy -322308.632800 kJ/mol
# GULP energy per Si atom -12396.485877 kJ/mol
# Density = 1.877733 g / cm^3
# Si number density = 18.820163 Si / 1000 Ang^3
#
#
#
# Elastic Constant Matrix: (Units=GPa)
#
#
# Indices 1 2 3 4 5 6 
#
# 1 121.1529 38.6868 70.4826 0.0000 -7.9592 0.0000
# 2 38.6868 98.8070 64.4211 0.0000 -1.9829 0.0000
# 3 70.4826 64.4211 124.6405 0.0000 -13.8603 0.0000
# 4 0.0000 0.0000 0.0000 25.1827 0.0000 -8.7380
# 5 -7.9592 -1.9829 -13.8603 0.0000 48.5374 0.0000
# 6 0.0000 0.0000 0.0000 -8.7380 0.0000 22.5801
#
#
#
# Elastic Compliance Matrix: (Units=1/GPa)
#
#
# Indices 1 2 3 4 5 6 
#
# 1 0.012313 -0.000431 -0.006731 0.000000 0.000079 0.000000
# 2 -0.000431 0.015414 -0.007912 0.000000 -0.001700 0.000000
# 3 -0.006731 -0.007912 0.016277 0.000000 0.003221 0.000000
# 4 0.000000 0.000000 0.000000 0.045869 0.000000 0.017750
# 5 0.000079 -0.001700 0.003221 0.000000 0.021466 0.000000
# 6 0.000000 0.000000 0.000000 0.017750 0.000000 0.051156
#
#
# Mechanical properties :
#
#
# Convention : Reuss Voigt Hill
#
# Bulk Modulus (GPa) = 72.17380 76.86459 74.51919
# Shear Modulus (GPa) = 25.34701 30.66070 28.00385
#
# Velocity S-wave (km/s) = 3.67386 4.04064 3.86161
# Velocity P-wave (km/s) = 7.51191 7.91829 7.71777
#
# Compressibility (1/GPa) = 0.01385544
#
# Stress axis : x y z
#
# Youngs Moduli (GPa) = 81.21623 64.87600 61.43506
#
# Poissons Ratio (x) = 0.02793 0.41354
# Poissons Ratio (y) = 0.03497 0.48610
# Poissons Ratio (z) = 0.54670 0.51333
#
# Static dielectric constant tensor:
#      x y z
#    x 3.622250 0.000000 -0.263430 
#    y 0.000000 2.938090 0.000000 
#    z -0.263430 0.000000 3.801290 
# 
# 
# High freq. dielectric constant tensor:
#      x y z
#    x 1.733360 0.000000 -0.009490 
#    y 0.000000 1.675380 0.000000 
#    z -0.009490 0.000000 1.756340 
# 
# From -- ./inp_files/63360.got.cif
#   From: 2010.06.25/outbox.cif.g09.slc.cpg/sg15_32_cif.got.tgz:63360.got - 2010.06.28 07:06:18.
