data_PCOD8133875
_publ_section_title
;
Structure prediction by ZEFSAII (Michael W. Deem and Ramdas Pophale) SiO2 
 PCOD8133875
Probable space group: C 2/C
;
_chemical_formula_sum "Si O2"
_cell_formula_units_Z 48
_cell_length_a 25.319051
_cell_length_b 11.512026
_cell_length_c 13.936467
_cell_angle_alpha 90.000000
_cell_angle_beta 148.847084
_cell_angle_gamma 90.000000
_cell_volume 2101.427624
_symmetry_space_group_name_H-M "C 2/C"
_symmetry_group_IT_number 15
_symmetry_cell_setting 'monoclinic'
loop_
_space_group_symop_operation_xyz
x,y,z
-x,y,1/2-z
-x,-y,-z
x,-y,1/2+z
1/2+x,1/2+y,z
1/2-x,1/2+y,1/2-z
1/2-x,1/2-y,-z
1/2+x,1/2-y,1/2+z
loop_
_atom_site_type_symbol
_atom_site_label
_atom_site_fract_x
_atom_site_fract_y
_atom_site_fract_z
Si Si1 0.602840 0.563229 0.818159
Si Si2 0.332046 0.718214 0.426433
Si Si3 0.008833 0.726125 0.073453
Si Si4 0.095008 0.811328 0.762039
Si Si5 0.815761 0.594063 0.056983
Si Si6 0.790484 0.644624 0.434719
O O1 0.548053 0.644830 0.656702
O O2 0.552648 0.435294 0.733539
O O3 0.598140 0.613711 0.920010
O O4 0.723625 0.561940 0.983178
O O5 0.405314 0.796432 0.473432
O O6 0.289288 0.796176 0.447657
O O7 0.236900 0.665417 0.219575
O O8 0.087852 0.624912 0.224837
O O9 0.985697 0.732341 0.923373
O O10 0.188349 0.839429 0.836976
O O11 0.126386 0.739584 0.904696
O O12 0.838932 0.482756 0.025889
#
# Coordination Sequence:
#
# PCOD8133875 Si02
#       6
#     8   8   8   8   8   8
#     4  10  19  34  59  81 107 143 184 224 270 320
#     4  10  20  34  59  79 109 144 182 225 268 326
#     4  10  19  35  58  80 108 144 184 221 273 321
#     4   9  19  35  55  80 110 141 179 228 267 326
#     4  10  20  35  58  79 109 143 183 223 270 328
#     4   9  20  35  53  83 106 144 184 216 276 324
#
# _framework density 22.841612999999999
#
# number of rings (size 3 to 8) (size 9 to 14) (size 15 to 20)
#    0.000    2.333    0.000    4.500    2.333    0.667 
#    0.000    0.000   14.667    0.000    0.000    0.000 
#    0.000    0.000    0.000    0.000    0.000    0.000 
#
# Total GULP energy -297551.252866 kJ/mol
# GULP energy per Si atom -12397.968869 kJ/mol
# Density = 2.278962 g / cm^3
# Si number density = 22.841613 Si / 1000 Ang^3
#
#
#
# Elastic Constant Matrix: (Units=GPa)
#
#
# Indices 1 2 3 4 5 6 
#
# 1 30.2735 -10.7031 10.8476 0.0000 -14.1592 0.0000
# 2 -10.7031 95.2378 38.5378 0.0000 -18.8969 0.0000
# 3 10.8476 38.5378 137.3433 0.0000 -40.6072 0.0000
# 4 0.0000 0.0000 0.0000 35.6215 0.0000 -1.5153
# 5 -14.1592 -18.8969 -40.6072 0.0000 42.0612 0.0000
# 6 0.0000 0.0000 0.0000 -1.5153 0.0000 20.7823
#
#
#
# Elastic Compliance Matrix: (Units=1/GPa)
#
#
# Indices 1 2 3 4 5 6 
#
# 1 0.045176 0.009019 -0.000566 0.000000 0.018713 0.000000
# 2 0.009019 0.013914 -0.002618 0.000000 0.006760 0.000000
# 3 -0.000566 -0.002618 0.010715 0.000000 0.008978 0.000000
# 4 0.000000 0.000000 0.000000 0.028160 0.000000 0.002053
# 5 0.018713 0.006760 0.008978 0.000000 0.041779 0.000000
# 6 0.000000 0.000000 0.000000 0.002053 0.000000 0.048268
#
#
# Mechanical properties :
#
#
# Convention : Reuss Voigt Hill
#
# Bulk Modulus (GPa) = 12.27365 37.80214 25.03790
# Shear Modulus (GPa) = 24.57006 34.63781 29.60393
#
# Velocity S-wave (km/s) = 3.28330 3.89837 3.60398
# Velocity P-wave (km/s) = 4.44505 6.07031 5.32011
#
# Compressibility (1/GPa) = 0.08147534
#
# Stress axis : x y z
#
# Youngs Moduli (GPa) = 22.13562 71.86869 93.33025
#
# Poissons Ratio (x) = -0.64819 0.05282
# Poissons Ratio (y) = -0.19964 0.24433
# Poissons Ratio (z) = 0.01253 0.18815
#
# Static dielectric constant tensor:
#      x y z
#    x 3.874740 0.000000 -0.161340 
#    y 0.000000 4.112890 0.000000 
#    z -0.161340 0.000000 4.166130 
# 
# 
# High freq. dielectric constant tensor:
#      x y z
#    x 1.881610 0.000000 -0.010760 
#    y 0.000000 1.890630 0.000000 
#    z -0.010760 0.000000 1.902530 
# 
# From -- ./inp_files/151811.got.cif
#   From: 2010.06.25/outbox.cif.g09.slc.cpg/sg15_76_cif.got.tgz:151811.got - 2010.06.28 07:06:18.
