data_PCOD8133677
_publ_section_title
;
Structure prediction by ZEFSAII (Michael W. Deem and Ramdas Pophale) SiO2 
 PCOD8133677
Probable space group: C 2/C
;
_chemical_formula_sum "Si O2"
_cell_formula_units_Z 64
_cell_length_a 14.779805
_cell_length_b 24.586304
_cell_length_c 14.325921
_cell_angle_alpha 90.000000
_cell_angle_beta 37.733284
_cell_angle_gamma 90.000000
_cell_volume 3185.857861
_symmetry_space_group_name_H-M "C 2/C"
_symmetry_group_IT_number 15
_symmetry_cell_setting 'monoclinic'
loop_
_space_group_symop_operation_xyz
x,y,z
-x,y,1/2-z
-x,-y,-z
x,-y,1/2+z
1/2+x,1/2+y,z
1/2-x,1/2+y,1/2-z
1/2-x,1/2-y,-z
1/2+x,1/2-y,1/2+z
loop_
_atom_site_type_symbol
_atom_site_label
_atom_site_fract_x
_atom_site_fract_y
_atom_site_fract_z
Si Si1 0.245703 0.708780 0.920416
Si Si2 0.814933 0.046612 0.106182
Si Si3 0.163840 0.058849 0.812156
Si Si4 0.927849 0.739633 0.126896
Si Si5 0.175267 0.089788 0.602714
Si Si6 0.720130 0.648050 0.254386
Si Si7 0.668391 0.696014 0.099100
Si Si8 0.617683 0.336576 0.449278
O O1 0.395155 0.718990 0.739131
O O2 0.241401 0.647455 0.961334
O O3 0.250000 0.750000 0.000000
O O4 0.098933 0.722675 0.978916
O O5 0.742093 0.086675 0.243684
O O6 0.759522 0.986828 0.184751
O O7 0.767148 0.059424 0.037971
O O8 0.990479 0.050029 0.965032
O O9 0.216630 0.054098 0.661124
O O10 0.204894 0.119951 0.813888
O O11 0.832195 0.685664 0.219919
O O12 0.859564 0.772739 0.094188
O O13 0.000000 0.099702 0.750000
O O14 0.735514 0.662231 0.131534
O O15 0.556265 0.657078 0.424942
O O16 0.500000 0.714515 0.250000
O O17 0.750000 0.750000 0.000000
O O18 0.671955 0.653103 0.010413
#
# Coordination Sequence:
#
# PCOD8133677 Si02
#       8
#     8   8   8   8   8   8   8   8
#     4  12  24  34  53  84 116 156 192 229 290 350
#     4   9  19  33  54  80 111 145 189 237 287 333
#     4   9  18  33  54  80 108 148 185 236 289 333
#     4  12  21  35  55  81 118 154 186 234 290 347
#     4  10  19  34  55  81 116 148 192 243 290 350
#     4  10  20  35  54  81 115 148 185 239 284 337
#     4  10  20  33  53  79 112 149 184 227 278 336
#     4  10  19  34  54  81 115 146 191 233 280 343
#
# _framework density 20.08878
#
# number of rings (size 3 to 8) (size 9 to 14) (size 15 to 20)
#    0.000    1.750    3.750    1.875    1.750    1.000 
#    0.000    5.000    0.000    0.750    0.000    3.500 
#    0.000    0.000    0.000    0.000    0.000    0.000 
#
# Total GULP energy -396461.766949 kJ/mol
# GULP energy per Si atom -12389.430217 kJ/mol
# Density = 2.004306 g / cm^3
# Si number density = 20.088780 Si / 1000 Ang^3
#
#
#
# Elastic Constant Matrix: (Units=GPa)
#
#
# Indices 1 2 3 4 5 6 
#
# 1 81.8577 49.7972 37.6312 0.0019 31.4736 -0.0012
# 2 49.7972 131.4257 33.7403 0.0004 20.7422 -0.0005
# 3 37.6312 33.7403 57.4660 0.0044 24.1365 -0.0037
# 4 0.0019 0.0004 0.0044 24.6400 -0.0026 10.4854
# 5 31.4736 20.7422 24.1365 -0.0026 33.0625 0.0024
# 6 -0.0012 -0.0005 -0.0037 10.4854 0.0024 27.5634
#
#
#
# Elastic Compliance Matrix: (Units=1/GPa)
#
#
# Indices 1 2 3 4 5 6 
#
# 1 0.024040 -0.005085 -0.006468 -0.000003 -0.014973 0.000003
# 2 -0.005085 0.010189 -0.002885 0.000001 0.000555 -0.000001
# 3 -0.006468 -0.002885 0.028822 -0.000010 -0.013074 0.000008
# 4 -0.000003 0.000001 -0.000010 0.048423 0.000015 -0.018421
# 5 -0.014973 0.000555 -0.013074 0.000015 0.053695 -0.000013
# 6 0.000003 -0.000001 0.000008 -0.018421 -0.000013 0.043287
#
#
# Mechanical properties :
#
#
# Convention : Reuss Voigt Hill
#
# Bulk Modulus (GPa) = 29.26195 57.00965 43.13580
# Shear Modulus (GPa) = 20.10247 27.02523 23.56385
#
# Velocity S-wave (km/s) = 3.16679 3.67180 3.42860
# Velocity P-wave (km/s) = 5.28860 6.81297 6.09860
#
# Compressibility (1/GPa) = 0.03417408
#
# Stress axis : x y z
#
# Youngs Moduli (GPa) = 41.59685 98.14713 34.69530
#
# Poissons Ratio (x) = 0.49911 0.22441
# Poissons Ratio (y) = 0.21153 0.10011
# Poissons Ratio (z) = 0.26905 0.28318
#
# Static dielectric constant tensor:
#      x y z
#    x 3.894040 0.000010 0.461440 
#    y 0.000010 3.801250 0.000020 
#    z 0.461440 0.000020 3.720240 
# 
# 
# High freq. dielectric constant tensor:
#      x y z
#    x 1.773650 0.000000 0.032050 
#    y 0.000000 1.776690 0.000000 
#    z 0.032050 0.000000 1.759440 
# 
# From -- ./inp_files/156786.got.cif
#   From: 2010.06.25/outbox.cif.g09.slc.cpg/sg15_79_cif.got.tgz:156786.got - 2010.06.28 07:06:18.
