data_PCOD8133622
_publ_section_title
;
Structure prediction by ZEFSAII (Michael W. Deem and Ramdas Pophale) SiO2 
 PCOD8133622
Probable space group: C 2/C
;
_chemical_formula_sum "Si O2"
_cell_formula_units_Z 64
_cell_length_a 18.941201
_cell_length_b 23.428537
_cell_length_c 12.372574
_cell_angle_alpha 90.000000
_cell_angle_beta 43.982123
_cell_angle_gamma 90.000000
_cell_volume 3812.796726
_symmetry_space_group_name_H-M "C 2/C"
_symmetry_group_IT_number 15
_symmetry_cell_setting 'monoclinic'
loop_
_space_group_symop_operation_xyz
x,y,z
-x,y,1/2-z
-x,-y,-z
x,-y,1/2+z
1/2+x,1/2+y,z
1/2-x,1/2+y,1/2-z
1/2-x,1/2-y,-z
1/2+x,1/2-y,1/2+z
loop_
_atom_site_type_symbol
_atom_site_label
_atom_site_fract_x
_atom_site_fract_y
_atom_site_fract_z
Si Si1 0.879354 0.725496 0.565520
Si Si2 0.609792 0.768932 0.853953
Si Si3 0.885003 0.939225 0.105638
Si Si4 0.706026 0.341753 0.909144
Si Si5 0.219648 0.779082 0.424765
Si Si6 0.885588 0.890160 0.883650
Si Si7 0.710028 0.659434 0.651132
Si Si8 0.119807 0.933089 0.846570
O O1 0.872003 0.790449 0.531062
O O2 0.820536 0.718949 0.742378
O O3 0.826628 0.681325 0.539596
O O4 0.995933 0.710392 0.457742
O O5 0.679579 0.821359 0.739950
O O6 0.630349 0.754271 0.957945
O O7 0.635279 0.712493 0.756799
O O8 0.814535 0.892137 0.240489
O O9 0.847525 0.000959 0.185139
O O10 0.878256 0.939624 0.982258
O O11 0.001757 0.926494 0.008650
O O12 0.683919 0.396604 0.860790
O O13 0.694683 0.360952 0.045782
O O14 0.250000 0.750000 0.500000
O O15 0.186968 0.841903 0.491575
O O16 0.850737 0.912317 0.805710
O O17 0.000000 0.866058 0.750000
#
# Coordination Sequence:
#
# PCOD8133622 Si02
#       8
#     8   8   8   8   8   8   8   8
#     4  10  20  34  52  76 108 140 173 218 261 313
#     4  10  20  34  52  78 107 139 177 214 263 317
#     4  10  20  36  51  79 104 139 179 208 269 317
#     4  10  21  34  52  79 108 135 177 217 264 310
#     4  10  20  31  50  78 109 140 175 208 261 315
#     4  10  19  34  52  72 108 138 168 213 256 312
#     4  10  20  35  52  78 107 139 172 220 262 314
#     4  10  22  33  54  77 107 140 173 217 262 319
#
# _framework density 16.785578000000001
#
# number of rings (size 3 to 8) (size 9 to 14) (size 15 to 20)
#    0.000    2.250    2.500    3.750    5.250    3.500 
#    0.000    0.000    0.000    0.750    0.000    0.000 
#    0.000    0.000    0.000    0.000    0.000    0.000 
#
# Total GULP energy -396710.340514 kJ/mol
# GULP energy per Si atom -12397.198141 kJ/mol
# Density = 1.674737 g / cm^3
# Si number density = 16.785578 Si / 1000 Ang^3
#
#
#
# Elastic Constant Matrix: (Units=GPa)
#
#
# Indices 1 2 3 4 5 6 
#
# 1 106.8085 40.7629 62.0797 0.0000 8.1581 0.0000
# 2 40.7629 88.6473 39.6253 0.0000 4.4294 0.0000
# 3 62.0797 39.6253 75.5006 0.0000 16.0064 0.0000
# 4 0.0000 0.0000 0.0000 16.9345 0.0000 3.3056
# 5 8.1581 4.4294 16.0064 0.0000 39.8006 0.0000
# 6 0.0000 0.0000 0.0000 3.3056 0.0000 21.8143
#
#
#
# Elastic Compliance Matrix: (Units=1/GPa)
#
#
# Indices 1 2 3 4 5 6 
#
# 1 0.018446 -0.002089 -0.014560 0.000000 0.002307 0.000000
# 2 -0.002089 0.015070 -0.006479 0.000000 0.001357 0.000000
# 3 -0.014560 -0.006479 0.030425 0.000000 -0.008531 0.000000
# 4 0.000000 0.000000 0.000000 0.060851 0.000000 -0.009221
# 5 0.002307 0.001357 -0.008531 0.000000 0.027932 0.000000
# 6 0.000000 0.000000 0.000000 -0.009221 0.000000 0.047239
#
#
# Mechanical properties :
#
#
# Convention : Reuss Voigt Hill
#
# Bulk Modulus (GPa) = 56.54342 61.76578 59.15460
# Shear Modulus (GPa) = 19.83232 24.27580 22.05406
#
# Velocity S-wave (km/s) = 3.44104 3.80706 3.62867
# Velocity P-wave (km/s) = 7.03893 7.49678 7.27146
#
# Compressibility (1/GPa) = 0.01768552
#
# Stress axis : x y z
#
# Youngs Moduli (GPa) = 54.21170 66.35884 32.86721
#
# Poissons Ratio (x) = 0.13864 0.47854
# Poissons Ratio (y) = 0.11326 0.21294
# Poissons Ratio (z) = 0.78931 0.42993
#
# Static dielectric constant tensor:
#      x y z
#    x 3.217280 0.000000 0.202490 
#    y 0.000000 2.941620 0.000000 
#    z 0.202490 0.000000 3.133590 
# 
# 
# High freq. dielectric constant tensor:
#      x y z
#    x 1.646780 0.000000 0.021490 
#    y 0.000000 1.630330 0.000000 
#    z 0.021490 0.000000 1.644580 
# 
# From -- ./inp_files/107942.got.cif
#   From: 2010.06.25/outbox.cif.g09.slc.cpg/sg15_54_cif.got.tgz:107942.got - 2010.06.28 07:06:18.
