data_PCOD8133200
_publ_section_title
;
Structure prediction by ZEFSAII (Michael W. Deem and Ramdas Pophale) SiO2 
 PCOD8133200
Probable space group: C 2/C
;
_chemical_formula_sum "Si O2"
_cell_formula_units_Z 48
_cell_length_a 19.305734
_cell_length_b 8.998004
_cell_length_c 15.957378
_cell_angle_alpha 90.000000
_cell_angle_beta 71.946501
_cell_angle_gamma 90.000000
_cell_volume 2635.532578
_symmetry_space_group_name_H-M "C 2/C"
_symmetry_group_IT_number 15
_symmetry_cell_setting 'monoclinic'
loop_
_space_group_symop_operation_xyz
x,y,z
-x,y,1/2-z
-x,-y,-z
x,-y,1/2+z
1/2+x,1/2+y,z
1/2-x,1/2+y,1/2-z
1/2-x,1/2-y,-z
1/2+x,1/2-y,1/2+z
loop_
_atom_site_type_symbol
_atom_site_label
_atom_site_fract_x
_atom_site_fract_y
_atom_site_fract_z
Si Si1 0.817544 0.145713 0.965304
Si Si2 0.079605 0.189154 0.711768
Si Si3 0.720506 0.667393 0.091395
Si Si4 0.706714 0.706461 0.781323
Si Si5 0.175610 0.880319 0.848278
Si Si6 0.578924 0.344910 0.734410
O O1 0.880623 0.233122 0.890428
O O2 0.789257 0.005392 0.923149
O O3 0.750000 0.250000 0.000000
O O4 0.847119 0.101742 0.046325
O O5 0.126558 0.240182 0.774558
O O6 0.000000 0.265081 0.750000
O O7 0.070620 0.013111 0.708057
O O8 0.779952 0.691167 0.142296
O O9 0.642364 0.732284 0.153737
O O10 0.750000 0.750000 0.000000
O O11 0.765748 0.748195 0.687423
O O12 0.712798 0.532379 0.801330
O O13 0.102684 0.841012 0.823142
O O14 0.500000 0.265249 0.750000
#
# Coordination Sequence:
#
# PCOD8133200 Si02
#       6
#     8   8   8   8   8   8
#     4  11  20  34  55  81 105 138 184 220 259 318
#     4   9  18  34  52  77 107 137 175 222 267 315
#     4  10  19  33  53  78 105 133 177 220 258 309
#     4  10  19  34  54  79 106 143 173 215 270 312
#     4  10  19  32  56  80 106 140 177 218 266 311
#     4   8  17  33  50  75 108 135 169 217 266 309
#
# _framework density 18.212638999999999
#
# number of rings (size 3 to 8) (size 9 to 14) (size 15 to 20)
#    0.000    2.333    3.333    1.000    0.000    0.000 
#    3.000    3.333    0.000   10.000    0.000    0.000 
#    0.000    0.000    0.000    0.000    0.000    0.000 
#
# Total GULP energy -297419.152360 kJ/mol
# GULP energy per Si atom -12392.464682 kJ/mol
# Density = 1.817119 g / cm^3
# Si number density = 18.212639 Si / 1000 Ang^3
#
#
#
# Elastic Constant Matrix: (Units=GPa)
#
#
# Indices 1 2 3 4 5 6 
#
# 1 156.7746 33.5105 79.5399 0.0000 -6.4807 0.0000
# 2 33.5105 39.4160 28.9531 0.0000 -1.6844 0.0000
# 3 79.5399 28.9531 146.5226 0.0000 1.5484 0.0000
# 4 0.0000 0.0000 0.0000 25.1086 0.0000 1.5470
# 5 -6.4807 -1.6844 1.5484 0.0000 27.8077 0.0000
# 6 0.0000 0.0000 0.0000 1.5470 0.0000 18.6965
#
#
#
# Elastic Compliance Matrix: (Units=1/GPa)
#
#
# Indices 1 2 3 4 5 6 
#
# 1 0.009730 -0.005008 -0.004315 0.000000 0.002204 0.000000
# 2 -0.005008 0.032382 -0.003691 0.000000 0.001000 0.000000
# 3 -0.004315 -0.003691 0.009916 0.000000 -0.001781 0.000000
# 4 0.000000 0.000000 0.000000 0.040031 0.000000 -0.003312
# 5 0.002204 0.001000 -0.001781 0.000000 0.036635 0.000000
# 6 0.000000 0.000000 0.000000 -0.003312 0.000000 0.053760
#
#
# Mechanical properties :
#
#
# Convention : Reuss Voigt Hill
#
# Bulk Modulus (GPa) = 38.46310 69.63558 54.04934
# Shear Modulus (GPa) = 23.02589 27.70322 25.36456
#
# Velocity S-wave (km/s) = 3.55953 3.90436 3.73592
# Velocity P-wave (km/s) = 6.16915 7.65788 6.95347
#
# Compressibility (1/GPa) = 0.02599894
#
# Stress axis : x y z
#
# Youngs Moduli (GPa) = 102.77960 30.88173 100.85047
#
# Poissons Ratio (x) = 0.15465 0.43522
# Poissons Ratio (y) = 0.51469 0.37222
# Poissons Ratio (z) = 0.44354 0.11398
#
# Static dielectric constant tensor:
#      x y z
#    x 3.766870 0.000000 -0.097400 
#    y 0.000000 3.117510 0.000000 
#    z -0.097400 0.000000 3.991180 
# 
# 
# High freq. dielectric constant tensor:
#      x y z
#    x 1.701720 0.000000 0.011100 
#    y 0.000000 1.668750 0.000000 
#    z 0.011100 0.000000 1.715340 
# 
# From -- ./inp_files/160333.got.cif
#   From: 2010.06.25/outbox.cif.g09.slc.cpg/sg15_81_cif.got.tgz:160333.got - 2010.06.28 07:06:18.
