data_PCOD8133170
_publ_section_title
;
Structure prediction by ZEFSAII (Michael W. Deem and Ramdas Pophale) SiO2 
 PCOD8133170
Probable space group: C 2/C
;
_chemical_formula_sum "Si O2"
_cell_formula_units_Z 48
_cell_length_a 14.440145
_cell_length_b 21.285129
_cell_length_c 23.835649
_cell_angle_alpha 90.000000
_cell_angle_beta 159.008773
_cell_angle_gamma 90.000000
_cell_volume 2624.404119
_symmetry_space_group_name_H-M "C 2/C"
_symmetry_group_IT_number 15
_symmetry_cell_setting 'monoclinic'
loop_
_space_group_symop_operation_xyz
x,y,z
-x,y,1/2-z
-x,-y,-z
x,-y,1/2+z
1/2+x,1/2+y,z
1/2-x,1/2+y,1/2-z
1/2-x,1/2-y,-z
1/2+x,1/2-y,1/2+z
loop_
_atom_site_type_symbol
_atom_site_label
_atom_site_fract_x
_atom_site_fract_y
_atom_site_fract_z
Si Si1 0.269593 0.965084 0.664680
Si Si2 0.991234 0.470460 0.581768
Si Si3 0.775092 0.849299 0.052742
Si Si4 0.316305 0.193196 0.875022
Si Si5 0.353023 0.823617 0.722181
Si Si6 0.707302 0.088770 0.095482
O O1 0.500000 0.979895 0.750000
O O2 0.356337 0.986618 0.775323
O O3 0.211474 0.890265 0.633145
O O4 0.000000 0.000000 0.500000
O O5 0.172098 0.432679 0.640094
O O6 0.745494 0.425278 0.454817
O O7 0.891030 0.534986 0.501041
O O8 0.719921 0.815215 0.079507
O O9 0.067350 0.833301 0.199884
O O10 0.565630 0.824940 0.890731
O O11 0.352011 0.267506 0.880801
O O12 0.563325 0.152928 0.996713
O O13 0.500000 0.802101 0.750000
O O14 0.000000 0.104331 0.250000
#
# Coordination Sequence:
#
# PCOD8133170 Si02
#       6
#     8   8   8   8   8   8
#     4  10  23  40  61  86 115 153 193 234 287 345
#     4   9  21  36  57  81 113 149 186 242 278 337
#     4   9  18  32  53  80 109 134 182 232 282 323
#     4  10  19  32  54  82 108 144 182 230 286 335
#     4  10  19  34  56  83 112 142 184 240 279 331
#     4  10  22  34  55  83 115 150 191 233 292 338
#
# _framework density 18.289864999999999
#
# number of rings (size 3 to 8) (size 9 to 14) (size 15 to 20)
#    0.000    2.333    1.667    0.500    9.333    2.667 
#    0.000    0.833    0.000    9.000    0.000    0.000 
#    0.000    0.000    0.000    0.000    0.000    0.000 
#
# Total GULP energy -297445.443889 kJ/mol
# GULP energy per Si atom -12393.560162 kJ/mol
# Density = 1.824824 g / cm^3
# Si number density = 18.289865 Si / 1000 Ang^3
#
#
#
# Elastic Constant Matrix: (Units=GPa)
#
#
# Indices 1 2 3 4 5 6 
#
# 1 55.5147 48.8495 52.6192 0.2515 -7.4515 0.1153
# 2 48.8495 138.9479 83.9011 -0.2728 7.7676 -0.1720
# 3 52.6192 83.9011 125.3363 -0.9411 6.2857 -0.6280
# 4 0.2515 -0.2728 -0.9411 -97.9632 0.1972 -69.6153
# 5 -7.4515 7.7676 6.2857 0.1972 38.2203 0.1062
# 6 0.1153 -0.1720 -0.6280 -69.6153 0.1062 -33.9137
#
#
#
# Elastic Compliance Matrix: (Units=1/GPa)
#
#
# Indices 1 2 3 4 5 6 
#
# 1 0.035504 -0.006277 -0.011206 0.000091 0.010039 0.000205
# 2 -0.006277 0.013238 -0.006080 0.000024 -0.002914 -0.000035
# 3 -0.011206 -0.006080 0.016939 -0.000118 -0.003734 -0.000090
# 4 0.000091 0.000024 -0.000118 0.022254 0.000044 -0.045679
# 5 0.010039 -0.002914 -0.003734 0.000044 0.029327 0.000119
# 6 0.000205 -0.000035 -0.000090 -0.045679 0.000119 0.064282
#
#
# Mechanical properties :
#
#
# Convention : Reuss Voigt Hill
#
# Bulk Modulus (GPa) = 53.89096 76.72650 65.30873
# Shear Modulus (GPa) = 21.28967 -9.76939 5.76014
#
# Velocity S-wave (km/s) = 3.41547 -2.31366 1.77657
# Velocity P-wave (km/s) = 6.71437 5.90796 6.32403
#
# Compressibility (1/GPa) = 0.01855599
#
# Stress axis : x y z
#
# Youngs Moduli (GPa) = 28.16572 75.53978 59.03474
#
# Poissons Ratio (x) = 0.47413 0.66153
# Poissons Ratio (y) = 0.17678 0.35896
# Poissons Ratio (z) = 0.31562 0.45932
#
# Static dielectric constant tensor:
#      x y z
#    x 3.347050 0.000060 -0.172650 
#    y 0.000060 3.577710 -0.000170 
#    z -0.172650 -0.000170 3.461520 
# 
# 
# High freq. dielectric constant tensor:
#      x y z
#    x 1.687480 0.000000 -0.024580 
#    y 0.000000 1.719830 -0.000020 
#    z -0.024580 -0.000020 1.701760 
# 
# From -- ./inp_files/99300.got.cif
#   From: 2010.06.25/outbox.cif.g09.slc.cpg/sg15_50_cif.got.tgz:99300.got - 2010.06.28 07:06:18.
