data_PCOD8133059
_publ_section_title
;
Structure prediction by ZEFSAII (Michael W. Deem and Ramdas Pophale) SiO2 
 PCOD8133059
Probable space group: C 2/C
;
_chemical_formula_sum "Si O2"
_cell_formula_units_Z 64
_cell_length_a 13.092521
_cell_length_b 18.396919
_cell_length_c 23.609990
_cell_angle_alpha 90.000000
_cell_angle_beta 143.751903
_cell_angle_gamma 90.000000
_cell_volume 3362.478149
_symmetry_space_group_name_H-M "C 2/C"
_symmetry_group_IT_number 15
_symmetry_cell_setting 'monoclinic'
loop_
_space_group_symop_operation_xyz
x,y,z
-x,y,1/2-z
-x,-y,-z
x,-y,1/2+z
1/2+x,1/2+y,z
1/2-x,1/2+y,1/2-z
1/2-x,1/2-y,-z
1/2+x,1/2-y,1/2+z
loop_
_atom_site_type_symbol
_atom_site_label
_atom_site_fract_x
_atom_site_fract_y
_atom_site_fract_z
Si Si1 0.322076 0.750000 0.105530
Si Si2 0.496080 0.031899 0.640117
Si Si3 0.159584 0.098611 0.531919
Si Si4 0.207131 0.250000 0.274147
Si Si5 0.003920 0.968100 0.859884
Si Si6 0.835443 0.097587 0.835976
Si Si7 0.340418 0.098612 0.468083
Si Si8 0.835443 0.597588 0.335976
O O1 0.220540 0.821388 0.039891
O O2 0.512925 0.750000 0.161805
O O3 0.329604 0.750000 0.175969
O O4 0.220537 0.678612 0.039890
O O5 0.316370 0.041519 0.592390
O O6 0.645903 0.062021 0.747524
O O7 0.495646 0.074491 0.579185
O O8 0.529452 0.946352 0.642473
O O9 0.099439 0.095627 0.569920
O O10 0.004356 0.074491 0.420815
O O11 0.319722 0.319894 0.306328
O O12 0.319723 0.180107 0.306330
O O13 0.854097 0.937979 0.752477
O O14 0.183630 0.958480 0.907611
O O15 0.970547 0.053648 0.857527
O O16 0.400562 0.095627 0.430081
#
# Coordination Sequence:
#
# PCOD8133059 Si02
#       8
#     8   8   8   8   8   8   8   8
#     4   9  16  28  49  74  94 124 148 191 260 278
#     4  10  20  29  48  73  94 129 157 185 243 284
#     4  10  19  32  48  71 100 121 155 200 232 285
#     4   9  16  29  50  68  97 126 152 194 239 284
#     4  10  20  29  48  73  94 129 157 185 243 284
#     4  10  19  33  47  70  99 125 157 193 236 279
#     4  10  19  32  48  71 100 121 155 200 232 285
#     4  10  19  33  47  70  99 125 157 193 236 279
#
# _framework density 19.033581000000002
#
# number of rings (size 3 to 8) (size 9 to 14) (size 15 to 20)
#    0.000    2.250    2.500    1.500    0.000    3.000 
#    0.000    0.000    0.000    3.000    0.000   17.500 
#    0.000    0.000    0.000    0.000    0.000    0.000 
#
# Total GULP energy -396634.006049 kJ/mol
# GULP energy per Si atom -12394.812689 kJ/mol
# Density = 1.899026 g / cm^3
# Si number density = 19.033581 Si / 1000 Ang^3
#
#
#
# Elastic Constant Matrix: (Units=GPa)
#
#
# Indices 1 2 3 4 5 6 
#
# 1 29.3136 26.0339 -1.8377 0.0001 -0.8216 0.0000
# 2 26.0339 150.4067 11.6434 0.0000 11.1959 0.0000
# 3 -1.8377 11.6434 48.5005 0.0005 -12.2720 0.0000
# 4 0.0001 0.0000 0.0005 6.6525 0.0001 5.1314
# 5 -0.8216 11.1959 -12.2720 0.0001 26.4107 0.0000
# 6 0.0000 0.0000 0.0000 5.1314 0.0000 13.2724
#
#
#
# Elastic Compliance Matrix: (Units=1/GPa)
#
#
# Indices 1 2 3 4 5 6 
#
# 1 0.041964 -0.008227 0.005414 -0.000001 0.007309 0.000001
# 2 -0.008227 0.008806 -0.003893 0.000001 -0.005797 0.000000
# 3 0.005414 -0.003893 0.025178 -0.000003 0.013518 0.000001
# 4 -0.000001 0.000001 -0.000003 0.214195 -0.000002 -0.082812
# 5 0.007309 -0.005797 0.013518 -0.000002 0.046830 0.000001
# 6 0.000001 0.000000 0.000001 -0.082812 0.000001 0.107361
#
#
# Mechanical properties :
#
#
# Convention : Reuss Voigt Hill
#
# Bulk Modulus (GPa) = 15.99019 33.32223 24.65621
# Shear Modulus (GPa) = 10.44734 22.09253 16.26994
#
# Velocity S-wave (km/s) = 2.34538 3.41062 2.92687
# Velocity P-wave (km/s) = 3.96909 5.74934 4.94007
#
# Compressibility (1/GPa) = 0.06253834
#
# Stress axis : x y z
#
# Youngs Moduli (GPa) = 23.82968 113.56534 39.71660
#
# Poissons Ratio (x) = 0.93428 -0.21504
# Poissons Ratio (y) = 0.19604 0.15460
# Poissons Ratio (z) = -0.12902 0.44206
#
# Static dielectric constant tensor:
#      x y z
#    x 3.052980 0.000000 -0.299550 
#    y 0.000000 3.784550 0.000000 
#    z -0.299550 0.000000 3.538660 
# 
# 
# High freq. dielectric constant tensor:
#      x y z
#    x 1.692860 0.000000 -0.034180 
#    y 0.000000 1.743950 0.000000 
#    z -0.034180 0.000000 1.739930 
# 
# From -- ./inp_files/314281.got.cif
#   From: 2010.06.25/outbox.cif.g09.slc.cpg/sg15_158_cif.got.tgz:314281.got - 2010.06.28 07:06:18.
