data_PCOD8133389
_publ_section_title
;
Structure prediction by ZEFSAII (Michael W. Deem and Ramdas Pophale) SiO2 
 PCOD8133389
Probable space group: C 2/C
;
_chemical_formula_sum "Si O2"
_cell_formula_units_Z 52
_cell_length_a 14.675724
_cell_length_b 18.065429
_cell_length_c 17.425904
_cell_angle_alpha 90.000000
_cell_angle_beta 35.243835
_cell_angle_gamma 90.000000
_cell_volume 2666.011901
_symmetry_space_group_name_H-M "C 2/C"
_symmetry_group_IT_number 15
_symmetry_cell_setting 'monoclinic'
loop_
_space_group_symop_operation_xyz
x,y,z
-x,y,1/2-z
-x,-y,-z
x,-y,1/2+z
1/2+x,1/2+y,z
1/2-x,1/2+y,1/2-z
1/2-x,1/2-y,-z
1/2+x,1/2-y,1/2+z
loop_
_atom_site_type_symbol
_atom_site_label
_atom_site_fract_x
_atom_site_fract_y
_atom_site_fract_z
Si Si1 0.531649 0.386508 0.074226
Si Si2 0.687243 0.815304 0.701047
Si Si3 0.612534 0.290769 0.798038
Si Si4 0.000000 0.810630 0.250000
Si Si5 0.298562 0.526507 0.510353
Si Si6 0.500000 0.065570 0.250000
Si Si7 0.182383 0.831567 0.401884
Si Si8 0.500000 0.403520 0.750000
O O1 0.558272 0.365955 0.144425
O O2 0.365848 0.366332 0.148017
O O3 0.649227 0.334079 0.949165
O O4 0.572154 0.473503 0.036776
O O5 0.726061 0.805722 0.764445
O O6 0.633581 0.739663 0.697273
O O7 0.563031 0.881884 0.775177
O O8 0.657697 0.216368 0.719901
O O9 0.586004 0.355992 0.756033
O O10 0.456401 0.283882 0.959429
O O11 0.270092 0.600231 0.577754
O O12 0.363190 0.546049 0.381374
O O13 0.133285 0.483587 0.617917
#
# Coordination Sequence:
#
# PCOD8133389 Si02
#       8
#     8   8   8   4   8   4   8   4
#     4  10  19  33  54  84 113 150 184 225 281 338
#     4   9  19  35  54  83 116 145 182 237 283 322
#     4  10  21  39  57  84 111 148 190 235 282 321
#     4  11  17  30  58  83 113 144 186 230 273 337
#     4  10  21  38  56  82 114 152 188 224 281 335
#     4   9  20  37  59  80 113 154 186 224 283 344
#     4  10  21  37  59  81 116 148 188 232 277 333
#     4  10  23  39  59  79 118 148 188 242 272 323
#
# _framework density 19.504788999999999
#
# number of rings (size 3 to 8) (size 9 to 14) (size 15 to 20)
#    0.000    2.154    1.538    1.385    0.000    5.538 
#    0.000    0.769    0.000    0.000    0.000    0.000 
#    0.000    0.000    0.000    0.000    0.000    0.000 
#
# Total GULP energy -322199.406792 kJ/mol
# GULP energy per Si atom -12392.284877 kJ/mol
# Density = 1.946040 g / cm^3
# Si number density = 19.504789 Si / 1000 Ang^3
#
#
#
# Elastic Constant Matrix: (Units=GPa)
#
#
# Indices 1 2 3 4 5 6 
#
# 1 51.3817 -0.7196 14.4313 -0.0076 13.9333 0.0036
# 2 -0.7196 73.5785 43.4741 -0.0048 3.7115 0.0032
# 3 14.4313 43.4741 61.1480 0.0009 14.8486 -0.0003
# 4 -0.0076 -0.0048 0.0009 36.2099 -0.0016 -4.4106
# 5 13.9333 3.7115 14.8486 -0.0016 26.1862 -0.0002
# 6 0.0036 0.0032 -0.0003 -4.4106 -0.0002 28.3177
#
#
#
# Elastic Compliance Matrix: (Units=1/GPa)
#
#
# Indices 1 2 3 4 5 6 
#
# 1 0.024008 0.004624 -0.006601 0.000005 -0.009686 -0.000003
# 2 0.004624 0.025524 -0.020598 0.000005 0.005602 -0.000003
# 3 -0.006601 -0.020598 0.035944 -0.000005 -0.013950 0.000003
# 4 0.000005 0.000005 -0.000005 0.028151 0.000001 0.004385
# 5 -0.009686 0.005602 -0.013950 0.000001 0.050458 0.000001
# 6 -0.000003 -0.000003 0.000003 0.004385 0.000001 0.035997
#
#
# Mechanical properties :
#
#
# Convention : Reuss Voigt Hill
#
# Bulk Modulus (GPa) = 24.79912 33.38664 29.09288
# Shear Modulus (GPa) = 19.32932 26.73756 23.03344
#
# Velocity S-wave (km/s) = 3.15144 3.70648 3.44017
# Velocity P-wave (km/s) = 5.09745 5.95580 5.54327
#
# Compressibility (1/GPa) = 0.04032401
#
# Stress axis : x y z
#
# Youngs Moduli (GPa) = 41.65340 39.17844 27.82116
#
# Poissons Ratio (x) = -0.18115 0.18365
# Poissons Ratio (y) = -0.19259 0.57307
# Poissons Ratio (z) = 0.27496 0.80702
#
# Static dielectric constant tensor:
#      x y z
#    x 3.428180 0.000000 0.025890 
#    y 0.000000 3.599710 0.000000 
#    z 0.025890 0.000000 3.466060 
# 
# 
# High freq. dielectric constant tensor:
#      x y z
#    x 1.756910 0.000000 0.007850 
#    y 0.000000 1.766070 0.000000 
#    z 0.007850 0.000000 1.746850 
# 
# From -- ./inp_files/48547.got.cif
#   From: 2010.06.25/outbox.cif.g09.slc.cpg/sg15_25_cif.got.tgz:48547.got - 2010.06.28 07:06:18.
