data_PCOD8133011
_publ_section_title
;
Structure prediction by ZEFSAII (Michael W. Deem and Ramdas Pophale) SiO2 
 PCOD8133011
Probable space group: C 2/C
;
_chemical_formula_sum "Si O2"
_cell_formula_units_Z 40
_cell_length_a 9.986826
_cell_length_b 18.157285
_cell_length_c 28.083850
_cell_angle_alpha 90.000000
_cell_angle_beta 154.875279
_cell_angle_gamma 90.000000
_cell_volume 2162.245016
_symmetry_space_group_name_H-M "C 2/C"
_symmetry_group_IT_number 15
_symmetry_cell_setting 'monoclinic'
loop_
_space_group_symop_operation_xyz
x,y,z
-x,y,1/2-z
-x,-y,-z
x,-y,1/2+z
1/2+x,1/2+y,z
1/2-x,1/2+y,1/2-z
1/2-x,1/2-y,-z
1/2+x,1/2-y,1/2+z
loop_
_atom_site_type_symbol
_atom_site_label
_atom_site_fract_x
_atom_site_fract_y
_atom_site_fract_z
Si Si1 0.663195 0.680749 0.119470
Si Si2 0.497624 0.583309 0.982498
Si Si3 0.781995 0.301583 0.947166
Si Si4 0.923477 0.680001 0.778404
Si Si5 0.232636 0.831185 0.470314
O O1 0.413137 0.648370 0.078331
O O2 0.000000 0.692787 0.250000
O O3 0.688553 0.623844 0.085038
O O4 0.552416 0.758999 0.063138
O O5 0.685483 0.604101 0.994213
O O6 0.133503 0.608575 0.859765
O O7 0.500000 0.500000 0.000000
O O8 0.514014 0.245483 0.842595
O O9 0.946133 0.345696 0.956389
O O10 0.550923 0.663622 0.659694
O O11 0.000000 0.706908 0.750000
O O12 0.250000 0.750000 0.500000
#
# Coordination Sequence:
#
# PCOD8133011 Si02
#       5
#     8   8   8   8   8
#     4  10  20  33  52  79 113 144 177 236 289 337
#     4  10  22  38  53  78 114 156 192 223 283 354
#     4  10  19  31  53  86 110 134 185 238 289 332
#     4   9  17  31  56  79 110 140 181 236 283 329
#     4  11  18  34  59  86 107 146 195 241 282 338
#
# _framework density 18.499292000000001
#
# number of rings (size 3 to 8) (size 9 to 14) (size 15 to 20)
#    0.000    2.000    6.000    1.200    0.000    2.400 
#    0.000    1.000    0.000    2.400    0.000    0.000 
#    0.000    0.000    0.000    0.000    0.000    0.000 
#
# Total GULP energy -247797.345769 kJ/mol
# GULP energy per Si atom -12389.867288 kJ/mol
# Density = 1.845719 g / cm^3
# Si number density = 18.499292 Si / 1000 Ang^3
#
#
#
# Elastic Constant Matrix: (Units=GPa)
#
#
# Indices 1 2 3 4 5 6 
#
# 1 126.6093 31.9411 33.5240 -0.0031 4.3895 0.0050
# 2 31.9411 51.6157 37.9959 -0.0063 3.2983 0.0013
# 3 33.5240 37.9959 124.0737 -0.0208 -15.0313 0.0019
# 4 -0.0031 -0.0063 -0.0208 10.3898 0.0001 -3.3119
# 5 4.3895 3.2983 -15.0313 0.0001 22.8563 0.0070
# 6 0.0050 0.0013 0.0019 -3.3119 0.0070 23.0593
#
#
#
# Elastic Compliance Matrix: (Units=1/GPa)
#
#
# Indices 1 2 3 4 5 6 
#
# 1 0.009532 -0.004765 -0.001364 -0.000003 -0.002040 -0.000002
# 2 -0.004765 0.029400 -0.008822 0.000000 -0.009129 0.000003
# 3 -0.001364 -0.008822 0.012295 0.000019 0.009621 0.000000
# 4 -0.000003 0.000000 0.000019 0.100866 0.000008 0.014487
# 5 -0.002040 -0.009129 0.009621 0.000008 0.051788 -0.000014
# 6 -0.000002 0.000003 0.000000 0.014487 -0.000014 0.045447
#
#
# Mechanical properties :
#
#
# Convention : Reuss Voigt Hill
#
# Bulk Modulus (GPa) = 46.88874 56.58010 51.73442
# Shear Modulus (GPa) = 17.46190 24.51692 20.98941
#
# Velocity S-wave (km/s) = 3.07567 3.64440 3.37205
# Velocity P-wave (km/s) = 6.16557 6.95416 6.57170
#
# Compressibility (1/GPa) = 0.02132708
#
# Stress axis : x y z
#
# Youngs Moduli (GPa) = 104.90870 34.01377 81.33197
#
# Poissons Ratio (x) = 0.16206 0.11090
# Poissons Ratio (y) = 0.49985 0.71750
# Poissons Ratio (z) = 0.14305 0.30007
#
# Static dielectric constant tensor:
#      x y z
#    x 3.596500 -0.000240 0.158690 
#    y -0.000240 2.582210 0.000240 
#    z 0.158690 0.000240 3.660970 
# 
# 
# High freq. dielectric constant tensor:
#      x y z
#    x 1.730100 0.000000 -0.011390 
#    y 0.000000 1.649140 0.000000 
#    z -0.011390 0.000000 1.736150 
# 
# From -- ./inp_files/77742.got.cif
#   From: 2010.06.25/outbox.cif.g09.slc.cpg/sg15_39_cif.got.tgz:77742.got - 2010.06.28 07:06:18.
