data_PCOD8133158
_publ_section_title
;
Structure prediction by ZEFSAII (Michael W. Deem and Ramdas Pophale) SiO2 
 PCOD8133158
Probable space group: C 2/C
;
_chemical_formula_sum "Si O2"
_cell_formula_units_Z 40
_cell_length_a 20.587788
_cell_length_b 18.559438
_cell_length_c 15.508651
_cell_angle_alpha 90.000000
_cell_angle_beta 159.132953
_cell_angle_gamma 90.000000
_cell_volume 2110.781268
_symmetry_space_group_name_H-M "C 2/C"
_symmetry_group_IT_number 15
_symmetry_cell_setting 'monoclinic'
loop_
_space_group_symop_operation_xyz
x,y,z
-x,y,1/2-z
-x,-y,-z
x,-y,1/2+z
1/2+x,1/2+y,z
1/2-x,1/2+y,1/2-z
1/2-x,1/2-y,-z
1/2+x,1/2-y,1/2+z
loop_
_atom_site_type_symbol
_atom_site_label
_atom_site_fract_x
_atom_site_fract_y
_atom_site_fract_z
Si Si1 0.016649 0.803571 0.169778
Si Si2 0.130243 0.667172 0.205119
Si Si3 0.322186 0.910310 0.569837
Si Si4 0.000000 0.452301 0.250000
Si Si5 0.597790 0.165504 0.741378
Si Si6 0.000000 0.786604 0.750000
O O1 0.000000 0.787997 0.250000
O O2 0.106866 0.735527 0.237645
O O3 0.141333 0.873792 0.308276
O O4 0.817082 0.820992 0.882784
O O5 0.157059 0.597339 0.300089
O O6 0.960937 0.660344 0.930877
O O7 0.500000 0.870977 0.750000
O O8 0.323358 0.994657 0.540644
O O9 0.998479 0.402213 0.332152
O O10 0.520375 0.238001 0.689509
O O11 0.818924 0.163788 0.018235
#
# Coordination Sequence:
#
# PCOD8133158 Si02
#       6
#     8   8   8   4   8   4
#     4  10  19  32  53  86 112 142 172 224 281 312
#     4  11  19  31  59  83 108 135 190 227 259 320
#     4   9  19  36  52  72 116 150 168 215 271 322
#     4   9  22  40  54  70 119 152 174 216 275 324
#     4  10  20  38  59  83 104 142 181 228 269 318
#     4   9  20  38  60  80 107 136 182 230 281 304
#
# _framework density 18.950327999999999
#
# number of rings (size 3 to 8) (size 9 to 14) (size 15 to 20)
#    0.600    1.600    0.000    5.400    0.000    0.800 
#    5.400    1.000    0.000    0.000    0.000    0.000 
#    0.000    0.000    0.000    0.000    0.000    0.000 
#
# Total GULP energy -247816.386146 kJ/mol
# GULP energy per Si atom -12390.819307 kJ/mol
# Density = 1.890720 g / cm^3
# Si number density = 18.950328 Si / 1000 Ang^3
#
#
#
# Elastic Constant Matrix: (Units=GPa)
#
#
# Indices 1 2 3 4 5 6 
#
# 1 68.7203 37.2674 41.3465 0.0000 9.9033 0.0000
# 2 37.2674 104.3011 43.4114 0.0000 1.8753 0.0000
# 3 41.3465 43.4114 115.2874 0.0000 10.2527 0.0000
# 4 0.0000 0.0000 0.0000 17.5414 0.0000 14.7727
# 5 9.9033 1.8753 10.2527 0.0000 29.8517 0.0000
# 6 0.0000 0.0000 0.0000 14.7727 0.0000 23.5943
#
#
#
# Elastic Compliance Matrix: (Units=1/GPa)
#
#
# Indices 1 2 3 4 5 6 
#
# 1 0.021287 -0.005363 -0.005175 0.000000 -0.004948 0.000000
# 2 -0.005363 0.012738 -0.003054 0.000000 0.002028 0.000000
# 3 -0.005175 -0.003054 0.011873 0.000000 -0.002169 0.000000
# 4 0.000000 0.000000 0.000000 0.120599 0.000000 -0.075508
# 5 -0.004948 0.002028 -0.002169 0.000000 0.035758 0.000000
# 6 0.000000 0.000000 0.000000 -0.075508 0.000000 0.089660
#
#
# Mechanical properties :
#
#
# Convention : Reuss Voigt Hill
#
# Bulk Modulus (GPa) = 53.43366 59.15105 56.29235
# Shear Modulus (GPa) = 15.36878 25.28304 20.32591
#
# Velocity S-wave (km/s) = 2.85090 3.65660 3.27859
# Velocity P-wave (km/s) = 6.25258 7.00779 6.64093
#
# Compressibility (1/GPa) = 0.01871480
#
# Stress axis : x y z
#
# Youngs Moduli (GPa) = 46.97787 78.50306 84.22787
#
# Poissons Ratio (x) = 0.42102 0.43586
# Poissons Ratio (y) = 0.25195 0.25719
# Poissons Ratio (z) = 0.24310 0.23971
#
# Static dielectric constant tensor:
#      x y z
#    x 3.559260 0.000000 0.301970 
#    y 0.000000 3.263160 0.000000 
#    z 0.301970 0.000000 3.525040 
# 
# 
# High freq. dielectric constant tensor:
#      x y z
#    x 1.738890 0.000000 0.019870 
#    y 0.000000 1.715520 0.000000 
#    z 0.019870 0.000000 1.724280 
# 
# From -- ./inp_files/57400.got.cif
#   From: 2010.06.25/outbox.cif.g09.slc.cpg/sg15_29_cif.got.tgz:57400.got - 2010.06.28 07:06:18.
