data_PCOD8133801
_publ_section_title
;
Structure prediction by ZEFSAII (Michael W. Deem and Ramdas Pophale) SiO2 
 PCOD8133801
Probable space group: C 2/C
;
_chemical_formula_sum "Si O2"
_cell_formula_units_Z 44
_cell_length_a 11.379687
_cell_length_b 21.879401
_cell_length_c 10.261434
_cell_angle_alpha 90.000000
_cell_angle_beta 126.443545
_cell_angle_gamma 90.000000
_cell_volume 2055.269810
_symmetry_space_group_name_H-M "C 2/C"
_symmetry_group_IT_number 15
_symmetry_cell_setting 'monoclinic'
loop_
_space_group_symop_operation_xyz
x,y,z
-x,y,1/2-z
-x,-y,-z
x,-y,1/2+z
1/2+x,1/2+y,z
1/2-x,1/2+y,1/2-z
1/2-x,1/2-y,-z
1/2+x,1/2-y,1/2+z
loop_
_atom_site_type_symbol
_atom_site_label
_atom_site_fract_x
_atom_site_fract_y
_atom_site_fract_z
Si Si1 0.000000 0.238635 0.750000
Si Si2 0.500000 0.981780 0.250000
Si Si3 0.500767 0.679634 0.029202
Si Si4 0.709575 0.883015 0.320364
Si Si5 0.683970 0.845796 0.791456
Si Si6 0.000000 0.724000 0.750000
Si Si7 0.421575 0.088636 0.035225
O O1 0.980216 0.197900 0.608920
O O2 0.145755 0.279054 0.824378
O O3 0.641364 0.937626 0.360058
O O4 0.490551 0.021635 0.111266
O O5 0.381540 0.625454 0.960716
O O6 0.659346 0.653430 0.176363
O O7 0.457744 0.734801 0.096973
O O8 0.637847 0.817409 0.302510
O O9 0.683021 0.906157 0.155922
O O10 0.676434 0.894668 0.903598
O O11 0.557594 0.864210 0.604173
#
# Coordination Sequence:
#
# PCOD8133801 Si02
#       7
#     4   4   8   8   8   4   8
#     4  10  19  34  57  84 115 162 199 226 274 350
#     4   9  21  38  60  82 108 152 199 245 294 342
#     4  12  22  35  57  89 122 152 192 241 282 337
#     4  11  22  37  60  86 113 155 199 236 284 349
#     4   9  19  34  56  82 112 153 194 236 286 341
#     4  11  24  38  53  86 131 162 178 223 296 358
#     4   9  19  40  60  79 110 151 196 242 291 348
#
# _framework density 21.408380999999999
#
# number of rings (size 3 to 8) (size 9 to 14) (size 15 to 20)
#    0.000    2.182    0.000    6.000    0.000    2.909 
#    0.000    3.636    0.000    4.364    0.000    0.000 
#    0.000    0.000    0.000    0.000    0.000    0.000 
#
# Total GULP energy -272659.682102 kJ/mol
# GULP energy per Si atom -12393.621914 kJ/mol
# Density = 2.135965 g / cm^3
# Si number density = 21.408381 Si / 1000 Ang^3
#
#
#
# Elastic Constant Matrix: (Units=GPa)
#
#
# Indices 1 2 3 4 5 6 
#
# 1 86.2025 36.3442 28.1717 0.0000 29.5033 0.0000
# 2 36.3442 95.5884 21.7287 0.0000 15.2509 0.0000
# 3 28.1717 21.7287 55.8182 0.0000 6.4632 0.0000
# 4 0.0000 0.0000 0.0000 29.4169 0.0000 -0.6561
# 5 29.5033 15.2509 6.4632 0.0000 48.3168 0.0000
# 6 0.0000 0.0000 0.0000 -0.6561 0.0000 3.1950
#
#
#
# Elastic Compliance Matrix: (Units=1/GPa)
#
#
# Indices 1 2 3 4 5 6 
#
# 1 0.018697 -0.004099 -0.006774 0.000000 -0.009217 0.000000
# 2 -0.004099 0.012843 -0.002795 0.000000 -0.001177 0.000000
# 3 -0.006774 -0.002795 0.022184 0.000000 0.002051 0.000000
# 4 0.000000 0.000000 0.000000 0.034150 0.000000 0.007013
# 5 -0.009217 -0.001177 0.002051 0.000000 0.026422 0.000000
# 6 0.000000 0.000000 0.000000 0.007013 0.000000 0.314427
#
#
# Mechanical properties :
#
#
# Convention : Reuss Voigt Hill
#
# Bulk Modulus (GPa) = 37.89225 45.56646 41.72936
# Shear Modulus (GPa) = 10.75607 26.27672 18.51639
#
# Velocity S-wave (km/s) = 2.24391 3.50723 2.94413
# Velocity P-wave (km/s) = 4.94486 6.14260 5.57598
#
# Compressibility (1/GPa) = 0.02639062
#
# Stress axis : x y z
#
# Youngs Moduli (GPa) = 53.48491 77.86380 45.07668
#
# Poissons Ratio (x) = 0.31913 0.30534
# Poissons Ratio (y) = 0.21921 0.12597
# Poissons Ratio (z) = 0.36229 0.21760
#
# Static dielectric constant tensor:
#      x y z
#    x 3.875720 0.000000 0.009850 
#    y 0.000000 3.870550 0.000000 
#    z 0.009850 0.000000 3.705580 
# 
# 
# High freq. dielectric constant tensor:
#      x y z
#    x 1.832220 0.000000 -0.008060 
#    y 0.000000 1.828030 0.000000 
#    z -0.008060 0.000000 1.829500 
# 
# From -- ./inp_files/89237.got.cif
#   From: 2010.06.25/outbox.cif.g09.slc.cpg/sg15_45_cif.got.tgz:89237.got - 2010.06.28 07:06:18.
