data_PCOD8133266
_publ_section_title
;
Structure prediction by ZEFSAII (Michael W. Deem and Ramdas Pophale) SiO2 
 PCOD8133266
Probable space group: C 2/C
;
_chemical_formula_sum "Si O2"
_cell_formula_units_Z 40
_cell_length_a 30.630435
_cell_length_b 5.212788
_cell_length_c 19.742868
_cell_angle_alpha 90.000000
_cell_angle_beta 138.173436
_cell_angle_gamma 90.000000
_cell_volume 2102.228283
_symmetry_space_group_name_H-M "C 2/C"
_symmetry_group_IT_number 15
_symmetry_cell_setting 'monoclinic'
loop_
_space_group_symop_operation_xyz
x,y,z
-x,y,1/2-z
-x,-y,-z
x,-y,1/2+z
1/2+x,1/2+y,z
1/2-x,1/2+y,1/2-z
1/2-x,1/2-y,-z
1/2+x,1/2-y,1/2+z
loop_
_atom_site_type_symbol
_atom_site_label
_atom_site_fract_x
_atom_site_fract_y
_atom_site_fract_z
Si Si1 0.908405 0.920608 0.261254
Si Si2 0.690328 0.529724 0.743872
Si Si3 0.820511 0.158806 0.057841
Si Si4 0.944667 0.413512 0.241452
Si Si5 0.771911 0.971202 0.360961
O O1 0.881813 0.937286 0.307427
O O2 0.946677 0.656793 0.293683
O O3 0.957346 0.158460 0.301667
O O4 0.845470 0.935349 0.137610
O O5 0.718528 0.255852 0.799904
O O6 0.683600 0.545918 0.654969
O O7 0.736557 0.755862 0.824399
O O8 0.819178 0.052553 0.979940
O O9 0.750000 0.250000 0.000000
O O10 0.873498 0.390936 0.122692
O O11 0.000000 0.447557 0.250000
#
# Coordination Sequence:
#
# PCOD8133266 Si02
#       5
#     8   8   8   8   8
#     4  10  20  33  57  74 105 140 176 215 259 312
#     4  10  19  33  47  79 110 143 165 210 269 322
#     4  10  20  33  57  83 106 133 176 227 262 306
#     4  10  22  36  54  78 106 141 178 219 263 313
#     4  10  20  30  50  76 116 136 167 213 269 314
#
# _framework density 19.027428
#
# number of rings (size 3 to 8) (size 9 to 14) (size 15 to 20)
#    1.200    0.800    2.000    3.000    2.800    1.600 
#    0.000    0.000    0.000    2.400    0.000    0.000 
#    0.000    0.000    0.000    0.000    0.000    0.000 
#
# Total GULP energy -247885.949962 kJ/mol
# GULP energy per Si atom -12394.297498 kJ/mol
# Density = 1.898412 g / cm^3
# Si number density = 19.027428 Si / 1000 Ang^3
#
#
#
# Elastic Constant Matrix: (Units=GPa)
#
#
# Indices 1 2 3 4 5 6 
#
# 1 141.0694 22.7731 10.2528 0.0053 8.4303 -0.0281
# 2 22.7731 94.5719 0.8753 0.0097 4.2169 -0.0894
# 3 10.2528 0.8753 25.4746 -0.0018 -1.0830 0.0017
# 4 0.0053 0.0097 -0.0018 11.1382 0.0011 1.8139
# 5 8.4303 4.2169 -1.0830 0.0011 33.0805 -0.0036
# 6 -0.0281 -0.0894 0.0017 1.8139 -0.0036 29.4535
#
#
#
# Elastic Compliance Matrix: (Units=1/GPa)
#
#
# Indices 1 2 3 4 5 6 
#
# 1 0.007707 -0.001745 -0.003120 -0.000003 -0.001844 0.000002
# 2 -0.001745 0.011034 0.000283 -0.000014 -0.000953 0.000033
# 3 -0.003120 0.000283 0.040590 0.000008 0.002088 -0.000005
# 4 -0.000003 -0.000014 0.000008 0.090691 -0.000001 -0.005585
# 5 -0.001844 -0.000953 0.002088 -0.000001 0.030889 -0.000001
# 6 0.000002 0.000033 -0.000005 -0.005585 -0.000001 0.034296
#
#
# Mechanical properties :
#
#
# Convention : Reuss Voigt Hill
#
# Bulk Modulus (GPa) = 19.93388 36.54648 28.24018
# Shear Modulus (GPa) = 20.73881 29.88209 25.31045
#
# Velocity S-wave (km/s) = 3.30501 3.96722 3.65116
# Velocity P-wave (km/s) = 5.00632 6.34303 5.71390
#
# Compressibility (1/GPa) = 0.05016585
#
# Stress axis : x y z
#
# Youngs Moduli (GPa) = 129.74602 90.62882 24.63673
#
# Poissons Ratio (x) = 0.15813 0.07688
# Poissons Ratio (y) = 0.22639 -0.00696
# Poissons Ratio (z) = 0.40486 -0.02561
#
# Static dielectric constant tensor:
#      x y z
#    x 3.730320 -0.000010 -0.254580 
#    y -0.000010 3.550930 0.000010 
#    z -0.254580 0.000010 2.982270 
# 
# 
# High freq. dielectric constant tensor:
#      x y z
#    x 1.756650 0.000000 -0.010050 
#    y 0.000000 1.752660 0.000000 
#    z -0.010050 0.000000 1.673780 
# 
# From -- ./inp_files/253900.got.cif
#   From: 2010.06.25/outbox.cif.g09.slc.cpg/sg15_127_cif.got.tgz:253900.got - 2010.06.28 07:06:18.
