data_PCOD8133633
_publ_section_title
;
Structure prediction by ZEFSAII (Michael W. Deem and Ramdas Pophale) SiO2 
 PCOD8133633
Probable space group: C 2/C
;
_chemical_formula_sum "Si O2"
_cell_formula_units_Z 48
_cell_length_a 15.388746
_cell_length_b 19.119122
_cell_length_c 9.815683
_cell_angle_alpha 90.000000
_cell_angle_beta 115.641239
_cell_angle_gamma 90.000000
_cell_volume 2603.560599
_symmetry_space_group_name_H-M "C 2/C"
_symmetry_group_IT_number 15
_symmetry_cell_setting 'monoclinic'
loop_
_space_group_symop_operation_xyz
x,y,z
-x,y,1/2-z
-x,-y,-z
x,-y,1/2+z
1/2+x,1/2+y,z
1/2-x,1/2+y,1/2-z
1/2-x,1/2-y,-z
1/2+x,1/2-y,1/2+z
loop_
_atom_site_type_symbol
_atom_site_label
_atom_site_fract_x
_atom_site_fract_y
_atom_site_fract_z
Si Si1 0.175280 0.447583 0.522233
Si Si2 0.681837 0.212517 0.054716
Si Si3 0.500000 0.101244 0.750000
Si Si4 0.000000 0.630634 0.250000
Si Si5 0.215638 0.209231 0.109036
Si Si6 0.798885 0.438592 0.656095
Si Si7 0.469784 0.206823 0.947774
O O1 0.208211 0.367856 0.542924
O O2 0.066543 0.448603 0.387899
O O3 0.186282 0.473159 0.685196
O O4 0.238060 0.499979 0.470322
O O5 0.707586 0.232388 0.226242
O O6 0.750000 0.250000 0.000000
O O7 0.571002 0.234619 0.952859
O O8 0.435835 0.148472 0.813561
O O9 0.903006 0.586297 0.175762
O O10 0.998959 0.676178 0.385753
O O11 0.221276 0.124950 0.094359
O O12 0.108464 0.232102 0.084028
O O13 0.250000 0.250000 0.000000
#
# Coordination Sequence:
#
# PCOD8133633 Si02
#       7
#     8   8   4   4   8   8   8
#     4  10  22  35  50  80 114 149 186 227 281 348
#     4  10  21  39  56  84 112 144 192 238 282 335
#     4  10  19  34  52  80 106 155 182 232 293 338
#     4  12  19  36  54  82 118 147 182 230 279 350
#     4  11  20  34  57  81 112 152 186 229 281 333
#     4  11  23  35  52  81 117 155 183 231 282 344
#     4  11  20  35  57  85 115 144 190 234 280 336
#
# _framework density 18.43629
#
# number of rings (size 3 to 8) (size 9 to 14) (size 15 to 20)
#    0.000    1.333    6.667    2.500    2.333    2.667 
#    0.000    0.000    0.000    1.000    0.000    2.333 
#    0.000    0.000    0.000    0.000    0.000    0.000 
#
# Total GULP energy -297355.332898 kJ/mol
# GULP energy per Si atom -12389.805537 kJ/mol
# Density = 1.839433 g / cm^3
# Si number density = 18.436290 Si / 1000 Ang^3
#
#
#
# Elastic Constant Matrix: (Units=GPa)
#
#
# Indices 1 2 3 4 5 6 
#
# 1 94.7925 54.0793 25.9953 0.0000 -4.8080 0.0000
# 2 54.0793 82.4881 49.4850 0.0000 -7.9686 0.0000
# 3 25.9953 49.4850 107.7824 0.0000 -15.3825 0.0000
# 4 0.0000 0.0000 0.0000 28.5448 0.0000 -5.5978
# 5 -4.8080 -7.9686 -15.3825 0.0000 25.2730 0.0000
# 6 0.0000 0.0000 0.0000 -5.5978 0.0000 28.4187
#
#
#
# Elastic Compliance Matrix: (Units=1/GPa)
#
#
# Indices 1 2 3 4 5 6 
#
# 1 0.017008 -0.011987 0.001450 0.000000 0.000338 0.000000
# 2 -0.011987 0.025190 -0.008614 0.000000 0.000419 0.000000
# 3 0.001450 -0.008614 0.013727 0.000000 0.005915 0.000000
# 4 0.000000 0.000000 0.000000 0.036440 0.000000 0.007178
# 5 0.000338 0.000419 0.005915 0.000000 0.043365 0.000000
# 6 0.000000 0.000000 0.000000 0.007178 0.000000 0.036602
#
#
# Mechanical properties :
#
#
# Convention : Reuss Voigt Hill
#
# Bulk Modulus (GPa) = 56.74807 60.46468 58.60638
# Shear Modulus (GPa) = 23.09363 26.81419 24.95391
#
# Velocity S-wave (km/s) = 3.54307 3.81783 3.68301
# Velocity P-wave (km/s) = 6.89821 7.23202 7.06709
#
# Compressibility (1/GPa) = 0.01762174
#
# Stress axis : x y z
#
# Youngs Moduli (GPa) = 58.79662 39.69791 72.84684
#
# Poissons Ratio (x) = 0.47588 -0.10563
# Poissons Ratio (y) = 0.70482 0.62753
# Poissons Ratio (z) = -0.08526 0.34197
#
# Static dielectric constant tensor:
#      x y z
#    x 3.353590 0.000000 -0.089470 
#    y 0.000000 3.413160 0.000000 
#    z -0.089470 0.000000 3.943740 
# 
# 
# High freq. dielectric constant tensor:
#      x y z
#    x 1.684800 0.000000 -0.022950 
#    y 0.000000 1.697820 0.000000 
#    z -0.022950 0.000000 1.740990 
# 
# From -- ./inp_files/40711.got.cif
#   From: 2010.06.25/outbox.cif.g09.slc.cpg/sg15_21_cif.got.tgz:40711.got - 2010.06.28 07:06:18.
