data_PCOD8133515
_publ_section_title
;
Structure prediction by ZEFSAII (Michael W. Deem and Ramdas Pophale) SiO2 
 PCOD8133515
Probable space group: C 2/C
;
_chemical_formula_sum "Si O2"
_cell_formula_units_Z 64
_cell_length_a 17.281521
_cell_length_b 6.255446
_cell_length_c 30.088933
_cell_angle_alpha 90.000000
_cell_angle_beta 99.793513
_cell_angle_gamma 90.000000
_cell_volume 3205.321226
_symmetry_space_group_name_H-M "C 2/C"
_symmetry_group_IT_number 15
_symmetry_cell_setting 'monoclinic'
loop_
_space_group_symop_operation_xyz
x,y,z
-x,y,1/2-z
-x,-y,-z
x,-y,1/2+z
1/2+x,1/2+y,z
1/2-x,1/2+y,1/2-z
1/2-x,1/2-y,-z
1/2+x,1/2-y,1/2+z
loop_
_atom_site_type_symbol
_atom_site_label
_atom_site_fract_x
_atom_site_fract_y
_atom_site_fract_z
Si Si1 0.531652 0.245833 0.642710
Si Si2 0.170539 0.159530 0.842773
Si Si3 0.910892 0.050019 0.581342
Si Si4 0.197455 0.085755 0.184009
Si Si5 0.520077 0.932291 0.568065
Si Si6 0.941292 0.490306 0.706838
Si Si7 0.798873 0.230485 0.217228
Si Si8 0.943062 0.191407 0.006109
O O1 0.478322 0.407261 0.610191
O O2 0.606711 0.382570 0.664812
O O3 0.557660 0.037487 0.616006
O O4 0.485138 0.165215 0.681126
O O5 0.249703 0.298147 0.848187
O O6 0.091112 0.293920 0.825434
O O7 0.162541 0.073390 0.892437
O O8 0.174135 0.971861 0.807724
O O9 0.946137 0.281789 0.573065
O O10 0.880187 0.919189 0.533979
O O11 0.221553 0.177040 0.234305
O O12 0.220691 0.834377 0.187049
O O13 0.584028 0.796190 0.544163
O O14 0.489572 0.125946 0.535869
O O15 0.868209 0.596839 0.724642
O O16 0.000000 0.399723 0.750000
O O17 0.000000 0.000000 0.000000
#
# Coordination Sequence:
#
# PCOD8133515 Si02
#       8
#     8   8   8   8   8   8   8   8
#     4  11  21  35  56  85 111 144 195 245 285 339
#     4  11  23  38  54  79 113 153 192 239 290 347
#     4  10  19  33  57  86 112 147 189 233 287 342
#     4  11  24  37  56  76 110 154 195 239 290 344
#     4   9  17  33  54  86 120 141 182 236 288 341
#     4  11  22  35  57  81 109 146 198 248 294 335
#     4  11  22  40  53  76 110 152 197 238 290 348
#     4   8  16  30  55  87 118 147 175 229 289 354
#
# _framework density 19.966795999999999
#
# number of rings (size 3 to 8) (size 9 to 14) (size 15 to 20)
#    0.000    1.750    5.000    0.000    0.000    2.500 
#    0.000    0.000    0.000    0.750    0.000   30.625 
#    0.000    0.000    0.000    0.000    0.000    0.000 
#
# Total GULP energy -396467.672803 kJ/mol
# GULP energy per Si atom -12389.614775 kJ/mol
# Density = 1.992135 g / cm^3
# Si number density = 19.966796 Si / 1000 Ang^3
#
#
#
# Elastic Constant Matrix: (Units=GPa)
#
#
# Indices 1 2 3 4 5 6 
#
# 1 67.7025 21.1392 20.3349 0.0000 -13.4348 0.0000
# 2 21.1392 79.7044 23.1928 0.0000 -8.8604 0.0000
# 3 20.3349 23.1928 74.1565 0.0000 -30.5783 0.0000
# 4 0.0000 0.0000 0.0000 33.6460 0.0000 -4.9861
# 5 -13.4348 -8.8604 -30.5783 0.0000 25.9912 0.0000
# 6 0.0000 0.0000 0.0000 -4.9861 0.0000 19.8590
#
#
#
# Elastic Compliance Matrix: (Units=1/GPa)
#
#
# Indices 1 2 3 4 5 6 
#
# 1 0.017515 -0.003639 -0.000861 0.000000 0.006800 0.000000
# 2 -0.003639 0.014566 -0.004439 0.000000 -0.002138 0.000000
# 3 -0.000861 -0.004439 0.027777 0.000000 0.030722 0.000000
# 4 0.000000 0.000000 0.000000 0.030870 0.000000 0.007751
# 5 0.006800 -0.002138 0.030722 0.000000 0.077404 0.000000
# 6 0.000000 0.000000 0.000000 0.007751 0.000000 0.052301
#
#
# Mechanical properties :
#
#
# Convention : Reuss Voigt Hill
#
# Bulk Modulus (GPa) = 23.82096 38.98857 31.40477
# Shear Modulus (GPa) = 19.81739 26.35900 23.08820
#
# Velocity S-wave (km/s) = 3.15384 3.63732 3.40417
# Velocity P-wave (km/s) = 5.02180 6.09993 5.58693
#
# Compressibility (1/GPa) = 0.04197983
#
# Stress axis : x y z
#
# Youngs Moduli (GPa) = 57.09516 68.65526 36.00041
#
# Poissons Ratio (x) = 0.24982 0.03098
# Poissons Ratio (y) = 0.20776 0.15982
# Poissons Ratio (z) = 0.04914 0.30479
#
# Static dielectric constant tensor:
#      x y z
#    x 3.258250 0.000000 -0.431040 
#    y 0.000000 4.059300 0.000000 
#    z -0.431040 0.000000 4.196300 
# 
# 
# High freq. dielectric constant tensor:
#      x y z
#    x 1.728830 0.000000 -0.039260 
#    y 0.000000 1.801860 0.000000 
#    z -0.039260 0.000000 1.787440 
# 
# From -- ./inp_files/315090.got.cif
#   From: 2010.06.25/outbox.cif.g09.slc.cpg/sg15_158_cif.got.tgz:315090.got - 2010.06.28 07:06:18.
