data_PCOD8133628
_publ_section_title
;
Structure prediction by ZEFSAII (Michael W. Deem and Ramdas Pophale) SiO2 
 PCOD8133628
Probable space group: C 2/C
;
_chemical_formula_sum "Si O2"
_cell_formula_units_Z 48
_cell_length_a 15.396979
_cell_length_b 26.889740
_cell_length_c 13.430864
_cell_angle_alpha 90.000000
_cell_angle_beta 29.270050
_cell_angle_gamma 90.000000
_cell_volume 2718.752519
_symmetry_space_group_name_H-M "C 2/C"
_symmetry_group_IT_number 15
_symmetry_cell_setting 'monoclinic'
loop_
_space_group_symop_operation_xyz
x,y,z
-x,y,1/2-z
-x,-y,-z
x,-y,1/2+z
1/2+x,1/2+y,z
1/2-x,1/2+y,1/2-z
1/2-x,1/2-y,-z
1/2+x,1/2-y,1/2+z
loop_
_atom_site_type_symbol
_atom_site_label
_atom_site_fract_x
_atom_site_fract_y
_atom_site_fract_z
Si Si1 0.297360 0.306340 0.679979
Si Si2 0.000051 0.442837 0.026240
Si Si3 0.500097 0.859809 0.865049
Si Si4 0.702949 0.388253 0.432793
Si Si5 0.297125 0.306323 0.225506
Si Si6 0.702839 0.611736 0.161442
O O1 0.174427 0.327314 0.714952
O O2 0.500127 0.311614 0.441355
O O3 0.250089 0.250011 0.752337
O O4 0.260871 0.336748 0.817583
O O5 0.825158 0.431499 0.265852
O O6 0.000059 0.411326 0.924837
O O7 0.174989 0.431516 0.915992
O O8 0.000000 0.500000 0.000000
O O9 0.500000 0.873734 0.750000
O O10 0.325862 0.827285 0.063567
O O11 0.739273 0.336731 0.339224
O O12 0.500063 0.405947 0.623288
O O13 0.752673 0.378646 0.497346
#
# Coordination Sequence:
#
# PCOD8133628 Si02
#       6
#     8   8   8   8   8   8
#     4  10  19  34  52  76 109 141 177 215 258 311
#     4  10  21  37  58  79 105 138 177 226 272 313
#     4  10  22  37  52  75 106 142 183 222 259 309
#     4   9  19  35  55  80 109 138 171 214 266 323
#     4  10  19  34  52  76 109 141 177 215 258 311
#     4   9  19  35  55  80 109 138 171 214 266 323
#
# _framework density 17.655156000000002
#
# number of rings (size 3 to 8) (size 9 to 14) (size 15 to 20)
#    0.000    2.333    1.667    0.500    0.000    4.000 
#    0.000    0.000    0.000    0.000    0.000    0.000 
#    0.000    0.000    0.000    0.000    0.000    0.000 
#
# Total GULP energy -297662.402167 kJ/mol
# GULP energy per Si atom -12402.600090 kJ/mol
# Density = 1.761497 g / cm^3
# Si number density = 17.655156 Si / 1000 Ang^3
#
#
#
# Elastic Constant Matrix: (Units=GPa)
#
#
# Indices 1 2 3 4 5 6 
#
# 1 121.3508 50.7432 72.8679 0.0013 5.1338 -0.0007
# 2 50.7432 129.7024 54.4250 0.0006 -4.6415 -0.0003
# 3 72.8679 54.4250 119.9383 0.0000 -3.6143 -0.0006
# 4 0.0013 0.0006 0.0000 18.0343 0.0002 -3.3076
# 5 5.1338 -4.6415 -3.6143 0.0002 32.9096 -0.0001
# 6 -0.0007 -0.0003 -0.0006 -3.3076 -0.0001 15.3604
#
#
#
# Elastic Compliance Matrix: (Units=1/GPa)
#
#
# Indices 1 2 3 4 5 6 
#
# 1 0.013845 -0.002426 -0.007411 -0.000001 -0.003316 0.000000
# 2 -0.002426 0.009973 -0.003008 0.000000 0.001455 0.000000
# 3 -0.007411 -0.003008 0.014274 0.000001 0.002299 0.000000
# 4 -0.000001 0.000000 0.000001 0.057730 0.000000 0.012431
# 5 -0.003316 0.001455 0.002299 0.000000 0.031361 0.000000
# 6 0.000000 0.000000 0.000000 0.012431 0.000000 0.067779
#
#
# Mechanical properties :
#
#
# Convention : Reuss Voigt Hill
#
# Bulk Modulus (GPa) = 80.62125 80.78487 80.70306
# Shear Modulus (GPa) = 22.24333 26.12455 24.18394
#
# Velocity S-wave (km/s) = 3.55333 3.85088 3.70509
# Velocity P-wave (km/s) = 7.91191 8.10116 8.00710
#
# Compressibility (1/GPa) = 0.01240368
#
# Stress axis : x y z
#
# Youngs Moduli (GPa) = 72.22794 100.26859 70.05611
#
# Poissons Ratio (x) = 0.24321 0.51917
# Poissons Ratio (y) = 0.17519 0.21074
# Poissons Ratio (z) = 0.53526 0.30162
#
# Static dielectric constant tensor:
#      x y z
#    x 3.316980 0.000000 -0.232790 
#    y 0.000000 3.062690 0.000000 
#    z -0.232790 0.000000 3.505000 
# 
# 
# High freq. dielectric constant tensor:
#      x y z
#    x 1.684920 0.000000 -0.013300 
#    y 0.000000 1.669030 0.000000 
#    z -0.013300 0.000000 1.695670 
# 
# From -- ./inp_files/101247.got.cif
#   From: 2010.06.25/outbox.cif.g09.slc.cpg/sg15_51_cif.got.tgz:101247.got - 2010.06.28 07:06:18.
