data_PCOD8133004
_publ_section_title
;
Structure prediction by ZEFSAII (Michael W. Deem and Ramdas Pophale) SiO2 
 PCOD8133004
Probable space group: C 2/C
;
_chemical_formula_sum "Si O2"
_cell_formula_units_Z 36
_cell_length_a 13.929923
_cell_length_b 31.565898
_cell_length_c 5.213261
_cell_angle_alpha 90.000000
_cell_angle_beta 120.697774
_cell_angle_gamma 90.000000
_cell_volume 1971.106970
_symmetry_space_group_name_H-M "C 2/C"
_symmetry_group_IT_number 15
_symmetry_cell_setting 'monoclinic'
loop_
_space_group_symop_operation_xyz
x,y,z
-x,y,1/2-z
-x,-y,-z
x,-y,1/2+z
1/2+x,1/2+y,z
1/2-x,1/2+y,1/2-z
1/2-x,1/2-y,-z
1/2+x,1/2-y,1/2+z
loop_
_atom_site_type_symbol
_atom_site_label
_atom_site_fract_x
_atom_site_fract_y
_atom_site_fract_z
Si Si1 0.500000 0.721685 0.750000
Si Si2 0.875454 0.017609 0.880316
Si Si3 0.561461 0.803110 0.588043
Si Si4 0.305166 0.339908 0.917722
Si Si5 0.374514 0.615096 0.027779
O O1 0.552561 0.751845 0.599729
O O2 0.403189 0.693371 0.492957
O O3 0.814462 0.009423 0.524104
O O4 0.873552 0.065962 0.958693
O O5 0.000000 0.000000 0.000000
O O6 0.500000 0.824621 0.750000
O O7 0.689600 0.815491 0.753547
O O8 0.500000 0.819382 0.250000
O O9 0.305600 0.375462 0.694009
O O10 0.321745 0.360079 0.218826
O O11 0.500000 0.630525 0.250000
#
# Coordination Sequence:
#
# PCOD8133004 Si02
#       5
#     4   8   8   8   8
#     4  10  24  36  62  80 114 152 192 244 302 334
#     4  10  19  31  53  75 118 163 173 208 269 363
#     4  10  24  41  60  78 109 154 207 242 290 328
#     4  12  24  38  57  86 119 148 201 238 285 346
#     4  12  22  35  54  86 121 159 176 227 288 341
#
# _framework density 18.263850999999999
#
# number of rings (size 3 to 8) (size 9 to 14) (size 15 to 20)
#    0.667    0.444    4.444    3.333    6.222    0.889 
#    0.000    0.000    0.000    0.000    0.000    0.000 
#    0.000   62.222    0.000    0.000    0.000    0.000 
#
# Total GULP energy -223071.322498 kJ/mol
# GULP energy per Si atom -12392.851250 kJ/mol
# Density = 1.822228 g / cm^3
# Si number density = 18.263851 Si / 1000 Ang^3
#
#
#
# Elastic Constant Matrix: (Units=GPa)
#
#
# Indices 1 2 3 4 5 6 
#
# 1 100.1894 49.6990 63.8654 0.0000 -3.8005 0.0000
# 2 49.6990 89.0042 50.2843 0.0000 8.1664 0.0000
# 3 63.8654 50.2843 139.3652 0.0000 -19.7445 0.0000
# 4 0.0000 0.0000 0.0000 12.0548 0.0000 -10.7291
# 5 -3.8005 8.1664 -19.7445 0.0000 43.9404 0.0000
# 6 0.0000 0.0000 0.0000 -10.7291 0.0000 26.6980
#
#
#
# Elastic Compliance Matrix: (Units=1/GPa)
#
#
# Indices 1 2 3 4 5 6 
#
# 1 0.016423 -0.006225 -0.005249 0.000000 0.000219 0.000000
# 2 -0.006225 0.017702 -0.004354 0.000000 -0.005785 0.000000
# 3 -0.005249 -0.004354 0.011964 0.000000 0.005731 0.000000
# 4 0.000000 0.000000 0.000000 0.129148 0.000000 0.051901
# 5 0.000219 -0.005785 0.005731 0.000000 0.026427 0.000000
# 6 0.000000 0.000000 0.000000 0.051901 0.000000 0.058314
#
#
# Mechanical properties :
#
#
# Convention : Reuss Voigt Hill
#
# Bulk Modulus (GPa) = 69.28628 72.91738 71.10183
# Shear Modulus (GPa) = 16.86649 27.51930 22.19290
#
# Velocity S-wave (km/s) = 3.04220 3.88592 3.48965
# Velocity P-wave (km/s) = 7.09638 7.75531 7.43315
#
# Compressibility (1/GPa) = 0.01443287
#
# Stress axis : x y z
#
# Youngs Moduli (GPa) = 60.88868 56.49057 83.58621
#
# Poissons Ratio (x) = 0.35166 0.43875
# Poissons Ratio (y) = 0.37904 0.36392
# Poissons Ratio (z) = 0.31961 0.24595
#
# Static dielectric constant tensor:
#      x y z
#    x 2.787570 0.000000 0.250490 
#    y 0.000000 3.314290 0.000000 
#    z 0.250490 0.000000 2.798240 
# 
# 
# High freq. dielectric constant tensor:
#      x y z
#    x 1.688530 0.000000 -0.036940 
#    y 0.000000 1.701160 0.000000 
#    z -0.036940 0.000000 1.710230 
# 
# From -- ./inp_files/8568.got.cif
#   From: 2010.06.25/outbox.cif.g09.slc.cpg/sg15_5_cif.got.tgz:8568.got - 2010.06.28 07:06:18.
