data_PCOD8133648
_publ_section_title
;
Structure prediction by ZEFSAII (Michael W. Deem and Ramdas Pophale) SiO2 
 PCOD8133648
Probable space group: C 2/C
;
_chemical_formula_sum "Si O2"
_cell_formula_units_Z 56
_cell_length_a 30.669884
_cell_length_b 6.479240
_cell_length_c 18.375405
_cell_angle_alpha 90.000000
_cell_angle_beta 130.127912
_cell_angle_gamma 90.000000
_cell_volume 2791.976035
_symmetry_space_group_name_H-M "C 2/C"
_symmetry_group_IT_number 15
_symmetry_cell_setting 'monoclinic'
loop_
_space_group_symop_operation_xyz
x,y,z
-x,y,1/2-z
-x,-y,-z
x,-y,1/2+z
1/2+x,1/2+y,z
1/2-x,1/2+y,1/2-z
1/2-x,1/2-y,-z
1/2+x,1/2-y,1/2+z
loop_
_atom_site_type_symbol
_atom_site_label
_atom_site_fract_x
_atom_site_fract_y
_atom_site_fract_z
Si Si1 0.546010 0.076044 0.661857
Si Si2 0.438089 0.403771 0.939009
Si Si3 0.418921 0.048043 0.019047
Si Si4 0.377469 0.803532 0.845148
Si Si5 0.877191 0.590661 0.625121
Si Si6 0.705810 0.184373 0.367412
Si Si7 0.292834 0.434898 0.532785
O O1 0.572127 0.255375 0.640358
O O2 0.565089 0.112956 0.765521
O O3 0.477965 0.079141 0.583257
O O4 0.571729 0.863818 0.656607
O O5 0.388186 0.571274 0.882392
O O6 0.500000 0.500000 0.000000
O O7 0.431386 0.283028 0.008573
O O8 0.390368 0.038511 0.066893
O O9 0.376036 0.946938 0.914671
O O10 0.316333 0.823182 0.739237
O O11 0.832660 0.456077 0.621881
O O12 0.853385 0.822258 0.581196
O O13 0.703625 0.421723 0.391489
O O14 0.769558 0.083684 0.441975
O O15 0.250000 0.250000 0.500000
#
# Coordination Sequence:
#
# PCOD8133648 Si02
#       7
#     8   8   8   8   8   8   8
#     4  10  19  34  53  80 113 156 189 219 268 338
#     4  11  18  33  54  75 111 158 195 221 266 332
#     4  11  21  33  52  82 120 153 182 230 276 329
#     4  10  19  34  56  80 108 148 197 227 266 337
#     4  10  21  34  55  83 117 144 184 238 286 330
#     4   9  19  36  61  83 102 143 193 235 285 344
#     4   9  18  37  61  81 103 136 183 240 289 338
#
# _framework density 20.057478
#
# number of rings (size 3 to 8) (size 9 to 14) (size 15 to 20)
#    0.000    2.000    2.857    2.143    0.000    2.286 
#    0.000    0.000    9.429    0.000    0.000    0.000 
#    0.000    0.000    0.000    0.000    0.000    0.000 
#
# Total GULP energy -347094.454207 kJ/mol
# GULP energy per Si atom -12396.230507 kJ/mol
# Density = 2.001183 g / cm^3
# Si number density = 20.057478 Si / 1000 Ang^3
#
#
#
# Elastic Constant Matrix: (Units=GPa)
#
#
# Indices 1 2 3 4 5 6 
#
# 1 30.8647 17.7061 28.5079 -0.0001 -13.2717 0.0000
# 2 17.7061 111.2183 42.7650 -0.0008 -3.3855 -0.0004
# 3 28.5079 42.7650 159.1570 0.0002 -6.8221 -0.0003
# 4 -0.0001 -0.0008 0.0002 29.5876 0.0000 3.7052
# 5 -13.2717 -3.3855 -6.8221 0.0000 26.1378 -0.0002
# 6 0.0000 -0.0004 -0.0003 3.7052 -0.0002 24.1531
#
#
#
# Elastic Compliance Matrix: (Units=1/GPa)
#
#
# Indices 1 2 3 4 5 6 
#
# 1 0.051899 -0.004856 -0.006967 0.000000 0.023905 0.000000
# 2 -0.004856 0.010491 -0.002019 0.000000 -0.001634 0.000000
# 3 -0.006967 -0.002019 0.008000 0.000000 -0.001711 0.000000
# 4 0.000000 0.000000 0.000000 0.034460 0.000000 -0.005286
# 5 0.023905 -0.001634 -0.001711 0.000000 0.049738 0.000000
# 6 0.000000 0.000000 0.000000 -0.005286 0.000000 0.042213
#
#
# Mechanical properties :
#
#
# Convention : Reuss Voigt Hill
#
# Bulk Modulus (GPa) = 23.41558 53.24422 38.32990
# Shear Modulus (GPa) = 20.94498 30.12644 25.53571
#
# Velocity S-wave (km/s) = 3.23499 3.87978 3.57196
# Velocity P-wave (km/s) = 5.06489 6.83181 6.01360
#
# Compressibility (1/GPa) = 0.04270660
#
# Stress axis : x y z
#
# Youngs Moduli (GPa) = 19.26828 95.31922 124.99755
#
# Poissons Ratio (x) = 0.46286 0.87081
# Poissons Ratio (y) = 0.09357 0.25239
# Poissons Ratio (z) = 0.13423 0.19246
#
# Static dielectric constant tensor:
#      x y z
#    x 3.222210 0.000000 0.235870 
#    y 0.000000 4.014240 0.000000 
#    z 0.235870 0.000000 4.022170 
# 
# 
# High freq. dielectric constant tensor:
#      x y z
#    x 1.730210 0.000000 0.012170 
#    y 0.000000 1.792110 0.000000 
#    z 0.012170 0.000000 1.797590 
# 
# From -- ./inp_files/223951.got.cif
#   From: 2010.06.25/outbox.cif.g09.slc.cpg/sg15_112_cif.got.tgz:223951.got - 2010.06.28 07:06:18.
