data_PCOD8133788
_publ_section_title
;
Structure prediction by ZEFSAII (Michael W. Deem and Ramdas Pophale) SiO2 
 PCOD8133788
Probable space group: C 2/C
;
_chemical_formula_sum "Si O2"
_cell_formula_units_Z 60
_cell_length_a 9.150654
_cell_length_b 23.506633
_cell_length_c 24.767104
_cell_angle_alpha 90.000000
_cell_angle_beta 38.713941
_cell_angle_gamma 90.000000
_cell_volume 3331.948304
_symmetry_space_group_name_H-M "C 2/C"
_symmetry_group_IT_number 15
_symmetry_cell_setting 'monoclinic'
loop_
_space_group_symop_operation_xyz
x,y,z
-x,y,1/2-z
-x,-y,-z
x,-y,1/2+z
1/2+x,1/2+y,z
1/2-x,1/2+y,1/2-z
1/2-x,1/2-y,-z
1/2+x,1/2-y,1/2+z
loop_
_atom_site_type_symbol
_atom_site_label
_atom_site_fract_x
_atom_site_fract_y
_atom_site_fract_z
Si Si1 0.851239 0.133887 0.154204
Si Si2 0.179145 0.810306 0.998464
Si Si3 0.097516 0.505165 0.383020
Si Si4 0.267862 0.351908 0.406253
Si Si5 0.176840 0.570334 0.463535
Si Si6 0.992147 0.761580 0.554077
Si Si7 0.478010 0.108376 0.344323
Si Si8 0.500000 0.578132 0.750000
O O1 0.859177 0.200791 0.137287
O O2 0.725601 0.128093 0.248129
O O3 0.710856 0.099726 0.148659
O O4 0.111412 0.110266 0.081367
O O5 0.985794 0.799553 0.007570
O O6 0.400291 0.843430 0.909151
O O7 0.250000 0.750000 0.000000
O O8 0.094136 0.843573 0.076587
O O9 0.237532 0.536944 0.390881
O O10 0.004824 0.547670 0.364658
O O11 0.272865 0.460504 0.304303
O O12 0.872390 0.473491 0.473411
O O13 0.164577 0.294214 0.409871
O O14 0.457342 0.380983 0.313240
O O15 0.052604 0.392829 0.480785
O O16 0.250000 0.750000 0.500000
#
# Coordination Sequence:
#
# PCOD8133788 Si02
#       8
#     8   8   8   8   8   8   8   4
#     4  10  21  34  56  82 111 143 186 229 288 336
#     4   9  19  34  56  79 111 144 183 228 279 337
#     4  10  20  35  56  80 111 142 196 229 279 331
#     4  10  19  36  57  81 112 148 190 229 285 336
#     4  10  19  34  57  82 107 147 187 233 275 339
#     4  10  19  34  58  84 110 147 186 228 283 344
#     4  10  20  36  53  80 112 141 183 237 277 334
#     4  10  22  34  58  84 108 152 190 238 278 334
#
# _framework density 18.007482
#
# number of rings (size 3 to 8) (size 9 to 14) (size 15 to 20)
#    0.000    2.133    2.667    0.800    0.000    3.733 
#    0.000    0.000    2.933    2.400    0.000    0.000 
#    0.000    0.000    0.000    0.000    0.000    0.000 
#
# Total GULP energy -371859.371485 kJ/mol
# GULP energy per Si atom -12395.312383 kJ/mol
# Density = 1.796650 g / cm^3
# Si number density = 18.007482 Si / 1000 Ang^3
#
#
#
# Elastic Constant Matrix: (Units=GPa)
#
#
# Indices 1 2 3 4 5 6 
#
# 1 80.9843 44.8623 52.4961 -0.0048 8.7501 -0.0021
# 2 44.8623 109.9930 53.8569 -0.0013 15.5920 -0.0021
# 3 52.4961 53.8569 103.7470 -0.0061 17.4622 0.0033
# 4 -0.0048 -0.0013 -0.0061 35.6128 0.0056 4.2790
# 5 8.7501 15.5920 17.4622 0.0056 23.1394 -0.0016
# 6 -0.0021 -0.0021 0.0033 4.2790 -0.0016 34.7395
#
#
#
# Elastic Compliance Matrix: (Units=1/GPa)
#
#
# Indices 1 2 3 4 5 6 
#
# 1 0.019791 -0.004368 -0.007999 0.000001 0.001495 0.000002
# 2 -0.004368 0.013475 -0.004049 0.000000 -0.004373 0.000001
# 3 -0.007999 -0.004049 0.016976 0.000003 -0.007058 -0.000003
# 4 0.000001 0.000000 0.000003 0.028502 -0.000010 -0.003511
# 5 0.001495 -0.004373 -0.007058 -0.000010 0.050924 0.000004
# 6 0.000002 0.000001 -0.000003 -0.003511 0.000004 0.029218
#
#
# Mechanical properties :
#
#
# Convention : Reuss Voigt Hill
#
# Bulk Modulus (GPa) = 57.43340 66.35052 61.89196
# Shear Modulus (GPa) = 25.31380 28.26558 26.78969
#
# Velocity S-wave (km/s) = 3.75338 3.96619 3.86125
# Velocity P-wave (km/s) = 7.12371 7.60922 7.37047
#
# Compressibility (1/GPa) = 0.01741147
#
# Stress axis : x y z
#
# Youngs Moduli (GPa) = 50.52834 74.20913 58.90605
#
# Poissons Ratio (x) = 0.32411 0.47117
# Poissons Ratio (y) = 0.22068 0.23853
# Poissons Ratio (z) = 0.40416 0.30050
#
# Static dielectric constant tensor:
#      x y z
#    x 3.460600 0.000000 0.295740 
#    y 0.000000 3.586740 0.000000 
#    z 0.295740 0.000000 3.408270 
# 
# 
# High freq. dielectric constant tensor:
#      x y z
#    x 1.684740 0.000000 0.018710 
#    y 0.000000 1.711270 0.000000 
#    z 0.018710 0.000000 1.691360 
# 
# From -- ./inp_files/137399.got.cif
#   From: 2010.06.25/outbox.cif.g09.slc.cpg/sg15_69_cif.got.tgz:137399.got - 2010.06.28 07:06:18.
