data_PCOD8133291
_publ_section_title
;
Structure prediction by ZEFSAII (Michael W. Deem and Ramdas Pophale) SiO2 
 PCOD8133291
Probable space group: C 2/C
;
_chemical_formula_sum "Si O2"
_cell_formula_units_Z 56
_cell_length_a 21.647434
_cell_length_b 7.762170
_cell_length_c 23.760469
_cell_angle_alpha 90.000000
_cell_angle_beta 50.337577
_cell_angle_gamma 90.000000
_cell_volume 3073.497226
_symmetry_space_group_name_H-M "C 2/C"
_symmetry_group_IT_number 15
_symmetry_cell_setting 'monoclinic'
loop_
_space_group_symop_operation_xyz
x,y,z
-x,y,1/2-z
-x,-y,-z
x,-y,1/2+z
1/2+x,1/2+y,z
1/2-x,1/2+y,1/2-z
1/2-x,1/2-y,-z
1/2+x,1/2-y,1/2+z
loop_
_atom_site_type_symbol
_atom_site_label
_atom_site_fract_x
_atom_site_fract_y
_atom_site_fract_z
Si Si1 0.568852 0.514509 0.672982
Si Si2 0.051567 0.377117 0.170143
Si Si3 0.600471 0.517815 0.529597
Si Si4 0.735729 0.393848 0.089847
Si Si5 0.481533 0.848203 0.433991
Si Si6 0.780187 0.476120 0.945689
Si Si7 0.104523 0.651275 0.952238
O O1 0.500000 0.612344 0.750000
O O2 0.537426 0.324097 0.682243
O O3 0.580651 0.593199 0.603559
O O4 0.653913 0.513164 0.657443
O O5 0.015905 0.429302 0.130045
O O6 0.146388 0.412830 0.121242
O O7 0.000000 0.468747 0.250000
O O8 0.552855 0.345412 0.542385
O O9 0.694411 0.463486 0.471185
O O10 0.579146 0.675028 0.500408
O O11 0.703095 0.217830 0.082121
O O12 0.798191 0.366056 0.104609
O O13 0.780709 0.497017 0.013373
O O14 0.571494 0.836278 0.407751
O O15 0.429210 0.976795 0.501550
#
# Coordination Sequence:
#
# PCOD8133291 Si02
#       7
#     8   8   8   8   8   8   8
#     4   9  19  31  49  79 101 134 170 211 267 301
#     4  10  20  33  50  74 104 133 169 215 258 311
#     4   9  19  33  53  75 103 133 170 220 254 297
#     4   9  17  30  50  72 104 126 165 221 248 300
#     4  10  20  32  53  75 101 137 164 210 255 295
#     4   9  17  30  49  77  96 127 170 213 262 294
#     4  10  19  33  51  78 102 128 175 206 248 311
#
# _framework density 18.220286999999999
#
# number of rings (size 3 to 8) (size 9 to 14) (size 15 to 20)
#    0.000    2.571    1.429    1.286    2.000    2.286 
#    0.000    0.000    0.000   12.000    0.000    0.000 
#    0.000    0.000    0.000    0.000    0.000    0.000 
#
# Total GULP energy -346901.881886 kJ/mol
# GULP energy per Si atom -12389.352925 kJ/mol
# Density = 1.817882 g / cm^3
# Si number density = 18.220287 Si / 1000 Ang^3
#
#
#
# Elastic Constant Matrix: (Units=GPa)
#
#
# Indices 1 2 3 4 5 6 
#
# 1 135.8474 15.6422 49.4880 0.0064 -4.5689 -0.0121
# 2 15.6422 41.5670 2.9551 0.0154 3.3544 -0.0198
# 3 49.4880 2.9551 97.6870 -0.0066 -11.7821 0.0030
# 4 0.0064 0.0154 -0.0066 1.8404 -0.0016 6.0966
# 5 -4.5689 3.3544 -11.7821 -0.0016 20.1048 0.0000
# 6 -0.0121 -0.0198 0.0030 6.0966 0.0000 21.6870
#
#
#
# Elastic Compliance Matrix: (Units=1/GPa)
#
#
# Indices 1 2 3 4 5 6 
#
# 1 0.009438 -0.003212 -0.004693 -0.000475 -0.000069 0.000137
# 2 -0.003212 0.025641 0.000266 -0.004041 -0.004852 0.001157
# 3 -0.004693 0.000266 0.013421 0.001193 0.006754 -0.000340
# 4 -0.000475 -0.004041 0.001193 7.905541 0.001898 -2.222381
# 5 -0.000069 -0.004852 0.006754 0.001898 0.054492 -0.000539
# 6 0.000137 0.001157 -0.000340 -2.222381 -0.000539 0.670859
#
#
# Mechanical properties :
#
#
# Convention : Reuss Voigt Hill
#
# Bulk Modulus (GPa) = 30.10007 45.69688 37.89848
# Shear Modulus (GPa) = 0.57433 22.52752 11.55093
#
# Velocity S-wave (km/s) = 0.56205 3.52006 2.52059
# Velocity P-wave (km/s) = 4.12033 6.45413 5.41447
#
# Compressibility (1/GPa) = 0.03322251
#
# Stress axis : x y z
#
# Youngs Moduli (GPa) = 105.95168 38.99987 74.51164
#
# Poissons Ratio (x) = 0.12528 0.34965
# Poissons Ratio (y) = 0.34035 -0.01983
# Poissons Ratio (z) = 0.49719 -0.01038
#
# Static dielectric constant tensor:
#      x y z
#    x 3.555880 -0.000010 0.021760 
#    y -0.000010 3.276190 0.000000 
#    z 0.021760 0.000000 3.535150 
# 
# 
# High freq. dielectric constant tensor:
#      x y z
#    x 1.705570 0.000000 -0.014590 
#    y 0.000000 1.705890 0.000000 
#    z -0.014590 0.000000 1.672030 
# 
# From -- ./inp_files/213363.got.cif
#   From: 2010.06.25/outbox.cif.g09.slc.cpg/sg15_107_cif.got.tgz:213363.got - 2010.06.28 07:06:18.
