data_PCOD8133251
_publ_section_title
;
Structure prediction by ZEFSAII (Michael W. Deem and Ramdas Pophale) SiO2 
 PCOD8133251
Probable space group: C 2/C
;
_chemical_formula_sum "Si O2"
_cell_formula_units_Z 56
_cell_length_a 14.248073
_cell_length_b 28.565578
_cell_length_c 9.305153
_cell_angle_alpha 90.000000
_cell_angle_beta 48.473466
_cell_angle_gamma 90.000000
_cell_volume 2835.311541
_symmetry_space_group_name_H-M "C 2/C"
_symmetry_group_IT_number 15
_symmetry_cell_setting 'monoclinic'
loop_
_space_group_symop_operation_xyz
x,y,z
-x,y,1/2-z
-x,-y,-z
x,-y,1/2+z
1/2+x,1/2+y,z
1/2-x,1/2+y,1/2-z
1/2-x,1/2-y,-z
1/2+x,1/2-y,1/2+z
loop_
_atom_site_type_symbol
_atom_site_label
_atom_site_fract_x
_atom_site_fract_y
_atom_site_fract_z
Si Si1 0.767518 0.554557 0.819496
Si Si2 0.126948 0.265007 0.534262
Si Si3 0.079523 0.834139 0.024863
Si Si4 0.842324 0.617060 0.276202
Si Si5 0.996191 0.084456 0.090503
Si Si6 0.761781 0.536452 0.159780
Si Si7 0.110136 0.363993 0.458612
O O1 0.809213 0.513806 0.668009
O O2 0.835771 0.604338 0.725296
O O3 0.622589 0.558124 0.923188
O O4 0.793137 0.540881 0.959148
O O5 0.250000 0.250000 0.500000
O O6 0.087280 0.220838 0.474521
O O7 0.168606 0.311358 0.402646
O O8 0.000000 0.278882 0.750000
O O9 0.221673 0.850707 0.890575
O O10 0.009241 0.865436 0.980481
O O11 0.000000 0.840361 0.250000
O O12 0.838261 0.571288 0.182876
O O13 0.860961 0.606168 0.426073
O O14 0.961723 0.644528 0.091657
O O15 0.000000 0.099281 0.250000
O O16 0.884675 0.048527 0.164870
#
# Coordination Sequence:
#
# PCOD8133251 Si02
#       7
#     8   8   8   8   8   8   8
#     4  11  22  37  59  88 113 154 197 239 296 353
#     4  11  20  35  59  91 123 155 200 251 299 345
#     4  10  19  32  61  89 113 151 196 241 289 351
#     4  10  20  38  55  82 117 155 188 239 294 338
#     4   9  20  37  58  85 123 149 186 245 301 348
#     4  10  22  39  60  83 118 152 193 245 292 357
#     4  11  21  36  58  82 119 154 195 245 284 351
#
# _framework density 19.750916
#
# number of rings (size 3 to 8) (size 9 to 14) (size 15 to 20)
#    0.000    1.714    2.857    2.143    2.000    2.286 
#    0.000    0.714    3.143    2.571    0.000    0.000 
#    0.000    0.000    0.000    0.000    0.000    0.000 
#
# Total GULP energy -346895.933471 kJ/mol
# GULP energy per Si atom -12389.140481 kJ/mol
# Density = 1.970596 g / cm^3
# Si number density = 19.750916 Si / 1000 Ang^3
#
#
#
# Elastic Constant Matrix: (Units=GPa)
#
#
# Indices 1 2 3 4 5 6 
#
# 1 71.2250 36.9358 26.1737 0.0000 4.1214 0.0000
# 2 36.9358 160.3144 51.3971 0.0000 16.5303 0.0000
# 3 26.1737 51.3971 73.4848 0.0000 2.0020 0.0000
# 4 0.0000 0.0000 0.0000 32.1726 0.0000 4.6127
# 5 4.1214 16.5303 2.0020 0.0000 18.4633 0.0000
# 6 0.0000 0.0000 0.0000 4.6127 0.0000 25.6355
#
#
#
# Elastic Compliance Matrix: (Units=1/GPa)
#
#
# Indices 1 2 3 4 5 6 
#
# 1 0.016940 -0.002395 -0.004326 0.000000 -0.001168 0.000000
# 2 -0.002395 0.009273 -0.005437 0.000000 -0.007178 0.000000
# 3 -0.004326 -0.005437 0.018849 0.000000 0.003790 0.000000
# 4 0.000000 0.000000 0.000000 0.031905 0.000000 -0.005741
# 5 -0.001168 -0.007178 0.003790 0.000000 0.060438 0.000000
# 6 0.000000 0.000000 0.000000 -0.005741 0.000000 0.040041
#
#
# Mechanical properties :
#
#
# Convention : Reuss Voigt Hill
#
# Bulk Modulus (GPa) = 48.20704 59.33747 53.77226
# Shear Modulus (GPa) = 23.96043 27.95545 25.95794
#
# Velocity S-wave (km/s) = 3.48678 3.76626 3.62921
# Velocity P-wave (km/s) = 6.37736 7.00151 6.69671
#
# Compressibility (1/GPa) = 0.02074386
#
# Stress axis : x y z
#
# Youngs Moduli (GPa) = 59.03323 107.84189 53.05421
#
# Poissons Ratio (x) = 0.25833 0.22953
# Poissons Ratio (y) = 0.14141 0.28845
# Poissons Ratio (z) = 0.25540 0.58633
#
# Static dielectric constant tensor:
#      x y z
#    x 3.837140 0.000000 -0.179220 
#    y 0.000000 3.775160 0.000000 
#    z -0.179220 0.000000 3.412380 
# 
# 
# High freq. dielectric constant tensor:
#      x y z
#    x 1.771940 0.000000 -0.022160 
#    y 0.000000 1.778890 0.000000 
#    z -0.022160 0.000000 1.750430 
# 
# From -- ./inp_files/44512.got.cif
#   From: 2010.06.25/outbox.cif.g09.slc.cpg/sg15_23_cif.got.tgz:44512.got - 2010.06.28 07:06:18.
