data_PCOD8133306
_publ_section_title
;
Structure prediction by ZEFSAII (Michael W. Deem and Ramdas Pophale) SiO2 
 PCOD8133306
Probable space group: C 2/C
;
_chemical_formula_sum "Si O2"
_cell_formula_units_Z 48
_cell_length_a 19.927406
_cell_length_b 9.447877
_cell_length_c 18.800506
_cell_angle_alpha 90.000000
_cell_angle_beta 48.869793
_cell_angle_gamma 90.000000
_cell_volume 2666.088031
_symmetry_space_group_name_H-M "C 2/C"
_symmetry_group_IT_number 15
_symmetry_cell_setting 'monoclinic'
loop_
_space_group_symop_operation_xyz
x,y,z
-x,y,1/2-z
-x,-y,-z
x,-y,1/2+z
1/2+x,1/2+y,z
1/2-x,1/2+y,1/2-z
1/2-x,1/2-y,-z
1/2+x,1/2-y,1/2+z
loop_
_atom_site_type_symbol
_atom_site_label
_atom_site_fract_x
_atom_site_fract_y
_atom_site_fract_z
Si Si1 0.035807 0.088266 0.799865
Si Si2 0.004703 0.230923 0.164695
Si Si3 0.228680 0.993750 0.199273
Si Si4 0.517485 0.196607 0.041350
Si Si5 0.350560 0.250284 0.669149
Si Si6 0.392703 0.907767 0.508733
O O1 0.142417 0.071071 0.720925
O O2 0.000000 0.147231 0.750000
O O3 0.011198 0.199687 0.876741
O O4 0.989464 0.938094 0.849361
O O5 0.916384 0.292111 0.187963
O O6 0.000000 0.274833 0.250000
O O7 0.092389 0.299857 0.067207
O O8 0.282210 0.876340 0.205276
O O9 0.201795 0.106952 0.277641
O O10 0.288017 0.065537 0.095588
O O11 0.431548 0.156869 0.054600
O O12 0.590949 0.276256 0.942137
O O13 0.558645 0.054125 0.045602
#
# Coordination Sequence:
#
# PCOD8133306 Si02
#       6
#     8   8   8   8   8   8
#     4  10  21  36  52  74 105 138 169 206 255 305
#     4   9  19  35  52  75 106 135 168 204 252 309
#     4  10  19  33  52  77 103 129 171 218 249 292
#     4   9  18  34  53  74 102 135 171 205 249 307
#     4   9  19  33  53  77 100 132 171 209 250 297
#     4   9  18  33  54  77 100 131 171 212 249 295
#
# _framework density 18.003907999999999
#
# number of rings (size 3 to 8) (size 9 to 14) (size 15 to 20)
#    0.000    2.667    0.000    2.000    0.000    8.000 
#    0.000   12.500    0.000    0.000    0.000    0.000 
#    0.000    0.000    0.000    0.000    0.000    0.000 
#
# Total GULP energy -297594.000068 kJ/mol
# GULP energy per Si atom -12399.750003 kJ/mol
# Density = 1.796293 g / cm^3
# Si number density = 18.003908 Si / 1000 Ang^3
#
#
#
# Elastic Constant Matrix: (Units=GPa)
#
#
# Indices 1 2 3 4 5 6 
#
# 1 91.5762 55.0223 71.2355 0.0000 -0.2043 0.0000
# 2 55.0223 84.1286 75.9160 0.0000 0.4297 0.0001
# 3 71.2355 75.9160 135.7445 0.0000 -2.5560 0.0000
# 4 0.0000 0.0000 0.0000 39.9146 0.0000 -4.2154
# 5 -0.2043 0.4297 -2.5560 0.0000 25.8471 0.0000
# 6 0.0000 0.0001 0.0000 -4.2154 0.0000 17.9765
#
#
#
# Elastic Compliance Matrix: (Units=1/GPa)
#
#
# Indices 1 2 3 4 5 6 
#
# 1 0.020554 -0.007472 -0.006614 0.000000 -0.000367 0.000000
# 2 -0.007472 0.026791 -0.011092 0.000000 -0.001601 0.000000
# 3 -0.006614 -0.011092 0.017075 0.000000 0.001821 0.000000
# 4 0.000000 0.000000 0.000000 0.025690 0.000000 0.006024
# 5 -0.000367 -0.001601 0.001821 0.000000 0.038893 0.000000
# 6 0.000000 0.000000 0.000000 0.006024 0.000000 0.057041
#
#
# Mechanical properties :
#
#
# Convention : Reuss Voigt Hill
#
# Bulk Modulus (GPa) = 71.10730 79.53299 75.32015
# Shear Modulus (GPa) = 20.73939 24.03267 22.38603
#
# Velocity S-wave (km/s) = 3.39770 3.65754 3.53001
# Velocity P-wave (km/s) = 7.41443 7.88087 7.65120
#
# Compressibility (1/GPa) = 0.01406325
#
# Stress axis : x y z
#
# Youngs Moduli (GPa) = 48.65317 37.32606 58.56476
#
# Poissons Ratio (x) = 0.27892 0.38735
# Poissons Ratio (y) = 0.36356 0.64959
# Poissons Ratio (z) = 0.32179 0.41401
#
# Static dielectric constant tensor:
#      x y z
#    x 3.308440 0.000000 -0.115820 
#    y 0.000000 3.345360 0.000000 
#    z -0.115820 0.000000 3.349840 
# 
# 
# High freq. dielectric constant tensor:
#      x y z
#    x 1.683800 0.000000 -0.009270 
#    y 0.000000 1.699510 0.000000 
#    z -0.009270 0.000000 1.695890 
# 
# From -- ./inp_files/166393.got.cif
#   From: 2010.06.25/outbox.cif.g09.slc.cpg/sg15_84_cif.got.tgz:166393.got - 2010.06.28 07:06:18.
