data_PCOD8133402
_publ_section_title
;
Structure prediction by ZEFSAII (Michael W. Deem and Ramdas Pophale) SiO2 
 PCOD8133402
Probable space group: C 2/C
;
_chemical_formula_sum "Si O2"
_cell_formula_units_Z 56
_cell_length_a 13.294480
_cell_length_b 28.645710
_cell_length_c 8.836900
_cell_angle_alpha 90.000000
_cell_angle_beta 60.754892
_cell_angle_gamma 90.000000
_cell_volume 2936.399211
_symmetry_space_group_name_H-M "C 2/C"
_symmetry_group_IT_number 15
_symmetry_cell_setting 'monoclinic'
loop_
_space_group_symop_operation_xyz
x,y,z
-x,y,1/2-z
-x,-y,-z
x,-y,1/2+z
1/2+x,1/2+y,z
1/2-x,1/2+y,1/2-z
1/2-x,1/2-y,-z
1/2+x,1/2-y,1/2+z
loop_
_atom_site_type_symbol
_atom_site_label
_atom_site_fract_x
_atom_site_fract_y
_atom_site_fract_z
Si Si1 0.379170 0.209255 0.271839
Si Si2 0.573063 0.349799 0.896880
Si Si3 0.146031 0.038912 0.790567
Si Si4 0.624760 0.552807 0.468256
Si Si5 0.158244 0.813006 0.121980
Si Si6 0.179265 0.869533 0.398738
Si Si7 0.257658 0.198765 0.067479
O O1 0.500000 0.191221 0.250000
O O2 0.279383 0.187432 0.445348
O O3 0.371256 0.264883 0.276310
O O4 0.364389 0.194863 0.105934
O O5 0.647405 0.397453 0.869203
O O6 0.638921 0.312826 0.742729
O O7 0.558206 0.325639 0.073998
O O8 0.445278 0.361018 0.927248
O O9 0.185257 0.047899 0.588403
O O10 0.207982 0.075443 0.861573
O O11 0.177647 0.986593 0.818620
O O12 0.010546 0.046924 0.908202
O O13 0.171596 0.853347 0.232838
O O14 0.274233 0.840610 0.424515
O O15 0.250000 0.250000 0.000000
#
# Coordination Sequence:
#
# PCOD8133402 Si02
#       7
#     8   8   8   8   8   8   8
#     4  10  21  38  54  71  99 139 175 221 274 310
#     4  10  20  33  53  73 108 150 183 214 269 325
#     4   9  18  28  47  70 110 142 178 213 255 322
#     4   9  17  30  45  74 102 147 182 208 257 322
#     4  10  19  33  55  75  96 134 186 213 252 332
#     4  11  19  34  50  77 109 146 177 224 266 310
#     4  11  23  35  47  77 107 137 191 231 258 315
#
# _framework density 19.070976999999999
#
# number of rings (size 3 to 8) (size 9 to 14) (size 15 to 20)
#    0.000    2.000    2.857    1.714    2.000    0.000 
#    2.571    0.714    0.000    0.000    0.000    0.000 
#    0.000   18.286    0.000    0.000    0.000    0.000 
#
# Total GULP energy -347048.991196 kJ/mol
# GULP energy per Si atom -12394.606828 kJ/mol
# Density = 1.902757 g / cm^3
# Si number density = 19.070977 Si / 1000 Ang^3
#
#
#
# Elastic Constant Matrix: (Units=GPa)
#
#
# Indices 1 2 3 4 5 6 
#
# 1 92.7166 27.5891 17.1169 0.0000 17.9589 0.0000
# 2 27.5891 123.3586 33.2883 0.0000 14.3512 0.0000
# 3 17.1169 33.2883 46.2296 0.0000 17.2624 0.0000
# 4 0.0000 0.0000 0.0000 25.5301 0.0000 7.4099
# 5 17.9589 14.3512 17.2624 0.0000 21.3192 0.0000
# 6 0.0000 0.0000 0.0000 7.4099 0.0000 25.7528
#
#
#
# Elastic Compliance Matrix: (Units=1/GPa)
#
#
# Indices 1 2 3 4 5 6 
#
# 1 0.013250 -0.001840 0.000178 0.000000 -0.010067 0.000000
# 2 -0.001840 0.010342 -0.006801 0.000000 0.000095 0.000000
# 3 0.000178 -0.006801 0.035561 0.000000 -0.024366 0.000000
# 4 0.000000 0.000000 0.000000 0.042739 0.000000 -0.012297
# 5 -0.010067 0.000095 -0.024366 0.000000 0.075052 0.000000
# 6 0.000000 0.000000 0.000000 -0.012297 0.000000 0.042369
#
#
# Mechanical properties :
#
#
# Convention : Reuss Voigt Hill
#
# Bulk Modulus (GPa) = 23.68157 46.47703 35.07930
# Shear Modulus (GPa) = 19.97478 26.80777 23.39128
#
# Velocity S-wave (km/s) = 3.23985 3.75331 3.50600
# Velocity P-wave (km/s) = 5.14199 6.57317 5.90113
#
# Compressibility (1/GPa) = 0.04222693
#
# Stress axis : x y z
#
# Youngs Moduli (GPa) = 75.47012 96.69048 28.12072
#
# Poissons Ratio (x) = 0.17794 -0.00502
# Poissons Ratio (y) = 0.13889 0.19126
# Poissons Ratio (z) = -0.01346 0.65763
#
# Static dielectric constant tensor:
#      x y z
#    x 3.388000 0.000000 0.377610 
#    y 0.000000 3.674390 0.000000 
#    z 0.377610 0.000000 3.391900 
# 
# 
# High freq. dielectric constant tensor:
#      x y z
#    x 1.701180 0.000000 0.048330 
#    y 0.000000 1.745200 0.000000 
#    z 0.048330 0.000000 1.728570 
# 
# From -- ./inp_files/44492.got.cif
#   From: 2010.06.25/outbox.cif.g09.slc.cpg/sg15_23_cif.got.tgz:44492.got - 2010.06.28 07:06:18.
