data_PCOD8133030
_publ_section_title
;
Structure prediction by ZEFSAII (Michael W. Deem and Ramdas Pophale) SiO2 
 PCOD8133030
Probable space group: C 2/C
;
_chemical_formula_sum "Si O2"
_cell_formula_units_Z 48
_cell_length_a 8.268822
_cell_length_b 29.194295
_cell_length_c 11.114575
_cell_angle_alpha 90.000000
_cell_angle_beta 116.499777
_cell_angle_gamma 90.000000
_cell_volume 2401.189979
_symmetry_space_group_name_H-M "C 2/C"
_symmetry_group_IT_number 15
_symmetry_cell_setting 'monoclinic'
loop_
_space_group_symop_operation_xyz
x,y,z
-x,y,1/2-z
-x,-y,-z
x,-y,1/2+z
1/2+x,1/2+y,z
1/2-x,1/2+y,1/2-z
1/2-x,1/2-y,-z
1/2+x,1/2-y,1/2+z
loop_
_atom_site_type_symbol
_atom_site_label
_atom_site_fract_x
_atom_site_fract_y
_atom_site_fract_z
Si Si1 0.657487 0.506166 0.399299
Si Si2 0.937472 0.929986 0.974078
Si Si3 0.039828 0.249109 0.901138
Si Si4 0.635193 0.933661 0.692461
Si Si5 0.198958 0.335779 0.656614
Si Si6 0.996577 0.167248 0.052193
O O1 0.500000 0.501967 0.250000
O O2 0.684433 0.454657 0.462469
O O3 0.610462 0.538563 0.498548
O O4 0.840968 0.526537 0.400523
O O5 0.831790 0.925102 0.813825
O O6 0.994024 0.878508 0.028603
O O7 0.000000 0.237702 0.750000
O O8 0.950633 0.296922 0.910541
O O9 0.250000 0.250000 0.000000
O O10 0.949608 0.209339 0.950658
O O11 0.500000 0.951505 0.750000
O O12 0.584022 0.883468 0.624159
O O13 0.312892 0.324804 0.815523
O O14 0.332073 0.338596 0.588762
#
# Coordination Sequence:
#
# PCOD8133030 Si02
#       6
#     8   8   8   8   8   8
#     4   9  17  33  54  81 114 149 194 241 293 358
#     4   9  18  33  55  83 110 150 196 240 294 359
#     4  12  24  40  60  91 124 156 200 255 312 369
#     4  10  19  31  55  84 114 150 200 246 297 357
#     4  10  20  38  59  87 117 159 208 254 303 368
#     4  10  20  37  62  86 118 158 207 253 308 365
#
# _framework density 19.990086999999999
#
# number of rings (size 3 to 8) (size 9 to 14) (size 15 to 20)
#    0.000    2.000    3.333    1.000    2.333    1.333 
#    0.000    0.000    0.000    0.000    0.000    0.000 
#    0.000    0.000    0.000    0.000    0.000    0.000 
#
# Total GULP energy -297477.723146 kJ/mol
# GULP energy per Si atom -12394.905131 kJ/mol
# Density = 1.994459 g / cm^3
# Si number density = 19.990087 Si / 1000 Ang^3
#
#
#
# Elastic Constant Matrix: (Units=GPa)
#
#
# Indices 1 2 3 4 5 6 
#
# 1 99.4827 61.7245 22.3780 0.0000 -19.3124 0.0000
# 2 61.7245 175.7537 49.0613 0.0000 -23.3055 0.0000
# 3 22.3780 49.0613 62.7520 0.0000 -11.1642 0.0000
# 4 0.0000 0.0000 0.0000 32.5811 0.0000 -8.9679
# 5 -19.3124 -23.3055 -11.1642 0.0000 32.0030 0.0000
# 6 0.0000 0.0000 0.0000 -8.9679 0.0000 38.2898
#
#
#
# Elastic Compliance Matrix: (Units=1/GPa)
#
#
# Indices 1 2 3 4 5 6 
#
# 1 0.013645 -0.003851 -0.000948 0.000000 0.005099 0.000000
# 2 -0.003851 0.008761 -0.005069 0.000000 0.002287 0.000000
# 3 -0.000948 -0.005069 0.020767 0.000000 0.002981 0.000000
# 4 0.000000 0.000000 0.000000 0.032808 0.000000 0.007684
# 5 0.005099 0.002287 0.002981 0.000000 0.037030 0.000000
# 6 0.000000 0.000000 0.000000 0.007684 0.000000 0.027916
#
#
# Mechanical properties :
#
#
# Convention : Reuss Voigt Hill
#
# Bulk Modulus (GPa) = 42.66833 67.14621 54.90727
# Shear Modulus (GPa) = 29.67817 34.22973 31.95395
#
# Velocity S-wave (km/s) = 3.85729 4.14253 4.00245
# Velocity P-wave (km/s) = 6.42101 7.51953 6.99188
#
# Compressibility (1/GPa) = 0.02343658
#
# Stress axis : x y z
#
# Youngs Moduli (GPa) = 73.28946 114.14652 48.15292
#
# Poissons Ratio (x) = 0.43962 0.04563
# Poissons Ratio (y) = 0.28226 0.24409
# Poissons Ratio (z) = 0.06945 0.57861
#
# Static dielectric constant tensor:
#      x y z
#    x 3.503370 0.000000 -0.159590 
#    y 0.000000 3.921320 0.000000 
#    z -0.159590 0.000000 3.500420 
# 
# 
# High freq. dielectric constant tensor:
#      x y z
#    x 1.776640 0.000000 -0.020040 
#    y 0.000000 1.793000 0.000000 
#    z -0.020040 0.000000 1.742980 
# 
# From -- ./inp_files/80918.got.cif
#   From: 2010.06.25/outbox.cif.g09.slc.cpg/sg15_41_cif.got.tgz:80918.got - 2010.06.28 07:06:18.
