data_PCOD8133632
_publ_section_title
;
Structure prediction by ZEFSAII (Michael W. Deem and Ramdas Pophale) SiO2 
 PCOD8133632
Probable space group: C 2/C
;
_chemical_formula_sum "Si O2"
_cell_formula_units_Z 48
_cell_length_a 19.043799
_cell_length_b 9.889880
_cell_length_c 29.310758
_cell_angle_alpha 90.000000
_cell_angle_beta 29.961155
_cell_angle_gamma 90.000000
_cell_volume 2756.965177
_symmetry_space_group_name_H-M "C 2/C"
_symmetry_group_IT_number 15
_symmetry_cell_setting 'monoclinic'
loop_
_space_group_symop_operation_xyz
x,y,z
-x,y,1/2-z
-x,-y,-z
x,-y,1/2+z
1/2+x,1/2+y,z
1/2-x,1/2+y,1/2-z
1/2-x,1/2-y,-z
1/2+x,1/2-y,1/2+z
loop_
_atom_site_type_symbol
_atom_site_label
_atom_site_fract_x
_atom_site_fract_y
_atom_site_fract_z
Si Si1 0.386107 0.504925 0.778637
Si Si2 0.909542 0.612892 0.575236
Si Si3 0.180816 0.331591 0.277058
Si Si4 0.404677 0.540732 0.167009
Si Si5 0.935480 0.115412 0.506672
Si Si6 0.633070 0.804462 0.203062
O O1 0.500000 0.565635 0.750000
O O2 0.250571 0.603254 0.853395
O O3 0.456396 0.493398 0.688945
O O4 0.340877 0.355011 0.819681
O O5 0.905702 0.597683 0.632807
O O6 0.000000 0.500000 0.500000
O O7 0.981742 0.753166 0.522202
O O8 0.329589 0.408191 0.188361
O O9 0.202626 0.170373 0.273669
O O10 0.101480 0.344381 0.273366
O O11 0.538875 0.582203 0.061200
O O12 0.769756 0.121848 0.606881
O O13 0.000000 0.000000 0.500000
O O14 0.500000 0.857599 0.250000
#
# Coordination Sequence:
#
# PCOD8133632 Si02
#       6
#     8   8   8   8   8   8
#     4   9  18  35  55  77 106 136 170 220 269 299
#     4  10  19  34  54  79  99 135 184 213 246 312
#     4   9  18  32  52  76 101 136 172 211 261 303
#     4   9  18  32  54  77 100 138 175 212 255 312
#     4  11  20  33  55  79 104 137 179 212 253 315
#     4  10  19  34  52  79 110 137 167 217 269 306
#
# _framework density 17.410449
#
# number of rings (size 3 to 8) (size 9 to 14) (size 15 to 20)
#    0.000    2.333    3.333    0.000    0.000    0.000 
#    3.000    4.167    0.000    1.000    0.000    0.000 
#    0.000    0.000    0.000    0.000    0.000    0.000 
#
# Total GULP energy -297441.021938 kJ/mol
# GULP energy per Si atom -12393.375914 kJ/mol
# Density = 1.737082 g / cm^3
# Si number density = 17.410449 Si / 1000 Ang^3
#
#
#
# Elastic Constant Matrix: (Units=GPa)
#
#
# Indices 1 2 3 4 5 6 
#
# 1 132.6427 45.5632 61.7222 0.0005 -9.3421 -0.0012
# 2 45.5632 70.2017 47.0276 0.0002 -0.8157 -0.0002
# 3 61.7222 47.0276 112.5109 -0.0004 -7.4877 0.0003
# 4 0.0005 0.0002 -0.0004 22.7672 0.0001 1.3480
# 5 -9.3421 -0.8157 -7.4877 0.0001 23.4247 0.0003
# 6 -0.0012 -0.0002 0.0003 1.3480 0.0003 22.9857
#
#
#
# Elastic Compliance Matrix: (Units=1/GPa)
#
#
# Indices 1 2 3 4 5 6 
#
# 1 0.011185 -0.004512 -0.004050 0.000000 0.003009 0.000001
# 2 -0.004512 0.021696 -0.006808 0.000000 -0.003220 0.000000
# 3 -0.004050 -0.006808 0.014133 0.000000 0.002665 -0.000001
# 4 0.000000 0.000000 0.000000 0.044076 0.000000 -0.002585
# 5 0.003009 -0.003220 0.002665 0.000000 0.044630 0.000000
# 6 0.000001 0.000000 -0.000001 -0.002585 0.000000 0.043657
#
#
# Mechanical properties :
#
#
# Convention : Reuss Voigt Hill
#
# Bulk Modulus (GPa) = 61.44370 69.33126 65.38748
# Shear Modulus (GPa) = 23.19747 24.57167 23.88457
#
# Velocity S-wave (km/s) = 3.65415 3.76083 3.70787
# Velocity P-wave (km/s) = 7.29189 7.66593 7.48125
#
# Compressibility (1/GPa) = 0.01627506
#
# Stress axis : x y z
#
# Youngs Moduli (GPa) = 89.40265 46.09172 70.75731
#
# Poissons Ratio (x) = 0.20794 0.28658
# Poissons Ratio (y) = 0.40334 0.48170
# Poissons Ratio (z) = 0.36210 0.31378
#
# Static dielectric constant tensor:
#      x y z
#    x 3.237390 0.000000 0.417040 
#    y 0.000000 3.228930 0.000000 
#    z 0.417040 0.000000 3.299400 
# 
# 
# High freq. dielectric constant tensor:
#      x y z
#    x 1.665500 0.000000 0.025200 
#    y 0.000000 1.665900 0.000000 
#    z 0.025200 0.000000 1.664040 
# 
# From -- ./inp_files/180730.got.cif
#   From: 2010.06.25/outbox.cif.g09.slc.cpg/sg15_91_cif.got.tgz:180730.got - 2010.06.28 07:06:18.
