data_PCOD8133617
_publ_section_title
;
Structure prediction by ZEFSAII (Michael W. Deem and Ramdas Pophale) SiO2 
 PCOD8133617
Probable space group: C 2/C
;
_chemical_formula_sum "Si O2"
_cell_formula_units_Z 40
_cell_length_a 6.277679
_cell_length_b 33.127063
_cell_length_c 10.817310
_cell_angle_alpha 90.000000
_cell_angle_beta 74.334560
_cell_angle_gamma 90.000000
_cell_volume 2166.018249
_symmetry_space_group_name_H-M "C 2/C"
_symmetry_group_IT_number 15
_symmetry_cell_setting 'monoclinic'
loop_
_space_group_symop_operation_xyz
x,y,z
-x,y,1/2-z
-x,-y,-z
x,-y,1/2+z
1/2+x,1/2+y,z
1/2-x,1/2+y,1/2-z
1/2-x,1/2-y,-z
1/2+x,1/2-y,1/2+z
loop_
_atom_site_type_symbol
_atom_site_label
_atom_site_fract_x
_atom_site_fract_y
_atom_site_fract_z
Si Si1 0.500000 0.709989 0.250000
Si Si2 0.500000 0.069105 0.750000
Si Si3 0.304069 0.313802 0.540497
Si Si4 0.066012 0.747968 0.379054
Si Si5 0.677720 0.609780 0.624483
Si Si6 0.558008 0.529136 0.878178
O O1 0.645978 0.682390 0.320065
O O2 0.327333 0.738535 0.352060
O O3 0.403320 0.098330 0.659283
O O4 0.316970 0.040072 0.840252
O O5 0.515940 0.289958 0.454791
O O6 0.274223 0.357967 0.489139
O O7 0.081306 0.288981 0.544781
O O8 0.000000 0.755629 0.250000
O O9 0.500000 0.627421 0.750000
O O10 0.581657 0.569638 0.576315
O O11 0.500000 0.511170 0.750000
O O12 0.500000 0.500000 0.000000
#
# Coordination Sequence:
#
# PCOD8133617 Si02
#       6
#     4   4   8   8   8   8
#     4  10  20  34  51  72 106 148 174 220 272 309
#     4   8  18  36  59  82 110 142 172 228 276 309
#     4  10  19  34  51  75 106 137 180 221 264 321
#     4   9  19  33  51  72 101 140 183 224 264 314
#     4   9  19  34  55  82 106 135 178 222 262 317
#     4   9  19  36  58  85 113 142 181 222 269 335
#
# _framework density 18.467064000000001
#
# number of rings (size 3 to 8) (size 9 to 14) (size 15 to 20)
#    0.000    3.200    0.000    1.200    0.000    6.400 
#    1.800   13.000    6.600    0.000    0.000    0.000 
#    0.000    0.000    0.000    0.000    0.000    0.000 
#
# Total GULP energy -247897.253340 kJ/mol
# GULP energy per Si atom -12394.862667 kJ/mol
# Density = 1.842503 g / cm^3
# Si number density = 18.467064 Si / 1000 Ang^3
#
#
#
# Elastic Constant Matrix: (Units=GPa)
#
#
# Indices 1 2 3 4 5 6 
#
# 1 124.3254 43.2466 35.3727 0.0000 -8.6231 0.0000
# 2 43.2466 105.3848 60.7391 0.0000 4.2009 0.0000
# 3 35.3727 60.7391 82.8902 0.0000 -1.3628 0.0000
# 4 0.0000 0.0000 0.0000 37.9274 0.0000 2.4929
# 5 -8.6231 4.2009 -1.3628 0.0000 25.6005 0.0000
# 6 0.0000 0.0000 0.0000 2.4929 0.0000 6.5323
#
#
#
# Elastic Compliance Matrix: (Units=1/GPa)
#
#
# Indices 1 2 3 4 5 6 
#
# 1 0.009931 -0.003148 -0.001870 0.000000 0.003762 0.000000
# 2 -0.003148 0.017715 -0.011713 0.000000 -0.004591 0.000000
# 3 -0.001870 -0.011713 0.021485 0.000000 0.002436 0.000000
# 4 0.000000 0.000000 0.000000 0.027045 0.000000 -0.010321
# 5 0.003762 -0.004591 0.002436 0.000000 0.041212 0.000000
# 6 0.000000 0.000000 0.000000 -0.010321 0.000000 0.157025
#
#
# Mechanical properties :
#
#
# Convention : Reuss Voigt Hill
#
# Bulk Modulus (GPa) = 63.81576 65.70192 64.75884
# Shear Modulus (GPa) = 15.96955 25.56150 20.76552
#
# Velocity S-wave (km/s) = 2.94387 3.72448 3.35694
# Velocity P-wave (km/s) = 6.79608 7.35872 7.08299
#
# Compressibility (1/GPa) = 0.01567011
#
# Stress axis : x y z
#
# Youngs Moduli (GPa) = 100.69200 56.45075 46.54470
#
# Poissons Ratio (x) = 0.17770 0.08702
# Poissons Ratio (y) = 0.31697 0.54517
# Poissons Ratio (z) = 0.18825 0.66119
#
# Static dielectric constant tensor:
#      x y z
#    x 3.596750 0.000000 -0.073830 
#    y 0.000000 3.039810 0.000000 
#    z -0.073830 0.000000 3.448380 
# 
# 
# High freq. dielectric constant tensor:
#      x y z
#    x 1.729870 0.000000 0.002420 
#    y 0.000000 1.682990 0.000000 
#    z 0.002420 0.000000 1.715290 
# 
# From -- ./inp_files/73132.got.cif
#   From: 2010.06.25/outbox.cif.g09.slc.cpg/sg15_37_cif.got.tgz:73132.got - 2010.06.28 07:06:18.
