data_PCOD8133348
_publ_section_title
;
Structure prediction by ZEFSAII (Michael W. Deem and Ramdas Pophale) SiO2 
 PCOD8133348
Probable space group: C 2/C
;
_chemical_formula_sum "Si O2"
_cell_formula_units_Z 44
_cell_length_a 9.916814
_cell_length_b 7.902437
_cell_length_c 19.841375
_cell_angle_alpha 90.000000
_cell_angle_beta 109.286776
_cell_angle_gamma 90.000000
_cell_volume 1467.643162
_symmetry_space_group_name_H-M "C 2/C"
_symmetry_group_IT_number 15
_symmetry_cell_setting 'monoclinic'
loop_
_space_group_symop_operation_xyz
x,y,z
-x,y,1/2-z
-x,-y,-z
x,-y,1/2+z
1/2+x,1/2+y,z
1/2-x,1/2+y,1/2-z
1/2-x,1/2-y,-z
1/2+x,1/2-y,1/2+z
loop_
_atom_site_type_symbol
_atom_site_label
_atom_site_fract_x
_atom_site_fract_y
_atom_site_fract_z
Si Si1 0.777984 0.242714 0.287189
Si Si2 0.285221 0.498189 0.912964
Si Si3 0.500000 0.543891 0.750000
Si Si4 0.327093 0.335280 0.641718
Si Si5 0.946698 0.540713 0.904009
Si Si6 0.055280 0.771225 0.473055
O O1 0.633354 0.343260 0.256413
O O2 0.802735 0.166897 0.218579
O O3 0.909498 0.369347 0.327543
O O4 0.753777 0.104540 0.340945
O O5 0.164103 0.651614 0.895685
O O6 0.300699 0.378570 0.983628
O O7 0.435161 0.597882 0.929153
O O8 0.477514 0.437036 0.673411
O O9 0.198164 0.447506 0.590351
O O10 0.995294 0.679928 0.966476
O O11 0.065873 0.384725 0.918206
#
# Coordination Sequence:
#
# PCOD8133348 Si02
#       6
#     8   8   4   8   8   8
#     4  10  19  33  53  82 111 140 179 220 267 326
#     4   9  16  27  48  77 102 134 186 221 254 322
#     4  10  22  36  52  78 116 148 168 214 280 314
#     4  10  19  33  53  82 111 140 179 220 267 326
#     4   8  15  28  48  76 106 136 176 218 264 318
#     4   8  14  26  46  76 102 134 182 220 258 314
#
# _framework density 29.980042999999998
#
# number of rings (size 3 to 8) (size 9 to 14) (size 15 to 20)
#    0.000    2.909    0.000    2.182    0.000    0.727 
#    0.000    0.000    0.000    0.000    0.000  575.273 
#    0.000    0.000    0.000    0.000    0.000    0.000 
#
# Total GULP energy -272544.882519 kJ/mol
# GULP energy per Si atom -12388.403751 kJ/mol
# Density = 2.991181 g / cm^3
# Si number density = 29.980043 Si / 1000 Ang^3
#
#
#
# Elastic Constant Matrix: (Units=GPa)
#
#
# Indices 1 2 3 4 5 6 
#
# 1 69.9216 41.6248 59.8231 0.0000 26.1129 0.0000
# 2 41.6248 178.4069 65.7739 0.0000 17.6262 0.0000
# 3 59.8231 65.7739 142.6110 0.0000 30.1029 0.0000
# 4 0.0000 0.0000 0.0000 90.7385 0.0000 -9.0385
# 5 26.1129 17.6262 30.1029 0.0000 57.5580 0.0000
# 6 0.0000 0.0000 0.0000 -9.0385 0.0000 -4.0176
#
#
#
# Elastic Compliance Matrix: (Units=1/GPa)
#
#
# Indices 1 2 3 4 5 6 
#
# 1 0.024923 -0.002200 -0.008088 0.000000 -0.006403 0.000000
# 2 -0.002200 0.006960 -0.002302 0.000000 0.000071 0.000000
# 3 -0.008088 -0.002302 0.011852 0.000000 -0.001824 0.000000
# 4 0.000000 0.000000 0.000000 0.009003 0.000000 -0.020255
# 5 -0.006403 0.000071 -0.001824 0.000000 0.021211 0.000000
# 6 0.000000 0.000000 0.000000 -0.020255 0.000000 -0.203339
#
#
# Mechanical properties :
#
#
# Convention : Reuss Voigt Hill
#
# Bulk Modulus (GPa) = 53.89829 80.59811 67.24820
# Shear Modulus (GPa) = -51.00821 43.77030 -3.61896
#
# Velocity S-wave (km/s) = -4.12928 3.82512 -1.09988
# Velocity P-wave (km/s) = 2.17200 6.81549 4.56801
#
# Compressibility (1/GPa) = 0.01855346
#
# Stress axis : x y z
#
# Youngs Moduli (GPa) = 40.12335 143.67289 84.37506
#
# Poissons Ratio (x) = 0.31612 0.68247
# Poissons Ratio (y) = 0.08828 0.19424
# Poissons Ratio (z) = 0.32454 0.33075
#
# Static dielectric constant tensor:
#      x y z
#    x 5.641930 0.000000 1.198810 
#    y 0.000000 6.620560 0.000000 
#    z 1.198810 0.000000 6.158580 
# 
# 
# High freq. dielectric constant tensor:
#      x y z
#    x 2.224080 0.000000 0.055120 
#    y 0.000000 2.265840 0.000000 
#    z 0.055120 0.000000 2.242090 
# 
# From -- ./inp_files/241922.got.cif
#   From: 2010.06.25/outbox.cif.g09.slc.cpg/sg15_121_cif.got.tgz:241922.got - 2010.06.28 07:06:18.
