data_PCOD8133624
_publ_section_title
;
Structure prediction by ZEFSAII (Michael W. Deem and Ramdas Pophale) SiO2 
 PCOD8133624
Probable space group: C 2/C
;
_chemical_formula_sum "Si O2"
_cell_formula_units_Z 48
_cell_length_a 10.782973
_cell_length_b 8.177329
_cell_length_c 28.431837
_cell_angle_alpha 90.000000
_cell_angle_beta 92.541171
_cell_angle_gamma 90.000000
_cell_volume 2504.537986
_symmetry_space_group_name_H-M "C 2/C"
_symmetry_group_IT_number 15
_symmetry_cell_setting 'monoclinic'
loop_
_space_group_symop_operation_xyz
x,y,z
-x,y,1/2-z
-x,-y,-z
x,-y,1/2+z
1/2+x,1/2+y,z
1/2-x,1/2+y,1/2-z
1/2-x,1/2-y,-z
1/2+x,1/2-y,1/2+z
loop_
_atom_site_type_symbol
_atom_site_label
_atom_site_fract_x
_atom_site_fract_y
_atom_site_fract_z
Si Si1 0.114151 0.470672 0.939335
Si Si2 0.037575 0.259684 0.018394
Si Si3 0.509363 0.250365 0.361362
Si Si4 0.615420 0.919119 0.725191
Si Si5 0.119716 0.089059 0.778660
Si Si6 0.376438 0.423629 0.443464
O O1 0.998739 0.590850 0.947963
O O2 0.097942 0.375840 0.890087
O O3 0.229391 0.592582 0.937776
O O4 0.131217 0.336032 0.981196
O O5 0.920775 0.182979 0.988419
O O6 0.097297 0.117186 0.050416
O O7 0.420061 0.139304 0.327607
O O8 0.588408 0.383556 0.333149
O O9 0.430428 0.357365 0.396029
O O10 0.500000 0.016553 0.750000
O O11 0.638963 0.766414 0.758355
O O12 0.747926 0.005539 0.725486
O O13 0.000000 0.003356 0.750000
#
# Coordination Sequence:
#
# PCOD8133624 Si02
#       6
#     8   8   8   8   8   8
#     4  10  19  34  52  74 106 140 177 220 262 307
#     4   9  20  34  51  74 100 142 185 214 258 311
#     4   9  21  34  51  82 110 132 171 222 265 313
#     4   9  20  39  58  79 108 139 173 216 266 322
#     4   9  20  39  58  79 108 139 173 216 266 322
#     4  10  19  34  52  74 106 140 177 220 262 307
#
# _framework density 19.165209999999998
#
# number of rings (size 3 to 8) (size 9 to 14) (size 15 to 20)
#    0.000    3.000    0.000    1.000    0.000    8.667 
#    0.000    3.333    0.000    0.000    0.000    0.000 
#    0.000    0.000    0.000    0.000    0.000    0.000 
#
# Total GULP energy -297351.538459 kJ/mol
# GULP energy per Si atom -12389.647436 kJ/mol
# Density = 1.912159 g / cm^3
# Si number density = 19.165210 Si / 1000 Ang^3
#
#
#
# Elastic Constant Matrix: (Units=GPa)
#
#
# Indices 1 2 3 4 5 6 
#
# 1 123.9845 21.9250 36.9191 0.0000 -14.8292 0.0000
# 2 21.9250 50.7261 24.0911 0.0000 -5.7903 0.0000
# 3 36.9191 24.0911 102.0049 0.0000 -5.4575 0.0000
# 4 0.0000 0.0000 0.0000 19.8492 0.0000 -4.4285
# 5 -14.8292 -5.7903 -5.4575 0.0000 13.2619 0.0000
# 6 0.0000 0.0000 0.0000 -4.4285 0.0000 29.8724
#
#
#
# Elastic Compliance Matrix: (Units=1/GPa)
#
#
# Indices 1 2 3 4 5 6 
#
# 1 0.010403 -0.002093 -0.002758 0.000000 0.009584 0.000000
# 2 -0.002093 0.023423 -0.004451 0.000000 0.006055 0.000000
# 3 -0.002758 -0.004451 0.011845 0.000000 -0.000153 0.000000
# 4 0.000000 0.000000 0.000000 0.052103 0.000000 0.007724
# 5 0.009584 0.006055 -0.000153 0.000000 0.088702 0.000000
# 6 0.000000 0.000000 0.000000 0.007724 0.000000 0.034621
#
#
# Mechanical properties :
#
#
# Convention : Reuss Voigt Hill
#
# Bulk Modulus (GPa) = 36.94391 49.17622 43.06006
# Shear Modulus (GPa) = 20.10275 25.51538 22.80906
#
# Velocity S-wave (km/s) = 3.24222 3.65271 3.45357
# Velocity P-wave (km/s) = 5.77359 6.59580 6.19834
#
# Compressibility (1/GPa) = 0.02706806
#
# Stress axis : x y z
#
# Youngs Moduli (GPa) = 96.12431 42.69292 84.42579
#
# Poissons Ratio (x) = 0.08934 0.23287
# Poissons Ratio (y) = 0.20114 0.37575
# Poissons Ratio (z) = 0.26514 0.19001
#
# Static dielectric constant tensor:
#      x y z
#    x 3.822010 0.000000 -0.226340 
#    y 0.000000 3.390570 0.000000 
#    z -0.226340 0.000000 3.752970 
# 
# 
# High freq. dielectric constant tensor:
#      x y z
#    x 1.743710 0.000000 -0.006940 
#    y 0.000000 1.734220 0.000000 
#    z -0.006940 0.000000 1.748930 
# 
# From -- ./inp_files/263163.got.cif
#   From: 2010.06.25/outbox.cif.g09.slc.cpg/sg15_132_cif.got.tgz:263163.got - 2010.06.28 07:06:18.
