data_PCOD8133578
_publ_section_title
;
Structure prediction by ZEFSAII (Michael W. Deem and Ramdas Pophale) SiO2 
 PCOD8133578
Probable space group: C 2/C
;
_chemical_formula_sum "Si O2"
_cell_formula_units_Z 64
_cell_length_a 16.050104
_cell_length_b 9.018565
_cell_length_c 21.256705
_cell_angle_alpha 90.000000
_cell_angle_beta 94.604993
_cell_angle_gamma 90.000000
_cell_volume 3066.952262
_symmetry_space_group_name_H-M "C 2/C"
_symmetry_group_IT_number 15
_symmetry_cell_setting 'monoclinic'
loop_
_space_group_symop_operation_xyz
x,y,z
-x,y,1/2-z
-x,-y,-z
x,-y,1/2+z
1/2+x,1/2+y,z
1/2-x,1/2+y,1/2-z
1/2-x,1/2-y,-z
1/2+x,1/2-y,1/2+z
loop_
_atom_site_type_symbol
_atom_site_label
_atom_site_fract_x
_atom_site_fract_y
_atom_site_fract_z
Si Si1 0.300817 0.911962 0.130207
Si Si2 0.635030 0.962367 0.740020
Si Si3 0.681337 0.551811 0.286391
Si Si4 0.710893 0.593520 0.020347
Si Si5 0.574483 0.254359 0.712930
Si Si6 0.129923 0.841154 0.179504
Si Si7 0.552781 0.565193 0.089482
Si Si8 0.635646 0.609304 0.417348
O O1 0.223794 0.823355 0.157805
O O2 0.352216 0.785549 0.095265
O O3 0.353860 0.009872 0.184028
O O4 0.268859 0.035322 0.079830
O O5 0.722488 0.988422 0.709922
O O6 0.599168 0.805561 0.713996
O O7 0.568155 0.076798 0.707563
O O8 0.661013 0.718405 0.258795
O O9 0.625339 0.461972 0.233685
O O10 0.644305 0.521364 0.352594
O O11 0.614996 0.611280 0.037179
O O12 0.750000 0.750000 0.000000
O O13 0.705743 0.464381 0.966677
O O14 0.500000 0.322056 0.750000
O O15 0.573561 0.314543 0.643337
O O16 0.070606 0.898834 0.118614
O O17 0.457322 0.581425 0.060262
#
# Coordination Sequence:
#
# PCOD8133578 Si02
#       8
#     8   8   8   8   8   8   8   8
#     4  10  21  40  62  92 119 164 206 251 298 371
#     4  11  19  35  62  92 127 148 196 249 312 354
#     4  10  19  33  60  88 113 164 198 235 299 373
#     4  11  27  42  63  91 117 160 219 265 294 342
#     4  11  20  38  59  91 124 157 192 243 314 376
#     4   9  20  34  58  93 127 153 192 250 304 365
#     4  10  23  42  62  88 126 160 204 244 307 372
#     4  12  21  42  65  82 122 169 210 242 306 363
#
# _framework density 20.867621
#
# number of rings (size 3 to 8) (size 9 to 14) (size 15 to 20)
#    0.000    1.500    3.750    2.250    3.500    0.000 
#    2.250    1.875    0.000    0.000    0.000    0.000 
#    0.000    0.000    0.000    0.000    0.000    0.000 
#
# Total GULP energy -396504.740270 kJ/mol
# GULP energy per Si atom -12390.773133 kJ/mol
# Density = 2.082013 g / cm^3
# Si number density = 20.867621 Si / 1000 Ang^3
#
#
#
# Elastic Constant Matrix: (Units=GPa)
#
#
# Indices 1 2 3 4 5 6 
#
# 1 70.9934 29.0606 16.3755 0.0000 -4.4794 0.0000
# 2 29.0606 111.5812 46.1008 0.0000 1.4699 0.0000
# 3 16.3755 46.1008 82.2001 0.0000 -2.6909 0.0000
# 4 0.0000 0.0000 0.0000 30.1867 0.0000 -2.0556
# 5 -4.4794 1.4699 -2.6909 0.0000 31.0556 0.0000
# 6 0.0000 0.0000 0.0000 -2.0556 0.0000 25.4984
#
#
#
# Elastic Compliance Matrix: (Units=1/GPa)
#
#
# Indices 1 2 3 4 5 6 
#
# 1 0.016019 -0.003798 -0.000983 0.000000 0.002405 0.000000
# 2 -0.003798 0.012605 -0.006368 0.000000 -0.001696 0.000000
# 3 -0.000983 -0.006368 0.015983 0.000000 0.001545 0.000000
# 4 0.000000 0.000000 0.000000 0.033310 0.000000 0.002685
# 5 0.002405 -0.001696 0.001545 0.000000 0.032761 0.000000
# 6 0.000000 0.000000 0.000000 0.002685 0.000000 0.039435
#
#
# Mechanical properties :
#
#
# Convention : Reuss Voigt Hill
#
# Bulk Modulus (GPa) = 44.82325 49.76095 47.29210
# Shear Modulus (GPa) = 27.80161 28.89733 28.34947
#
# Velocity S-wave (km/s) = 3.65401 3.72532 3.68983
# Velocity P-wave (km/s) = 6.27127 6.51166 6.39260
#
# Compressibility (1/GPa) = 0.02230985
#
# Stress axis : x y z
#
# Youngs Moduli (GPa) = 62.42675 79.33646 62.56583
#
# Poissons Ratio (x) = 0.30130 0.06147
# Poissons Ratio (y) = 0.23708 0.39842
# Poissons Ratio (z) = 0.06134 0.50522
#
# Static dielectric constant tensor:
#      x y z
#    x 3.647630 0.000000 0.033590 
#    y 0.000000 3.827440 0.000000 
#    z 0.033590 0.000000 3.837700 
# 
# 
# High freq. dielectric constant tensor:
#      x y z
#    x 1.804730 0.000000 0.001780 
#    y 0.000000 1.814200 0.000000 
#    z 0.001780 0.000000 1.816940 
# 
# From -- ./inp_files/247470.got.cif
#   From: 2010.06.25/outbox.cif.g09.slc.cpg/sg15_124_cif.got.tgz:247470.got - 2010.06.28 07:06:18.
