data_PCOD8133863
_publ_section_title
;
Structure prediction by ZEFSAII (Michael W. Deem and Ramdas Pophale) SiO2 
 PCOD8133863
Probable space group: C 2/C
;
_chemical_formula_sum "Si O2"
_cell_formula_units_Z 52
_cell_length_a 19.336578
_cell_length_b 13.433593
_cell_length_c 11.241274
_cell_angle_alpha 90.000000
_cell_angle_beta 111.838238
_cell_angle_gamma 90.000000
_cell_volume 2710.482318
_symmetry_space_group_name_H-M "C 2/C"
_symmetry_group_IT_number 15
_symmetry_cell_setting 'monoclinic'
loop_
_space_group_symop_operation_xyz
x,y,z
-x,y,1/2-z
-x,-y,-z
x,-y,1/2+z
1/2+x,1/2+y,z
1/2-x,1/2+y,1/2-z
1/2-x,1/2-y,-z
1/2+x,1/2-y,1/2+z
loop_
_atom_site_type_symbol
_atom_site_label
_atom_site_fract_x
_atom_site_fract_y
_atom_site_fract_z
Si Si1 0.267964 0.983323 0.121211
Si Si2 0.699689 0.308662 0.558995
Si Si3 0.368278 0.142371 0.517171
Si Si4 0.082251 0.757648 0.311541
Si Si5 0.586332 0.942908 0.688884
Si Si6 0.000000 0.608063 0.750000
Si Si7 0.296129 0.292276 0.305064
O O1 0.223032 0.901863 0.165792
O O2 0.211967 0.072852 0.050900
O O3 0.327380 0.027272 0.250131
O O4 0.310687 0.938573 0.033539
O O5 0.750000 0.250000 0.500000
O O6 0.614823 0.281682 0.465066
O O7 0.723887 0.266662 0.704588
O O8 0.421291 0.099764 0.447688
O O9 0.430787 0.173586 0.656177
O O10 0.321981 0.236143 0.441445
O O11 0.073716 0.639237 0.284689
O O12 0.136802 0.802371 0.246025
O O13 0.000000 0.806759 0.250000
O O14 0.531526 0.035584 0.667360
#
# Coordination Sequence:
#
# PCOD8133863 Si02
#       7
#     8   8   8   8   8   4   8
#     4  11  21  36  61  86 115 156 199 245 286 352
#     4  10  20  37  60  90 109 155 204 237 288 347
#     4  10  21  36  53  87 121 153 193 239 308 351
#     4  10  20  38  60  88 120 149 195 250 289 351
#     4  10  19  34  58  89 116 146 191 248 304 345
#     4  10  20  32  54  86 120 156 188 238 310 362
#     4  10  22  38  57  86 123 155 195 243 296 348
#
# _framework density 19.184778000000001
#
# number of rings (size 3 to 8) (size 9 to 14) (size 15 to 20)
#    0.000    1.846    5.385    0.923    4.308    0.000 
#   11.077    0.769    1.692    0.000    0.000    0.000 
#    0.000    0.000    0.000    0.000    0.000    0.000 
#
# Total GULP energy -322153.275614 kJ/mol
# GULP energy per Si atom -12390.510601 kJ/mol
# Density = 1.914111 g / cm^3
# Si number density = 19.184778 Si / 1000 Ang^3
#
#
#
# Elastic Constant Matrix: (Units=GPa)
#
#
# Indices 1 2 3 4 5 6 
#
# 1 72.0052 28.9732 44.9281 0.0000 22.9505 0.0000
# 2 28.9732 93.3277 55.6983 0.0000 11.6967 0.0000
# 3 44.9281 55.6983 111.2951 0.0000 26.7081 0.0000
# 4 0.0000 0.0000 0.0000 24.2208 0.0000 1.2843
# 5 22.9505 11.6967 26.7081 0.0000 29.9920 0.0000
# 6 0.0000 0.0000 0.0000 1.2843 0.0000 23.8892
#
#
#
# Elastic Compliance Matrix: (Units=1/GPa)
#
#
# Indices 1 2 3 4 5 6 
#
# 1 0.021385 -0.002406 -0.004740 0.000000 -0.011205 0.000000
# 2 -0.002406 0.015576 -0.007387 0.000000 0.002344 0.000000
# 3 -0.004740 -0.007387 0.016576 0.000000 -0.008253 0.000000
# 4 0.000000 0.000000 0.000000 0.041405 0.000000 -0.002226
# 5 -0.011205 0.002344 -0.008253 0.000000 0.048352 0.000000
# 6 0.000000 0.000000 0.000000 -0.002226 0.000000 0.041980
#
#
# Mechanical properties :
#
#
# Convention : Reuss Voigt Hill
#
# Bulk Modulus (GPa) = 40.86222 59.53634 50.19928
# Shear Modulus (GPa) = 22.47243 25.42231 23.94737
#
# Velocity S-wave (km/s) = 3.42624 3.64418 3.53689
# Velocity P-wave (km/s) = 6.08257 6.98622 6.55000
#
# Compressibility (1/GPa) = 0.02447248
#
# Stress axis : x y z
#
# Youngs Moduli (GPa) = 46.76229 64.19978 60.32927
#
# Poissons Ratio (x) = 0.15445 0.28595
# Poissons Ratio (y) = 0.11250 0.44563
# Poissons Ratio (z) = 0.22164 0.47422
#
# Static dielectric constant tensor:
#      x y z
#    x 3.437970 0.000000 0.369800 
#    y 0.000000 3.355060 0.000000 
#    z 0.369800 0.000000 4.408680 
# 
# 
# High freq. dielectric constant tensor:
#      x y z
#    x 1.732670 0.000000 0.009120 
#    y 0.000000 1.718060 0.000000 
#    z 0.009120 0.000000 1.754550 
# 
# From -- ./inp_files/111184.got.cif
#   From: 2010.06.25/outbox.cif.g09.slc.cpg/sg15_56_cif.got.tgz:111184.got - 2010.06.28 07:06:18.
