data_PCOD8133042
_publ_section_title
;
Structure prediction by ZEFSAII (Michael W. Deem and Ramdas Pophale) SiO2 
 PCOD8133042
Probable space group: C 2/C
;
_chemical_formula_sum "Si O2"
_cell_formula_units_Z 40
_cell_length_a 21.631418
_cell_length_b 8.277361
_cell_length_c 9.037359
_cell_angle_alpha 90.000000
_cell_angle_beta 80.713877
_cell_angle_gamma 90.000000
_cell_volume 1596.942553
_symmetry_space_group_name_H-M "C 2/C"
_symmetry_group_IT_number 15
_symmetry_cell_setting 'monoclinic'
loop_
_space_group_symop_operation_xyz
x,y,z
-x,y,1/2-z
-x,-y,-z
x,-y,1/2+z
1/2+x,1/2+y,z
1/2-x,1/2+y,1/2-z
1/2-x,1/2-y,-z
1/2+x,1/2-y,1/2+z
loop_
_atom_site_type_symbol
_atom_site_label
_atom_site_fract_x
_atom_site_fract_y
_atom_site_fract_z
Si Si1 0.078175 0.184955 0.968386
Si Si2 0.500000 0.757796 0.750000
Si Si3 0.919474 0.427688 0.028075
Si Si4 0.781602 0.501257 0.565489
Si Si5 0.000000 0.747037 0.750000
Si Si6 0.712211 0.650246 0.833372
O O1 0.076780 0.379798 0.969498
O O2 0.144941 0.097730 0.926116
O O3 0.037964 0.135321 0.841076
O O4 0.044636 0.135533 0.134627
O O5 0.547735 0.867281 0.634730
O O6 0.844850 0.389942 0.048805
O O7 0.953866 0.357490 0.160313
O O8 0.724481 0.605170 0.657338
O O9 0.766155 0.440898 0.406220
O O10 0.785701 0.342171 0.664609
#
# Coordination Sequence:
#
# PCOD8133042 Si02
#       6
#     8   4   8   8   4   8
#     4  10  19  34  58  88 124 153 205 258 311 365
#     4  10  19  34  56  97 122 159 202 265 310 357
#     4  10  19  31  57  89 129 150 203 257 316 360
#     4  10  24  41  64  93 125 169 210 257 312 372
#     4  10  19  32  58  95 122 161 196 263 318 353
#     4  10  24  43  63  91 127 167 213 258 309 372
#
# _framework density 25.047863
#
# number of rings (size 3 to 8) (size 9 to 14) (size 15 to 20)
#    0.000    2.000    0.000    4.800   14.000    0.800 
#    0.000    0.000    0.000    3.600    0.000    0.000 
#    0.000    0.000    0.000    0.000    0.000    0.000 
#
# Total GULP energy -247807.710815 kJ/mol
# GULP energy per Si atom -12390.385541 kJ/mol
# Density = 2.499085 g / cm^3
# Si number density = 25.047863 Si / 1000 Ang^3
#
#
#
# Elastic Constant Matrix: (Units=GPa)
#
#
# Indices 1 2 3 4 5 6 
#
# 1 191.0525 22.7009 68.7740 0.0000 -25.4810 0.0000
# 2 22.7009 14.7821 19.9341 0.0000 -2.1809 0.0000
# 3 68.7740 19.9341 139.4595 0.0000 -22.5887 0.0000
# 4 0.0000 0.0000 0.0000 -128.1545 0.0000 -95.0171
# 5 -25.4810 -2.1809 -22.5887 0.0000 43.3273 0.0000
# 6 0.0000 0.0000 0.0000 -95.0171 0.0000 -19.3417
#
#
#
# Elastic Compliance Matrix: (Units=1/GPa)
#
#
# Indices 1 2 3 4 5 6 
#
# 1 0.007288 -0.008111 -0.001973 0.000000 0.002849 0.000000
# 2 -0.008111 0.093025 -0.010170 0.000000 -0.005390 0.000000
# 3 -0.001973 -0.010170 0.010187 0.000000 0.003638 0.000000
# 4 0.000000 0.000000 0.000000 0.002953 0.000000 -0.014507
# 5 0.002849 -0.005390 0.003638 0.000000 0.026381 0.000000
# 6 0.000000 0.000000 0.000000 -0.014507 0.000000 0.019567
#
#
# Mechanical properties :
#
#
# Convention : Reuss Voigt Hill
#
# Bulk Modulus (GPa) = 14.28750 63.12357 38.70553
# Shear Modulus (GPa) = 22.39736 -5.24145 8.57796
#
# Velocity S-wave (km/s) = 2.99353 -1.44814 1.85258
# Velocity P-wave (km/s) = 4.20295 4.73917 4.47909
#
# Compressibility (1/GPa) = 0.06999127
#
# Stress axis : x y z
#
# Youngs Moduli (GPa) = 137.20666 10.74979 98.16771
#
# Poissons Ratio (x) = 0.08719 0.19371
# Poissons Ratio (y) = 1.11291 0.99835
# Poissons Ratio (z) = 0.27075 0.10932
#
# Static dielectric constant tensor:
#      x y z
#    x 5.144880 0.000000 -0.128350 
#    y 0.000000 3.908270 0.000000 
#    z -0.128350 0.000000 4.790160 
# 
# 
# High freq. dielectric constant tensor:
#      x y z
#    x 2.006430 0.000000 -0.008610 
#    y 0.000000 1.960230 0.000000 
#    z -0.008610 0.000000 2.014750 
# 
# From -- ./inp_files/60045.got.cif
#   From: 2010.06.25/outbox.cif.g09.slc.cpg/sg15_31_cif.got.tgz:60045.got - 2010.06.28 07:06:18.
