data_PCOD8133072
_publ_section_title
;
Structure prediction by ZEFSAII (Michael W. Deem and Ramdas Pophale) SiO2 
 PCOD8133072
Probable space group: C 2/C
;
_chemical_formula_sum "Si O2"
_cell_formula_units_Z 64
_cell_length_a 23.212430
_cell_length_b 17.432797
_cell_length_c 13.127670
_cell_angle_alpha 90.000000
_cell_angle_beta 130.670478
_cell_angle_gamma 90.000000
_cell_volume 4029.154048
_symmetry_space_group_name_H-M "C 2/C"
_symmetry_group_IT_number 15
_symmetry_cell_setting 'monoclinic'
loop_
_space_group_symop_operation_xyz
x,y,z
-x,y,1/2-z
-x,-y,-z
x,-y,1/2+z
1/2+x,1/2+y,z
1/2-x,1/2+y,1/2-z
1/2-x,1/2-y,-z
1/2+x,1/2-y,1/2+z
loop_
_atom_site_type_symbol
_atom_site_label
_atom_site_fract_x
_atom_site_fract_y
_atom_site_fract_z
Si Si1 0.782049 0.369261 0.228735
Si Si2 0.402390 0.896507 0.903214
Si Si3 0.936562 0.364026 0.314031
Si Si4 0.078617 0.471278 0.791268
Si Si5 0.081674 0.793772 0.827184
Si Si6 0.802633 0.490471 0.413911
Si Si7 0.275278 0.378789 0.564242
Si Si8 0.313938 0.769323 0.894556
O O1 0.872996 0.361544 0.328827
O O2 0.760770 0.432089 0.289381
O O3 0.747081 0.288336 0.224982
O O4 0.749453 0.393520 0.080764
O O5 0.411806 0.924671 0.800620
O O6 0.343831 0.825193 0.840454
O O7 0.368787 0.964467 0.931487
O O8 0.482702 0.871507 0.040128
O O9 0.920839 0.436609 0.222637
O O10 0.932345 0.287148 0.244059
O O11 0.000000 0.443995 0.750000
O O12 0.151366 0.447847 0.943206
O O13 0.137016 0.850966 0.827969
O O14 0.000000 0.834424 0.750000
O O15 0.116796 0.779242 0.979062
O O16 0.735957 0.544012 0.383074
O O17 0.222346 0.312704 0.550205
#
# Coordination Sequence:
#
# PCOD8133072 Si02
#       8
#     8   8   8   8   8   8   8   8
#     4  11  19  32  51  72  99 131 161 200 248 282
#     4  11  21  31  48  72 102 132 164 196 236 291
#     4  12  17  30  46  77 105 127 155 188 243 300
#     4  12  21  31  44  74 108 138 159 185 234 302
#     4  11  18  29  50  74  99 126 153 201 253 285
#     4  11  20  32  49  70 100 135 162 198 239 287
#     4  10  19  32  49  73 100 123 164 204 240 287
#     4  10  19  32  49  72  99 128 162 204 239 283
#
# _framework density 15.884226999999999
#
# number of rings (size 3 to 8) (size 9 to 14) (size 15 to 20)
#    0.000    1.000    7.500    3.000    0.000    0.000 
#    0.000    0.625    0.000    3.000    0.000    0.000 
#    0.000    0.000    0.000    0.000    0.000    0.000 
#
# Total GULP energy -396772.056217 kJ/mol
# GULP energy per Si atom -12399.126757 kJ/mol
# Density = 1.584807 g / cm^3
# Si number density = 15.884227 Si / 1000 Ang^3
#
#
#
# Elastic Constant Matrix: (Units=GPa)
#
#
# Indices 1 2 3 4 5 6 
#
# 1 97.7535 42.1095 44.5308 0.0000 1.6413 0.0000
# 2 42.1095 75.2526 49.6925 0.0000 -4.0625 0.0000
# 3 44.5308 49.6925 73.3709 0.0000 -1.5932 0.0000
# 4 0.0000 0.0000 0.0000 -8.3783 0.0000 -9.8520
# 5 1.6413 -4.0625 -1.5932 0.0000 22.0615 0.0000
# 6 0.0000 0.0000 0.0000 -9.8520 0.0000 18.8015
#
#
#
# Elastic Compliance Matrix: (Units=1/GPa)
#
#
# Indices 1 2 3 4 5 6 
#
# 1 0.014983 -0.004475 -0.006114 0.000000 -0.002380 0.000000
# 2 -0.004475 0.025613 -0.014544 0.000000 0.003999 0.000000
# 3 -0.006114 -0.014544 0.027185 0.000000 -0.000260 0.000000
# 4 0.000000 0.000000 0.000000 -0.073851 0.000000 -0.038698
# 5 -0.002380 0.003999 -0.000260 0.000000 0.046222 0.000000
# 6 0.000000 0.000000 0.000000 -0.038698 0.000000 0.032909
#
#
# Mechanical properties :
#
#
# Convention : Reuss Voigt Hill
#
# Bulk Modulus (GPa) = 57.09800 57.67141 57.38470
# Shear Modulus (GPa) = 38.70985 13.83322 26.27153
#
# Velocity S-wave (km/s) = 4.94195 2.95427 4.07128
# Velocity P-wave (km/s) = 8.28180 6.92987 7.63581
#
# Compressibility (1/GPa) = 0.01751375
#
# Stress axis : x y z
#
# Youngs Moduli (GPa) = 66.74310 39.04330 36.78481
#
# Poissons Ratio (x) = 0.17472 0.22492
# Poissons Ratio (y) = 0.29867 0.53500
# Poissons Ratio (z) = 0.40810 0.56785
#
# Static dielectric constant tensor:
#      x y z
#    x 3.271570 0.000000 0.112440 
#    y 0.000000 2.977220 0.000000 
#    z 0.112440 0.000000 2.936010 
# 
# 
# High freq. dielectric constant tensor:
#      x y z
#    x 1.614900 0.000000 0.005620 
#    y 0.000000 1.586810 0.000000 
#    z 0.005620 0.000000 1.592160 
# 
# From -- ./inp_files/107308.got.cif
#   From: 2010.06.25/outbox.cif.g09.slc.cpg/sg15_54_cif.got.tgz:107308.got - 2010.06.28 07:06:18.
