data_PCOD8133137
_publ_section_title
;
Structure prediction by ZEFSAII (Michael W. Deem and Ramdas Pophale) SiO2 
 PCOD8133137
Probable space group: C 2/C
;
_chemical_formula_sum "Si O2"
_cell_formula_units_Z 44
_cell_length_a 5.892713
_cell_length_b 18.199986
_cell_length_c 20.306670
_cell_angle_alpha 90.000000
_cell_angle_beta 80.443964
_cell_angle_gamma 90.000000
_cell_volume 2147.615137
_symmetry_space_group_name_H-M "C 2/C"
_symmetry_group_IT_number 15
_symmetry_cell_setting 'monoclinic'
loop_
_space_group_symop_operation_xyz
x,y,z
-x,y,1/2-z
-x,-y,-z
x,-y,1/2+z
1/2+x,1/2+y,z
1/2-x,1/2+y,1/2-z
1/2-x,1/2-y,-z
1/2+x,1/2-y,1/2+z
loop_
_atom_site_type_symbol
_atom_site_label
_atom_site_fract_x
_atom_site_fract_y
_atom_site_fract_z
Si Si1 0.584372 0.848204 0.048170
Si Si2 0.178434 0.053985 0.576097
Si Si3 0.185998 0.230775 0.373479
Si Si4 0.905532 0.830798 0.156125
Si Si5 0.963127 0.101215 0.448128
Si Si6 0.500000 0.786267 0.250000
O O1 0.451092 0.926921 0.060808
O O2 0.399589 0.782206 0.061024
O O3 0.751654 0.834420 0.099798
O O4 0.735289 0.848751 0.973896
O O5 0.068895 0.077246 0.512083
O O6 0.074731 0.098968 0.643671
O O7 0.124641 0.968314 0.590291
O O8 0.450360 0.253999 0.347885
O O9 0.154137 0.146580 0.397936
O O10 0.037136 0.238102 0.313674
O O11 0.733656 0.834603 0.227723
#
# Coordination Sequence:
#
# PCOD8133137 Si02
#       6
#     8   8   8   8   8   4
#     4   9  18  32  52  80 106 141 174 216 275 342
#     4   9  19  33  52  79 112 144 175 219 281 352
#     4  10  20  33  54  77 106 138 187 235 279 333
#     4   9  19  35  54  75 102 139 187 228 279 331
#     4  10  19  32  52  80 116 140 174 222 286 343
#     4  10  20  36  56  68  96 140 188 236 278 328
#
# _framework density 20.487843999999999
#
# number of rings (size 3 to 8) (size 9 to 14) (size 15 to 20)
#    0.000    2.545    0.000    1.636    0.000    9.455 
#    0.000    0.000   16.000    0.000    0.000    0.000 
#    0.000    0.000    0.000    0.000    0.000    0.000 
#
# Total GULP energy -272560.463038 kJ/mol
# GULP energy per Si atom -12389.111956 kJ/mol
# Density = 2.044121 g / cm^3
# Si number density = 20.487844 Si / 1000 Ang^3
#
#
#
# Elastic Constant Matrix: (Units=GPa)
#
#
# Indices 1 2 3 4 5 6 
#
# 1 98.5158 33.6734 25.3944 0.0000 -22.4149 0.0000
# 2 33.6734 104.9810 44.6453 0.0000 -8.8432 0.0000
# 3 25.3944 44.6453 74.1273 0.0000 -24.4266 0.0000
# 4 0.0000 0.0000 0.0000 15.9189 0.0000 -1.1575
# 5 -22.4149 -8.8432 -24.4266 0.0000 35.8921 0.0000
# 6 0.0000 0.0000 0.0000 -1.1575 0.0000 30.7026
#
#
#
# Elastic Compliance Matrix: (Units=1/GPa)
#
#
# Indices 1 2 3 4 5 6 
#
# 1 0.013020 -0.003615 0.000133 0.000000 0.007331 0.000000
# 2 -0.003615 0.014015 -0.008777 0.000000 -0.004778 0.000000
# 3 0.000133 -0.008777 0.023263 0.000000 0.013752 0.000000
# 4 0.000000 0.000000 0.000000 0.062991 0.000000 0.002375
# 5 0.007331 -0.004778 0.013752 0.000000 0.040621 0.000000
# 6 0.000000 0.000000 0.000000 0.002375 0.000000 0.032660
#
#
# Mechanical properties :
#
#
# Convention : Reuss Voigt Hill
#
# Bulk Modulus (GPa) = 38.79170 53.89449 46.34309
# Shear Modulus (GPa) = 22.76014 28.09678 25.42846
#
# Velocity S-wave (km/s) = 3.33665 3.70724 3.52682
# Velocity P-wave (km/s) = 5.81544 6.68488 6.26526
#
# Compressibility (1/GPa) = 0.02577871
#
# Stress axis : x y z
#
# Youngs Moduli (GPa) = 76.80445 71.35080 42.98742
#
# Poissons Ratio (x) = 0.25794 -0.00570
# Poissons Ratio (y) = 0.27766 0.37730
# Poissons Ratio (z) = -0.01018 0.62625
#
# Static dielectric constant tensor:
#      x y z
#    x 4.177630 0.000000 -0.516410 
#    y 0.000000 3.711380 0.000000 
#    z -0.516410 0.000000 3.833580 
# 
# 
# High freq. dielectric constant tensor:
#      x y z
#    x 1.819000 0.000000 -0.013830 
#    y 0.000000 1.769200 0.000000 
#    z -0.013830 0.000000 1.774740 
# 
# From -- ./inp_files/226902.got.cif
#   From: 2010.06.25/outbox.cif.g09.slc.cpg/sg15_114_cif.got.tgz:226902.got - 2010.06.28 07:06:18.
