data_PCOD8133607
_publ_section_title
;
Structure prediction by ZEFSAII (Michael W. Deem and Ramdas Pophale) SiO2 
 PCOD8133607
Probable space group: C 2/C
;
_chemical_formula_sum "Si O2"
_cell_formula_units_Z 56
_cell_length_a 13.496584
_cell_length_b 24.448700
_cell_length_c 9.290015
_cell_angle_alpha 90.000000
_cell_angle_beta 108.924914
_cell_angle_gamma 90.000000
_cell_volume 2899.757420
_symmetry_space_group_name_H-M "C 2/C"
_symmetry_group_IT_number 15
_symmetry_cell_setting 'monoclinic'
loop_
_space_group_symop_operation_xyz
x,y,z
-x,y,1/2-z
-x,-y,-z
x,-y,1/2+z
1/2+x,1/2+y,z
1/2-x,1/2+y,1/2-z
1/2-x,1/2-y,-z
1/2+x,1/2-y,1/2+z
loop_
_atom_site_type_symbol
_atom_site_label
_atom_site_fract_x
_atom_site_fract_y
_atom_site_fract_z
Si Si1 0.318184 0.676875 0.914225
Si Si2 0.355626 0.512647 0.675279
Si Si3 0.116932 0.262256 0.349478
Si Si4 0.617359 0.275330 0.332751
Si Si5 0.315870 0.571111 0.385395
Si Si6 0.058466 0.929754 0.011506
Si Si7 0.214195 0.809856 0.651844
O O1 0.193142 0.684354 0.889112
O O2 0.336815 0.678248 0.752211
O O3 0.363314 0.619811 0.996442
O O4 0.383309 0.730606 0.998861
O O5 0.284248 0.548607 0.530733
O O6 0.287583 0.472642 0.746196
O O7 0.428903 0.478759 0.597777
O O8 0.420891 0.551431 0.814364
O O9 0.169777 0.215499 0.276469
O O10 0.000000 0.280479 0.250000
O O11 0.500000 0.258416 0.250000
O O12 0.681660 0.219319 0.354622
O O13 0.622947 0.302565 0.491637
O O14 0.438643 0.587847 0.441583
O O15 0.254844 0.626466 0.316865
#
# Coordination Sequence:
#
# PCOD8133607 Si02
#       7
#     8   8   8   8   8   8   8
#     4  10  21  31  50  74  96 129 163 187 237 287
#     4  10  21  30  44  66  93 122 155 192 236 280
#     4  10  19  34  49  72 101 126 157 198 231 280
#     4  10  19  34  49  72 101 126 157 198 231 280
#     4  11  18  30  45  66  94 123 153 191 233 281
#     4  11  18  30  45  66  94 123 153 191 233 281
#     4  10  21  31  50  74  96 129 163 187 237 287
#
# _framework density 19.311959999999999
#
# number of rings (size 3 to 8) (size 9 to 14) (size 15 to 20)
#    0.000    1.714    0.000    7.714    0.000    0.000 
#    0.000    0.000    0.000    0.000    0.000    6.000 
#    0.000    0.000    0.000    0.000    0.000    0.000 
#
# Total GULP energy -347027.865484 kJ/mol
# GULP energy per Si atom -12393.852339 kJ/mol
# Density = 1.926800 g / cm^3
# Si number density = 19.311960 Si / 1000 Ang^3
#
#
#
# Elastic Constant Matrix: (Units=GPa)
#
#
# Indices 1 2 3 4 5 6 
#
# 1 59.1941 25.0322 12.4772 0.0000 14.5199 0.0000
# 2 25.0322 89.2434 4.9768 0.0000 -0.2391 0.0000
# 3 12.4772 4.9768 70.8309 0.0000 -10.5663 0.0000
# 4 0.0000 0.0000 0.0000 23.7226 0.0000 -0.4982
# 5 14.5199 -0.2391 -10.5663 0.0000 28.8656 0.0000
# 6 0.0000 0.0000 0.0000 -0.4982 0.0000 22.2021
#
#
#
# Elastic Compliance Matrix: (Units=1/GPa)
#
#
# Indices 1 2 3 4 5 6 
#
# 1 0.024533 -0.006584 -0.006038 0.000000 -0.014605 0.000000
# 2 -0.006584 0.013017 0.000799 0.000000 0.003712 0.000000
# 3 -0.006038 0.000799 0.016479 0.000000 0.009076 0.000000
# 4 0.000000 0.000000 0.000000 0.042174 0.000000 0.000946
# 5 -0.014605 0.003712 0.009076 0.000000 0.045343 0.000000
# 6 0.000000 0.000000 0.000000 0.000946 0.000000 0.045062
#
#
# Mechanical properties :
#
#
# Convention : Reuss Voigt Hill
#
# Bulk Modulus (GPa) = 32.91143 33.80453 33.35798
# Shear Modulus (GPa) = 22.68788 26.74354 24.71571
#
# Velocity S-wave (km/s) = 3.43127 3.72535 3.58133
# Velocity P-wave (km/s) = 5.72513 6.00390 5.86617
#
# Compressibility (1/GPa) = 0.03038458
#
# Stress axis : x y z
#
# Youngs Moduli (GPa) = 40.76158 76.82024 60.68146
#
# Poissons Ratio (x) = 0.50576 0.36638
# Poissons Ratio (y) = 0.26836 -0.04847
# Poissons Ratio (z) = 0.24611 -0.06137
#
# Static dielectric constant tensor:
#      x y z
#    x 3.118320 0.000000 -0.172400 
#    y 0.000000 3.569000 0.000000 
#    z -0.172400 0.000000 3.920040 
# 
# 
# High freq. dielectric constant tensor:
#      x y z
#    x 1.697000 0.000000 -0.022850 
#    y 0.000000 1.744930 0.000000 
#    z -0.022850 0.000000 1.776720 
# 
# From -- ./inp_files/42260.got.cif
#   From: 2010.06.25/outbox.cif.g09.slc.cpg/sg15_22_cif.got.tgz:42260.got - 2010.06.28 07:06:18.
