data_PCOD8133930
_publ_section_title
;
Structure prediction by ZEFSAII (Michael W. Deem and Ramdas Pophale) SiO2 
 PCOD8133930
Probable space group: C 2/C
;
_chemical_formula_sum "Si O2"
_cell_formula_units_Z 48
_cell_length_a 12.224806
_cell_length_b 26.528079
_cell_length_c 9.612335
_cell_angle_alpha 90.000000
_cell_angle_beta 127.860616
_cell_angle_gamma 90.000000
_cell_volume 2461.116609
_symmetry_space_group_name_H-M "C 2/C"
_symmetry_group_IT_number 15
_symmetry_cell_setting 'monoclinic'
loop_
_space_group_symop_operation_xyz
x,y,z
-x,y,1/2-z
-x,-y,-z
x,-y,1/2+z
1/2+x,1/2+y,z
1/2-x,1/2+y,1/2-z
1/2-x,1/2-y,-z
1/2+x,1/2-y,1/2+z
loop_
_atom_site_type_symbol
_atom_site_label
_atom_site_fract_x
_atom_site_fract_y
_atom_site_fract_z
Si Si1 0.468964 0.703137 0.888726
Si Si2 0.897417 0.898247 0.471548
Si Si3 0.231210 0.716969 0.350359
Si Si4 0.849025 0.604559 0.180986
Si Si5 0.841808 0.958127 0.170647
Si Si6 0.307253 0.572506 0.186287
O O1 0.500000 0.692313 0.750000
O O2 0.391144 0.655950 0.894023
O O3 0.372008 0.752660 0.833370
O O4 0.613011 0.709651 0.088060
O O5 0.821691 0.937477 0.310717
O O6 0.811798 0.894688 0.548457
O O7 0.052077 0.918806 0.617792
O O8 0.250000 0.750000 0.500000
O O9 0.163657 0.664511 0.342661
O O10 0.822672 0.589758 0.321669
O O11 0.000000 0.587201 0.250000
O O12 0.739139 0.576413 0.000193
O O13 0.000000 0.956175 0.250000
O O14 0.786612 0.014847 0.125293
#
# Coordination Sequence:
#
# PCOD8133930 Si02
#       6
#     8   8   8   8   8   8
#     4  10  19  34  60  87 118 150 201 247 297 351
#     4  11  20  36  61  93 120 150 202 261 292 345
#     4  10  19  35  57  88 113 151 201 249 288 343
#     4  12  25  41  61  88 127 158 198 249 304 360
#     4  12  20  38  66  92 113 162 210 244 287 355
#     4  11  23  37  61  91 124 153 201 253 301 342
#
# _framework density 19.503343000000001
#
# number of rings (size 3 to 8) (size 9 to 14) (size 15 to 20)
#    0.000    1.000    5.000    5.500    0.000    0.667 
#    0.000    1.667    0.000    0.000    0.000    0.000 
#    0.000    0.000    0.000    0.000    0.000    0.000 
#
# Total GULP energy -297592.055832 kJ/mol
# GULP energy per Si atom -12399.668993 kJ/mol
# Density = 1.945895 g / cm^3
# Si number density = 19.503343 Si / 1000 Ang^3
#
#
#
# Elastic Constant Matrix: (Units=GPa)
#
#
# Indices 1 2 3 4 5 6 
#
# 1 134.9869 41.6759 46.2243 0.0000 -12.0374 0.0000
# 2 41.6759 140.5530 38.9419 0.0000 -8.3315 0.0000
# 3 46.2243 38.9419 54.8303 0.0000 -19.9621 0.0000
# 4 0.0000 0.0000 0.0000 25.4007 0.0000 5.0088
# 5 -12.0374 -8.3315 -19.9621 0.0000 27.4910 0.0000
# 6 0.0000 0.0000 0.0000 5.0088 0.0000 12.1197
#
#
#
# Elastic Compliance Matrix: (Units=1/GPa)
#
#
# Indices 1 2 3 4 5 6 
#
# 1 0.010595 -0.000711 -0.009266 0.000000 -0.002305 0.000000
# 2 -0.000711 0.009040 -0.006711 0.000000 -0.002445 0.000000
# 3 -0.009266 -0.006711 0.038876 0.000000 0.022138 0.000000
# 4 0.000000 0.000000 0.000000 0.042862 0.000000 -0.017714
# 5 -0.002305 -0.002445 0.022138 0.000000 0.050701 0.000000
# 6 0.000000 0.000000 0.000000 -0.017714 0.000000 0.089831
#
#
# Mechanical properties :
#
#
# Convention : Reuss Voigt Hill
#
# Bulk Modulus (GPa) = 39.78604 64.89493 52.34048
# Shear Modulus (GPa) = 17.62671 26.57082 22.09876
#
# Velocity S-wave (km/s) = 3.00955 3.69504 3.36977
# Velocity P-wave (km/s) = 5.70267 7.17986 6.48347
#
# Compressibility (1/GPa) = 0.02513445
#
# Stress axis : x y z
#
# Youngs Moduli (GPa) = 94.38218 110.61880 25.72259
#
# Poissons Ratio (x) = 0.07864 0.23836
# Poissons Ratio (y) = 0.06709 0.17263
# Poissons Ratio (z) = 0.87459 0.74239
#
# Static dielectric constant tensor:
#      x y z
#    x 3.791490 0.000000 0.148570 
#    y 0.000000 3.864300 0.000000 
#    z 0.148570 0.000000 3.739420 
# 
# 
# High freq. dielectric constant tensor:
#      x y z
#    x 1.740820 0.000000 -0.002190 
#    y 0.000000 1.774070 0.000000 
#    z -0.002190 0.000000 1.741990 
# 
# From -- ./inp_files/33774.got.cif
#   From: 2010.06.25/outbox.cif.g09.slc.cpg/sg15_17_cif.got.tgz:33774.got - 2010.06.28 07:06:18.
