data_PCOD8133524
_publ_section_title
;
Structure prediction by ZEFSAII (Michael W. Deem and Ramdas Pophale) SiO2 
 PCOD8133524
Probable space group: C 2/C
;
_chemical_formula_sum "Si O2"
_cell_formula_units_Z 32
_cell_length_a 12.393615
_cell_length_b 25.250501
_cell_length_c 9.905030
_cell_angle_alpha 90.000000
_cell_angle_beta 155.712426
_cell_angle_gamma 90.000000
_cell_volume 1274.970471
_symmetry_space_group_name_H-M "C 2/C"
_symmetry_group_IT_number 15
_symmetry_cell_setting 'monoclinic'
loop_
_space_group_symop_operation_xyz
x,y,z
-x,y,1/2-z
-x,-y,-z
x,-y,1/2+z
1/2+x,1/2+y,z
1/2-x,1/2+y,1/2-z
1/2-x,1/2-y,-z
1/2+x,1/2-y,1/2+z
loop_
_atom_site_type_symbol
_atom_site_label
_atom_site_fract_x
_atom_site_fract_y
_atom_site_fract_z
Si Si1 0.000000 0.356759 0.250000
Si Si2 0.810639 0.396160 0.297826
Si Si3 0.737849 0.724716 0.784539
Si Si4 0.500000 0.291612 0.750000
Si Si5 0.000000 0.530908 0.250000
Si Si6 0.500000 0.461226 0.750000
O O1 0.012759 0.390770 0.402657
O O2 0.274030 0.326151 0.560106
O O3 0.743307 0.339165 0.289806
O O4 0.948009 0.432350 0.563285
O O5 0.552104 0.424400 0.941044
O O6 0.522843 0.749433 0.643137
O O7 0.639816 0.744718 0.523588
O O8 0.250427 0.496341 0.500115
#
# Coordination Sequence:
#
# PCOD8133524 Si02
#       6
#     4   8   8   4   4   4
#     4  10  21  37  65  94 130 176 217 272 339 393
#     4  11  25  48  72 103 142 182 227 290 344 408
#     4  11  22  36  62  99 135 177 221 269 335 411
#     4  10  19  33  57  94 132 172 223 274 321 387
#     4  12  29  48  73 102 136 184 237 286 349 410
#     4  12  27  46  73 104 134 178 237 294 347 404
#
# _framework density 25.098621000000001
#
# number of rings (size 3 to 8) (size 9 to 14) (size 15 to 20)
#    0.000    1.000    0.000    9.000    0.000   11.000 
#    0.000    1.250    0.000    0.000    0.000    0.000 
#    0.000    0.000    0.000    0.000    0.000    0.000 
#
# Total GULP energy -198241.624273 kJ/mol
# GULP energy per Si atom -12390.101517 kJ/mol
# Density = 2.504150 g / cm^3
# Si number density = 25.098621 Si / 1000 Ang^3
#
#
#
# Elastic Constant Matrix: (Units=GPa)
#
#
# Indices 1 2 3 4 5 6 
#
# 1 98.6429 77.5643 67.4459 -0.0044 16.0981 -0.0012
# 2 77.5643 189.0333 101.3052 0.0016 31.0821 0.0006
# 3 67.4459 101.3052 164.0796 -0.0034 43.0528 -0.0011
# 4 -0.0044 0.0016 -0.0034 112.9675 -0.0030 -4.6356
# 5 16.0981 31.0821 43.0528 -0.0030 47.6710 -0.0007
# 6 -0.0012 0.0006 -0.0011 -4.6356 -0.0007 28.8415
#
#
#
# Elastic Compliance Matrix: (Units=1/GPa)
#
#
# Indices 1 2 3 4 5 6 
#
# 1 0.016532 -0.004742 -0.004213 0.000001 0.001313 0.000001
# 2 -0.004742 0.009301 -0.003437 0.000000 -0.001359 -0.000001
# 3 -0.004213 -0.003437 0.011778 0.000000 -0.006974 0.000000
# 4 0.000001 0.000000 0.000000 0.008911 0.000001 0.001432
# 5 0.001313 -0.001359 -0.006974 0.000001 0.027718 0.000001
# 6 0.000001 -0.000001 0.000000 0.001432 0.000001 0.034903
#
#
# Mechanical properties :
#
#
# Convention : Reuss Voigt Hill
#
# Bulk Modulus (GPa) = 77.95047 104.93183 91.44115
# Shear Modulus (GPa) = 36.17919 51.59201 43.88560
#
# Velocity S-wave (km/s) = 3.80080 4.53876 4.18607
# Velocity P-wave (km/s) = 7.09835 8.32861 7.73797
#
# Compressibility (1/GPa) = 0.01282866
#
# Stress axis : x y z
#
# Youngs Moduli (GPa) = 60.48829 107.51434 84.90474
#
# Poissons Ratio (x) = 0.50982 0.35767
# Poissons Ratio (y) = 0.28683 0.29180
# Poissons Ratio (z) = 0.25481 0.36950
#
# Static dielectric constant tensor:
#      x y z
#    x 6.485270 -0.000020 1.989180 
#    y -0.000020 4.864970 -0.000020 
#    z 1.989180 -0.000020 6.405780 
# 
# 
# High freq. dielectric constant tensor:
#      x y z
#    x 1.990590 0.000000 0.019100 
#    y 0.000000 2.015770 0.000000 
#    z 0.019100 0.000000 2.016400 
# 
# From -- ./inp_files/101196.got.cif
#   From: 2010.06.25/outbox.cif.g09.slc.cpg/sg15_51_cif.got.tgz:101196.got - 2010.06.28 07:06:18.
