data_PCOD8133699
_publ_section_title
;
Structure prediction by ZEFSAII (Michael W. Deem and Ramdas Pophale) SiO2 
 PCOD8133699
Probable space group: C 2/C
;
_chemical_formula_sum "Si O2"
_cell_formula_units_Z 48
_cell_length_a 8.969381
_cell_length_b 17.981803
_cell_length_c 15.808313
_cell_angle_alpha 90.000000
_cell_angle_beta 90.893023
_cell_angle_gamma 90.000000
_cell_volume 2549.344227
_symmetry_space_group_name_H-M "C 2/C"
_symmetry_group_IT_number 15
_symmetry_cell_setting 'monoclinic'
loop_
_space_group_symop_operation_xyz
x,y,z
-x,y,1/2-z
-x,-y,-z
x,-y,1/2+z
1/2+x,1/2+y,z
1/2-x,1/2+y,1/2-z
1/2-x,1/2-y,-z
1/2+x,1/2-y,1/2+z
loop_
_atom_site_type_symbol
_atom_site_label
_atom_site_fract_x
_atom_site_fract_y
_atom_site_fract_z
Si Si1 0.314705 0.528927 0.579890
Si Si2 0.325411 0.279855 0.758751
Si Si3 0.835822 0.965095 0.407125
Si Si4 0.094153 0.814268 0.166180
Si Si5 0.322932 0.550023 0.247919
Si Si6 0.200617 0.204501 0.918801
O O1 0.255238 0.485661 0.495442
O O2 0.490536 0.516647 0.583975
O O3 0.250643 0.489885 0.664420
O O4 0.269413 0.615819 0.574096
O O5 0.500000 0.270356 0.750000
O O6 0.224585 0.243697 0.685070
O O7 0.274745 0.364840 0.753954
O O8 0.296927 0.239010 0.845646
O O9 0.817900 0.880102 0.379399
O O10 0.758212 0.012773 0.332249
O O11 0.000000 0.839924 0.250000
O O12 0.974636 0.780252 0.099635
O O13 0.500000 0.540627 0.250000
O O14 0.250000 0.250000 0.000000
#
# Coordination Sequence:
#
# PCOD8133699 Si02
#       6
#     8   8   8   8   8   8
#     4   9  17  28  49  76  98 126 171 214 249 296
#     4  10  20  33  52  76 104 138 170 208 259 311
#     4   9  15  28  50  74  97 126 167 216 254 289
#     4   9  18  33  53  75 101 135 171 211 259 309
#     4   9  16  28  46  71  99 127 167 211 247 291
#     4  10  19  34  55  78 103 133 172 217 260 306
#
# _framework density 18.828372000000002
#
# number of rings (size 3 to 8) (size 9 to 14) (size 15 to 20)
#    0.000    2.667    0.000    4.500    0.000    4.000 
#    0.000    3.333    0.000   18.000    0.000    0.000 
#    0.000    0.000    0.000    0.000    0.000    0.000 
#
# Total GULP energy -297380.437012 kJ/mol
# GULP energy per Si atom -12390.851542 kJ/mol
# Density = 1.878552 g / cm^3
# Si number density = 18.828372 Si / 1000 Ang^3
#
#
#
# Elastic Constant Matrix: (Units=GPa)
#
#
# Indices 1 2 3 4 5 6 
#
# 1 44.6121 50.1230 23.5842 0.0000 12.8666 0.0000
# 2 50.1230 144.2296 101.4928 0.0000 7.6403 0.0000
# 3 23.5842 101.4928 155.7783 0.0000 11.6292 0.0000
# 4 0.0000 0.0000 0.0000 39.5298 0.0000 7.5895
# 5 12.8666 7.6403 11.6292 0.0000 18.9421 0.0000
# 6 0.0000 0.0000 0.0000 7.5895 0.0000 22.8665
#
#
#
# Elastic Compliance Matrix: (Units=1/GPa)
#
#
# Indices 1 2 3 4 5 6 
#
# 1 0.053235 -0.023664 0.009793 0.000000 -0.032629 0.000000
# 2 -0.023664 0.023322 -0.012692 0.000000 0.014459 0.000000
# 3 0.009793 -0.012692 0.013960 0.000000 -0.010104 0.000000
# 4 0.000000 0.000000 0.000000 0.027019 0.000000 -0.008968
# 5 -0.032629 0.014459 -0.010104 0.000000 0.075327 0.000000
# 6 0.000000 0.000000 0.000000 -0.008968 0.000000 0.046709
#
#
# Mechanical properties :
#
#
# Convention : Reuss Voigt Hill
#
# Bulk Modulus (GPa) = 26.74242 77.22443 51.98343
# Shear Modulus (GPa) = 16.38487 27.56234 21.97360
#
# Velocity S-wave (km/s) = 2.95315 3.83021 3.41991
# Velocity P-wave (km/s) = 5.08549 7.78875 6.57750
#
# Compressibility (1/GPa) = 0.03739377
#
# Stress axis : x y z
#
# Youngs Moduli (GPa) = 18.78452 42.87800 71.63459
#
# Poissons Ratio (x) = 1.01465 -0.70155
# Poissons Ratio (y) = 0.44451 0.90915
# Poissons Ratio (z) = -0.18397 0.54419
#
# Static dielectric constant tensor:
#      x y z
#    x 2.946260 0.000000 0.105160 
#    y 0.000000 3.837360 0.000000 
#    z 0.105160 0.000000 3.823900 
# 
# 
# High freq. dielectric constant tensor:
#      x y z
#    x 1.672770 0.000000 0.009720 
#    y 0.000000 1.740020 0.000000 
#    z 0.009720 0.000000 1.747690 
# 
# From -- ./inp_files/143738.got.cif
#   From: 2010.06.25/outbox.cif.g09.slc.cpg/sg15_72_cif.got.tgz:143738.got - 2010.06.28 07:06:18.
