data_PCOD8133383
_publ_section_title
;
Structure prediction by ZEFSAII (Michael W. Deem and Ramdas Pophale) SiO2 
 PCOD8133383
Probable space group: C 2/C
;
_chemical_formula_sum "Si O2"
_cell_formula_units_Z 40
_cell_length_a 13.672202
_cell_length_b 13.952618
_cell_length_c 14.847370
_cell_angle_alpha 90.000000
_cell_angle_beta 138.889720
_cell_angle_gamma 90.000000
_cell_volume 1862.285897
_symmetry_space_group_name_H-M "C 2/C"
_symmetry_group_IT_number 15
_symmetry_cell_setting 'monoclinic'
loop_
_space_group_symop_operation_xyz
x,y,z
-x,y,1/2-z
-x,-y,-z
x,-y,1/2+z
1/2+x,1/2+y,z
1/2-x,1/2+y,1/2-z
1/2-x,1/2-y,-z
1/2+x,1/2-y,1/2+z
loop_
_atom_site_type_symbol
_atom_site_label
_atom_site_fract_x
_atom_site_fract_y
_atom_site_fract_z
Si Si1 0.411276 0.812031 0.266730
Si Si2 0.149860 0.977286 0.401647
Si Si3 0.490686 0.315964 0.086534
Si Si4 0.613004 0.657131 0.487564
Si Si5 0.805430 0.352459 0.380759
O O1 0.500000 0.871163 0.250000
O O2 0.506165 0.715764 0.348117
O O3 0.388450 0.873343 0.342721
O O4 0.251753 0.777702 0.116974
O O5 0.125857 0.879595 0.439823
O O6 0.277052 0.952344 0.415167
O O7 0.000000 0.011469 0.250000
O O8 0.190159 0.064514 0.495398
O O9 0.644588 0.302462 0.249526
O O10 0.520894 0.371258 0.013231
O O11 0.412453 0.214167 0.014738
#
# Coordination Sequence:
#
# PCOD8133383 Si02
#       5
#     8   8   8   8   8
#     4  10  20  36  56  78 106 143 186 228 274 328
#     4  10  19  33  54  82 114 146 183 227 274 331
#     4   9  18  34  56  81 111 147 184 223 275 333
#     4  10  20  35  57  82 107 144 189 230 271 326
#     4   9  19  34  55  81 110 146 185 224 275 332
#
# _framework density 21.478978999999999
#
# number of rings (size 3 to 8) (size 9 to 14) (size 15 to 20)
#    0.000    2.400    0.000    2.400    0.000    0.000 
#    0.000    3.000    0.000    4.800    0.000    0.000 
#    0.000    0.000    0.000    0.000    0.000    0.000 
#
# Total GULP energy -247800.857616 kJ/mol
# GULP energy per Si atom -12390.042881 kJ/mol
# Density = 2.143009 g / cm^3
# Si number density = 21.478979 Si / 1000 Ang^3
#
#
#
# Elastic Constant Matrix: (Units=GPa)
#
#
# Indices 1 2 3 4 5 6 
#
# 1 140.3281 37.9940 18.3562 0.0001 -14.0032 0.0001
# 2 37.9940 55.3843 24.6518 0.0000 -2.6557 0.0000
# 3 18.3562 24.6518 90.1079 0.0001 0.6489 0.0001
# 4 0.0001 0.0000 0.0001 17.1293 0.0001 -5.6678
# 5 -14.0032 -2.6557 0.6489 0.0001 24.9909 0.0001
# 6 0.0001 0.0000 0.0001 -5.6678 0.0001 31.7767
#
#
#
# Elastic Compliance Matrix: (Units=1/GPa)
#
#
# Indices 1 2 3 4 5 6 
#
# 1 0.009240 -0.005999 -0.000274 0.000000 0.004547 0.000000
# 2 -0.005999 0.024590 -0.005501 0.000000 -0.000605 0.000000
# 3 -0.000274 -0.005501 0.012666 0.000000 -0.001067 0.000000
# 4 0.000000 0.000000 0.000000 0.062041 0.000000 0.011066
# 5 0.004547 -0.000605 -0.001067 0.000000 0.042526 0.000000
# 6 0.000000 0.000000 0.000000 0.011066 0.000000 0.033443
#
#
# Mechanical properties :
#
#
# Convention : Reuss Voigt Hill
#
# Bulk Modulus (GPa) = 43.57456 49.75826 46.66641
# Shear Modulus (GPa) = 23.17999 28.43395 25.80697
#
# Velocity S-wave (km/s) = 3.28867 3.64236 3.47002
# Velocity P-wave (km/s) = 5.89505 6.39573 6.15049
#
# Compressibility (1/GPa) = 0.02294917
#
# Stress axis : x y z
#
# Youngs Moduli (GPa) = 108.22654 40.66644 78.94980
#
# Poissons Ratio (x) = 0.24394 0.02163
# Poissons Ratio (y) = 0.64921 0.43431
# Poissons Ratio (z) = 0.02965 0.22371
#
# Static dielectric constant tensor:
#      x y z
#    x 4.442940 0.000000 -0.236130 
#    y 0.000000 3.189990 0.000000 
#    z -0.236130 0.000000 3.976330 
# 
# 
# High freq. dielectric constant tensor:
#      x y z
#    x 1.869040 0.000000 -0.015430 
#    y 0.000000 1.781000 0.000000 
#    z -0.015430 0.000000 1.850030 
# 
# From -- ./inp_files/37822.got.cif
#   From: 2010.06.25/outbox.cif.g09.slc.cpg/sg15_19_cif.got.tgz:37822.got - 2010.06.28 07:06:18.
