data_PCOD8133895
_publ_section_title
;
Structure prediction by ZEFSAII (Michael W. Deem and Ramdas Pophale) SiO2 
 PCOD8133895
Probable space group: C 2/C
;
_chemical_formula_sum "Si O2"
_cell_formula_units_Z 60
_cell_length_a 24.616781
_cell_length_b 23.225486
_cell_length_c 13.916157
_cell_angle_alpha 90.000000
_cell_angle_beta 22.034252
_cell_angle_gamma 90.000000
_cell_volume 2984.921079
_symmetry_space_group_name_H-M "C 2/C"
_symmetry_group_IT_number 15
_symmetry_cell_setting 'monoclinic'
loop_
_space_group_symop_operation_xyz
x,y,z
-x,y,1/2-z
-x,-y,-z
x,-y,1/2+z
1/2+x,1/2+y,z
1/2-x,1/2+y,1/2-z
1/2-x,1/2-y,-z
1/2+x,1/2-y,1/2+z
loop_
_atom_site_type_symbol
_atom_site_label
_atom_site_fract_x
_atom_site_fract_y
_atom_site_fract_z
Si Si1 0.815108 0.050389 0.765965
Si Si2 0.032453 0.409102 0.422928
Si Si3 0.197189 0.331807 0.030311
Si Si4 0.500000 0.555156 0.750000
Si Si5 0.837185 0.209414 0.494277
Si Si6 0.618941 0.140004 0.976192
Si Si7 0.221352 0.484998 0.621542
Si Si8 0.398369 0.422264 0.609496
O O1 0.718233 0.088237 0.853340
O O2 0.975759 0.077467 0.516041
O O3 0.832220 0.985667 0.699108
O O4 0.734313 0.048070 0.999931
O O5 0.024045 0.382456 0.542894
O O6 0.175106 0.449210 0.181567
O O7 0.893475 0.448181 0.627647
O O8 0.047574 0.359326 0.317165
O O9 0.295791 0.317963 0.960519
O O10 0.274838 0.378114 0.837219
O O11 0.165886 0.278215 0.012931
O O12 0.628745 0.512064 0.567985
O O13 0.537615 0.596783 0.599011
O O14 0.726395 0.190659 0.761578
O O15 0.000000 0.189155 0.250000
O O16 0.500000 0.162137 0.250000
#
# Coordination Sequence:
#
# PCOD8133895 Si02
#       8
#     8   8   8   4   8   8   8   8
#     4  10  19  34  59  87 127 152 191 235 308 365
#     4  10  20  35  59  84 122 154 195 242 296 361
#     4  10  21  40  63  85 114 157 206 248 299 353
#     4  10  22  34  50  80 128 160 196 228 286 362
#     4  10  23  42  63  85 114 157 214 259 296 356
#     4  11  21  37  61  92 117 154 202 259 304 360
#     4  10  19  35  53  87 126 161 186 232 297 363
#     4  10  20  36  56  88 121 159 190 242 296 370
#
# _framework density 20.101033999999999
#
# number of rings (size 3 to 8) (size 9 to 14) (size 15 to 20)
#    0.000    1.867    2.667    1.600    0.000    1.067 
#    7.200    0.667    0.000    3.200    0.000    0.000 
#    0.000    0.000    0.000    0.000    0.000    0.000 
#
# Total GULP energy -371888.651028 kJ/mol
# GULP energy per Si atom -12396.288368 kJ/mol
# Density = 2.005528 g / cm^3
# Si number density = 20.101034 Si / 1000 Ang^3
#
#
#
# Elastic Constant Matrix: (Units=GPa)
#
#
# Indices 1 2 3 4 5 6 
#
# 1 54.1856 29.6533 40.4193 -0.0235 6.6113 0.0014
# 2 29.6533 86.4180 43.5490 -0.0335 14.8031 0.0101
# 3 40.4193 43.5490 111.3500 -0.0129 3.5396 0.0096
# 4 -0.0235 -0.0335 -0.0129 31.2822 -0.0004 9.2600
# 5 6.6113 14.8031 3.5396 -0.0004 20.6986 0.0007
# 6 0.0014 0.0101 0.0096 9.2600 0.0007 23.6635
#
#
#
# Elastic Compliance Matrix: (Units=1/GPa)
#
#
# Indices 1 2 3 4 5 6 
#
# 1 0.027502 -0.004705 -0.008014 0.000013 -0.004049 -0.000001
# 2 -0.004705 0.017296 -0.004737 0.000016 -0.010057 -0.000011
# 3 -0.008014 -0.004737 0.013627 -0.000005 0.003617 -0.000001
# 4 0.000013 0.000016 -0.000005 0.036155 -0.000014 -0.014148
# 5 -0.004049 -0.010057 0.003617 -0.000014 0.056180 0.000007
# 6 -0.000001 -0.000011 -0.000001 -0.014148 0.000007 0.047796
#
#
# Mechanical properties :
#
#
# Convention : Reuss Voigt Hill
#
# Bulk Modulus (GPa) = 42.52887 53.24407 47.88647
# Shear Modulus (GPa) = 20.72059 24.35097 22.53578
#
# Velocity S-wave (km/s) = 3.21412 3.48433 3.35195
# Velocity P-wave (km/s) = 5.91419 6.53706 6.23341
#
# Compressibility (1/GPa) = 0.02351344
#
# Stress axis : x y z
#
# Youngs Moduli (GPa) = 36.36094 57.81737 73.38110
#
# Poissons Ratio (x) = 0.27201 0.58810
# Poissons Ratio (y) = 0.17107 0.34760
# Poissons Ratio (z) = 0.29141 0.27388
#
# Static dielectric constant tensor:
#      x y z
#    x 3.618140 0.000000 0.183200 
#    y 0.000000 3.446840 0.000060 
#    z 0.183200 0.000060 3.813010 
# 
# 
# High freq. dielectric constant tensor:
#      x y z
#    x 1.785410 0.000000 0.008570 
#    y 0.000000 1.757280 0.000000 
#    z 0.008570 0.000000 1.796150 
# 
# From -- ./inp_files/179140.got.cif
#   From: 2010.06.25/outbox.cif.g09.slc.cpg/sg15_90_cif.got.tgz:179140.got - 2010.06.28 07:06:18.
