data_PCOD8133147
_publ_section_title
;
Structure prediction by ZEFSAII (Michael W. Deem and Ramdas Pophale) SiO2 
 PCOD8133147
Probable space group: C 2/C
;
_chemical_formula_sum "Si O2"
_cell_formula_units_Z 64
_cell_length_a 11.370140
_cell_length_b 22.043160
_cell_length_c 13.896499
_cell_angle_alpha 90.000000
_cell_angle_beta 83.235923
_cell_angle_gamma 90.000000
_cell_volume 3458.689782
_symmetry_space_group_name_H-M "C 2/C"
_symmetry_group_IT_number 15
_symmetry_cell_setting 'monoclinic'
loop_
_space_group_symop_operation_xyz
x,y,z
-x,y,1/2-z
-x,-y,-z
x,-y,1/2+z
1/2+x,1/2+y,z
1/2-x,1/2+y,1/2-z
1/2-x,1/2-y,-z
1/2+x,1/2-y,1/2+z
loop_
_atom_site_type_symbol
_atom_site_label
_atom_site_fract_x
_atom_site_fract_y
_atom_site_fract_z
Si Si1 0.352775 0.940112 0.044805
Si Si2 0.630084 0.855090 0.282043
Si Si3 0.172721 0.960790 0.897104
Si Si4 0.225984 0.098441 0.903218
Si Si5 0.460527 0.376907 0.928859
Si Si6 0.903543 0.576577 0.053515
Si Si7 0.600991 0.278250 0.818138
Si Si8 0.768678 0.120568 0.283393
O O1 0.329659 0.903020 0.143068
O O2 0.387354 0.006233 0.080183
O O3 0.238830 0.942082 0.988545
O O4 0.458338 0.909221 0.973019
O O5 0.500000 0.868176 0.250000
O O6 0.730344 0.860402 0.189654
O O7 0.638727 0.790466 0.337082
O O8 0.231429 0.930610 0.798060
O O9 0.039016 0.937833 0.926406
O O10 0.178186 0.032478 0.876929
O O11 0.118891 0.132521 0.968499
O O12 0.338986 0.092063 0.960670
O O13 0.544178 0.317038 0.911628
O O14 0.379230 0.389206 0.844004
O O15 0.854018 0.617070 0.146238
O O16 0.500000 0.272277 0.750000
O O17 0.716478 0.313421 0.766680
#
# Coordination Sequence:
#
# PCOD8133147 Si02
#       8
#     8   8   8   8   8   8   8   8
#     4  10  20  32  48  76 110 136 169 206 257 314
#     4  11  20  35  51  75 106 140 171 212 258 299
#     4  10  19  32  53  80 105 138 166 206 264 306
#     4  10  19  32  54  81 103 134 172 213 255 305
#     4   9  18  36  55  76 104 132 173 214 253 307
#     4   9  18  33  49  77 107 134 169 211 254 307
#     4   8  17  33  52  74 100 131 174 212 255 300
#     4   9  17  34  55  75 101 135 170 215 254 303
#
# _framework density 18.504116
#
# number of rings (size 3 to 8) (size 9 to 14) (size 15 to 20)
#    0.000    2.500    1.250    2.250    0.000    0.500 
#    2.250    6.875    0.000    0.000    6.500    0.000 
#    0.000    0.000    0.000    0.000    0.000    0.000 
#
# Total GULP energy -396641.606830 kJ/mol
# GULP energy per Si atom -12395.050213 kJ/mol
# Density = 1.846200 g / cm^3
# Si number density = 18.504116 Si / 1000 Ang^3
#
#
#
# Elastic Constant Matrix: (Units=GPa)
#
#
# Indices 1 2 3 4 5 6 
#
# 1 47.1651 14.9520 14.2448 0.0000 -15.1441 0.0000
# 2 14.9520 88.1112 40.5667 0.0000 -9.0913 0.0000
# 3 14.2448 40.5667 86.7602 0.0000 -18.5389 0.0000
# 4 0.0000 0.0000 0.0000 18.7329 0.0000 -1.2616
# 5 -15.1441 -9.0913 -18.5389 0.0000 27.0809 0.0000
# 6 0.0000 0.0000 0.0000 -1.2616 0.0000 18.1575
#
#
#
# Elastic Compliance Matrix: (Units=1/GPa)
#
#
# Indices 1 2 3 4 5 6 
#
# 1 0.026630 -0.003109 0.000047 0.000000 0.013881 0.000000
# 2 -0.003109 0.014827 -0.006712 0.000000 -0.001356 0.000000
# 3 0.000047 -0.006712 0.016611 0.000000 0.009144 0.000000
# 4 0.000000 0.000000 0.000000 0.053633 0.000000 0.003726
# 5 0.013881 -0.001356 0.009144 0.000000 0.050494 0.000000
# 6 0.000000 0.000000 0.000000 0.003726 0.000000 0.055333
#
#
# Mechanical properties :
#
#
# Convention : Reuss Voigt Hill
#
# Bulk Modulus (GPa) = 25.95964 40.17370 33.06667
# Shear Modulus (GPa) = 20.00684 22.94580 21.47632
#
# Velocity S-wave (km/s) = 3.29174 3.52524 3.41049
# Velocity P-wave (km/s) = 5.33919 6.19092 5.78077
#
# Compressibility (1/GPa) = 0.03852134
#
# Stress axis : x y z
#
# Youngs Moduli (GPa) = 37.55120 67.44369 60.20238
#
# Poissons Ratio (x) = 0.20965 -0.00284
# Poissons Ratio (y) = 0.11673 0.40408
# Poissons Ratio (z) = -0.00177 0.45269
#
# Static dielectric constant tensor:
#      x y z
#    x 3.341440 0.000000 -0.204040 
#    y 0.000000 3.534510 0.000000 
#    z -0.204040 0.000000 3.375250 
# 
# 
# High freq. dielectric constant tensor:
#      x y z
#    x 1.703090 0.000000 -0.018100 
#    y 0.000000 1.704530 0.000000 
#    z -0.018100 0.000000 1.713900 
# 
# From -- ./inp_files/90794.got.cif
#   From: 2010.06.25/outbox.cif.g09.slc.cpg/sg15_46_cif.got.tgz:90794.got - 2010.06.28 07:06:18.
