data_PCOD8133138
_publ_section_title
;
Structure prediction by ZEFSAII (Michael W. Deem and Ramdas Pophale) SiO2 
 PCOD8133138
Probable space group: C 2/C
;
_chemical_formula_sum "Si O2"
_cell_formula_units_Z 56
_cell_length_a 23.500144
_cell_length_b 18.755458
_cell_length_c 20.863296
_cell_angle_alpha 90.000000
_cell_angle_beta 160.492703
_cell_angle_gamma 90.000000
_cell_volume 3070.665669
_symmetry_space_group_name_H-M "C 2/C"
_symmetry_group_IT_number 15
_symmetry_cell_setting 'monoclinic'
loop_
_space_group_symop_operation_xyz
x,y,z
-x,y,1/2-z
-x,-y,-z
x,-y,1/2+z
1/2+x,1/2+y,z
1/2-x,1/2+y,1/2-z
1/2-x,1/2-y,-z
1/2+x,1/2-y,1/2+z
loop_
_atom_site_type_symbol
_atom_site_label
_atom_site_fract_x
_atom_site_fract_y
_atom_site_fract_z
Si Si1 0.469226 0.679883 0.292026
Si Si2 0.998006 0.962841 0.878421
Si Si3 0.500000 0.537370 0.750000
Si Si4 0.420559 0.834737 0.097840
Si Si5 0.000000 0.732257 0.250000
Si Si6 0.867716 0.544743 0.446144
Si Si7 0.825606 0.444861 0.756567
Si Si8 0.236281 0.153170 0.052284
O O1 0.500000 0.666977 0.250000
O O2 0.555713 0.620051 0.429770
O O3 0.517944 0.759281 0.365105
O O4 0.274407 0.671143 0.097008
O O5 0.825779 0.975054 0.737536
O O6 0.948395 0.989924 0.755348
O O7 0.161130 0.002802 0.080844
O O8 0.335125 0.584677 0.560330
O O9 0.500000 0.855854 0.250000
O O10 0.457569 0.895929 0.085657
O O11 0.102843 0.781589 0.409491
O O12 0.101334 0.679200 0.313106
O O13 0.857600 0.576141 0.363829
O O14 0.000599 0.478532 0.588563
O O15 0.783794 0.371366 0.674659
#
# Coordination Sequence:
#
# PCOD8133138 Si02
#       8
#     8   8   4   8   4   8   8   8
#     4  10  19  32  52  81 112 143 178 221 283 327
#     4  10  20  35  58  82 117 144 184 232 279 324
#     4   9  18  32  54  90 109 140 184 230 279 338
#     4  10  21  33  54  79 111 145 185 230 274 329
#     4   9  18  36  58  84 115 138 182 230 287 334
#     4  10  23  38  55  83 109 151 194 226 278 335
#     4  10  22  39  59  79 115 149 188 233 275 334
#     4   9  19  34  57  84 111 144 179 230 283 333
#
# _framework density 18.237088
#
# number of rings (size 3 to 8) (size 9 to 14) (size 15 to 20)
#    0.000    2.286    0.714    2.143    6.000    1.143 
#    0.000    2.857    0.000    0.000    0.000    0.000 
#    0.000    0.000    0.000    0.000    0.000    0.000 
#
# Total GULP energy -346997.039931 kJ/mol
# GULP energy per Si atom -12392.751426 kJ/mol
# Density = 1.819558 g / cm^3
# Si number density = 18.237088 Si / 1000 Ang^3
#
#
#
# Elastic Constant Matrix: (Units=GPa)
#
#
# Indices 1 2 3 4 5 6 
#
# 1 105.4864 60.6952 37.2541 -0.0349 -3.9260 0.0521
# 2 60.6952 89.0341 40.8783 -0.0617 -9.1581 0.0985
# 3 37.2541 40.8783 62.6293 -0.1489 -5.4546 0.1140
# 4 -0.0349 -0.0617 -0.1489 -33.4858 -0.0494 19.7205
# 5 -3.9260 -9.1581 -5.4546 -0.0494 32.0680 0.0512
# 6 0.0521 0.0985 0.1140 19.7205 0.0512 19.0759
#
#
#
# Elastic Compliance Matrix: (Units=1/GPa)
#
#
# Indices 1 2 3 4 5 6 
#
# 1 0.016159 -0.009548 -0.003497 0.000022 -0.001343 0.000007
# 2 -0.009548 0.021939 -0.008319 -0.000017 0.003681 -0.000030
# 3 -0.003497 -0.008319 0.023582 -0.000088 0.001207 -0.000001
# 4 0.000022 -0.000017 -0.000088 -0.018562 -0.000076 0.019190
# 5 -0.001343 0.003681 0.001207 -0.000076 0.032276 -0.000030
# 6 0.000007 -0.000030 -0.000001 0.019190 -0.000030 0.032584
#
#
# Mechanical properties :
#
#
# Convention : Reuss Voigt Hill
#
# Bulk Modulus (GPa) = 52.76705 59.42277 56.09491
# Shear Modulus (GPa) = 31.84229 11.41977 21.63103
#
# Velocity S-wave (km/s) = 4.18307 2.50508 3.44772
# Velocity P-wave (km/s) = 7.23378 6.40480 6.83187
#
# Compressibility (1/GPa) = 0.01895122
#
# Stress axis : x y z
#
# Youngs Moduli (GPa) = 61.88615 45.58053 42.40545
#
# Poissons Ratio (x) = 0.43522 0.14827
# Poissons Ratio (y) = 0.59091 0.35279
# Poissons Ratio (z) = 0.21639 0.37920
#
# Static dielectric constant tensor:
#      x y z
#    x 3.278520 -0.000120 0.090050 
#    y -0.000120 3.213090 -0.000130 
#    z 0.090050 -0.000130 3.453770 
# 
# 
# High freq. dielectric constant tensor:
#      x y z
#    x 1.700310 -0.000010 0.012020 
#    y -0.000010 1.707310 -0.000010 
#    z 0.012020 -0.000010 1.713960 
# 
# From -- ./inp_files/57598.got.cif
#   From: 2010.06.25/outbox.cif.g09.slc.cpg/sg15_29_cif.got.tgz:57598.got - 2010.06.28 07:06:18.
