data_PCOD8133357
_publ_section_title
;
Structure prediction by ZEFSAII (Michael W. Deem and Ramdas Pophale) SiO2 
 PCOD8133357
Probable space group: C 2/C
;
_chemical_formula_sum "Si O2"
_cell_formula_units_Z 64
_cell_length_a 22.477381
_cell_length_b 12.837683
_cell_length_c 21.244893
_cell_angle_alpha 90.000000
_cell_angle_beta 36.048244
_cell_angle_gamma 90.000000
_cell_volume 3607.517632
_symmetry_space_group_name_H-M "C 2/C"
_symmetry_group_IT_number 15
_symmetry_cell_setting 'monoclinic'
loop_
_space_group_symop_operation_xyz
x,y,z
-x,y,1/2-z
-x,-y,-z
x,-y,1/2+z
1/2+x,1/2+y,z
1/2-x,1/2+y,1/2-z
1/2-x,1/2-y,-z
1/2+x,1/2-y,1/2+z
loop_
_atom_site_type_symbol
_atom_site_label
_atom_site_fract_x
_atom_site_fract_y
_atom_site_fract_z
Si Si1 0.074145 0.182169 0.765047
Si Si2 0.978397 0.590683 0.066991
Si Si3 0.477993 0.902373 0.834772
Si Si4 0.612237 0.434833 0.035503
Si Si5 0.115187 0.776774 0.918624
Si Si6 0.667662 0.264342 0.314780
Si Si7 0.047092 0.093969 0.999101
Si Si8 0.746703 0.632907 0.524251
O O1 0.102939 0.190888 0.812844
O O2 0.168044 0.128975 0.649214
O O3 0.037359 0.293547 0.770949
O O4 0.977594 0.106994 0.843492
O O5 0.973209 0.546707 0.143652
O O6 0.874478 0.647835 0.134757
O O7 0.068548 0.674980 0.990813
O O8 0.000000 0.500000 0.000000
O O9 0.500000 0.964889 0.750000
O O10 0.358087 0.899657 0.950397
O O11 0.710153 0.439716 0.997057
O O12 0.637531 0.360203 0.954421
O O13 0.580666 0.550165 0.038416
O O14 0.214969 0.742384 0.797684
O O15 0.041276 0.819006 0.926479
O O16 0.647707 0.350206 0.385779
O O17 0.000000 0.000000 0.000000
O O18 0.750000 0.750000 0.500000
#
# Coordination Sequence:
#
# PCOD8133357 Si02
#       8
#     8   8   8   8   8   8   8   8
#     4  11  18  30  49  73 106 138 168 205 266 320
#     4  10  21  36  51  77 110 136 177 224 262 314
#     4  11  20  33  48  73 109 143 170 208 265 330
#     4  11  19  33  52  76 106 142 174 210 257 324
#     4  10  19  34  50  76 104 139 176 216 266 310
#     4  10  19  33  54  74 105 143 172 218 269 318
#     4   9  18  35  50  73 107 138 176 220 253 311
#     4  12  20  29  49  74 107 144 167 201 262 332
#
# _framework density 17.740732000000001
#
# number of rings (size 3 to 8) (size 9 to 14) (size 15 to 20)
#    0.000    1.500    7.500    1.875    1.750    2.000 
#    2.250    0.000    0.000    0.000    0.000   10.500 
#    0.000    0.000    0.000    0.000    0.000    0.000 
#
# Total GULP energy -396505.433462 kJ/mol
# GULP energy per Si atom -12390.794796 kJ/mol
# Density = 1.770035 g / cm^3
# Si number density = 17.740732 Si / 1000 Ang^3
#
#
#
# Elastic Constant Matrix: (Units=GPa)
#
#
# Indices 1 2 3 4 5 6 
#
# 1 56.1447 16.7062 7.5140 0.0000 7.5792 0.0000
# 2 16.7062 32.7867 8.4557 0.0000 11.7916 0.0000
# 3 7.5140 8.4557 84.7255 0.0000 -8.6786 0.0000
# 4 0.0000 0.0000 0.0000 11.5405 0.0000 1.5165
# 5 7.5792 11.7916 -8.6786 0.0000 35.2565 0.0000
# 6 0.0000 0.0000 0.0000 1.5165 0.0000 18.2156
#
#
#
# Elastic Compliance Matrix: (Units=1/GPa)
#
#
# Indices 1 2 3 4 5 6 
#
# 1 0.021111 -0.009968 -0.001027 0.000000 -0.001457 0.000000
# 2 -0.009968 0.041362 -0.004556 0.000000 -0.012812 0.000000
# 3 -0.001027 -0.004556 0.012851 0.000000 0.004908 0.000000
# 4 0.000000 0.000000 0.000000 0.087610 0.000000 -0.007294
# 5 -0.001457 -0.012812 0.004908 0.000000 0.034170 0.000000
# 6 0.000000 0.000000 0.000000 -0.007294 0.000000 0.055505
#
#
# Mechanical properties :
#
#
# Convention : Reuss Voigt Hill
#
# Bulk Modulus (GPa) = 22.61296 26.55653 24.58474
# Shear Modulus (GPa) = 16.75302 22.40126 19.57714
#
# Velocity S-wave (km/s) = 3.07632 3.55731 3.32552
# Velocity P-wave (km/s) = 5.03908 5.64573 5.35101
#
# Compressibility (1/GPa) = 0.04422243
#
# Stress axis : x y z
#
# Youngs Moduli (GPa) = 47.36785 24.17651 77.81281
#
# Poissons Ratio (x) = 0.24100 0.07989
# Poissons Ratio (y) = 0.47218 0.35455
# Poissons Ratio (z) = 0.04863 0.11016
#
# Static dielectric constant tensor:
#      x y z
#    x 3.701850 0.000000 -1.013430 
#    y 0.000000 2.852150 0.000000 
#    z -1.013430 0.000000 6.214910 
# 
# 
# High freq. dielectric constant tensor:
#      x y z
#    x 1.682400 0.000000 -0.008860 
#    y 0.000000 1.628530 0.000000 
#    z -0.008860 0.000000 1.695340 
# 
# From -- ./inp_files/255341.got.cif
#   From: 2010.06.25/outbox.cif.g09.slc.cpg/sg15_128_cif.got.tgz:255341.got - 2010.06.28 07:06:18.
