data_PCOD8133364
_publ_section_title
;
Structure prediction by ZEFSAII (Michael W. Deem and Ramdas Pophale) SiO2 
 PCOD8133364
Probable space group: C 2/C
;
_chemical_formula_sum "Si O2"
_cell_formula_units_Z 56
_cell_length_a 11.737120
_cell_length_b 27.273247
_cell_length_c 10.323009
_cell_angle_alpha 90.000000
_cell_angle_beta 107.530223
_cell_angle_gamma 90.000000
_cell_volume 3151.025378
_symmetry_space_group_name_H-M "C 2/C"
_symmetry_group_IT_number 15
_symmetry_cell_setting 'monoclinic'
loop_
_space_group_symop_operation_xyz
x,y,z
-x,y,1/2-z
-x,-y,-z
x,-y,1/2+z
1/2+x,1/2+y,z
1/2-x,1/2+y,1/2-z
1/2-x,1/2-y,-z
1/2+x,1/2-y,1/2+z
loop_
_atom_site_type_symbol
_atom_site_label
_atom_site_fract_x
_atom_site_fract_y
_atom_site_fract_z
Si Si1 0.418647 0.765960 0.914506
Si Si2 0.055627 0.438069 0.408262
Si Si3 0.723653 0.620325 0.144407
Si Si4 0.163291 0.718203 0.386761
Si Si5 0.220961 0.357201 0.549315
Si Si6 0.595076 0.047336 0.399415
Si Si7 0.478034 0.669353 0.094031
O O1 0.344264 0.755274 0.757036
O O2 0.537200 0.793292 0.909271
O O3 0.338854 0.802636 0.975301
O O4 0.467510 0.717890 0.003308
O O5 0.149655 0.394367 0.436486
O O6 0.120538 0.490754 0.444920
O O7 0.000000 0.436203 0.250000
O O8 0.960097 0.428241 0.490177
O O9 0.781063 0.665290 0.092432
O O10 0.771902 0.619814 0.306288
O O11 0.775698 0.571386 0.092863
O O12 0.579910 0.629803 0.086455
O O13 0.250000 0.750000 0.500000
O O14 0.352114 0.356839 0.533418
O O15 0.500000 0.053265 0.250000
O O16 0.500000 0.686256 0.250000
#
# Coordination Sequence:
#
# PCOD8133364 Si02
#       7
#     8   8   8   8   8   8   8
#     4  10  20  34  53  79 107 149 187 227 278 324
#     4  10  21  36  55  90 112 134 178 236 287 326
#     4  10  19  35  58  79 102 149 192 221 272 338
#     4  10  19  33  54  77 107 140 188 234 267 330
#     4  10  20  36  54  76 112 146 184 228 275 337
#     4  10  19  36  63  81 109 142 180 230 282 337
#     4  10  21  36  53  77 110 149 190 225 272 331
#
# _framework density 17.771992999999998
#
# number of rings (size 3 to 8) (size 9 to 14) (size 15 to 20)
#    0.000    2.000    2.857    1.286    2.000    0.571 
#    5.143    0.714    0.000    0.000    0.000    0.000 
#    0.000    0.000    0.000    0.000    0.000    0.000 
#
# Total GULP energy -346951.520541 kJ/mol
# GULP energy per Si atom -12391.125734 kJ/mol
# Density = 1.773154 g / cm^3
# Si number density = 17.771993 Si / 1000 Ang^3
#
#
#
# Elastic Constant Matrix: (Units=GPa)
#
#
# Indices 1 2 3 4 5 6 
#
# 1 113.1922 47.9533 21.7603 0.0000 -0.3964 0.0000
# 2 47.9533 77.6771 24.6375 0.0000 0.9550 0.0000
# 3 21.7603 24.6375 55.3652 0.0000 -1.6716 0.0000
# 4 0.0000 0.0000 0.0000 -26.9488 0.0000 -33.6332
# 5 -0.3964 0.9550 -1.6716 0.0000 23.3503 0.0000
# 6 0.0000 0.0000 0.0000 -33.6332 0.0000 6.6003
#
#
#
# Elastic Compliance Matrix: (Units=1/GPa)
#
#
# Indices 1 2 3 4 5 6 
#
# 1 0.012097 -0.006949 -0.001651 0.000000 0.000371 0.000000
# 2 -0.006949 0.019009 -0.005767 0.000000 -0.001308 0.000000
# 3 -0.001651 -0.005767 0.021330 0.000000 0.001735 0.000000
# 4 0.000000 0.000000 0.000000 -0.005042 0.000000 -0.025693
# 5 0.000371 -0.001308 0.001735 0.000000 0.043010 0.000000
# 6 0.000000 0.000000 0.000000 -0.025693 0.000000 0.020586
#
#
# Mechanical properties :
#
#
# Convention : Reuss Voigt Hill
#
# Bulk Modulus (GPa) = 42.19213 48.32629 45.25921
# Shear Modulus (GPa) = 33.86953 10.72591 22.29772
#
# Velocity S-wave (km/s) = 4.37026 2.45935 3.54595
# Velocity P-wave (km/s) = 7.01840 5.94272 6.50284
#
# Compressibility (1/GPa) = 0.02370110
#
# Stress axis : x y z
#
# Youngs Moduli (GPa) = 82.66431 52.60652 46.88306
#
# Poissons Ratio (x) = 0.36556 0.07741
# Poissons Ratio (y) = 0.57443 0.27039
# Poissons Ratio (z) = 0.13648 0.30340
#
# Static dielectric constant tensor:
#      x y z
#    x 3.500340 0.000000 -0.030380 
#    y 0.000000 3.199680 0.000000 
#    z -0.030380 0.000000 3.324920 
# 
# 
# High freq. dielectric constant tensor:
#      x y z
#    x 1.692670 0.000000 -0.005550 
#    y 0.000000 1.672940 0.000000 
#    z -0.005550 0.000000 1.682290 
# 
# From -- ./inp_files/34357.got.cif
#   From: 2010.06.25/outbox.cif.g09.slc.cpg/sg15_18_cif.got.tgz:34357.got - 2010.06.28 07:06:18.
