data_PCOD8133073
_publ_section_title
;
Structure prediction by ZEFSAII (Michael W. Deem and Ramdas Pophale) SiO2 
 PCOD8133073
Probable space group: C 2/C
;
_chemical_formula_sum "Si O2"
_cell_formula_units_Z 56
_cell_length_a 28.613017
_cell_length_b 14.974384
_cell_length_c 9.110235
_cell_angle_alpha 90.000000
_cell_angle_beta 51.881608
_cell_angle_gamma 90.000000
_cell_volume 3070.942788
_symmetry_space_group_name_H-M "C 2/C"
_symmetry_group_IT_number 15
_symmetry_cell_setting 'monoclinic'
loop_
_space_group_symop_operation_xyz
x,y,z
-x,y,1/2-z
-x,-y,-z
x,-y,1/2+z
1/2+x,1/2+y,z
1/2-x,1/2+y,1/2-z
1/2-x,1/2-y,-z
1/2+x,1/2-y,1/2+z
loop_
_atom_site_type_symbol
_atom_site_label
_atom_site_fract_x
_atom_site_fract_y
_atom_site_fract_z
Si Si1 0.241558 0.116812 0.555093
Si Si2 0.179389 0.684158 0.561928
Si Si3 0.443188 0.107143 0.048455
Si Si4 0.794528 0.006221 0.136619
Si Si5 0.188622 0.875355 0.639601
Si Si6 0.572407 0.065443 0.747696
Si Si7 0.662185 0.229141 0.259365
O O1 0.243826 0.067607 0.395277
O O2 0.297460 0.182407 0.444500
O O3 0.177255 0.166121 0.705923
O O4 0.250537 0.047303 0.669923
O O5 0.161333 0.776693 0.679591
O O6 0.240113 0.639884 0.499904
O O7 0.128346 0.615849 0.706963
O O8 0.182891 0.702452 0.381756
O O9 0.406597 0.200808 0.137300
O O10 0.426425 0.037510 0.207378
O O11 0.514131 0.121350 0.913524
O O12 0.423944 0.061729 0.934139
O O13 0.832895 0.071797 0.170850
O O14 0.831028 0.936213 0.963337
#
# Coordination Sequence:
#
# PCOD8133073 Si02
#       7
#     8   8   8   8   8   8   8
#     4  10  20  32  47  73  99 132 162 201 242 297
#     4  10  19  32  49  73 102 128 166 203 238 293
#     4   9  19  34  51  72  97 130 166 198 238 288
#     4  10  20  32  48  68 100 130 166 192 250 292
#     4  10  20  32  47  73  99 132 162 201 242 297
#     4   9  19  34  51  72  97 130 166 198 238 288
#     4  10  19  32  49  73 102 128 166 203 238 293
#
# _framework density 18.235441999999999
#
# number of rings (size 3 to 8) (size 9 to 14) (size 15 to 20)
#    0.000    2.286    2.857    0.000    4.000    0.000 
#    2.571    0.000    0.000    0.000    0.000    6.000 
#    0.000    0.000    0.000    0.000    0.000    0.000 
#
# Total GULP energy -346880.467209 kJ/mol
# GULP energy per Si atom -12388.588115 kJ/mol
# Density = 1.819394 g / cm^3
# Si number density = 18.235442 Si / 1000 Ang^3
#
#
#
# Elastic Constant Matrix: (Units=GPa)
#
#
# Indices 1 2 3 4 5 6 
#
# 1 46.5606 17.1765 22.9901 0.0000 -1.1242 0.0000
# 2 17.1765 67.1159 21.8778 0.0000 3.2417 0.0000
# 3 22.9901 21.8778 57.7811 0.0000 13.0783 0.0000
# 4 0.0000 0.0000 0.0000 28.0191 0.0000 2.8699
# 5 -1.1242 3.2417 13.0783 0.0000 28.4768 0.0000
# 6 0.0000 0.0000 0.0000 2.8699 0.0000 26.5122
#
#
#
# Elastic Compliance Matrix: (Units=1/GPa)
#
#
# Indices 1 2 3 4 5 6 
#
# 1 0.028784 -0.003945 -0.011515 0.000000 0.006874 0.000000
# 2 -0.003945 0.017571 -0.005129 0.000000 0.000199 0.000000
# 3 -0.011515 -0.005129 0.026562 0.000000 -0.012070 0.000000
# 4 0.000000 0.000000 0.000000 0.036090 0.000000 -0.003907
# 5 0.006874 0.000199 -0.012070 0.000000 0.040908 0.000000
# 6 0.000000 0.000000 0.000000 -0.003907 0.000000 0.038141
#
#
# Mechanical properties :
#
#
# Convention : Reuss Voigt Hill
#
# Bulk Modulus (GPa) = 31.50526 32.83848 32.17187
# Shear Modulus (GPa) = 20.84941 23.89581 22.37261
#
# Velocity S-wave (km/s) = 3.38501 3.62388 3.50648
# Velocity P-wave (km/s) = 5.70895 5.96298 5.83735
#
# Compressibility (1/GPa) = 0.03174073
#
# Stress axis : x y z
#
# Youngs Moduli (GPa) = 34.74096 56.91076 37.64773
#
# Poissons Ratio (x) = 0.22452 0.43351
# Poissons Ratio (y) = 0.13706 0.19308
# Poissons Ratio (z) = 0.40004 0.29187
#
# Static dielectric constant tensor:
#      x y z
#    x 3.227030 0.000000 0.213910 
#    y 0.000000 3.629990 0.000000 
#    z 0.213910 0.000000 3.329010 
# 
# 
# High freq. dielectric constant tensor:
#      x y z
#    x 1.669170 0.000000 0.033430 
#    y 0.000000 1.712640 0.000000 
#    z 0.033430 0.000000 1.694190 
# 
# From -- ./inp_files/69905.got.cif
#   From: 2010.06.25/outbox.cif.g09.slc.cpg/sg15_35_cif.got.tgz:69905.got - 2010.06.28 07:06:18.
