data_PCOD8133260
_publ_section_title
;
Structure prediction by ZEFSAII (Michael W. Deem and Ramdas Pophale) SiO2 
 PCOD8133260
Probable space group: C 2/C
;
_chemical_formula_sum "Si O2"
_cell_formula_units_Z 56
_cell_length_a 14.303690
_cell_length_b 33.916588
_cell_length_c 14.642864
_cell_angle_alpha 90.000000
_cell_angle_beta 29.337237
_cell_angle_gamma 90.000000
_cell_volume 3480.464833
_symmetry_space_group_name_H-M "C 2/C"
_symmetry_group_IT_number 15
_symmetry_cell_setting 'monoclinic'
loop_
_space_group_symop_operation_xyz
x,y,z
-x,y,1/2-z
-x,-y,-z
x,-y,1/2+z
1/2+x,1/2+y,z
1/2-x,1/2+y,1/2-z
1/2-x,1/2-y,-z
1/2+x,1/2-y,1/2+z
loop_
_atom_site_type_symbol
_atom_site_label
_atom_site_fract_x
_atom_site_fract_y
_atom_site_fract_z
Si Si1 0.398145 0.983557 0.247999
Si Si2 0.596119 0.588804 0.391306
Si Si3 0.530371 0.927834 0.826046
Si Si4 0.757670 0.559368 0.705106
Si Si5 0.214261 0.296042 0.035343
Si Si6 0.559220 0.341479 0.790876
Si Si7 0.027530 0.015034 0.332786
O O1 0.500000 0.963564 0.250000
O O2 0.415861 0.955078 0.145160
O O3 0.175426 0.992868 0.448863
O O4 0.499799 0.024983 0.143771
O O5 0.762524 0.587026 0.323271
O O6 0.395514 0.586934 0.614583
O O7 0.612236 0.631060 0.329576
O O8 0.622011 0.553747 0.296303
O O9 0.500000 0.911454 0.750000
O O10 0.367399 0.913752 0.036418
O O11 0.657459 0.522416 0.741748
O O12 0.000000 0.306516 0.250000
O O13 0.250000 0.250000 0.000000
O O14 0.372161 0.314101 0.971924
O O15 0.259198 0.314338 0.895480
O O16 0.500000 0.367100 0.750000
O O17 0.000000 0.022202 0.250000
#
# Coordination Sequence:
#
# PCOD8133260 Si02
#       7
#     8   8   8   8   8   8   8
#     4  10  19  33  46  71  86 118 177 230 273 328
#     4  11  21  37  45  73 107 131 173 224 280 314
#     4  11  22  34  53  65  90 128 186 236 272 309
#     4  11  22  35  50  68  91 137 182 234 278 320
#     4   9  15  32  57  82 109 145 173 193 232 309
#     4   8  20  31  51  79 112 144 165 201 245 304
#     4  11  20  32  51  65  95 136 181 233 276 317
#
# _framework density 16.089804000000001
#
# number of rings (size 3 to 8) (size 9 to 14) (size 15 to 20)
#    0.857    0.857    4.286    3.429    2.000    1.143 
#    0.000    0.714    0.000    0.000    0.000    0.000 
#    0.000    1.143    0.000    0.143    0.000    0.000 
#
# Total GULP energy -346932.829054 kJ/mol
# GULP energy per Si atom -12390.458181 kJ/mol
# Density = 1.605318 g / cm^3
# Si number density = 16.089804 Si / 1000 Ang^3
#
#
#
# Elastic Constant Matrix: (Units=GPa)
#
#
# Indices 1 2 3 4 5 6 
#
# 1 114.2664 26.0474 25.1642 0.0001 4.5227 0.0000
# 2 26.0474 56.7349 20.6886 0.0000 3.2762 0.0000
# 3 25.1642 20.6886 92.5934 0.0001 1.6522 0.0000
# 4 0.0001 0.0000 0.0001 20.7942 -0.0001 3.1894
# 5 4.5227 3.2762 1.6522 -0.0001 26.5183 0.0000
# 6 0.0000 0.0000 0.0000 3.1894 0.0000 12.3390
#
#
#
# Elastic Compliance Matrix: (Units=1/GPa)
#
#
# Indices 1 2 3 4 5 6 
#
# 1 0.010091 -0.003892 -0.001853 0.000000 -0.001125 0.000000
# 2 -0.003892 0.020809 -0.003562 0.000000 -0.001685 0.000000
# 3 -0.001853 -0.003562 0.012099 0.000000 0.000002 0.000000
# 4 0.000000 0.000000 0.000000 0.050076 0.000000 -0.012943
# 5 -0.001125 -0.001685 0.000002 0.000000 0.038110 0.000000
# 6 0.000000 0.000000 0.000000 -0.012943 0.000000 0.084390
#
#
# Mechanical properties :
#
#
# Convention : Reuss Voigt Hill
#
# Bulk Modulus (GPa) = 41.00717 45.26613 43.13665
# Shear Modulus (GPa) = 20.63419 24.70992 22.67205
#
# Velocity S-wave (km/s) = 3.58500 3.92312 3.75786
# Velocity P-wave (km/s) = 6.53285 6.97966 6.75994
#
# Compressibility (1/GPa) = 0.02438598
#
# Stress axis : x y z
#
# Youngs Moduli (GPa) = 99.09515 48.05635 82.65038
#
# Poissons Ratio (x) = 0.18706 0.15313
# Poissons Ratio (y) = 0.38572 0.29436
# Poissons Ratio (z) = 0.18360 0.17115
#
# Static dielectric constant tensor:
#      x y z
#    x 3.107400 0.000000 0.045030 
#    y 0.000000 2.559740 0.000000 
#    z 0.045030 0.000000 3.299610 
# 
# 
# High freq. dielectric constant tensor:
#      x y z
#    x 1.612080 0.000000 -0.004140 
#    y 0.000000 1.556770 0.000000 
#    z -0.004140 0.000000 1.638800 
# 
# From -- ./inp_files/157452.got.cif
#   From: 2010.06.25/outbox.cif.g09.slc.cpg/sg15_79_cif.got.tgz:157452.got - 2010.06.28 07:06:18.
