data_PCOD8133559
_publ_section_title
;
Structure prediction by ZEFSAII (Michael W. Deem and Ramdas Pophale) SiO2 
 PCOD8133559
Probable space group: C 2/C
;
_chemical_formula_sum "Si O2"
_cell_formula_units_Z 36
_cell_length_a 8.892049
_cell_length_b 25.349411
_cell_length_c 12.079392
_cell_angle_alpha 90.000000
_cell_angle_beta 142.003653
_cell_angle_gamma 90.000000
_cell_volume 1676.182611
_symmetry_space_group_name_H-M "C 2/C"
_symmetry_group_IT_number 15
_symmetry_cell_setting 'monoclinic'
loop_
_space_group_symop_operation_xyz
x,y,z
-x,y,1/2-z
-x,-y,-z
x,-y,1/2+z
1/2+x,1/2+y,z
1/2-x,1/2+y,1/2-z
1/2-x,1/2-y,-z
1/2+x,1/2-y,1/2+z
loop_
_atom_site_type_symbol
_atom_site_label
_atom_site_fract_x
_atom_site_fract_y
_atom_site_fract_z
Si Si1 0.963089 0.696781 0.905101
Si Si2 0.192121 0.385018 0.679155
Si Si3 0.000000 0.464448 0.750000
Si Si4 0.263640 0.980484 0.930765
Si Si5 0.594410 0.310921 0.002655
O O1 0.219233 0.694561 0.989929
O O2 0.735433 0.677689 0.699261
O O3 0.988815 0.658851 0.027405
O O4 0.931006 0.757853 0.921371
O O5 0.259456 0.417466 0.605882
O O6 0.098320 0.427351 0.711428
O O7 0.420992 0.359014 0.872484
O O8 0.801389 0.504513 0.581532
O O9 0.000000 0.007003 0.750000
O O10 0.500000 0.000000 0.000000
#
# Coordination Sequence:
#
# PCOD8133559 Si02
#       5
#     8   8   4   8   8
#     4  10  19  33  59  91 121 155 195 250 310 372
#     4  11  22  39  61  89 122 164 205 255 320 373
#     4  10  26  44  60  86 126 166 218 264 312 384
#     4  10  23  42  66  92 126 165 217 266 319 375
#     4  10  19  33  59  89 123 154 196 249 308 371
#
# _framework density 21.477374000000001
#
# number of rings (size 3 to 8) (size 9 to 14) (size 15 to 20)
#    0.000    1.778    2.222    2.000    0.000   10.667 
#    0.000    1.111    0.000    0.000    0.000    0.000 
#    0.000    0.000    0.000    0.000    0.000    0.000 
#
# Total GULP energy -222998.150856 kJ/mol
# GULP energy per Si atom -12388.786159 kJ/mol
# Density = 2.142849 g / cm^3
# Si number density = 21.477374 Si / 1000 Ang^3
#
#
#
# Elastic Constant Matrix: (Units=GPa)
#
#
# Indices 1 2 3 4 5 6 
#
# 1 40.8749 34.0521 38.5656 0.0000 -3.6237 0.0000
# 2 34.0521 140.7892 85.9711 0.0000 -13.9348 0.0000
# 3 38.5656 85.9711 190.4178 0.0000 -8.4106 0.0000
# 4 0.0000 0.0000 0.0000 49.5782 0.0000 -8.5946
# 5 -3.6237 -13.9348 -8.4106 0.0000 31.8743 0.0000
# 6 0.0000 0.0000 0.0000 -8.5946 0.0000 28.3349
#
#
#
# Elastic Compliance Matrix: (Units=1/GPa)
#
#
# Indices 1 2 3 4 5 6 
#
# 1 0.032953 -0.005349 -0.004246 0.000000 0.000288 0.000000
# 2 -0.005349 0.010999 -0.003741 0.000000 0.003213 0.000000
# 3 -0.004246 -0.003741 0.007798 0.000000 -0.000060 0.000000
# 4 0.000000 0.000000 0.000000 0.021290 0.000000 0.006458
# 5 0.000288 0.003213 -0.000060 0.000000 0.032795 0.000000
# 6 0.000000 0.000000 0.000000 0.006458 0.000000 0.037251
#
#
# Mechanical properties :
#
#
# Convention : Reuss Voigt Hill
#
# Bulk Modulus (GPa) = 39.87568 76.58439 58.23003
# Shear Modulus (GPa) = 28.07175 36.19035 32.13105
#
# Velocity S-wave (km/s) = 3.61922 4.10938 3.87207
# Velocity P-wave (km/s) = 6.00597 7.63228 6.86743
#
# Compressibility (1/GPa) = 0.02507794
#
# Stress axis : x y z
#
# Youngs Moduli (GPa) = 30.34643 90.92030 128.24173
#
# Poissons Ratio (x) = 0.48630 0.54457
# Poissons Ratio (y) = 0.16231 0.47969
# Poissons Ratio (z) = 0.12886 0.34009
#
# Static dielectric constant tensor:
#      x y z
#    x 3.861050 0.000000 -0.543560 
#    y 0.000000 4.346100 0.000000 
#    z -0.543560 0.000000 4.602310 
# 
# 
# High freq. dielectric constant tensor:
#      x y z
#    x 1.790520 0.000000 -0.007520 
#    y 0.000000 1.856400 0.000000 
#    z -0.007520 0.000000 1.864690 
# 
# From -- ./inp_files/81036.got.cif
#   From: 2010.06.25/outbox.cif.g09.slc.cpg/sg15_41_cif.got.tgz:81036.got - 2010.06.28 07:06:18.
