data_PCOD8133485
_publ_section_title
;
Structure prediction by ZEFSAII (Michael W. Deem and Ramdas Pophale) SiO2 
 PCOD8133485
Probable space group: C 2/C
;
_chemical_formula_sum "Si O2"
_cell_formula_units_Z 64
_cell_length_a 14.587802
_cell_length_b 18.953466
_cell_length_c 12.217212
_cell_angle_alpha 90.000000
_cell_angle_beta 74.346816
_cell_angle_gamma 90.000000
_cell_volume 3252.650864
_symmetry_space_group_name_H-M "C 2/C"
_symmetry_group_IT_number 15
_symmetry_cell_setting 'monoclinic'
loop_
_space_group_symop_operation_xyz
x,y,z
-x,y,1/2-z
-x,-y,-z
x,-y,1/2+z
1/2+x,1/2+y,z
1/2-x,1/2+y,1/2-z
1/2-x,1/2-y,-z
1/2+x,1/2-y,1/2+z
loop_
_atom_site_type_symbol
_atom_site_label
_atom_site_fract_x
_atom_site_fract_y
_atom_site_fract_z
Si Si1 0.087396 0.086157 0.157459
Si Si2 0.676529 0.204858 0.678159
Si Si3 0.797132 0.154845 0.028141
Si Si4 0.919399 0.311200 0.525957
Si Si5 0.030130 0.930372 0.122155
Si Si6 0.252589 0.142308 0.211179
Si Si7 0.130262 0.306332 0.436456
Si Si8 0.625568 0.344003 0.433874
O O1 0.180692 0.077469 0.204913
O O2 0.000000 0.122425 0.250000
O O3 0.047089 0.013809 0.120764
O O4 0.124129 0.145513 0.063554
O O5 0.612431 0.191523 0.591236
O O6 0.711583 0.285017 0.674718
O O7 0.623194 0.187143 0.807622
O O8 0.766680 0.151806 0.643525
O O9 0.741292 0.139989 0.159325
O O10 0.853942 0.227635 0.022767
O O11 0.876262 0.099476 0.965882
O O12 0.717963 0.149928 0.958301
O O13 0.855858 0.365190 0.619876
O O14 0.916328 0.232933 0.580169
O O15 0.028070 0.336516 0.506552
O O16 0.000000 0.899305 0.250000
O O17 0.936587 0.910418 0.085172
#
# Coordination Sequence:
#
# PCOD8133485 Si02
#       8
#     8   8   8   8   8   8   8   8
#     4  11  22  34  56  83 113 155 197 231 285 347
#     4  10  19  33  56  85 115 147 192 238 291 341
#     4  10  21  39  53  81 118 153 193 238 292 355
#     4  11  19  34  57  87 113 151 188 241 295 341
#     4  11  23  37  54  80 116 156 194 235 288 347
#     4  10  20  35  56  82 118 150 193 237 284 353
#     4  10  21  34  56  84 112 153 190 236 301 347
#     4  11  19  35  53  81 116 148 185 239 291 349
#
# _framework density 19.676259000000002
#
# number of rings (size 3 to 8) (size 9 to 14) (size 15 to 20)
#    0.000    1.500    3.750    3.000    1.750    2.500 
#    0.000    0.000    0.000    0.750    0.000    0.000 
#    0.000    0.000    0.000    0.000    0.000    0.000 
#
# Total GULP energy -396426.782676 kJ/mol
# GULP energy per Si atom -12388.336959 kJ/mol
# Density = 1.963147 g / cm^3
# Si number density = 19.676259 Si / 1000 Ang^3
#
#
#
# Elastic Constant Matrix: (Units=GPa)
#
#
# Indices 1 2 3 4 5 6 
#
# 1 117.4919 16.9316 38.6777 0.0000 -22.7342 0.0000
# 2 16.9316 37.0121 8.9036 0.0000 -7.0194 0.0000
# 3 38.6777 8.9036 108.3142 0.0000 -15.9958 0.0000
# 4 0.0000 0.0000 0.0000 20.0911 0.0000 6.5999
# 5 -22.7342 -7.0194 -15.9958 0.0000 36.1584 0.0000
# 6 0.0000 0.0000 0.0000 6.5999 0.0000 17.2175
#
#
#
# Elastic Compliance Matrix: (Units=1/GPa)
#
#
# Indices 1 2 3 4 5 6 
#
# 1 0.010899 -0.003357 -0.002889 0.000000 0.004923 0.000000
# 2 -0.003357 0.029349 -0.000732 0.000000 0.003263 0.000000
# 3 -0.002889 -0.000732 0.010736 0.000000 0.002791 0.000000
# 4 0.000000 0.000000 0.000000 0.056944 0.000000 -0.021828
# 5 0.004923 0.003263 0.002791 0.000000 0.032619 0.000000
# 6 0.000000 0.000000 0.000000 -0.021828 0.000000 0.066448
#
#
# Mechanical properties :
#
#
# Convention : Reuss Voigt Hill
#
# Bulk Modulus (GPa) = 27.00655 43.53822 35.27239
# Shear Modulus (GPa) = 21.43230 27.91374 24.67302
#
# Velocity S-wave (km/s) = 3.30395 3.77058 3.54496
# Velocity P-wave (km/s) = 5.32072 6.41340 5.89244
#
# Compressibility (1/GPa) = 0.03702806
#
# Stress axis : x y z
#
# Youngs Moduli (GPa) = 91.75568 34.07292 93.14180
#
# Poissons Ratio (x) = 0.11439 0.26907
# Poissons Ratio (y) = 0.30804 0.06817
# Poissons Ratio (z) = 0.26506 0.02494
#
# Static dielectric constant tensor:
#      x y z
#    x 3.647500 0.000000 -0.026600 
#    y 0.000000 3.085100 0.000000 
#    z -0.026600 0.000000 4.144800 
# 
# 
# High freq. dielectric constant tensor:
#      x y z
#    x 1.770580 0.000000 -0.003360 
#    y 0.000000 1.710630 0.000000 
#    z -0.003360 0.000000 1.787320 
# 
# From -- ./inp_files/99782.got.cif
#   From: 2010.06.25/outbox.cif.g09.slc.cpg/sg15_50_cif.got.tgz:99782.got - 2010.06.28 07:06:18.
