data_PCOD8133812
_publ_section_title
;
Structure prediction by ZEFSAII (Michael W. Deem and Ramdas Pophale) SiO2 
 PCOD8133812
Probable space group: C 2/C
;
_chemical_formula_sum "Si O2"
_cell_formula_units_Z 40
_cell_length_a 15.729667
_cell_length_b 9.997002
_cell_length_c 13.708220
_cell_angle_alpha 90.000000
_cell_angle_beta 125.810893
_cell_angle_gamma 90.000000
_cell_volume 1748.098258
_symmetry_space_group_name_H-M "C 2/C"
_symmetry_group_IT_number 15
_symmetry_cell_setting 'monoclinic'
loop_
_space_group_symop_operation_xyz
x,y,z
-x,y,1/2-z
-x,-y,-z
x,-y,1/2+z
1/2+x,1/2+y,z
1/2-x,1/2+y,1/2-z
1/2-x,1/2-y,-z
1/2+x,1/2-y,1/2+z
loop_
_atom_site_type_symbol
_atom_site_label
_atom_site_fract_x
_atom_site_fract_y
_atom_site_fract_z
Si Si1 0.650060 0.745164 0.296994
Si Si2 0.913925 0.519349 0.312841
Si Si3 0.689295 0.414605 0.994861
Si Si4 0.298321 0.649088 0.374852
Si Si5 0.638111 0.931102 0.009294
O O1 0.610177 0.653464 0.362256
O O2 0.766678 0.800130 0.402808
O O3 0.658214 0.654749 0.205682
O O4 0.575417 0.871523 0.227633
O O5 0.824715 0.608771 0.201204
O O6 0.881702 0.507220 0.403476
O O7 0.027606 0.587792 0.377814
O O8 0.636192 0.532130 0.024065
O O9 0.786370 0.476262 0.001230
O O10 0.309420 0.787618 0.438610
#
# Coordination Sequence:
#
# PCOD8133812 Si02
#       5
#     8   8   8   8   8
#     4   9  19  34  54  83 115 156 192 237 289 335
#     4   9  19  35  59  84 118 153 195 243 286 347
#     4  10  19  34  58  83 114 155 198 231 288 357
#     4  10  19  34  57  87 119 150 190 249 288 332
#     4  10  19  34  58  89 111 153 203 234 289 350
#
# _framework density 22.882010000000001
#
# number of rings (size 3 to 8) (size 9 to 14) (size 15 to 20)
#    0.000    2.400    2.000    0.600    0.000    3.200 
#    0.000    0.000    0.000   22.800    0.000    0.000 
#    0.000    0.000    0.000    0.000    0.000    0.000 
#
# Total GULP energy -247889.808873 kJ/mol
# GULP energy per Si atom -12394.490444 kJ/mol
# Density = 2.282993 g / cm^3
# Si number density = 22.882010 Si / 1000 Ang^3
#
#
#
# Elastic Constant Matrix: (Units=GPa)
#
#
# Indices 1 2 3 4 5 6 
#
# 1 36.6545 36.5332 34.4271 0.0000 -8.6495 0.0000
# 2 36.5332 125.1559 58.0152 0.0000 -6.0741 0.0000
# 3 34.4271 58.0152 111.7389 0.0000 -5.7418 0.0000
# 4 0.0000 0.0000 0.0000 56.4335 0.0000 -11.7056
# 5 -8.6495 -6.0741 -5.7418 0.0000 31.5288 0.0000
# 6 0.0000 0.0000 0.0000 -11.7056 0.0000 22.8020
#
#
#
# Elastic Compliance Matrix: (Units=1/GPa)
#
#
# Indices 1 2 3 4 5 6 
#
# 1 0.047349 -0.008986 -0.009433 0.000000 0.009541 0.000000
# 2 -0.008986 0.012262 -0.003637 0.000000 -0.000765 0.000000
# 3 -0.009433 -0.003637 0.013703 0.000000 -0.000793 0.000000
# 4 0.000000 0.000000 0.000000 0.019832 0.000000 0.010181
# 5 0.009541 -0.000765 -0.000793 0.000000 0.034043 0.000000
# 6 0.000000 0.000000 0.000000 0.010181 0.000000 0.049082
#
#
# Mechanical properties :
#
#
# Convention : Reuss Voigt Hill
#
# Bulk Modulus (GPa) = 34.24332 59.05559 46.64945
# Shear Modulus (GPa) = 21.72825 31.79112 26.75969
#
# Velocity S-wave (km/s) = 3.08486 3.73144 3.42345
# Velocity P-wave (km/s) = 5.26177 6.66556 6.00482
#
# Compressibility (1/GPa) = 0.02920277
#
# Stress axis : x y z
#
# Youngs Moduli (GPa) = 21.11997 81.55394 72.97489
#
# Poissons Ratio (x) = 0.73282 0.68834
# Poissons Ratio (y) = 0.18978 0.26542
# Poissons Ratio (z) = 0.19922 0.29663
#
# Static dielectric constant tensor:
#      x y z
#    x 3.608290 0.000000 -0.346000 
#    y 0.000000 4.315270 0.000000 
#    z -0.346000 0.000000 4.793650 
# 
# 
# High freq. dielectric constant tensor:
#      x y z
#    x 1.859890 0.000000 -0.031680 
#    y 0.000000 1.903280 0.000000 
#    z -0.031680 0.000000 1.925300 
# 
# From -- ./inp_files/103358.got.cif
#   From: 2010.06.25/outbox.cif.g09.slc.cpg/sg15_52_cif.got.tgz:103358.got - 2010.06.28 07:06:18.
