data_PCOD8133511
_publ_section_title
;
Structure prediction by ZEFSAII (Michael W. Deem and Ramdas Pophale) SiO2 
 PCOD8133511
Probable space group: C 2/C
;
_chemical_formula_sum "Si O2"
_cell_formula_units_Z 60
_cell_length_a 14.363385
_cell_length_b 16.675982
_cell_length_c 28.022730
_cell_angle_alpha 90.000000
_cell_angle_beta 29.028567
_cell_angle_gamma 90.000000
_cell_volume 3257.019053
_symmetry_space_group_name_H-M "C 2/C"
_symmetry_group_IT_number 15
_symmetry_cell_setting 'monoclinic'
loop_
_space_group_symop_operation_xyz
x,y,z
-x,y,1/2-z
-x,-y,-z
x,-y,1/2+z
1/2+x,1/2+y,z
1/2-x,1/2+y,1/2-z
1/2-x,1/2-y,-z
1/2+x,1/2-y,1/2+z
loop_
_atom_site_type_symbol
_atom_site_label
_atom_site_fract_x
_atom_site_fract_y
_atom_site_fract_z
Si Si1 0.205772 0.341824 0.507940
Si Si2 0.500000 0.117464 0.750000
Si Si3 0.333457 0.147833 0.920555
Si Si4 0.415999 0.162575 0.212594
Si Si5 0.953747 0.751420 0.600892
Si Si6 0.839507 0.982246 0.506845
Si Si7 0.825071 0.798087 0.356410
Si Si8 0.757494 0.972917 0.649593
O O1 0.250000 0.250000 0.500000
O O2 0.346996 0.407693 0.467358
O O3 0.230346 0.352945 0.440086
O O4 0.995692 0.361842 0.624344
O O5 0.436511 0.170477 0.824041
O O6 0.678746 0.062867 0.685473
O O7 0.464653 0.177477 0.905333
O O8 0.316616 0.051598 0.934724
O O9 0.125047 0.188175 0.012516
O O10 0.212131 0.204566 0.294539
O O11 0.573640 0.218402 0.167861
O O12 0.392112 0.084641 0.256596
O O13 0.854649 0.722819 0.596498
O O14 0.796468 0.943839 0.577994
O O15 0.043083 0.026265 0.411810
O O16 0.000000 0.843961 0.250000
#
# Coordination Sequence:
#
# PCOD8133511 Si02
#       8
#     8   4   8   8   8   8   8   8
#     4  10  22  34  54  86 111 142 190 235 276 333
#     4  10  22  30  52  82 114 138 174 236 282 340
#     4  10  21  38  53  82 112 148 183 225 286 344
#     4  10  19  33  57  84 114 141 186 228 288 335
#     4  10  21  35  58  77 109 154 189 221 276 345
#     4  10  21  35  56  83 119 145 182 231 287 348
#     4   9  21  35  56  79 108 149 188 237 268 321
#     4  10  20  32  56  87 115 146 171 231 305 345
#
# _framework density 18.421752999999999
#
# number of rings (size 3 to 8) (size 9 to 14) (size 15 to 20)
#    0.000    2.133    1.333    1.600   12.133    4.267 
#    0.000    0.667    0.000    0.000    1.733    0.000 
#    0.000    0.000    0.000    0.000    0.000    0.000 
#
# Total GULP energy -371753.635467 kJ/mol
# GULP energy per Si atom -12391.787849 kJ/mol
# Density = 1.837982 g / cm^3
# Si number density = 18.421753 Si / 1000 Ang^3
#
#
#
# Elastic Constant Matrix: (Units=GPa)
#
#
# Indices 1 2 3 4 5 6 
#
# 1 108.9516 49.0879 70.5778 -0.0006 1.1121 -0.0028
# 2 49.0879 74.2600 28.1836 0.0006 8.0587 -0.0051
# 3 70.5778 28.1836 126.6933 -0.0078 23.6734 0.0013
# 4 -0.0006 0.0006 -0.0078 27.1367 -0.0003 7.9292
# 5 1.1121 8.0587 23.6734 -0.0003 36.1944 -0.0001
# 6 -0.0028 -0.0051 0.0013 7.9292 -0.0001 12.8970
#
#
#
# Elastic Compliance Matrix: (Units=1/GPa)
#
#
# Indices 1 2 3 4 5 6 
#
# 1 0.021041 -0.010699 -0.011011 -0.000003 0.008938 0.000004
# 2 -0.010699 0.020202 0.002558 -0.000002 -0.005842 0.000007
# 3 -0.011011 0.002558 0.015381 0.000006 -0.010291 -0.000007
# 4 -0.000003 -0.000002 0.000006 0.044920 -0.000003 -0.027617
# 5 0.008938 -0.005842 -0.010291 -0.000003 0.035386 0.000003
# 6 0.000004 0.000007 -0.000007 -0.027617 0.000003 0.094517
#
#
# Mechanical properties :
#
#
# Convention : Reuss Voigt Hill
#
# Bulk Modulus (GPa) = 54.58918 67.28926 60.93922
# Shear Modulus (GPa) = 18.12526 26.04933 22.08730
#
# Velocity S-wave (km/s) = 3.14013 3.76447 3.46638
# Velocity P-wave (km/s) = 6.54557 7.44992 7.01234
#
# Compressibility (1/GPa) = 0.01831865
#
# Stress axis : x y z
#
# Youngs Moduli (GPa) = 47.52697 49.50014 65.01474
#
# Poissons Ratio (x) = 0.52962 0.71589
# Poissons Ratio (y) = 0.50851 -0.16631
# Poissons Ratio (z) = 0.52333 -0.12662
#
# Static dielectric constant tensor:
#      x y z
#    x 3.373890 0.000020 0.289370 
#    y 0.000020 3.182900 0.000040 
#    z 0.289370 0.000040 4.048970 
# 
# 
# High freq. dielectric constant tensor:
#      x y z
#    x 1.689860 0.000000 0.000780 
#    y 0.000000 1.688330 0.000000 
#    z 0.000780 0.000000 1.739380 
# 
# From -- ./inp_files/313970.got.cif
#   From: 2010.06.25/outbox.cif.g09.slc.cpg/sg15_157_cif.got.tgz:313970.got - 2010.06.28 07:06:18.
