data_PCOD8133960
_publ_section_title
;
Structure prediction by ZEFSAII (Michael W. Deem and Ramdas Pophale) SiO2 
 PCOD8133960
Probable space group: C 2/C
;
_chemical_formula_sum "Si O2"
_cell_formula_units_Z 36
_cell_length_a 8.826417
_cell_length_b 22.056506
_cell_length_c 8.669795
_cell_angle_alpha 90.000000
_cell_angle_beta 100.659490
_cell_angle_gamma 90.000000
_cell_volume 1658.709414
_symmetry_space_group_name_H-M "C 2/C"
_symmetry_group_IT_number 15
_symmetry_cell_setting 'monoclinic'
loop_
_space_group_symop_operation_xyz
x,y,z
-x,y,1/2-z
-x,-y,-z
x,-y,1/2+z
1/2+x,1/2+y,z
1/2-x,1/2+y,1/2-z
1/2-x,1/2-y,-z
1/2+x,1/2-y,1/2+z
loop_
_atom_site_type_symbol
_atom_site_label
_atom_site_fract_x
_atom_site_fract_y
_atom_site_fract_z
Si Si1 0.500000 0.484545 0.250000
Si Si2 0.207256 0.795617 0.690307
Si Si3 0.500000 0.801080 0.250000
Si Si4 0.200135 0.163309 0.534473
Si Si5 0.567989 0.416704 0.541313
Si Si6 0.000000 0.231007 0.750000
O O1 0.605704 0.440380 0.376001
O O2 0.394066 0.527712 0.336851
O O3 0.079018 0.743609 0.637470
O O4 0.170151 0.858817 0.602346
O O5 0.368559 0.773580 0.650015
O O6 0.218924 0.798989 0.879931
O O7 0.630815 0.843209 0.355706
O O8 0.075896 0.191338 0.629919
O O9 0.116602 0.099259 0.477862
#
# Coordination Sequence:
#
# PCOD8133960 Si02
#       6
#     4   8   4   8   8   4
#     4  10  22  40  66  90 104 162 208 278 294 360
#     4  11  21  40  59  91 129 170 188 260 292 375
#     4  10  19  34  62  82 138 164 189 222 316 356
#     4  11  21  40  56  96 125 173 190 253 298 374
#     4  11  21  41  66  87 119 151 218 253 316 340
#     4  10  23  34  60  92 136 156 207 220 308 376
#
# _framework density 21.703621999999999
#
# number of rings (size 3 to 8) (size 9 to 14) (size 15 to 20)
#    0.000    1.333    4.444    3.333    0.000    0.889 
#   12.000    0.000    0.000    8.000    0.000    0.000 
#    0.000    0.000    0.000    0.000    0.000    0.000 
#
# Total GULP energy -222994.942335 kJ/mol
# GULP energy per Si atom -12388.607907 kJ/mol
# Density = 2.165422 g / cm^3
# Si number density = 21.703622 Si / 1000 Ang^3
#
#
#
# Elastic Constant Matrix: (Units=GPa)
#
#
# Indices 1 2 3 4 5 6 
#
# 1 126.9471 35.3894 38.1846 0.0000 21.4428 0.0000
# 2 35.3894 74.2233 31.3680 0.0000 6.0830 0.0000
# 3 38.1846 31.3680 115.3685 0.0000 -3.9416 0.0000
# 4 0.0000 0.0000 0.0000 42.5663 0.0000 2.9368
# 5 21.4428 6.0830 -3.9416 0.0000 33.5076 0.0000
# 6 0.0000 0.0000 0.0000 2.9368 0.0000 1.4845
#
#
#
# Elastic Compliance Matrix: (Units=1/GPa)
#
#
# Indices 1 2 3 4 5 6 
#
# 1 0.010812 -0.003392 -0.002883 0.000000 -0.006642 0.000000
# 2 -0.003392 0.016650 -0.003447 0.000000 -0.001257 0.000000
# 3 -0.002883 -0.003447 0.010687 0.000000 0.003728 0.000000
# 4 0.000000 0.000000 0.000000 0.027206 0.000000 -0.053820
# 5 -0.006642 -0.001257 0.003728 0.000000 0.034762 0.000000
# 6 0.000000 0.000000 0.000000 -0.053820 0.000000 0.780073
#
#
# Mechanical properties :
#
#
# Convention : Reuss Voigt Hill
#
# Bulk Modulus (GPa) = 53.46552 58.49144 55.97848
# Shear Modulus (GPa) = 5.51955 29.61813 17.56884
#
# Velocity S-wave (km/s) = 1.59646 3.69814 2.84824
# Velocity P-wave (km/s) = 5.29963 6.72634 6.05515
#
# Compressibility (1/GPa) = 0.01870364
#
# Stress axis : x y z
#
# Youngs Moduli (GPa) = 92.48780 60.05915 93.57321
#
# Poissons Ratio (x) = 0.20374 0.26979
# Poissons Ratio (y) = 0.31375 0.32257
# Poissons Ratio (z) = 0.26666 0.20704
#
# Static dielectric constant tensor:
#      x y z
#    x 3.888390 0.000000 0.134610 
#    y 0.000000 3.952230 0.000000 
#    z 0.134610 0.000000 4.242560 
# 
# 
# High freq. dielectric constant tensor:
#      x y z
#    x 1.814430 0.000000 -0.004490 
#    y 0.000000 1.837360 0.000000 
#    z -0.004490 0.000000 1.884540 
# 
# From -- ./inp_files/23205.got.cif
#   From: 2010.06.25/outbox.cif.g09.slc.cpg/sg15_12_cif.got.tgz:23205.got - 2010.06.28 07:06:18.
