data_PCOD8133989
_publ_section_title
;
Structure prediction by ZEFSAII (Michael W. Deem and Ramdas Pophale) SiO2 
 PCOD8133989
Probable space group: C 2/C
;
_chemical_formula_sum "Si O2"
_cell_formula_units_Z 52
_cell_length_a 8.960976
_cell_length_b 24.990990
_cell_length_c 12.233773
_cell_angle_alpha 90.000000
_cell_angle_beta 71.511559
_cell_angle_gamma 90.000000
_cell_volume 2598.274808
_symmetry_space_group_name_H-M "C 2/C"
_symmetry_group_IT_number 15
_symmetry_cell_setting 'monoclinic'
loop_
_space_group_symop_operation_xyz
x,y,z
-x,y,1/2-z
-x,-y,-z
x,-y,1/2+z
1/2+x,1/2+y,z
1/2-x,1/2+y,1/2-z
1/2-x,1/2-y,-z
1/2+x,1/2-y,1/2+z
loop_
_atom_site_type_symbol
_atom_site_label
_atom_site_fract_x
_atom_site_fract_y
_atom_site_fract_z
Si Si1 0.885563 0.211815 0.426759
Si Si2 0.488148 0.064640 0.131084
Si Si3 0.000000 0.077973 0.750000
Si Si4 0.810197 0.528890 0.604933
Si Si5 0.212447 0.764613 0.777104
Si Si6 0.500000 0.833122 0.750000
Si Si7 0.201197 0.153135 0.852909
Si Si8 0.500000 0.911672 0.250000
O O1 0.750000 0.250000 0.500000
O O2 0.839690 0.197920 0.313002
O O3 0.882497 0.162030 0.510314
O O4 0.058701 0.240009 0.390858
O O5 0.500000 0.039030 0.250000
O O6 0.469386 0.129104 0.149999
O O7 0.341476 0.035377 0.103894
O O8 0.644895 0.051946 0.024723
O O9 0.873177 0.039660 0.836617
O O10 0.917693 0.114625 0.680537
O O11 0.922410 0.554883 0.670549
O O12 0.350717 0.795410 0.808688
O O13 0.272167 0.706660 0.724873
O O14 0.368569 0.125856 0.835637
#
# Coordination Sequence:
#
# PCOD8133989 Si02
#       8
#     8   8   4   8   8   4   8   4
#     4   9  19  35  55  74 116 160 194 228 278 331
#     4   9  21  39  63  83 113 150 194 236 305 349
#     4  10  23  36  58  90 114 142 193 244 290 332
#     4  10  20  41  63  85 116 144 197 246 295 352
#     4  10  20  37  52  85 119 155 190 236 278 343
#     4  10  22  36  60  84 118 148 198 230 300 340
#     4  10  20  34  54  83 117 150 194 228 280 331
#     4  10  19  34  64  82 112 158 197 228 282 350
#
# _framework density 20.013280999999999
#
# number of rings (size 3 to 8) (size 9 to 14) (size 15 to 20)
#    0.462    1.846    0.769    2.308    4.308    0.000 
#    2.769    6.154    0.000    0.000    0.000    0.000 
#    0.000    0.000    0.000    0.000    0.000    0.000 
#
# Total GULP energy -322130.686045 kJ/mol
# GULP energy per Si atom -12389.641771 kJ/mol
# Density = 1.996773 g / cm^3
# Si number density = 20.013281 Si / 1000 Ang^3
#
#
#
# Elastic Constant Matrix: (Units=GPa)
#
#
# Indices 1 2 3 4 5 6 
#
# 1 131.7174 49.1893 41.9387 0.0000 -35.1835 0.0000
# 2 49.1893 75.8595 15.3605 0.0000 -16.2343 0.0000
# 3 41.9387 15.3605 101.1569 0.0000 -28.0156 0.0000
# 4 0.0000 0.0000 0.0000 18.0390 0.0000 -6.7324
# 5 -35.1835 -16.2343 -28.0156 0.0000 32.4784 0.0000
# 6 0.0000 0.0000 0.0000 -6.7324 0.0000 24.5849
#
#
#
# Elastic Compliance Matrix: (Units=1/GPa)
#
#
# Indices 1 2 3 4 5 6 
#
# 1 0.012936 -0.005998 -0.001842 0.000000 0.009427 0.000000
# 2 -0.005998 0.017547 0.000594 0.000000 0.002786 0.000000
# 3 -0.001842 0.000594 0.013255 0.000000 0.009736 0.000000
# 4 0.000000 0.000000 0.000000 0.061746 0.000000 0.016909
# 5 0.009427 0.002786 0.009736 0.000000 0.050792 0.000000
# 6 0.000000 0.000000 0.000000 0.016909 0.000000 0.045306
#
#
# Mechanical properties :
#
#
# Convention : Reuss Voigt Hill
#
# Bulk Modulus (GPa) = 34.19126 57.96784 46.07955
# Shear Modulus (GPa) = 22.14109 28.50348 25.32229
#
# Velocity S-wave (km/s) = 3.32975 3.77799 3.56093
# Velocity P-wave (km/s) = 5.64839 6.93242 6.32309
#
# Compressibility (1/GPa) = 0.02924724
#
# Stress axis : x y z
#
# Youngs Moduli (GPa) = 77.30100 56.98838 75.44134
#
# Poissons Ratio (x) = 0.34181 0.13894
# Poissons Ratio (y) = 0.46365 -0.04478
# Poissons Ratio (z) = 0.14236 -0.03383
#
# Static dielectric constant tensor:
#      x y z
#    x 3.589550 0.000000 -0.145320 
#    y 0.000000 3.624000 0.000000 
#    z -0.145320 0.000000 4.189600 
# 
# 
# High freq. dielectric constant tensor:
#      x y z
#    x 1.772210 0.000000 -0.011220 
#    y 0.000000 1.769400 0.000000 
#    z -0.011220 0.000000 1.783260 
# 
# From -- ./inp_files/80668.got.cif
#   From: 2010.06.25/outbox.cif.g09.slc.cpg/sg15_41_cif.got.tgz:80668.got - 2010.06.28 07:06:18.
