data_PCOD8133130
_publ_section_title
;
Structure prediction by ZEFSAII (Michael W. Deem and Ramdas Pophale) SiO2 
 PCOD8133130
Probable space group: C 2/C
;
_chemical_formula_sum "Si O2"
_cell_formula_units_Z 56
_cell_length_a 14.341273
_cell_length_b 22.927817
_cell_length_c 13.886644
_cell_angle_alpha 90.000000
_cell_angle_beta 140.974108
_cell_angle_gamma 90.000000
_cell_volume 2875.158308
_symmetry_space_group_name_H-M "C 2/C"
_symmetry_group_IT_number 15
_symmetry_cell_setting 'monoclinic'
loop_
_space_group_symop_operation_xyz
x,y,z
-x,y,1/2-z
-x,-y,-z
x,-y,1/2+z
1/2+x,1/2+y,z
1/2-x,1/2+y,1/2-z
1/2-x,1/2-y,-z
1/2+x,1/2-y,1/2+z
loop_
_atom_site_type_symbol
_atom_site_label
_atom_site_fract_x
_atom_site_fract_y
_atom_site_fract_z
Si Si1 0.105699 0.268572 0.092930
Si Si2 0.853802 0.483045 0.185661
Si Si3 0.282321 0.385763 0.531529
Si Si4 0.894550 0.720511 0.252920
Si Si5 0.547403 0.653272 0.145628
Si Si6 0.207736 0.600911 0.267518
Si Si7 0.495531 0.883888 0.079479
O O1 0.246040 0.259497 0.134816
O O2 0.093333 0.220694 0.168205
O O3 0.107208 0.331674 0.143769
O O4 0.962831 0.264215 0.911026
O O5 0.777274 0.539361 0.168685
O O6 0.000000 0.505845 0.250000
O O7 0.898966 0.436490 0.303817
O O8 0.738229 0.453401 0.017789
O O9 0.381812 0.376754 0.704386
O O10 0.368294 0.352603 0.512288
O O11 0.115186 0.363452 0.421765
O O12 0.859427 0.651393 0.217466
O O13 0.000000 0.739588 0.250000
O O14 0.620997 0.617914 0.116650
O O15 0.105054 0.595362 0.090564
#
# Coordination Sequence:
#
# PCOD8133130 Si02
#       7
#     8   8   8   8   8   8   8
#     4  10  21  35  57  81 114 147 188 225 281 343
#     4  10  19  32  52  79 105 140 187 236 267 324
#     4   9  19  35  50  76 112 143 186 224 274 321
#     4  10  20  36  57  83 109 146 181 232 281 333
#     4   9  19  36  52  77 109 150 181 222 278 332
#     4   9  18  34  55  76 104 144 185 224 281 327
#     4   9  19  34  50  81 109 140 184 229 277 325
#
# _framework density 19.477188000000002
#
# number of rings (size 3 to 8) (size 9 to 14) (size 15 to 20)
#    0.000    2.571    0.000    2.143    2.000    1.143 
#    7.714    0.000    0.000    0.000    0.000    0.000 
#    0.000    0.000    0.000    0.000    0.000    0.000 
#
# Total GULP energy -346891.939283 kJ/mol
# GULP energy per Si atom -12388.997832 kJ/mol
# Density = 1.943286 g / cm^3
# Si number density = 19.477188 Si / 1000 Ang^3
#
#
#
# Elastic Constant Matrix: (Units=GPa)
#
#
# Indices 1 2 3 4 5 6 
#
# 1 115.9753 60.0332 5.0515 0.0000 12.2020 0.0000
# 2 60.0332 122.5954 22.9183 0.0000 -0.3316 0.0000
# 3 5.0515 22.9183 35.1021 0.0000 -5.3139 0.0000
# 4 0.0000 0.0000 0.0000 19.9481 0.0000 4.0099
# 5 12.2020 -0.3316 -5.3139 0.0000 20.5378 0.0000
# 6 0.0000 0.0000 0.0000 4.0099 0.0000 20.7972
#
#
#
# Elastic Compliance Matrix: (Units=1/GPa)
#
#
# Indices 1 2 3 4 5 6 
#
# 1 0.012686 -0.006474 0.001295 0.000000 -0.007307 0.000000
# 2 -0.006474 0.012638 -0.006980 0.000000 0.002244 0.000000
# 3 0.001295 -0.006980 0.034060 0.000000 0.007930 0.000000
# 4 0.000000 0.000000 0.000000 0.052151 0.000000 -0.010055
# 5 -0.007307 0.002244 0.007930 0.000000 0.055120 0.000000
# 6 0.000000 0.000000 0.000000 -0.010055 0.000000 0.050022
#
#
# Mechanical properties :
#
#
# Convention : Reuss Voigt Hill
#
# Bulk Modulus (GPa) = 28.51750 49.96432 39.24091
# Shear Modulus (GPa) = 19.78759 24.63461 22.21110
#
# Velocity S-wave (km/s) = 3.19083 3.56025 3.38059
# Velocity P-wave (km/s) = 5.31493 6.52755 5.95220
#
# Compressibility (1/GPa) = 0.03506619
#
# Stress axis : x y z
#
# Youngs Moduli (GPa) = 78.82653 79.12567 29.36014
#
# Poissons Ratio (x) = 0.51227 -0.03803
# Poissons Ratio (y) = 0.51033 0.20494
# Poissons Ratio (z) = -0.10210 0.55230
#
# Static dielectric constant tensor:
#      x y z
#    x 3.930500 0.000000 0.241470 
#    y 0.000000 3.351270 0.000000 
#    z 0.241470 0.000000 3.489880 
# 
# 
# High freq. dielectric constant tensor:
#      x y z
#    x 1.770490 0.000000 0.010080 
#    y 0.000000 1.740730 0.000000 
#    z 0.010080 0.000000 1.740500 
# 
# From -- ./inp_files/42096.got.cif
#   From: 2010.06.25/outbox.cif.g09.slc.cpg/sg15_22_cif.got.tgz:42096.got - 2010.06.28 07:06:18.
