data_PCOD8133678
_publ_section_title
;
Structure prediction by ZEFSAII (Michael W. Deem and Ramdas Pophale) SiO2 
 PCOD8133678
Probable space group: C 2/C
;
_chemical_formula_sum "Si O2"
_cell_formula_units_Z 52
_cell_length_a 12.180272
_cell_length_b 26.081152
_cell_length_c 9.274705
_cell_angle_alpha 90.000000
_cell_angle_beta 75.745230
_cell_angle_gamma 90.000000
_cell_volume 2855.629985
_symmetry_space_group_name_H-M "C 2/C"
_symmetry_group_IT_number 15
_symmetry_cell_setting 'monoclinic'
loop_
_space_group_symop_operation_xyz
x,y,z
-x,y,1/2-z
-x,-y,-z
x,-y,1/2+z
1/2+x,1/2+y,z
1/2-x,1/2+y,1/2-z
1/2-x,1/2-y,-z
1/2+x,1/2-y,1/2+z
loop_
_atom_site_type_symbol
_atom_site_label
_atom_site_fract_x
_atom_site_fract_y
_atom_site_fract_z
Si Si1 0.382843 0.520033 0.479712
Si Si2 0.636126 0.564851 0.721705
Si Si3 0.185886 0.732791 0.377595
Si Si4 0.631622 0.315612 0.859936
Si Si5 0.532027 0.209086 0.892722
Si Si6 0.279564 0.322691 0.352979
Si Si7 0.000000 0.901099 0.750000
O O1 0.500000 0.500000 0.500000
O O2 0.318918 0.541554 0.640713
O O3 0.318407 0.472918 0.420399
O O4 0.404277 0.564856 0.356923
O O5 0.500000 0.569387 0.750000
O O6 0.693664 0.619691 0.699050
O O7 0.250000 0.750000 0.500000
O O8 0.255380 0.688336 0.273537
O O9 0.171832 0.783007 0.281159
O O10 0.066788 0.706246 0.456081
O O11 0.551467 0.268398 0.847914
O O12 0.563960 0.367628 0.850094
O O13 0.660018 0.310605 0.017734
O O14 0.500000 0.182348 0.750000
O O15 0.644676 0.182622 0.917885
#
# Coordination Sequence:
#
# PCOD8133678 Si02
#       7
#     8   8   8   8   8   8   4
#     4  10  19  34  54  81 117 147 186 245 297 351
#     4  10  21  36  55  85 117 149 188 244 300 355
#     4  11  21  38  58  82 117 159 198 239 290 348
#     4  11  23  36  54  87 119 156 199 235 289 350
#     4  11  21  39  56  80 123 152 196 245 275 352
#     4  11  25  36  57  88 117 160 201 236 297 348
#     4  12  20  34  60  82 122 156 186 238 302 352
#
# _framework density 18.209641999999999
#
# number of rings (size 3 to 8) (size 9 to 14) (size 15 to 20)
#    0.000    1.231    6.154    3.692    6.462    1.846 
#    0.000    0.000    0.000    0.000    0.000    4.308 
#    0.000    0.000    0.000    0.000    0.000    0.000 
#
# Total GULP energy -322307.153818 kJ/mol
# GULP energy per Si atom -12396.428993 kJ/mol
# Density = 1.816820 g / cm^3
# Si number density = 18.209642 Si / 1000 Ang^3
#
#
#
# Elastic Constant Matrix: (Units=GPa)
#
#
# Indices 1 2 3 4 5 6 
#
# 1 59.1347 21.2693 30.1971 0.0000 1.3311 0.0000
# 2 21.2693 88.5582 31.0383 0.0000 5.6433 0.0000
# 3 30.1971 31.0383 119.5912 0.0000 10.4060 0.0000
# 4 0.0000 0.0000 0.0000 28.2481 0.0000 5.7502
# 5 1.3311 5.6433 10.4060 0.0000 39.1138 0.0000
# 6 0.0000 0.0000 0.0000 5.7502 0.0000 19.7841
#
#
#
# Elastic Compliance Matrix: (Units=1/GPa)
#
#
# Indices 1 2 3 4 5 6 
#
# 1 0.020331 -0.003427 -0.004327 0.000000 0.000954 0.000000
# 2 -0.003427 0.013035 -0.002420 0.000000 -0.001120 0.000000
# 3 -0.004327 -0.002420 0.010277 0.000000 -0.002238 0.000000
# 4 0.000000 0.000000 0.000000 0.037627 0.000000 -0.010936
# 5 0.000954 -0.001120 -0.002238 0.000000 0.026291 0.000000
# 6 0.000000 0.000000 0.000000 -0.010936 0.000000 0.053724
#
#
# Mechanical properties :
#
#
# Convention : Reuss Voigt Hill
#
# Bulk Modulus (GPa) = 42.92900 48.03260 45.48080
# Shear Modulus (GPa) = 26.39921 29.74782 28.07352
#
# Velocity S-wave (km/s) = 3.81167 4.04620 3.93069
# Velocity P-wave (km/s) = 6.55728 6.94722 6.75506
#
# Compressibility (1/GPa) = 0.02329428
#
# Stress axis : x y z
#
# Youngs Moduli (GPa) = 49.18482 76.71804 97.30191
#
# Poissons Ratio (x) = 0.26293 0.42105
# Poissons Ratio (y) = 0.16857 0.23548
# Poissons Ratio (z) = 0.21284 0.18567
#
# Static dielectric constant tensor:
#      x y z
#    x 3.164750 0.000000 0.045830 
#    y 0.000000 3.467830 0.000000 
#    z 0.045830 0.000000 3.950300 
# 
# 
# High freq. dielectric constant tensor:
#      x y z
#    x 1.669820 0.000000 0.018720 
#    y 0.000000 1.694300 0.000000 
#    z 0.018720 0.000000 1.728840 
# 
# From -- ./inp_files/33562.got.cif
#   From: 2010.06.25/outbox.cif.g09.slc.cpg/sg15_17_cif.got.tgz:33562.got - 2010.06.28 07:06:18.
