data_PCOD8133264
_publ_section_title
;
Structure prediction by ZEFSAII (Michael W. Deem and Ramdas Pophale) SiO2 
 PCOD8133264
Probable space group: C 2/C
;
_chemical_formula_sum "Si O2"
_cell_formula_units_Z 56
_cell_length_a 19.915116
_cell_length_b 12.308243
_cell_length_c 25.258057
_cell_angle_alpha 90.000000
_cell_angle_beta 147.431791
_cell_angle_gamma 90.000000
_cell_volume 3332.773904
_symmetry_space_group_name_H-M "C 2/C"
_symmetry_group_IT_number 15
_symmetry_cell_setting 'monoclinic'
loop_
_space_group_symop_operation_xyz
x,y,z
-x,y,1/2-z
-x,-y,-z
x,-y,1/2+z
1/2+x,1/2+y,z
1/2-x,1/2+y,1/2-z
1/2-x,1/2-y,-z
1/2+x,1/2-y,1/2+z
loop_
_atom_site_type_symbol
_atom_site_label
_atom_site_fract_x
_atom_site_fract_y
_atom_site_fract_z
Si Si1 0.506889 0.406369 0.670455
Si Si2 0.986163 0.178397 0.496638
Si Si3 0.382121 0.890187 0.466880
Si Si4 0.701096 0.445234 0.888688
Si Si5 0.434686 0.792823 0.054485
Si Si6 0.120607 0.995843 0.143586
Si Si7 0.105514 0.521980 0.640453
O O1 0.626375 0.397369 0.788432
O O2 0.392607 0.463471 0.624848
O O3 0.457737 0.289013 0.618277
O O4 0.541870 0.479137 0.643628
O O5 0.889773 0.260778 0.462159
O O6 0.064846 0.236411 0.502821
O O7 0.085340 0.127183 0.603674
O O8 0.904736 0.080318 0.420072
O O9 0.371635 0.955832 0.405695
O O10 0.261868 0.934944 0.419147
O O11 0.509457 0.921895 0.581948
O O12 0.804985 0.356712 0.973889
O O13 0.551075 0.874166 0.134555
O O14 0.266452 0.010433 0.247972
#
# Coordination Sequence:
#
# PCOD8133264 Si02
#       7
#     8   8   8   8   8   8   8
#     4  10  20  32  50  73 100 134 159 199 246 285
#     4   9  20  31  50  74  99 128 157 205 254 282
#     4   9  17  32  47  72  97 130 157 199 242 288
#     4  10  19  33  50  72 102 127 169 197 232 305
#     4   9  19  32  51  75  96 128 160 205 252 285
#     4  10  19  33  47  76 100 125 164 202 246 291
#     4   9  17  29  50  71 100 122 158 203 243 292
#
# _framework density 16.802820000000001
#
# number of rings (size 3 to 8) (size 9 to 14) (size 15 to 20)
#    0.000    2.571    1.429    1.286    2.000    2.286 
#    0.000    0.714    0.000    0.000    0.000    0.000 
#    0.000    0.000    0.000    0.000    0.000    0.000 
#
# Total GULP energy -347059.963449 kJ/mol
# GULP energy per Si atom -12394.998695 kJ/mol
# Density = 1.676458 g / cm^3
# Si number density = 16.802820 Si / 1000 Ang^3
#
#
#
# Elastic Constant Matrix: (Units=GPa)
#
#
# Indices 1 2 3 4 5 6 
#
# 1 79.2285 42.5014 40.4483 0.0001 10.8551 0.0000
# 2 42.5014 89.4588 38.4078 0.0002 4.7539 0.0001
# 3 40.4483 38.4078 105.0767 0.0007 12.0843 0.0003
# 4 0.0001 0.0002 0.0007 19.9421 0.0003 0.5558
# 5 10.8551 4.7539 12.0843 0.0003 23.6677 0.0001
# 6 0.0000 0.0001 0.0003 0.5558 0.0001 24.6859
#
#
#
# Elastic Compliance Matrix: (Units=1/GPa)
#
#
# Indices 1 2 3 4 5 6 
#
# 1 0.019300 -0.007069 -0.004240 0.000000 -0.005267 0.000000
# 2 -0.007069 0.015849 -0.003271 0.000000 0.001729 0.000000
# 3 -0.004240 -0.003271 0.012797 0.000000 -0.003932 0.000000
# 4 0.000000 0.000000 0.000000 0.050177 0.000000 -0.001130
# 5 -0.005267 0.001729 -0.003932 0.000000 0.046328 0.000000
# 6 0.000000 0.000000 0.000000 -0.001130 0.000000 0.040534
#
#
# Mechanical properties :
#
#
# Convention : Reuss Voigt Hill
#
# Bulk Modulus (GPa) = 53.22948 57.38653 55.30800
# Shear Modulus (GPa) = 22.68533 23.81958 23.25246
#
# Velocity S-wave (km/s) = 3.67834 3.76918 3.72404
# Velocity P-wave (km/s) = 7.05606 7.29173 7.17486
#
# Compressibility (1/GPa) = 0.01878658
#
# Stress axis : x y z
#
# Youngs Moduli (GPa) = 51.81325 63.09430 78.14532
#
# Poissons Ratio (x) = 0.44603 0.33131
# Poissons Ratio (y) = 0.36628 0.25560
# Poissons Ratio (z) = 0.21967 0.20637
#
# Static dielectric constant tensor:
#      x y z
#    x 3.044280 0.000000 0.016320 
#    y 0.000000 3.170910 0.000000 
#    z 0.016320 0.000000 3.215870 
# 
# 
# High freq. dielectric constant tensor:
#      x y z
#    x 1.630130 0.000000 0.004470 
#    y 0.000000 1.639420 0.000000 
#    z 0.004470 0.000000 1.653040 
# 
# From -- ./inp_files/300736.got.cif
#   From: 2010.06.25/outbox.cif.g09.slc.cpg/sg15_151_cif.got.tgz:300736.got - 2010.06.28 07:06:18.
