data_PCOD8133741
_publ_section_title
;
Structure prediction by ZEFSAII (Michael W. Deem and Ramdas Pophale) SiO2 
 PCOD8133741
Probable space group: C 2/C
;
_chemical_formula_sum "Si O2"
_cell_formula_units_Z 48
_cell_length_a 12.339969
_cell_length_b 11.975000
_cell_length_c 17.159108
_cell_angle_alpha 90.000000
_cell_angle_beta 108.527623
_cell_angle_gamma 90.000000
_cell_volume 2404.200976
_symmetry_space_group_name_H-M "C 2/C"
_symmetry_group_IT_number 15
_symmetry_cell_setting 'monoclinic'
loop_
_space_group_symop_operation_xyz
x,y,z
-x,y,1/2-z
-x,-y,-z
x,-y,1/2+z
1/2+x,1/2+y,z
1/2-x,1/2+y,1/2-z
1/2-x,1/2-y,-z
1/2+x,1/2-y,1/2+z
loop_
_atom_site_type_symbol
_atom_site_label
_atom_site_fract_x
_atom_site_fract_y
_atom_site_fract_z
Si Si1 0.877970 0.979665 0.738512
Si Si2 0.885692 0.896475 0.397305
Si Si3 0.768343 0.493185 0.017162
Si Si4 0.321201 0.149296 0.382545
Si Si5 0.873083 0.154947 0.604061
Si Si6 0.451251 0.894731 0.652679
O O1 0.778005 0.894622 0.696130
O O2 0.000000 0.918575 0.750000
O O3 0.855960 0.018518 0.821234
O O4 0.881517 0.090010 0.686772
O O5 0.849695 0.954976 0.469504
O O6 0.812856 0.782523 0.375350
O O7 0.019638 0.868749 0.428017
O O8 0.868027 0.506461 0.104367
O O9 0.805378 0.396562 0.966071
O O10 0.741112 0.611180 0.966540
O O11 0.443537 0.106956 0.381962
O O12 0.872765 0.283785 0.629256
O O13 0.500000 0.916332 0.750000
#
# Coordination Sequence:
#
# PCOD8133741 Si02
#       6
#     8   8   8   8   8   8
#     4   9  18  35  56  77 103 139 182 219 254 302
#     4  10  19  34  56  80 106 142 178 215 261 312
#     4  11  21  34  54  80 108 138 175 215 262 318
#     4  10  21  36  52  77 112 142 168 217 271 308
#     4   9  19  35  56  78 103 137 180 222 255 297
#     4  11  21  36  56  78 105 140 176 216 262 313
#
# _framework density 19.965053999999999
#
# number of rings (size 3 to 8) (size 9 to 14) (size 15 to 20)
#    0.000    2.000    0.000    5.500    0.000    0.000 
#    0.000    2.500    0.000    0.000    0.000    0.000 
#    0.000    0.000    0.000    0.000    0.000    0.000 
#
# Total GULP energy -297543.481928 kJ/mol
# GULP energy per Si atom -12397.645080 kJ/mol
# Density = 1.991961 g / cm^3
# Si number density = 19.965054 Si / 1000 Ang^3
#
#
#
# Elastic Constant Matrix: (Units=GPa)
#
#
# Indices 1 2 3 4 5 6 
#
# 1 53.3944 12.3508 17.0936 0.0000 -8.0372 0.0000
# 2 12.3508 62.1712 18.6093 0.0000 7.7515 0.0000
# 3 17.0936 18.6093 91.8685 0.0000 -0.8452 0.0000
# 4 0.0000 0.0000 0.0000 14.5059 0.0000 -4.0030
# 5 -8.0372 7.7515 -0.8452 0.0000 41.0834 0.0000
# 6 0.0000 0.0000 0.0000 -4.0030 0.0000 18.7253
#
#
#
# Elastic Compliance Matrix: (Units=1/GPa)
#
#
# Indices 1 2 3 4 5 6 
#
# 1 0.021369 -0.003911 -0.003139 0.000000 0.004854 0.000000
# 2 -0.003911 0.018299 -0.003018 0.000000 -0.004280 0.000000
# 3 -0.003139 -0.003018 0.012083 0.000000 0.000204 0.000000
# 4 0.000000 0.000000 0.000000 0.073259 0.000000 0.015661
# 5 0.004854 -0.004280 0.000204 0.000000 0.026102 0.000000
# 6 0.000000 0.000000 0.000000 0.015661 0.000000 0.056752
#
#
# Mechanical properties :
#
#
# Convention : Reuss Voigt Hill
#
# Bulk Modulus (GPa) = 31.63209 33.72683 32.67946
# Shear Modulus (GPa) = 20.96115 25.48828 23.22472
#
# Velocity S-wave (km/s) = 3.24372 3.57689 3.41437
# Velocity P-wave (km/s) = 5.46874 5.82996 5.65224
#
# Compressibility (1/GPa) = 0.03161346
#
# Stress axis : x y z
#
# Youngs Moduli (GPa) = 46.79741 54.64918 82.76423
#
# Poissons Ratio (x) = 0.21371 0.25981
# Poissons Ratio (y) = 0.18300 0.24981
# Poissons Ratio (z) = 0.14691 0.16495
#
# Static dielectric constant tensor:
#      x y z
#    x 3.760510 0.000000 0.005830 
#    y 0.000000 3.434400 0.000000 
#    z 0.005830 0.000000 3.569320 
# 
# 
# High freq. dielectric constant tensor:
#      x y z
#    x 1.785020 0.000000 -0.005770 
#    y 0.000000 1.763320 0.000000 
#    z -0.005770 0.000000 1.781650 
# 
# From -- ./inp_files/196042.got.cif
#   From: 2010.06.25/outbox.cif.g09.slc.cpg/sg15_99_cif.got.tgz:196042.got - 2010.06.28 07:06:18.
