data_PCOD8133535
_publ_section_title
;
Structure prediction by ZEFSAII (Michael W. Deem and Ramdas Pophale) SiO2 
 PCOD8133535
Probable space group: C 2/C
;
_chemical_formula_sum "Si O2"
_cell_formula_units_Z 48
_cell_length_a 18.272615
_cell_length_b 13.656635
_cell_length_c 19.652887
_cell_angle_alpha 90.000000
_cell_angle_beta 30.271707
_cell_angle_gamma 90.000000
_cell_volume 2472.227910
_symmetry_space_group_name_H-M "C 2/C"
_symmetry_group_IT_number 15
_symmetry_cell_setting 'monoclinic'
loop_
_space_group_symop_operation_xyz
x,y,z
-x,y,1/2-z
-x,-y,-z
x,-y,1/2+z
1/2+x,1/2+y,z
1/2-x,1/2+y,1/2-z
1/2-x,1/2-y,-z
1/2+x,1/2-y,1/2+z
loop_
_atom_site_type_symbol
_atom_site_label
_atom_site_fract_x
_atom_site_fract_y
_atom_site_fract_z
Si Si1 0.184023 0.929598 0.315376
Si Si2 0.584822 0.757619 0.113893
Si Si3 0.459371 0.383417 0.609045
Si Si4 0.516208 0.863982 0.560976
Si Si5 0.016838 0.578511 0.563379
Si Si6 0.751436 0.242930 0.187168
O O1 0.347115 0.940836 0.209034
O O2 0.160786 0.831943 0.291278
O O3 0.091490 0.922097 0.457808
O O4 0.142088 0.021225 0.300259
O O5 0.500000 0.782065 0.250000
O O6 0.520519 0.658771 0.130985
O O7 0.578670 0.848670 0.068613
O O8 0.750000 0.750000 0.000000
O O9 0.367362 0.297801 0.647777
O O10 0.449720 0.875651 0.537804
O O11 0.381203 0.834041 0.720210
O O12 0.649744 0.783867 0.455189
O O13 0.585680 0.970372 0.522178
#
# Coordination Sequence:
#
# PCOD8133535 Si02
#       6
#     8   8   8   8   8   8
#     4  10  19  33  58  83 113 153 180 267 287 336
#     4  12  26  38  57  82 127 169 184 223 282 372
#     4  11  21  34  55  84 123 143 201 233 299 348
#     4  10  20  31  57  80 115 142 180 259 288 335
#     4  10  20  36  55  81 112 154 202 225 296 339
#     4  11  18  32  52  85 112 139 177 238 313 331
#
# _framework density 19.415686000000001
#
# number of rings (size 3 to 8) (size 9 to 14) (size 15 to 20)
#    0.000    1.333    6.667    1.000    2.333    0.000 
#    0.000    0.000    0.000    0.000    0.000    5.833 
#    0.000    0.000    0.000    0.000    0.000    0.000 
#
# Total GULP energy -297333.759504 kJ/mol
# GULP energy per Si atom -12388.906646 kJ/mol
# Density = 1.937150 g / cm^3
# Si number density = 19.415686 Si / 1000 Ang^3
#
#
#
# Elastic Constant Matrix: (Units=GPa)
#
#
# Indices 1 2 3 4 5 6 
#
# 1 62.8291 37.7374 16.3638 0.0009 -4.2749 -0.0003
# 2 37.7374 116.5476 24.3492 0.0005 -6.2750 -0.0003
# 3 16.3638 24.3492 95.7749 -0.0007 -13.8805 -0.0003
# 4 0.0009 0.0005 -0.0007 36.3347 -0.0008 -3.2773
# 5 -4.2749 -6.2750 -13.8805 -0.0008 22.3830 0.0005
# 6 -0.0003 -0.0003 -0.0003 -3.2773 0.0005 29.6927
#
#
#
# Elastic Compliance Matrix: (Units=1/GPa)
#
#
# Indices 1 2 3 4 5 6 
#
# 1 0.020096 -0.006088 -0.001733 0.000000 0.001057 0.000000
# 2 -0.006088 0.010936 -0.001609 0.000000 0.000905 0.000000
# 3 -0.001733 -0.001609 0.012122 0.000000 0.006736 0.000000
# 4 0.000000 0.000000 0.000000 0.027799 0.000001 0.003068
# 5 0.001057 0.000905 0.006736 0.000001 0.049309 -0.000001
# 6 0.000000 0.000000 0.000000 0.003068 -0.000001 0.034017
#
#
# Mechanical properties :
#
#
# Convention : Reuss Voigt Hill
#
# Bulk Modulus (GPa) = 41.15980 48.00582 44.58281
# Shear Modulus (GPa) = 27.58809 30.79550 29.19179
#
# Velocity S-wave (km/s) = 3.77360 3.98693 3.88173
# Velocity P-wave (km/s) = 6.34287 6.78034 6.56525
#
# Compressibility (1/GPa) = 0.02429555
#
# Stress axis : x y z
#
# Youngs Moduli (GPa) = 49.76095 91.43803 82.49189
#
# Poissons Ratio (x) = 0.55668 0.14292
# Poissons Ratio (y) = 0.30295 0.13273
# Poissons Ratio (z) = 0.08621 0.14712
#
# Static dielectric constant tensor:
#      x y z
#    x 2.965050 0.000000 -0.062260 
#    y 0.000000 4.021350 0.000000 
#    z -0.062260 0.000000 3.767410 
# 
# 
# High freq. dielectric constant tensor:
#      x y z
#    x 1.669650 0.000000 -0.012000 
#    y 0.000000 1.782750 0.000000 
#    z -0.012000 0.000000 1.780810 
# 
# From -- ./inp_files/248954.got.cif
#   From: 2010.06.25/outbox.cif.g09.slc.cpg/sg15_125_cif.got.tgz:248954.got - 2010.06.28 07:06:18.
