data_PCOD8133983
_publ_section_title
;
Structure prediction by ZEFSAII (Michael W. Deem and Ramdas Pophale) SiO2 
 PCOD8133983
Probable space group: C 2/C
;
_chemical_formula_sum "Si O2"
_cell_formula_units_Z 64
_cell_length_a 29.581193
_cell_length_b 17.373874
_cell_length_c 9.186781
_cell_angle_alpha 90.000000
_cell_angle_beta 138.242474
_cell_angle_gamma 90.000000
_cell_volume 3144.391979
_symmetry_space_group_name_H-M "C 2/C"
_symmetry_group_IT_number 15
_symmetry_cell_setting 'monoclinic'
loop_
_space_group_symop_operation_xyz
x,y,z
-x,y,1/2-z
-x,-y,-z
x,-y,1/2+z
1/2+x,1/2+y,z
1/2-x,1/2+y,1/2-z
1/2-x,1/2-y,-z
1/2+x,1/2-y,1/2+z
loop_
_atom_site_type_symbol
_atom_site_label
_atom_site_fract_x
_atom_site_fract_y
_atom_site_fract_z
Si Si1 0.236609 0.376276 0.314807
Si Si2 0.824487 0.587826 0.554792
Si Si3 0.914477 0.061136 0.899595
Si Si4 0.377653 0.670024 0.069886
Si Si5 0.276758 0.451256 0.927927
Si Si6 0.968048 0.107765 0.522151
Si Si7 0.920483 0.668643 0.562448
Si Si8 0.164444 0.584223 0.365462
O O1 0.196667 0.353255 0.366751
O O2 0.296792 0.319777 0.406892
O O3 0.271675 0.457588 0.433289
O O4 0.176175 0.382857 0.053693
O O5 0.753671 0.573580 0.299843
O O6 0.885047 0.623433 0.608296
O O7 0.854742 0.506362 0.683998
O O8 0.854737 0.070859 0.637483
O O9 0.933098 0.973045 0.978364
O O10 0.894286 0.096029 0.008422
O O11 0.977170 0.102991 0.975361
O O12 0.412643 0.663874 0.313870
O O13 0.403598 0.741945 0.039180
O O14 0.235066 0.405338 0.950049
O O15 0.000000 0.141550 0.750000
O O16 0.894004 0.635781 0.345845
O O17 0.000000 0.654048 0.750000
#
# Coordination Sequence:
#
# PCOD8133983 Si02
#       8
#     8   8   8   8   8   8   8   8
#     4  10  19  34  63  92 123 151 199 263 303 351
#     4   9  21  39  64  96 122 149 205 265 316 367
#     4  11  20  36  56  86 125 176 218 248 285 351
#     4  12  24  40  61  88 131 172 205 247 310 362
#     4   9  17  33  60  91 123 161 201 254 303 354
#     4  11  24  34  54  86 126 171 226 251 278 347
#     4  11  25  45  64  86 127 166 198 252 321 385
#     4   9  19  40  65  95 115 151 208 256 315 379
#
# _framework density 20.353697
#
# number of rings (size 3 to 8) (size 9 to 14) (size 15 to 20)
#    0.000    1.750    2.500    3.375    1.750    1.500 
#    0.000    3.125    0.000    0.000    0.000    0.000 
#    0.000    0.000    0.000    0.000    0.000    0.000 
#
# Total GULP energy -396700.551326 kJ/mol
# GULP energy per Si atom -12396.892229 kJ/mol
# Density = 2.030737 g / cm^3
# Si number density = 20.353697 Si / 1000 Ang^3
#
#
#
# Elastic Constant Matrix: (Units=GPa)
#
#
# Indices 1 2 3 4 5 6 
#
# 1 98.5107 16.4219 56.7636 0.0000 -0.7571 0.0000
# 2 16.4219 54.1123 40.9080 0.0000 2.6767 0.0000
# 3 56.7636 40.9080 126.7931 0.0000 0.1459 0.0000
# 4 0.0000 0.0000 0.0000 17.9656 0.0000 0.4725
# 5 -0.7571 2.6767 0.1459 0.0000 39.3007 0.0000
# 6 0.0000 0.0000 0.0000 0.4725 0.0000 23.9592
#
#
#
# Elastic Compliance Matrix: (Units=1/GPa)
#
#
# Indices 1 2 3 4 5 6 
#
# 1 0.013699 0.000618 -0.006332 0.000000 0.000245 0.000000
# 2 0.000618 0.024575 -0.008203 0.000000 -0.001631 0.000000
# 3 -0.006332 -0.008203 0.013368 0.000000 0.000387 0.000000
# 4 0.000000 0.000000 0.000000 0.055691 0.000000 -0.001098
# 5 0.000245 -0.001631 0.000387 0.000000 0.025559 0.000000
# 6 0.000000 0.000000 0.000000 -0.001098 0.000000 0.041759
#
#
# Mechanical properties :
#
#
# Convention : Reuss Voigt Hill
#
# Bulk Modulus (GPa) = 42.00668 56.40034 49.20351
# Shear Modulus (GPa) = 23.76168 27.26661 25.51414
#
# Velocity S-wave (km/s) = 3.42049 3.66408 3.54438
# Velocity P-wave (km/s) = 6.02352 6.75803 6.40132
#
# Compressibility (1/GPa) = 0.02380574
#
# Stress axis : x y z
#
# Youngs Moduli (GPa) = 72.99833 40.69182 74.80499
#
# Poissons Ratio (x) = -0.02514 0.47370
# Poissons Ratio (y) = -0.04509 0.61366
# Poissons Ratio (z) = 0.46226 0.33381
#
# Static dielectric constant tensor:
#      x y z
#    x 3.752820 0.000000 -0.089960 
#    y 0.000000 3.360340 0.000000 
#    z -0.089960 0.000000 3.797820 
# 
# 
# High freq. dielectric constant tensor:
#      x y z
#    x 1.799550 0.000000 -0.009380 
#    y 0.000000 1.755930 0.000000 
#    z -0.009380 0.000000 1.801150 
# 
# From -- ./inp_files/70611.got.cif
#   From: 2010.06.25/outbox.cif.g09.slc.cpg/sg15_36_cif.got.tgz:70611.got - 2010.06.28 07:06:18.
