data_PCOD8133296
_publ_section_title
;
Structure prediction by ZEFSAII (Michael W. Deem and Ramdas Pophale) SiO2 
 PCOD8133296
Probable space group: C 2/C
;
_chemical_formula_sum "Si O2"
_cell_formula_units_Z 52
_cell_length_a 10.819217
_cell_length_b 24.172981
_cell_length_c 15.612696
_cell_angle_alpha 90.000000
_cell_angle_beta 141.838795
_cell_angle_gamma 90.000000
_cell_volume 2522.931024
_symmetry_space_group_name_H-M "C 2/C"
_symmetry_group_IT_number 15
_symmetry_cell_setting 'monoclinic'
loop_
_space_group_symop_operation_xyz
x,y,z
-x,y,1/2-z
-x,-y,-z
x,-y,1/2+z
1/2+x,1/2+y,z
1/2-x,1/2+y,1/2-z
1/2-x,1/2-y,-z
1/2+x,1/2-y,1/2+z
loop_
_atom_site_type_symbol
_atom_site_label
_atom_site_fract_x
_atom_site_fract_y
_atom_site_fract_z
Si Si1 0.442387 0.111779 0.020401
Si Si2 0.346000 0.980016 0.594859
Si Si3 0.146414 0.553500 0.688387
Si Si4 0.504999 0.573843 0.991204
Si Si5 0.649262 0.559860 0.252290
Si Si6 0.000000 0.244832 0.750000
Si Si7 0.313957 0.319691 0.002879
O O1 0.339387 0.060924 0.012415
O O2 0.682735 0.107776 0.148797
O O3 0.361494 0.166771 0.022262
O O4 0.361153 0.105635 0.879120
O O5 0.500000 0.956267 0.750000
O O6 0.125380 0.980713 0.518518
O O7 0.577288 0.039208 0.898957
O O8 0.240129 0.499055 0.694759
O O9 0.273541 0.570570 0.840399
O O10 0.517497 0.576894 0.099294
O O11 0.604962 0.627279 0.002128
O O12 0.500000 0.558366 0.250000
O O13 0.795285 0.281406 0.628642
O O14 0.993125 0.208287 0.657493
#
# Coordination Sequence:
#
# PCOD8133296 Si02
#       7
#     8   8   8   8   8   4   8
#     4  10  21  36  51  79 111 154 177 236 283 326
#     4  10  19  33  52  71 109 152 200 226 264 311
#     4  11  23  31  52  77 111 155 206 224 260 316
#     4  11  22  37  55  79 113 162 182 238 286 323
#     4  11  23  34  52  78 114 159 203 229 260 323
#     4  10  20  36  60  98 102 134 170 250 292 370
#     4  10  21  36  62  83 119 132 184 226 310 347
#
# _framework density 20.610948
#
# number of rings (size 3 to 8) (size 9 to 14) (size 15 to 20)
#    0.000    1.538    3.077    4.154    8.615    0.000 
#    0.000    0.000    0.000    0.000    0.000   17.231 
#    0.000    0.000    0.000    0.000    0.000    0.000 
#
# Total GULP energy -322149.348001 kJ/mol
# GULP energy per Si atom -12390.359539 kJ/mol
# Density = 2.056404 g / cm^3
# Si number density = 20.610948 Si / 1000 Ang^3
#
#
#
# Elastic Constant Matrix: (Units=GPa)
#
#
# Indices 1 2 3 4 5 6 
#
# 1 118.2960 24.9138 34.1490 0.0000 -4.3555 0.0002
# 2 24.9138 60.0916 30.0289 0.0000 -5.5341 0.0000
# 3 34.1490 30.0289 139.8542 0.0001 -14.6781 0.0002
# 4 0.0000 0.0000 0.0001 25.5972 0.0001 -0.5150
# 5 -4.3555 -5.5341 -14.6781 0.0001 33.2429 0.0002
# 6 0.0002 0.0000 0.0002 -0.5150 0.0002 9.0105
#
#
#
# Elastic Compliance Matrix: (Units=1/GPa)
#
#
# Indices 1 2 3 4 5 6 
#
# 1 0.009597 -0.003146 -0.001668 0.000000 -0.000003 0.000000
# 2 -0.003146 0.019735 -0.003322 0.000000 0.001407 0.000000
# 3 -0.001668 -0.003322 0.008588 0.000000 0.003020 0.000000
# 4 0.000000 0.000000 0.000000 0.039112 0.000000 0.002235
# 5 -0.000003 0.001407 0.003020 0.000000 0.031649 -0.000001
# 6 0.000000 0.000000 0.000000 0.002235 -0.000001 0.111110
#
#
# Mechanical properties :
#
#
# Convention : Reuss Voigt Hill
#
# Bulk Modulus (GPa) = 46.19177 55.15834 50.67505
# Shear Modulus (GPa) = 20.55263 28.84681 24.69972
#
# Velocity S-wave (km/s) = 3.16123 3.74516 3.46552
# Velocity P-wave (km/s) = 5.98201 6.74696 6.37596
#
# Compressibility (1/GPa) = 0.02164888
#
# Stress axis : x y z
#
# Youngs Moduli (GPa) = 104.19545 50.67173 116.44322
#
# Poissons Ratio (x) = 0.15939 0.19427
# Poissons Ratio (y) = 0.32776 0.38679
# Poissons Ratio (z) = 0.17383 0.16832
#
# Static dielectric constant tensor:
#      x y z
#    x 3.912180 0.000000 -0.049730 
#    y 0.000000 3.596100 0.000000 
#    z -0.049730 0.000000 4.056540 
# 
# 
# High freq. dielectric constant tensor:
#      x y z
#    x 1.792330 0.000000 -0.008300 
#    y 0.000000 1.758920 0.000000 
#    z -0.008300 0.000000 1.836250 
# 
# From -- ./inp_files/148424.got.cif
#   From: 2010.06.25/outbox.cif.g09.slc.cpg/sg15_75_cif.got.tgz:148424.got - 2010.06.28 07:06:18.
