data_PCOD8133422
_publ_section_title
;
Structure prediction by ZEFSAII (Michael W. Deem and Ramdas Pophale) SiO2 
 PCOD8133422
Probable space group: C 2/C
;
_chemical_formula_sum "Si O2"
_cell_formula_units_Z 64
_cell_length_a 15.710002
_cell_length_b 11.290285
_cell_length_c 20.400764
_cell_angle_alpha 90.000000
_cell_angle_beta 70.440585
_cell_angle_gamma 90.000000
_cell_volume 3409.685996
_symmetry_space_group_name_H-M "C 2/C"
_symmetry_group_IT_number 15
_symmetry_cell_setting 'monoclinic'
loop_
_space_group_symop_operation_xyz
x,y,z
-x,y,1/2-z
-x,-y,-z
x,-y,1/2+z
1/2+x,1/2+y,z
1/2-x,1/2+y,1/2-z
1/2-x,1/2-y,-z
1/2+x,1/2-y,1/2+z
loop_
_atom_site_type_symbol
_atom_site_label
_atom_site_fract_x
_atom_site_fract_y
_atom_site_fract_z
Si Si1 0.510369 0.277525 0.173120
Si Si2 0.935604 0.859863 0.962083
Si Si3 0.077659 0.038868 0.891006
Si Si4 0.253566 0.541848 0.477677
Si Si5 0.246479 0.569035 0.122461
Si Si6 0.787523 0.801144 0.422506
Si Si7 0.948203 0.593605 0.966185
Si Si8 0.545085 0.985914 0.675898
O O1 0.500000 0.325175 0.250000
O O2 0.434675 0.348573 0.152530
O O3 0.604194 0.299051 0.111197
O O4 0.491957 0.137201 0.176560
O O5 0.836345 0.863193 0.951941
O O6 0.979128 0.729928 0.963717
O O7 0.926446 0.921926 0.033495
O O8 0.003337 0.935820 0.898796
O O9 0.176984 0.985203 0.850349
O O10 0.258181 0.476965 0.545785
O O11 0.260184 0.438207 0.420763
O O12 0.157798 0.602314 0.489117
O O13 0.253756 0.713312 0.122099
O O14 0.147835 0.533051 0.172272
O O15 0.750000 0.750000 0.500000
O O16 0.964226 0.561696 0.886826
O O17 0.000000 0.500000 0.000000
O O18 0.500000 0.051639 0.750000
#
# Coordination Sequence:
#
# PCOD8133422 Si02
#       8
#     8   8   8   8   8   8   8   8
#     4  10  19  34  56  81 108 148 189 232 279 339
#     4  10  20  32  53  80 109 143 173 227 290 326
#     4  10  19  33  55  80 110 136 182 230 279 335
#     4   9  17  32  49  76 110 139 172 219 279 325
#     4   8  17  29  54  81 101 138 178 224 266 326
#     4   9  16  29  52  80 107 135 179 224 274 321
#     4  11  22  33  52  83 111 139 185 236 275 329
#     4   9  19  38  59  74 106 151 188 217 279 343
#
# _framework density 18.770057000000001
#
# number of rings (size 3 to 8) (size 9 to 14) (size 15 to 20)
#    0.000    2.500    1.250    1.875    3.500    0.000 
#    0.000    1.875    2.750    0.000    0.000    0.000 
#    0.000    0.000    0.000    0.000    0.000    0.000 
#
# Total GULP energy -396428.878567 kJ/mol
# GULP energy per Si atom -12388.402455 kJ/mol
# Density = 1.872734 g / cm^3
# Si number density = 18.770057 Si / 1000 Ang^3
#
#
#
# Elastic Constant Matrix: (Units=GPa)
#
#
# Indices 1 2 3 4 5 6 
#
# 1 107.3724 37.1906 28.4344 0.0000 -7.6738 0.0000
# 2 37.1906 84.7816 6.7350 0.0000 -9.4137 0.0000
# 3 28.4344 6.7350 65.9383 0.0000 -19.0837 0.0000
# 4 0.0000 0.0000 0.0000 14.1483 0.0000 2.3088
# 5 -7.6738 -9.4137 -19.0837 0.0000 12.1300 0.0000
# 6 0.0000 0.0000 0.0000 2.3088 0.0000 35.9187
#
#
#
# Elastic Compliance Matrix: (Units=1/GPa)
#
#
# Indices 1 2 3 4 5 6 
#
# 1 0.012666 -0.005845 -0.007084 0.000000 -0.007669 0.000000
# 2 -0.005845 0.015914 0.006241 0.000000 0.018472 0.000000
# 3 -0.007084 0.006241 0.032474 0.000000 0.051453 0.000000
# 4 0.000000 0.000000 0.000000 0.071429 0.000000 -0.004591
# 5 -0.007669 0.018472 0.051453 0.000000 0.172873 0.000000
# 6 0.000000 0.000000 0.000000 -0.004591 0.000000 0.028136
#
#
# Mechanical properties :
#
#
# Convention : Reuss Voigt Hill
#
# Bulk Modulus (GPa) = 20.97399 44.75692 32.86545
# Shear Modulus (GPa) = 13.78319 24.82156 19.30238
#
# Velocity S-wave (km/s) = 2.71277 3.64043 3.21028
# Velocity P-wave (km/s) = 4.58373 6.44724 5.59364
#
# Compressibility (1/GPa) = 0.04767809
#
# Stress axis : x y z
#
# Youngs Moduli (GPa) = 78.95264 62.83731 30.79348
#
# Poissons Ratio (x) = 0.36727 0.21815
# Poissons Ratio (y) = 0.46146 -0.19218
# Poissons Ratio (z) = 0.55932 -0.39216
#
# Static dielectric constant tensor:
#      x y z
#    x 3.516700 0.000000 -0.196880 
#    y 0.000000 3.571100 0.000000 
#    z -0.196880 0.000000 3.218870 
# 
# 
# High freq. dielectric constant tensor:
#      x y z
#    x 1.719980 0.000000 -0.023890 
#    y 0.000000 1.730080 0.000000 
#    z -0.023890 0.000000 1.695030 
# 
# From -- ./inp_files/243710.got.cif
#   From: 2010.06.25/outbox.cif.g09.slc.cpg/sg15_122_cif.got.tgz:243710.got - 2010.06.28 07:06:18.
