data_PCOD8133222
_publ_section_title
;
Structure prediction by ZEFSAII (Michael W. Deem and Ramdas Pophale) SiO2 
 PCOD8133222
Probable space group: C 2/C
;
_chemical_formula_sum "Si O2"
_cell_formula_units_Z 56
_cell_length_a 10.048012
_cell_length_b 14.187295
_cell_length_c 24.423414
_cell_angle_alpha 90.000000
_cell_angle_beta 50.807021
_cell_angle_gamma 90.000000
_cell_volume 2698.361351
_symmetry_space_group_name_H-M "C 2/C"
_symmetry_group_IT_number 15
_symmetry_cell_setting 'monoclinic'
loop_
_space_group_symop_operation_xyz
x,y,z
-x,y,1/2-z
-x,-y,-z
x,-y,1/2+z
1/2+x,1/2+y,z
1/2-x,1/2+y,1/2-z
1/2-x,1/2-y,-z
1/2+x,1/2-y,1/2+z
loop_
_atom_site_type_symbol
_atom_site_label
_atom_site_fract_x
_atom_site_fract_y
_atom_site_fract_z
Si Si1 0.386585 0.819314 0.143897
Si Si2 0.338835 0.976180 0.676702
Si Si3 0.237459 0.124692 0.976576
Si Si4 0.298774 0.863424 0.792667
Si Si5 0.616231 0.084924 0.447389
Si Si6 0.425716 0.746050 0.021879
Si Si7 0.764321 0.431959 0.920580
O O1 0.591247 0.834550 0.097015
O O2 0.307912 0.729898 0.196068
O O3 0.330997 0.804809 0.094874
O O4 0.299810 0.912914 0.191380
O O5 0.260748 0.930249 0.750933
O O6 0.268114 0.940585 0.635998
O O7 0.537917 0.949266 0.618527
O O8 0.172044 0.027008 0.965453
O O9 0.257421 0.111316 0.036342
O O10 0.089543 0.199816 0.008632
O O11 0.500000 0.840964 0.750000
O O12 0.226020 0.914529 0.866005
O O13 0.494594 0.175154 0.461709
O O14 0.500000 0.000000 0.500000
O O15 0.304442 0.662678 0.029129
#
# Coordination Sequence:
#
# PCOD8133222 Si02
#       7
#     8   8   8   8   8   8   8
#     4   9  17  33  57  71 105 143 170 217 277 311
#     4  10  19  35  55  80 107 140 183 221 266 324
#     4  10  19  34  57  82 112 141 174 217 275 324
#     4   9  19  35  56  73 100 143 191 224 257 313
#     4  11  18  33  53  78 111 140 173 215 277 324
#     4  10  19  32  57  82 111 139 173 220 269 319
#     4   9  18  34  57  80 104 143 180 222 262 313
#
# _framework density 20.753335
#
# number of rings (size 3 to 8) (size 9 to 14) (size 15 to 20)
#    0.000    2.286    4.286    2.143    0.000    0.571 
#    2.571    0.000   15.714    0.000    0.000    0.000 
#    0.000    0.000    0.000    0.000    0.000    0.000 
#
# Total GULP energy -346866.224265 kJ/mol
# GULP energy per Si atom -12388.079438 kJ/mol
# Density = 2.070610 g / cm^3
# Si number density = 20.753335 Si / 1000 Ang^3
#
#
#
# Elastic Constant Matrix: (Units=GPa)
#
#
# Indices 1 2 3 4 5 6 
#
# 1 49.7625 29.3647 7.3630 -0.0001 5.6530 0.0000
# 2 29.3647 169.3111 46.2290 0.0000 13.5630 0.0000
# 3 7.3630 46.2290 71.9278 -0.0003 20.8964 0.0001
# 4 -0.0001 0.0000 -0.0003 34.8090 0.0001 -3.0992
# 5 5.6530 13.5630 20.8964 0.0001 14.0708 -0.0001
# 6 0.0000 0.0000 0.0001 -3.0992 -0.0001 32.6501
#
#
#
# Elastic Compliance Matrix: (Units=1/GPa)
#
#
# Indices 1 2 3 4 5 6 
#
# 1 0.023181 -0.004081 0.003188 0.000000 -0.010114 0.000000
# 2 -0.004081 0.007882 -0.005131 0.000000 0.001662 0.000000
# 3 0.003188 -0.005131 0.027806 0.000000 -0.037630 0.000000
# 4 0.000000 0.000000 0.000000 0.028973 -0.000001 0.002750
# 5 -0.010114 0.001662 -0.037630 -0.000001 0.129415 0.000000
# 6 0.000000 0.000000 0.000000 0.002750 0.000000 0.030889
#
#
# Mechanical properties :
#
#
# Convention : Reuss Voigt Hill
#
# Bulk Modulus (GPa) = 21.35736 50.76829 36.06283
# Shear Modulus (GPa) = 18.12910 30.17563 24.15237
#
# Velocity S-wave (km/s) = 2.95880 3.81729 3.41513
# Velocity P-wave (km/s) = 4.68893 6.62908 5.74155
#
# Compressibility (1/GPa) = 0.04682226
#
# Stress axis : x y z
#
# Youngs Moduli (GPa) = 43.13942 126.87415 35.96295
#
# Poissons Ratio (x) = 0.51773 -0.11466
# Poissons Ratio (y) = 0.17604 0.18452
# Poissons Ratio (z) = -0.13753 0.65097
#
# Static dielectric constant tensor:
#      x y z
#    x 3.536790 0.000000 0.141640 
#    y 0.000000 4.338270 0.000000 
#    z 0.141640 0.000000 3.712600 
# 
# 
# High freq. dielectric constant tensor:
#      x y z
#    x 1.782960 0.000000 0.005290 
#    y 0.000000 1.837600 0.000000 
#    z 0.005290 0.000000 1.785290 
# 
# From -- ./inp_files/291968.got.cif
#   From: 2010.06.25/outbox.cif.g09.slc.cpg/sg15_146_cif.got.tgz:291968.got - 2010.06.28 07:06:18.
