data_PCOD8133526
_publ_section_title
;
Structure prediction by ZEFSAII (Michael W. Deem and Ramdas Pophale) SiO2 
 PCOD8133526
Probable space group: C 2/C
;
_chemical_formula_sum "Si O2"
_cell_formula_units_Z 48
_cell_length_a 27.119925
_cell_length_b 23.607251
_cell_length_c 19.198933
_cell_angle_alpha 90.000000
_cell_angle_beta 167.042360
_cell_angle_gamma 90.000000
_cell_volume 2756.169440
_symmetry_space_group_name_H-M "C 2/C"
_symmetry_group_IT_number 15
_symmetry_cell_setting 'monoclinic'
loop_
_space_group_symop_operation_xyz
x,y,z
-x,y,1/2-z
-x,-y,-z
x,-y,1/2+z
1/2+x,1/2+y,z
1/2-x,1/2+y,1/2-z
1/2-x,1/2-y,-z
1/2+x,1/2-y,1/2+z
loop_
_atom_site_type_symbol
_atom_site_label
_atom_site_fract_x
_atom_site_fract_y
_atom_site_fract_z
Si Si1 0.006472 0.477651 0.839391
Si Si2 0.266191 0.922340 0.788501
Si Si3 0.366692 0.697258 0.237722
Si Si4 0.450958 0.421727 0.486470
Si Si5 0.952189 0.695598 0.575333
Si Si6 0.964765 0.986079 0.280461
O O1 0.000000 0.493617 0.750000
O O2 0.769347 0.453998 0.535787
O O3 0.033301 0.535417 0.920561
O O4 0.196128 0.432340 0.117518
O O5 0.099540 0.933830 0.623402
O O6 0.147010 0.939420 0.552660
O O7 0.362732 0.859599 0.912102
O O8 0.526638 0.643845 0.463450
O O9 0.526325 0.750748 0.445731
O O10 0.226346 0.710871 0.112622
O O11 0.195350 0.683939 0.940006
O O12 0.526795 0.460359 0.655548
O O13 0.000000 0.006774 0.250000
#
# Coordination Sequence:
#
# PCOD8133526 Si02
#       6
#     8   8   8   8   8   8
#     4  11  18  33  57  76 101 138 176 207 250 312
#     4  10  19  33  58  77 101 141 176 206 253 315
#     4   9  18  34  52  78 102 133 170 214 254 303
#     4  10  19  34  56  79 101 139 179 205 250 317
#     4   9  18  33  54  75 103 133 170 212 258 298
#     4  11  22  35  49  81 112 132 166 219 263 299
#
# _framework density 17.415476000000002
#
# number of rings (size 3 to 8) (size 9 to 14) (size 15 to 20)
#    0.000    2.000    3.333    2.000    2.333    2.667 
#   12.000    0.000    0.000    2.000    0.000    0.000 
#    0.000    0.000    0.000    0.000    0.000    0.000 
#
# Total GULP energy -297530.374550 kJ/mol
# GULP energy per Si atom -12397.098940 kJ/mol
# Density = 1.737584 g / cm^3
# Si number density = 17.415476 Si / 1000 Ang^3
#
#
#
# Elastic Constant Matrix: (Units=GPa)
#
#
# Indices 1 2 3 4 5 6 
#
# 1 65.1585 32.8685 30.9144 0.0006 -10.9244 -0.0003
# 2 32.8685 119.8303 51.7951 -0.0006 -5.5770 -0.0002
# 3 30.9144 51.7951 104.8936 0.0025 -5.5793 -0.0002
# 4 0.0006 -0.0006 0.0025 21.1906 0.0013 7.1433
# 5 -10.9244 -5.5770 -5.5793 0.0013 19.5493 -0.0005
# 6 -0.0003 -0.0002 -0.0002 7.1433 -0.0005 23.6720
#
#
#
# Elastic Compliance Matrix: (Units=1/GPa)
#
#
# Indices 1 2 3 4 5 6 
#
# 1 0.020507 -0.003550 -0.003793 -0.000001 0.009365 0.000001
# 2 -0.003550 0.011271 -0.004522 0.000001 -0.000059 0.000000
# 3 -0.003793 -0.004522 0.012899 -0.000002 0.000272 0.000001
# 4 -0.000001 0.000001 -0.000002 0.052535 -0.000005 -0.015853
# 5 0.009365 -0.000059 0.000272 -0.000005 0.056446 0.000003
# 6 0.000001 0.000000 0.000001 -0.015853 0.000003 0.047028
#
#
# Mechanical properties :
#
#
# Convention : Reuss Voigt Hill
#
# Bulk Modulus (GPa) = 47.73974 57.89315 52.81644
# Shear Modulus (GPa) = 21.60776 24.50269 23.05522
#
# Velocity S-wave (km/s) = 3.52621 3.75500 3.64240
# Velocity P-wave (km/s) = 6.63706 7.21904 6.93416
#
# Compressibility (1/GPa) = 0.02094691
#
# Stress axis : x y z
#
# Youngs Moduli (GPa) = 48.76272 88.72520 77.52603
#
# Poissons Ratio (x) = 0.31495 0.29406
# Poissons Ratio (y) = 0.17309 0.35060
# Poissons Ratio (z) = 0.18496 0.40124
#
# Static dielectric constant tensor:
#      x y z
#    x 3.131680 0.000000 0.010690 
#    y 0.000000 3.159030 0.000000 
#    z 0.010690 0.000000 3.389500 
# 
# 
# High freq. dielectric constant tensor:
#      x y z
#    x 1.658380 0.000000 0.004320 
#    y 0.000000 1.656570 0.000000 
#    z 0.004320 0.000000 1.676940 
# 
# From -- ./inp_files/51140.got.cif
#   From: 2010.06.25/outbox.cif.g09.slc.cpg/sg15_26_cif.got.tgz:51140.got - 2010.06.28 07:06:18.
