data_PCOD8133546
_publ_section_title
;
Structure prediction by ZEFSAII (Michael W. Deem and Ramdas Pophale) SiO2 
 PCOD8133546
Probable space group: C 2/C
;
_chemical_formula_sum "Si O2"
_cell_formula_units_Z 40
_cell_length_a 9.998806
_cell_length_b 15.041692
_cell_length_c 12.051757
_cell_angle_alpha 90.000000
_cell_angle_beta 68.498618
_cell_angle_gamma 90.000000
_cell_volume 1686.432549
_symmetry_space_group_name_H-M "C 2/C"
_symmetry_group_IT_number 15
_symmetry_cell_setting 'monoclinic'
loop_
_space_group_symop_operation_xyz
x,y,z
-x,y,1/2-z
-x,-y,-z
x,-y,1/2+z
1/2+x,1/2+y,z
1/2-x,1/2+y,1/2-z
1/2-x,1/2-y,-z
1/2+x,1/2-y,1/2+z
loop_
_atom_site_type_symbol
_atom_site_label
_atom_site_fract_x
_atom_site_fract_y
_atom_site_fract_z
Si Si1 0.804886 0.882861 0.626388
Si Si2 0.070768 0.633618 0.010236
Si Si3 0.886930 0.493393 0.189962
Si Si4 0.158074 0.741926 0.697687
Si Si5 0.413480 0.683457 0.506005
O O1 0.696272 0.860242 0.561491
O O2 0.759451 0.970688 0.708215
O O3 0.805350 0.794989 0.702731
O O4 0.968107 0.895964 0.529715
O O5 0.139611 0.596130 0.873798
O O6 0.944024 0.569923 0.090842
O O7 0.000415 0.728160 0.012475
O O8 0.000000 0.470587 0.250000
O O9 0.282550 0.668042 0.633854
O O10 0.157733 0.811022 0.594283
O O11 0.000000 0.696320 0.750000
#
# Coordination Sequence:
#
# PCOD8133546 Si02
#       5
#     8   8   8   8   8
#     4  10  19  35  58  90 123 156 196 258 301 347
#     4  10  19  34  57  90 120 161 206 244 297 373
#     4   9  19  34  56  86 126 164 203 244 295 359
#     4   9  19  34  55  87 116 155 197 246 306 354
#     4  10  19  33  58  90 117 157 205 247 301 365
#
# _framework density 23.718706999999998
#
# number of rings (size 3 to 8) (size 9 to 14) (size 15 to 20)
#    0.000    2.400    2.000    0.600    0.000    2.400 
#    0.000    0.000    0.000   10.800    0.000    0.000 
#    0.000    0.000    0.000    0.000    0.000    0.000 
#
# Total GULP energy -247869.657006 kJ/mol
# GULP energy per Si atom -12393.482850 kJ/mol
# Density = 2.366472 g / cm^3
# Si number density = 23.718707 Si / 1000 Ang^3
#
#
#
# Elastic Constant Matrix: (Units=GPa)
#
#
# Indices 1 2 3 4 5 6 
#
# 1 147.6442 32.6028 73.2282 0.0000 -33.9525 0.0000
# 2 32.6028 63.4843 25.1442 0.0000 -9.2552 0.0000
# 3 73.2282 25.1442 124.5295 0.0000 -14.6973 0.0000
# 4 0.0000 0.0000 0.0000 31.3035 0.0000 5.6929
# 5 -33.9525 -9.2552 -14.6973 0.0000 58.6023 0.0000
# 6 0.0000 0.0000 0.0000 5.6929 0.0000 9.4590
#
#
#
# Elastic Compliance Matrix: (Units=1/GPa)
#
#
# Indices 1 2 3 4 5 6 
#
# 1 0.011184 -0.002911 -0.005440 0.000000 0.004656 0.000000
# 2 -0.002911 0.018085 -0.001857 0.000000 0.000704 0.000000
# 3 -0.005440 -0.001857 0.011539 0.000000 -0.000551 0.000000
# 4 0.000000 0.000000 0.000000 0.035871 0.000000 -0.021589
# 5 0.004656 0.000704 -0.000551 0.000000 0.019735 0.000000
# 6 0.000000 0.000000 0.000000 -0.021589 0.000000 0.118712
#
#
# Mechanical properties :
#
#
# Convention : Reuss Voigt Hill
#
# Bulk Modulus (GPa) = 49.03463 66.40094 57.71779
# Shear Modulus (GPa) = 20.63227 33.51848 27.07537
#
# Velocity S-wave (km/s) = 2.95256 3.76329 3.38230
# Velocity P-wave (km/s) = 5.68698 6.85121 6.29606
#
# Compressibility (1/GPa) = 0.02039375
#
# Stress axis : x y z
#
# Youngs Moduli (GPa) = 89.41008 55.29506 86.66341
#
# Poissons Ratio (x) = 0.16094 0.47142
# Poissons Ratio (y) = 0.26023 0.16093
# Poissons Ratio (z) = 0.48636 0.10268
#
# Static dielectric constant tensor:
#      x y z
#    x 4.639450 0.000000 -0.406210 
#    y 0.000000 3.860760 0.000000 
#    z -0.406210 0.000000 4.956970 
# 
# 
# High freq. dielectric constant tensor:
#      x y z
#    x 1.938160 0.000000 -0.003790 
#    y 0.000000 1.903590 0.000000 
#    z -0.003790 0.000000 1.963420 
# 
# From -- ./inp_files/76717.got.cif
#   From: 2010.06.25/outbox.cif.g09.slc.cpg/sg15_39_cif.got.tgz:76717.got - 2010.06.28 07:06:18.
