data_PCOD8133710
_publ_section_title
;
Structure prediction by ZEFSAII (Michael W. Deem and Ramdas Pophale) SiO2 
 PCOD8133710
Probable space group: C 2/C
;
_chemical_formula_sum "Si O2"
_cell_formula_units_Z 64
_cell_length_a 13.477770
_cell_length_b 28.832175
_cell_length_c 9.058310
_cell_angle_alpha 90.000000
_cell_angle_beta 72.822480
_cell_angle_gamma 90.000000
_cell_volume 3362.987675
_symmetry_space_group_name_H-M "C 2/C"
_symmetry_group_IT_number 15
_symmetry_cell_setting 'monoclinic'
loop_
_space_group_symop_operation_xyz
x,y,z
-x,y,1/2-z
-x,-y,-z
x,-y,1/2+z
1/2+x,1/2+y,z
1/2-x,1/2+y,1/2-z
1/2-x,1/2-y,-z
1/2+x,1/2-y,1/2+z
loop_
_atom_site_type_symbol
_atom_site_label
_atom_site_fract_x
_atom_site_fract_y
_atom_site_fract_z
Si Si1 0.263380 0.016840 0.640748
Si Si2 0.337794 0.352077 0.635607
Si Si3 0.383972 0.865416 0.328874
Si Si4 0.575436 0.641290 0.949557
Si Si5 0.382802 0.568121 0.333794
Si Si6 0.275356 0.378902 0.359145
Si Si7 0.271882 0.301953 0.943122
Si Si8 0.890453 0.528490 0.861113
O O1 0.221643 0.066523 0.607692
O O2 0.292251 0.017551 0.799349
O O3 0.177384 0.979707 0.633798
O O4 0.370959 0.002584 0.513444
O O5 0.454501 0.348700 0.521386
O O6 0.330538 0.398907 0.734382
O O7 0.264326 0.353806 0.523339
O O8 0.301254 0.309066 0.755876
O O9 0.500000 0.846318 0.250000
O O10 0.322083 0.865155 0.200512
O O11 0.328399 0.833011 0.473086
O O12 0.390378 0.916687 0.396387
O O13 0.615061 0.636661 0.763756
O O14 0.618601 0.594428 0.008790
O O15 0.628469 0.684767 0.004964
O O16 0.500000 0.554808 0.250000
O O17 0.250000 0.250000 0.000000
O O18 0.000000 0.512243 0.750000
#
# Coordination Sequence:
#
# PCOD8133710 Si02
#       8
#     8   8   8   8   8   8   8   8
#     4  11  19  31  49  73 104 138 182 229 260 300
#     4  10  19  34  55  80 109 140 174 219 266 317
#     4   9  20  38  55  72 104 144 178 219 272 325
#     4   9  19  36  53  75 110 144 171 209 268 325
#     4   9  18  31  49  73 105 144 182 216 260 317
#     4  10  20  33  52  79 107 142 180 218 265 310
#     4  10  20  36  60  84 101 131 176 214 260 329
#     4  10  20  33  49  70  98 137 181 224 269 311
#
# _framework density 19.030695999999999
#
# number of rings (size 3 to 8) (size 9 to 14) (size 15 to 20)
#    0.000    2.250    0.000    5.625    0.000    2.000 
#    0.000    6.250    0.000    3.000    0.000    0.000 
#    0.000    0.000    0.000    0.000    0.000    0.000 
#
# Total GULP energy -396671.779030 kJ/mol
# GULP energy per Si atom -12395.993095 kJ/mol
# Density = 1.898738 g / cm^3
# Si number density = 19.030696 Si / 1000 Ang^3
#
#
#
# Elastic Constant Matrix: (Units=GPa)
#
#
# Indices 1 2 3 4 5 6 
#
# 1 70.6978 28.5786 30.9002 0.0000 -7.7737 0.0000
# 2 28.5786 86.7495 42.0922 0.0000 -4.5990 0.0000
# 3 30.9002 42.0922 114.3695 0.0000 -4.4003 0.0000
# 4 0.0000 0.0000 0.0000 22.4096 0.0000 -5.0145
# 5 -7.7737 -4.5990 -4.4003 0.0000 26.2386 0.0000
# 6 0.0000 0.0000 0.0000 -5.0145 0.0000 8.8806
#
#
#
# Elastic Compliance Matrix: (Units=1/GPa)
#
#
# Indices 1 2 3 4 5 6 
#
# 1 0.017584 -0.004080 -0.003096 0.000000 0.003975 0.000000
# 2 -0.004080 0.015047 -0.004409 0.000000 0.000689 0.000000
# 3 -0.003096 -0.004409 0.011210 0.000000 0.000190 0.000000
# 4 0.000000 0.000000 0.000000 0.051077 0.000000 0.028841
# 5 0.003975 0.000689 0.000190 0.000000 0.039442 0.000000
# 6 0.000000 0.000000 0.000000 0.028841 0.000000 0.128891
#
#
# Mechanical properties :
#
#
# Convention : Reuss Voigt Hill
#
# Bulk Modulus (GPa) = 48.37659 52.77321 50.57490
# Shear Modulus (GPa) = 17.04656 22.85547 19.95101
#
# Velocity S-wave (km/s) = 2.99614 3.46927 3.24135
# Velocity P-wave (km/s) = 6.11920 6.62107 6.37508
#
# Compressibility (1/GPa) = 0.02067116
#
# Stress axis : x y z
#
# Youngs Moduli (GPa) = 56.86854 66.45642 89.20401
#
# Poissons Ratio (x) = 0.27113 0.27622
# Poissons Ratio (y) = 0.23201 0.39332
# Poissons Ratio (z) = 0.17609 0.29302
#
# Static dielectric constant tensor:
#      x y z
#    x 3.618710 0.000000 -0.178310 
#    y 0.000000 3.218510 0.000000 
#    z -0.178310 0.000000 3.693670 
# 
# 
# High freq. dielectric constant tensor:
#      x y z
#    x 1.736370 0.000000 -0.010000 
#    y 0.000000 1.710980 0.000000 
#    z -0.010000 0.000000 1.748040 
# 
# From -- ./inp_files/43518.got.cif
#   From: 2010.06.25/outbox.cif.g09.slc.cpg/sg15_22_cif.got.tgz:43518.got - 2010.06.28 07:06:18.
