data_PCOD8133568
_publ_section_title
;
Structure prediction by ZEFSAII (Michael W. Deem and Ramdas Pophale) SiO2 
 PCOD8133568
Probable space group: C 2/C
;
_chemical_formula_sum "Si O2"
_cell_formula_units_Z 60
_cell_length_a 21.581542
_cell_length_b 8.300485
_cell_length_c 27.501319
_cell_angle_alpha 90.000000
_cell_angle_beta 34.742784
_cell_angle_gamma 90.000000
_cell_volume 2807.585550
_symmetry_space_group_name_H-M "C 2/C"
_symmetry_group_IT_number 15
_symmetry_cell_setting 'monoclinic'
loop_
_space_group_symop_operation_xyz
x,y,z
-x,y,1/2-z
-x,-y,-z
x,-y,1/2+z
1/2+x,1/2+y,z
1/2-x,1/2+y,1/2-z
1/2-x,1/2-y,-z
1/2+x,1/2-y,1/2+z
loop_
_atom_site_type_symbol
_atom_site_label
_atom_site_fract_x
_atom_site_fract_y
_atom_site_fract_z
Si Si1 0.421065 0.274532 0.050433
Si Si2 0.737657 0.377034 0.111742
Si Si3 0.699414 0.452718 0.240377
Si Si4 0.574074 0.922644 0.046133
Si Si5 0.380450 0.422961 0.518290
Si Si6 0.000000 0.022772 0.750000
Si Si7 0.020805 0.893848 0.631256
Si Si8 0.368634 0.126321 0.178586
O O1 0.355274 0.419588 0.067128
O O2 0.345300 0.188696 0.138442
O O3 0.461182 0.152302 0.982991
O O4 0.522540 0.329849 0.017724
O O5 0.760512 0.457826 0.149255
O O6 0.776355 0.192380 0.082895
O O7 0.608314 0.370034 0.185601
O O8 0.806462 0.494011 0.030944
O O9 0.603023 0.583817 0.306915
O O10 0.653063 0.270454 0.270527
O O11 0.778216 0.483479 0.236326
O O12 0.566955 0.785004 0.091667
O O13 0.488194 0.062618 0.113418
O O14 0.409134 0.475522 0.444543
O O15 0.976358 0.915103 0.812633
#
# Coordination Sequence:
#
# PCOD8133568 Si02
#       8
#     8   8   8   8   8   4   8   8
#     4  10  19  33  59  96 127 159 195 237 288 399
#     4  11  22  41  61  87 118 163 210 269 309 364
#     4  11  23  34  55  90 136 163 195 247 315 364
#     4  11  21  38  64  86 122 165 212 243 309 385
#     4  10  20  36  64  91 126 159 206 237 306 385
#     4  10  26  44  64  84 122 156 220 284 334 332
#     4  10  22  43  60  88 115 166 210 268 308 366
#     4  12  21  35  56  94 133 171 194 233 307 393
#
# _framework density 21.370677000000001
#
# number of rings (size 3 to 8) (size 9 to 14) (size 15 to 20)
#    0.000    1.333    4.000    2.000    1.867    1.067 
#    0.000    0.000    0.000   10.400    0.000    0.000 
#    0.000    0.000    0.000    0.000    0.000    0.000 
#
# Total GULP energy -371828.626543 kJ/mol
# GULP energy per Si atom -12394.287551 kJ/mol
# Density = 2.132204 g / cm^3
# Si number density = 21.370677 Si / 1000 Ang^3
#
#
#
# Elastic Constant Matrix: (Units=GPa)
#
#
# Indices 1 2 3 4 5 6 
#
# 1 78.6084 21.2409 39.2806 0.0112 -3.1593 -0.0271
# 2 21.2409 84.8743 45.5605 -0.0043 -20.1764 0.0015
# 3 39.2806 45.5605 101.9192 -0.0011 -12.3342 -0.0170
# 4 0.0112 -0.0043 -0.0011 29.8891 -0.0081 -0.0323
# 5 -3.1593 -20.1764 -12.3342 -0.0081 30.4692 0.0119
# 6 -0.0271 0.0015 -0.0170 -0.0323 0.0119 16.6041
#
#
#
# Elastic Compliance Matrix: (Units=1/GPa)
#
#
# Indices 1 2 3 4 5 6 
#
# 1 0.015866 -0.001247 -0.005739 -0.000007 -0.001504 0.000021
# 2 -0.001247 0.017615 -0.006307 0.000005 0.008982 -0.000016
# 3 -0.005739 -0.006307 0.015000 0.000002 0.001301 0.000006
# 4 -0.000007 0.000005 0.000002 0.033457 0.000012 0.000065
# 5 -0.001504 0.008982 0.001301 0.000012 0.039139 -0.000030
# 6 0.000021 -0.000016 0.000006 0.000065 -0.000030 0.060226
#
#
# Mechanical properties :
#
#
# Convention : Reuss Voigt Hill
#
# Bulk Modulus (GPa) = 45.67329 53.06287 49.36808
# Shear Modulus (GPa) = 23.23556 26.01381 24.62468
#
# Velocity S-wave (km/s) = 3.30095 3.49272 3.39819
# Velocity P-wave (km/s) = 5.99555 6.41476 6.20869
#
# Compressibility (1/GPa) = 0.02189463
#
# Stress axis : x y z
#
# Youngs Moduli (GPa) = 63.02865 56.77015 66.66539
#
# Poissons Ratio (x) = 0.07081 0.38261
# Poissons Ratio (y) = 0.07862 0.42043
# Poissons Ratio (z) = 0.36174 0.35802
#
# Static dielectric constant tensor:
#      x y z
#    x 3.485230 -0.000070 0.138430 
#    y -0.000070 3.970450 0.000040 
#    z 0.138430 0.000040 3.994590 
# 
# 
# High freq. dielectric constant tensor:
#      x y z
#    x 1.798920 -0.000010 0.008230 
#    y -0.000010 1.844330 0.000000 
#    z 0.008230 0.000000 1.848300 
# 
# From -- ./inp_files/318491.got.cif
#   From: 2010.06.25/outbox.cif.g09.slc.cpg/sg15_160_cif.got.tgz:318491.got - 2010.06.28 07:06:18.
