data_PCOD8133302
_publ_section_title
;
Structure prediction by ZEFSAII (Michael W. Deem and Ramdas Pophale) SiO2 
 PCOD8133302
Probable space group: C 2/C
;
_chemical_formula_sum "Si O2"
_cell_formula_units_Z 56
_cell_length_a 18.870981
_cell_length_b 25.451226
_cell_length_c 9.813113
_cell_angle_alpha 90.000000
_cell_angle_beta 140.677252
_cell_angle_gamma 90.000000
_cell_volume 2986.658090
_symmetry_space_group_name_H-M "C 2/C"
_symmetry_group_IT_number 15
_symmetry_cell_setting 'monoclinic'
loop_
_space_group_symop_operation_xyz
x,y,z
-x,y,1/2-z
-x,-y,-z
x,-y,1/2+z
1/2+x,1/2+y,z
1/2-x,1/2+y,1/2-z
1/2-x,1/2-y,-z
1/2+x,1/2-y,1/2+z
loop_
_atom_site_type_symbol
_atom_site_label
_atom_site_fract_x
_atom_site_fract_y
_atom_site_fract_z
Si Si1 0.130248 0.506371 0.931302
Si Si2 0.449448 0.894596 0.316193
Si Si3 0.644109 0.278827 0.201493
Si Si4 0.779889 0.822124 0.906386
Si Si5 0.719800 0.814902 0.337204
Si Si6 0.327250 0.064795 0.241490
Si Si7 0.890245 0.206293 0.297339
O O1 0.135121 0.559524 0.851482
O O2 0.193755 0.461319 0.938746
O O3 0.000000 0.490005 0.750000
O O4 0.191467 0.520517 0.166699
O O5 0.500000 0.869491 0.250000
O O6 0.377136 0.857436 0.303344
O O7 0.545433 0.916397 0.556705
O O8 0.669865 0.215770 0.231371
O O9 0.650562 0.302441 0.361042
O O10 0.737531 0.309203 0.253198
O O11 0.521750 0.290990 0.961329
O O12 0.750376 0.883733 0.865602
O O13 0.865376 0.815185 0.909912
O O14 0.825064 0.830036 0.590680
O O15 0.658538 0.763547 0.300127
#
# Coordination Sequence:
#
# PCOD8133302 Si02
#       7
#     8   8   8   8   8   8   8
#     4   9  18  31  49  75 105 135 166 207 263 315
#     4   9  17  31  50  76 110 139 165 207 263 316
#     4  10  21  35  51  77 107 138 180 215 242 302
#     4  10  21  35  52  75 106 145 173 201 263 313
#     4  10  20  31  53  80 101 137 180 210 253 303
#     4  10  19  33  52  75 107 136 166 209 259 315
#     4  10  19  34  51  73 107 139 173 216 254 299
#
# _framework density 18.750053999999999
#
# number of rings (size 3 to 8) (size 9 to 14) (size 15 to 20)
#    0.000    2.571    0.000    5.143    0.000    4.571 
#    0.000    2.857    0.000    0.000    0.000   18.000 
#    0.000    0.000    0.000    0.000    0.000    0.000 
#
# Total GULP energy -346933.147552 kJ/mol
# GULP energy per Si atom -12390.469555 kJ/mol
# Density = 1.870738 g / cm^3
# Si number density = 18.750054 Si / 1000 Ang^3
#
#
#
# Elastic Constant Matrix: (Units=GPa)
#
#
# Indices 1 2 3 4 5 6 
#
# 1 73.3557 46.0606 21.0382 0.0000 -4.1178 0.0000
# 2 46.0606 69.7138 20.9765 0.0000 2.6418 0.0000
# 3 21.0382 20.9765 52.6359 0.0000 1.6285 0.0000
# 4 0.0000 0.0000 0.0000 17.7079 0.0000 2.2463
# 5 -4.1178 2.6418 1.6285 0.0000 26.7962 0.0000
# 6 0.0000 0.0000 0.0000 2.2463 0.0000 33.6436
#
#
#
# Elastic Compliance Matrix: (Units=1/GPa)
#
#
# Indices 1 2 3 4 5 6 
#
# 1 0.024713 -0.015356 -0.003930 0.000000 0.005550 0.000000
# 2 -0.015356 0.025880 -0.004032 0.000000 -0.004666 0.000000
# 3 -0.003930 -0.004032 0.022224 0.000000 -0.001557 0.000000
# 4 0.000000 0.000000 0.000000 0.056954 0.000000 -0.003803
# 5 0.005550 -0.004666 -0.001557 0.000000 0.038726 0.000000
# 6 0.000000 0.000000 0.000000 -0.003803 0.000000 0.029977
#
#
# Mechanical properties :
#
#
# Convention : Reuss Voigt Hill
#
# Bulk Modulus (GPa) = 38.19361 41.31731 39.75546
# Shear Modulus (GPa) = 19.69766 22.80487 21.25127
#
# Velocity S-wave (km/s) = 3.24472 3.49127 3.37025
# Velocity P-wave (km/s) = 5.86956 6.19158 6.03272
#
# Compressibility (1/GPa) = 0.02618239
#
# Stress axis : x y z
#
# Youngs Moduli (GPa) = 40.46468 38.63959 44.99641
#
# Poissons Ratio (x) = 0.59335 0.17682
# Poissons Ratio (y) = 0.62138 0.18141
# Poissons Ratio (z) = 0.15901 0.15578
#
# Static dielectric constant tensor:
#      x y z
#    x 3.401820 0.000000 -0.213280 
#    y 0.000000 3.337200 0.000000 
#    z -0.213280 0.000000 3.279980 
# 
# 
# High freq. dielectric constant tensor:
#      x y z
#    x 1.729760 0.000000 -0.019440 
#    y 0.000000 1.708370 0.000000 
#    z -0.019440 0.000000 1.702840 
# 
# From -- ./inp_files/114770.got.cif
#   From: 2010.06.25/outbox.cif.g09.slc.cpg/sg15_58_cif.got.tgz:114770.got - 2010.06.28 07:06:18.
