data_PCOD8133215
_publ_section_title
;
Structure prediction by ZEFSAII (Michael W. Deem and Ramdas Pophale) SiO2 
 PCOD8133215
Probable space group: C 2/C
;
_chemical_formula_sum "Si O2"
_cell_formula_units_Z 56
_cell_length_a 11.192919
_cell_length_b 29.976656
_cell_length_c 9.578336
_cell_angle_alpha 90.000000
_cell_angle_beta 121.775964
_cell_angle_gamma 90.000000
_cell_volume 2732.081293
_symmetry_space_group_name_H-M "C 2/C"
_symmetry_group_IT_number 15
_symmetry_cell_setting 'monoclinic'
loop_
_space_group_symop_operation_xyz
x,y,z
-x,y,1/2-z
-x,-y,-z
x,-y,1/2+z
1/2+x,1/2+y,z
1/2-x,1/2+y,1/2-z
1/2-x,1/2-y,-z
1/2+x,1/2-y,1/2+z
loop_
_atom_site_type_symbol
_atom_site_label
_atom_site_fract_x
_atom_site_fract_y
_atom_site_fract_z
Si Si1 0.355325 0.541507 0.916181
Si Si2 0.846852 0.101314 0.155528
Si Si3 0.011565 0.277449 0.603732
Si Si4 0.325886 0.553772 0.419396
Si Si5 0.634406 0.172144 0.916658
Si Si6 0.243068 0.793026 0.277851
Si Si7 0.665020 0.609660 0.819616
O O1 0.262341 0.495705 0.847961
O O2 0.288802 0.582377 0.789209
O O3 0.361755 0.554791 0.082236
O O4 0.513199 0.539030 0.951312
O O5 0.799278 0.088849 0.280574
O O6 0.000000 0.125520 0.250000
O O7 0.735920 0.131805 0.011350
O O8 0.858835 0.266624 0.442666
O O9 0.000000 0.301544 0.750000
O O10 0.097745 0.306073 0.543361
O O11 0.093881 0.231581 0.687933
O O12 0.263700 0.580521 0.512781
O O13 0.500000 0.153340 0.750000
O O14 0.709867 0.206206 0.855963
O O15 0.232383 0.841755 0.341647
O O16 0.500000 0.615596 0.750000
#
# Coordination Sequence:
#
# PCOD8133215 Si02
#       7
#     8   8   8   8   8   8   8
#     4   9  16  32  50  85 127 160 192 242 304 350
#     4  10  19  33  57  90 118 152 204 246 288 352
#     4  11  25  42  64  89 116 154 198 255 298 355
#     4   9  18  28  53  88 124 157 195 247 297 346
#     4  10  23  42  62  83 118 162 195 236 303 361
#     4  11  23  43  62  89 121 160 200 242 306 356
#     4  10  19  32  56  86 125 163 196 243 298 356
#
# _framework density 20.497192999999999
#
# number of rings (size 3 to 8) (size 9 to 14) (size 15 to 20)
#    0.000    2.000    1.429    2.143    2.000    4.571 
#    0.000    0.000    0.000    0.857    0.000    0.000 
#    0.000    0.000    0.000    0.000    0.000    0.000 
#
# Total GULP energy -346903.794806 kJ/mol
# GULP energy per Si atom -12389.421243 kJ/mol
# Density = 2.045054 g / cm^3
# Si number density = 20.497193 Si / 1000 Ang^3
#
#
#
# Elastic Constant Matrix: (Units=GPa)
#
#
# Indices 1 2 3 4 5 6 
#
# 1 70.1080 40.4395 46.2305 0.0000 -11.7456 0.0000
# 2 40.4395 105.8585 58.8555 0.0000 9.4483 0.0000
# 3 46.2305 58.8555 122.2277 0.0000 -13.6740 0.0000
# 4 0.0000 0.0000 0.0000 21.9189 0.0000 -1.6944
# 5 -11.7456 9.4483 -13.6740 0.0000 39.8880 0.0000
# 6 0.0000 0.0000 0.0000 -1.6944 0.0000 7.7323
#
#
#
# Elastic Compliance Matrix: (Units=1/GPa)
#
#
# Indices 1 2 3 4 5 6 
#
# 1 0.022069 -0.006521 -0.004479 0.000000 0.006508 0.000000
# 2 -0.006521 0.016048 -0.006136 0.000000 -0.007825 0.000000
# 3 -0.004479 -0.006136 0.013358 0.000000 0.004714 0.000000
# 4 0.000000 0.000000 0.000000 0.046409 0.000000 0.010170
# 5 0.006508 -0.007825 0.004714 0.000000 0.030456 0.000000
# 6 0.000000 0.000000 0.000000 0.010170 0.000000 0.131556
#
#
# Mechanical properties :
#
#
# Convention : Reuss Voigt Hill
#
# Bulk Modulus (GPa) = 58.13470 65.47170 61.80320
# Shear Modulus (GPa) = 16.67204 24.08577 20.37890
#
# Velocity S-wave (km/s) = 2.85508 3.43166 3.15656
# Velocity P-wave (km/s) = 6.26837 6.90745 6.59565
#
# Compressibility (1/GPa) = 0.01720143
#
# Stress axis : x y z
#
# Youngs Moduli (GPa) = 45.31199 62.31333 74.86324
#
# Poissons Ratio (x) = 0.40637 0.33532
# Poissons Ratio (y) = 0.29550 0.45938
# Poissons Ratio (z) = 0.20295 0.38237
#
# Static dielectric constant tensor:
#      x y z
#    x 3.626100 0.000000 -0.288830 
#    y 0.000000 3.563240 0.000000 
#    z -0.288830 0.000000 3.816380 
# 
# 
# High freq. dielectric constant tensor:
#      x y z
#    x 1.775910 0.000000 -0.032530 
#    y 0.000000 1.791510 0.000000 
#    z -0.032530 0.000000 1.808170 
# 
# From -- ./inp_files/35761.got.cif
#   From: 2010.06.25/outbox.cif.g09.slc.cpg/sg15_18_cif.got.tgz:35761.got - 2010.06.28 07:06:18.
