data_PCOD8133273
_publ_section_title
;
Structure prediction by ZEFSAII (Michael W. Deem and Ramdas Pophale) SiO2 
 PCOD8133273
Probable space group: C 2/C
;
_chemical_formula_sum "Si O2"
_cell_formula_units_Z 40
_cell_length_a 21.043228
_cell_length_b 11.845058
_cell_length_c 12.891801
_cell_angle_alpha 90.000000
_cell_angle_beta 49.245091
_cell_angle_gamma 90.000000
_cell_volume 2434.170381
_symmetry_space_group_name_H-M "C 2/C"
_symmetry_group_IT_number 15
_symmetry_cell_setting 'monoclinic'
loop_
_space_group_symop_operation_xyz
x,y,z
-x,y,1/2-z
-x,-y,-z
x,-y,1/2+z
1/2+x,1/2+y,z
1/2-x,1/2+y,1/2-z
1/2-x,1/2-y,-z
1/2+x,1/2-y,1/2+z
loop_
_atom_site_type_symbol
_atom_site_label
_atom_site_fract_x
_atom_site_fract_y
_atom_site_fract_z
Si Si1 0.321180 0.112514 0.892728
Si Si2 0.560998 0.997582 0.590612
Si Si3 0.012340 0.100174 0.404950
Si Si4 0.053296 0.347570 0.413241
Si Si5 0.367002 0.634228 0.404175
O O1 0.367428 0.100388 0.733387
O O2 0.348174 0.236037 0.901506
O O3 0.350090 0.027821 0.952787
O O4 0.224106 0.080372 0.980134
O O5 0.500000 0.973675 0.750000
O O6 0.566859 0.884274 0.517243
O O7 0.530068 0.100550 0.550522
O O8 0.044420 0.212998 0.427648
O O9 0.083519 0.072496 0.242839
O O10 0.922552 0.122720 0.447854
O O11 0.000000 0.000000 0.500000
#
# Coordination Sequence:
#
# PCOD8133273 Si02
#       5
#     8   8   8   8   8
#     4   9  16  30  53  71  95 118 159 212 232 276
#     4   9  16  29  50  74  96 117 149 205 246 282
#     4  10  19  33  49  67  98 131 163 192 225 294
#     4   9  17  30  49  74  94 123 160 191 245 284
#     4   9  18  32  49  72  90 127 169 193 234 278
#
# _framework density 16.432704000000001
#
# number of rings (size 3 to 8) (size 9 to 14) (size 15 to 20)
#    0.000    2.800    2.000    0.000    0.000    1.600 
#    3.600    0.000    0.000    1.200    0.000    0.000 
#    0.000    0.000    0.000    0.000    0.000    0.000 
#
# Total GULP energy -247827.959444 kJ/mol
# GULP energy per Si atom -12391.397972 kJ/mol
# Density = 1.639530 g / cm^3
# Si number density = 16.432704 Si / 1000 Ang^3
#
#
#
# Elastic Constant Matrix: (Units=GPa)
#
#
# Indices 1 2 3 4 5 6 
#
# 1 89.1146 19.5401 43.4842 0.0000 -10.7356 0.0000
# 2 19.5401 60.5456 33.9083 0.0000 9.7102 0.0000
# 3 43.4842 33.9083 57.0912 0.0000 6.8042 0.0000
# 4 0.0000 0.0000 0.0000 23.7499 0.0000 4.0423
# 5 -10.7356 9.7102 6.8042 0.0000 32.8412 0.0000
# 6 0.0000 0.0000 0.0000 4.0423 0.0000 19.6161
#
#
#
# Elastic Compliance Matrix: (Units=1/GPa)
#
#
# Indices 1 2 3 4 5 6 
#
# 1 0.020930 0.001843 -0.018237 0.000000 0.010075 0.000000
# 2 0.001843 0.025541 -0.016144 0.000000 -0.003605 0.000000
# 3 -0.018237 -0.016144 0.042177 0.000000 -0.009927 0.000000
# 4 0.000000 0.000000 0.000000 0.043636 0.000000 -0.008992
# 5 0.010075 -0.003605 -0.009927 0.000000 0.036866 0.000000
# 6 0.000000 0.000000 0.000000 -0.008992 0.000000 0.052832
#
#
# Mechanical properties :
#
#
# Convention : Reuss Voigt Hill
#
# Bulk Modulus (GPa) = 42.42123 44.51295 43.46709
# Shear Modulus (GPa) = 16.95404 22.56269 19.75837
#
# Velocity S-wave (km/s) = 3.21553 3.70947 3.47130
# Velocity P-wave (km/s) = 6.29741 6.74490 6.52499
#
# Compressibility (1/GPa) = 0.02357310
#
# Stress axis : x y z
#
# Youngs Moduli (GPa) = 47.77806 39.15273 23.70933
#
# Poissons Ratio (x) = -0.07215 0.43239
# Poissons Ratio (y) = -0.08804 0.38275
# Poissons Ratio (z) = 0.87133 0.63207
#
# Static dielectric constant tensor:
#      x y z
#    x 3.245980 0.000000 -0.086120 
#    y 0.000000 2.837920 0.000000 
#    z -0.086120 0.000000 3.208130 
# 
# 
# High freq. dielectric constant tensor:
#      x y z
#    x 1.632300 0.000000 -0.000220 
#    y 0.000000 1.603330 0.000000 
#    z -0.000220 0.000000 1.630900 
# 
# From -- ./inp_files/95133.got.cif
#   From: 2010.06.25/outbox.cif.g09.slc.cpg/sg15_48_cif.got.tgz:95133.got - 2010.06.28 07:06:18.
