data_PCOD8133988
_publ_section_title
;
Structure prediction by ZEFSAII (Michael W. Deem and Ramdas Pophale) SiO2 
 PCOD8133988
Probable space group: C 2/C
;
_chemical_formula_sum "Si O2"
_cell_formula_units_Z 48
_cell_length_a 12.942469
_cell_length_b 13.472708
_cell_length_c 19.314086
_cell_angle_alpha 90.000000
_cell_angle_beta 41.086037
_cell_angle_gamma 90.000000
_cell_volume 2213.289297
_symmetry_space_group_name_H-M "C 2/C"
_symmetry_group_IT_number 15
_symmetry_cell_setting 'monoclinic'
loop_
_space_group_symop_operation_xyz
x,y,z
-x,y,1/2-z
-x,-y,-z
x,-y,1/2+z
1/2+x,1/2+y,z
1/2-x,1/2+y,1/2-z
1/2-x,1/2-y,-z
1/2+x,1/2-y,1/2+z
loop_
_atom_site_type_symbol
_atom_site_label
_atom_site_fract_x
_atom_site_fract_y
_atom_site_fract_z
Si Si1 0.833031 0.669600 0.798874
Si Si2 0.518477 0.391670 0.522363
Si Si3 0.890929 0.885458 0.738840
Si Si4 0.264122 0.914096 0.193289
Si Si5 0.870589 0.290099 0.023969
Si Si6 0.522884 0.262851 0.165925
O O1 0.803363 0.779991 0.784264
O O2 0.833599 0.593381 0.734966
O O3 0.000000 0.659775 0.750000
O O4 0.696204 0.646111 0.922470
O O5 0.500000 0.500000 0.500000
O O6 0.490696 0.394847 0.618200
O O7 0.395682 0.318510 0.545707
O O8 0.000000 0.896589 0.750000
O O9 0.760667 0.970695 0.809258
O O10 0.391722 0.872485 0.073255
O O11 0.100490 0.853084 0.272747
O O12 0.697655 0.307755 0.079437
O O13 0.991175 0.302518 0.897569
O O14 0.500000 0.201265 0.250000
#
# Coordination Sequence:
#
# PCOD8133988 Si02
#       6
#     8   8   8   8   8   8
#     4  11  25  43  69  99 139 180 230 280 335 410
#     4  12  23  43  71  94 136 187 226 275 351 412
#     4  11  24  43  72  99 133 181 228 276 341 410
#     4  11  20  42  69  97 135 177 230 284 338 399
#     4  10  19  34  63  98 129 169 224 282 332 392
#     4   9  18  33  62  95 132 169 216 277 338 391
#
# _framework density 21.687176999999998
#
# number of rings (size 3 to 8) (size 9 to 14) (size 15 to 20)
#    0.000    1.333    5.000    1.500    0.000    4.000 
#    0.000    5.000    3.667    0.000    0.000    0.000 
#    0.000    0.000    0.000    0.000    0.000    0.000 
#
# Total GULP energy -297457.944573 kJ/mol
# GULP energy per Si atom -12394.081024 kJ/mol
# Density = 2.163782 g / cm^3
# Si number density = 21.687177 Si / 1000 Ang^3
#
#
#
# Elastic Constant Matrix: (Units=GPa)
#
#
# Indices 1 2 3 4 5 6 
#
# 1 94.0067 26.1160 34.2073 0.0000 12.7868 0.0000
# 2 26.1160 103.5019 39.1501 -0.0001 1.1958 0.0000
# 3 34.2073 39.1501 140.4337 -0.0002 40.0196 0.0001
# 4 0.0000 -0.0001 -0.0002 35.7936 0.0001 -2.1025
# 5 12.7868 1.1958 40.0196 0.0001 53.8839 0.0000
# 6 0.0000 0.0000 0.0001 -2.1025 0.0000 24.9166
#
#
#
# Elastic Compliance Matrix: (Units=1/GPa)
#
#
# Indices 1 2 3 4 5 6 
#
# 1 0.012174 -0.002332 -0.001911 0.000000 -0.001418 0.000000
# 2 -0.002332 0.011527 -0.003463 0.000000 0.002870 0.000000
# 3 -0.001911 -0.003463 0.010656 0.000000 -0.007384 0.000000
# 4 0.000000 0.000000 0.000000 0.028077 0.000000 0.002369
# 5 -0.001418 0.002870 -0.007384 0.000000 0.024315 0.000000
# 6 0.000000 0.000000 0.000000 0.002369 0.000000 0.040334
#
#
# Mechanical properties :
#
#
# Convention : Reuss Voigt Hill
#
# Bulk Modulus (GPa) = 52.78905 59.65435 56.22170
# Shear Modulus (GPa) = 33.59976 38.81675 36.20825
#
# Velocity S-wave (km/s) = 3.94037 4.23525 4.09047
# Velocity P-wave (km/s) = 6.71536 7.17516 6.94906
#
# Compressibility (1/GPa) = 0.01894332
#
# Stress axis : x y z
#
# Youngs Moduli (GPa) = 82.14388 86.75286 93.84444
#
# Poissons Ratio (x) = 0.20235 0.17934
# Poissons Ratio (y) = 0.19160 0.32500
# Poissons Ratio (z) = 0.15698 0.30044
#
# Static dielectric constant tensor:
#      x y z
#    x 4.070180 0.000000 0.463430 
#    y 0.000000 3.833190 0.000000 
#    z 0.463430 0.000000 4.594360 
# 
# 
# High freq. dielectric constant tensor:
#      x y z
#    x 1.861420 0.000000 0.020590 
#    y 0.000000 1.826230 0.000000 
#    z 0.020590 0.000000 1.864910 
# 
# From -- ./inp_files/243894.got.cif
#   From: 2010.06.25/outbox.cif.g09.slc.cpg/sg15_122_cif.got.tgz:243894.got - 2010.06.28 07:06:18.
