data_PCOD8133918
_publ_section_title
;
Structure prediction by ZEFSAII (Michael W. Deem and Ramdas Pophale) SiO2 
 PCOD8133918
Probable space group: C 2/C
;
_chemical_formula_sum "Si O2"
_cell_formula_units_Z 64
_cell_length_a 11.488198
_cell_length_b 29.417082
_cell_length_c 17.258636
_cell_angle_alpha 90.000000
_cell_angle_beta 35.053396
_cell_angle_gamma 90.000000
_cell_volume 3349.860501
_symmetry_space_group_name_H-M "C 2/C"
_symmetry_group_IT_number 15
_symmetry_cell_setting 'monoclinic'
loop_
_space_group_symop_operation_xyz
x,y,z
-x,y,1/2-z
-x,-y,-z
x,-y,1/2+z
1/2+x,1/2+y,z
1/2-x,1/2+y,1/2-z
1/2-x,1/2-y,-z
1/2+x,1/2-y,1/2+z
loop_
_atom_site_type_symbol
_atom_site_label
_atom_site_fract_x
_atom_site_fract_y
_atom_site_fract_z
Si Si1 0.873791 0.649895 0.155161
Si Si2 0.851779 0.290993 0.898141
Si Si3 0.433340 0.950446 0.611135
Si Si4 0.770955 0.300668 0.399835
Si Si5 0.799177 0.983716 0.905184
Si Si6 0.922367 0.141876 0.049877
Si Si7 0.774079 0.199437 0.401681
Si Si8 0.454942 0.459028 0.581376
O O1 0.979721 0.601437 0.105922
O O2 0.664539 0.652107 0.317213
O O3 0.835764 0.660490 0.086581
O O4 0.020981 0.688363 0.102765
O O5 0.717312 0.333155 0.938224
O O6 0.000000 0.271728 0.750000
O O7 0.750000 0.250000 0.000000
O O8 0.339517 0.952141 0.575097
O O9 0.265296 0.969465 0.762141
O O10 0.649619 0.974512 0.506407
O O11 0.640671 0.335013 0.418952
O O12 0.677790 0.249845 0.443009
O O13 0.749588 0.317567 0.498852
O O14 0.000000 0.304172 0.250000
O O15 0.873919 0.957606 0.942819
O O16 0.000000 0.001039 0.750000
O O17 0.948422 0.087012 0.032300
O O18 0.000000 0.204189 0.250000
O O19 0.500000 0.500000 0.500000
#
# Coordination Sequence:
#
# PCOD8133918 Si02
#       8
#     8   8   8   8   8   8   8   8
#     4  10  20  35  63  87 108 154 204 242 280 351
#     4  10  22  41  63  86 120 159 202 246 296 349
#     4   9  20  37  61  87 112 152 200 240 287 357
#     4  10  21  36  54  87 121 149 183 241 300 350
#     4   9  19  38  59  83 117 150 191 242 296 348
#     4  10  21  39  59  84 118 151 203 243 288 361
#     4  10  19  34  60  83 115 152 191 236 293 350
#     4  10  22  37  60  88 117 156 190 244 302 347
#
# _framework density 19.105273
#
# number of rings (size 3 to 8) (size 9 to 14) (size 15 to 20)
#    0.000    2.250    1.250    0.750    3.500    1.000 
#    4.500    1.875    0.000    0.000    0.000    0.000 
#    0.000    0.000    0.000    0.000    0.000    0.000 
#
# Total GULP energy -396456.894998 kJ/mol
# GULP energy per Si atom -12389.277969 kJ/mol
# Density = 1.906179 g / cm^3
# Si number density = 19.105273 Si / 1000 Ang^3
#
#
#
# Elastic Constant Matrix: (Units=GPa)
#
#
# Indices 1 2 3 4 5 6 
#
# 1 56.6004 34.4981 24.6481 0.0000 4.0572 0.0000
# 2 34.4981 108.1954 43.6923 0.0000 -1.4594 0.0000
# 3 24.6481 43.6923 77.2354 0.0000 -4.3973 -0.0001
# 4 0.0000 0.0000 0.0000 31.6569 0.0000 -0.3045
# 5 4.0572 -1.4594 -4.3973 0.0000 29.9250 0.0000
# 6 0.0000 0.0000 -0.0001 -0.3045 0.0000 18.5774
#
#
#
# Elastic Compliance Matrix: (Units=1/GPa)
#
#
# Indices 1 2 3 4 5 6 
#
# 1 0.023387 -0.005708 -0.004468 0.000000 -0.004106 0.000000
# 2 -0.005708 0.013377 -0.005713 0.000000 0.000587 0.000000
# 3 -0.004468 -0.005713 0.017772 0.000000 0.002939 0.000000
# 4 0.000000 0.000000 0.000000 0.031594 0.000000 0.000518
# 5 -0.004106 0.000587 0.002939 0.000000 0.034434 0.000000
# 6 0.000000 0.000000 0.000000 0.000518 0.000000 0.053837
#
#
# Mechanical properties :
#
#
# Convention : Reuss Voigt Hill
#
# Bulk Modulus (GPa) = 43.93861 49.74536 46.84198
# Shear Modulus (GPa) = 23.39015 25.31137 24.35076
#
# Velocity S-wave (km/s) = 3.50276 3.64378 3.57397
# Velocity P-wave (km/s) = 6.27752 6.61792 6.44996
#
# Compressibility (1/GPa) = 0.02275903
#
# Stress axis : x y z
#
# Youngs Moduli (GPa) = 42.75922 74.75339 56.26727
#
# Poissons Ratio (x) = 0.42668 0.25141
# Poissons Ratio (y) = 0.24406 0.32143
# Poissons Ratio (z) = 0.19106 0.42704
#
# Static dielectric constant tensor:
#      x y z
#    x 2.922440 0.000000 0.006880 
#    y 0.000000 3.499680 0.000000 
#    z 0.006880 0.000000 3.450810 
# 
# 
# High freq. dielectric constant tensor:
#      x y z
#    x 1.745010 0.000000 -0.002070 
#    y 0.000000 1.739050 0.000000 
#    z -0.002070 0.000000 1.734630 
# 
# From -- ./inp_files/201453.got.cif
#   From: 2010.06.25/outbox.cif.g09.slc.cpg/sg15_101_cif.got.tgz:201453.got - 2010.06.28 07:06:18.
