data_PCOD8133405
_publ_section_title
;
Structure prediction by ZEFSAII (Michael W. Deem and Ramdas Pophale) SiO2 
 PCOD8133405
Probable space group: C 2/C
;
_chemical_formula_sum "Si O2"
_cell_formula_units_Z 64
_cell_length_a 16.933701
_cell_length_b 31.374897
_cell_length_c 11.276088
_cell_angle_alpha 90.000000
_cell_angle_beta 149.174904
_cell_angle_gamma 90.000000
_cell_volume 3069.855382
_symmetry_space_group_name_H-M "C 2/C"
_symmetry_group_IT_number 15
_symmetry_cell_setting 'monoclinic'
loop_
_space_group_symop_operation_xyz
x,y,z
-x,y,1/2-z
-x,-y,-z
x,-y,1/2+z
1/2+x,1/2+y,z
1/2-x,1/2+y,1/2-z
1/2-x,1/2-y,-z
1/2+x,1/2-y,1/2+z
loop_
_atom_site_type_symbol
_atom_site_label
_atom_site_fract_x
_atom_site_fract_y
_atom_site_fract_z
Si Si1 0.862216 0.965059 0.740699
Si Si2 0.405751 0.146595 0.299756
Si Si3 0.329856 0.056573 0.295330
Si Si4 0.825927 0.054332 0.783061
Si Si5 0.643057 0.032044 0.762113
Si Si6 0.479184 0.792799 0.355357
Si Si7 0.130820 0.797363 0.006871
Si Si8 0.237097 0.354929 0.123224
O O1 0.821291 0.948795 0.819883
O O2 0.754698 0.945510 0.500473
O O3 0.850074 0.016678 0.718827
O O4 0.034397 0.948487 0.941016
O O5 0.323962 0.103047 0.231708
O O6 0.415151 0.180039 0.418902
O O7 0.578466 0.135767 0.485297
O O8 0.303324 0.165544 0.058003
O O9 0.472695 0.049136 0.570511
O O10 0.342590 0.019553 0.211662
O O11 0.674991 0.047185 0.668399
O O12 0.820202 0.099682 0.710023
O O13 0.500000 0.812447 0.250000
O O14 0.297217 0.790977 0.156531
O O15 0.556167 0.746443 0.455349
O O16 0.153609 0.825323 0.155110
O O17 0.000000 0.818008 0.750000
#
# Coordination Sequence:
#
# PCOD8133405 Si02
#       8
#     8   8   8   8   8   8   8   8
#     4  10  21  33  53  77 114 151 197 253 295 339
#     4  10  21  39  61  87 118 154 196 245 288 343
#     4  10  20  35  52  82 111 146 200 243 291 337
#     4  10  20  37  52  78 112 156 194 241 296 349
#     4  10  19  33  55  77 106 154 202 243 291 340
#     4  10  21  40  66  92 122 154 185 237 293 345
#     4  10  21  40  66  93 120 153 190 235 288 352
#     4  10  21  39  62  86 116 157 201 234 290 355
#
# _framework density 20.847888000000001
#
# number of rings (size 3 to 8) (size 9 to 14) (size 15 to 20)
#    0.000    2.000    1.250    3.000    0.000    2.500 
#    4.500    1.875    0.000    0.000    0.000    0.000 
#    0.000    0.000    0.000    0.000    0.000    0.000 
#
# Total GULP energy -396528.132883 kJ/mol
# GULP energy per Si atom -12391.504153 kJ/mol
# Density = 2.080044 g / cm^3
# Si number density = 20.847888 Si / 1000 Ang^3
#
#
#
# Elastic Constant Matrix: (Units=GPa)
#
#
# Indices 1 2 3 4 5 6 
#
# 1 65.0018 35.7622 34.4750 0.0000 -4.5171 0.0000
# 2 35.7622 84.4872 42.4074 0.0000 -14.1453 0.0000
# 3 34.4750 42.4074 124.5339 0.0000 -24.2086 0.0000
# 4 0.0000 0.0000 0.0000 18.2681 0.0000 5.4265
# 5 -4.5171 -14.1453 -24.2086 0.0000 35.0304 0.0000
# 6 0.0000 0.0000 0.0000 5.4265 0.0000 18.8416
#
#
#
# Elastic Compliance Matrix: (Units=1/GPa)
#
#
# Indices 1 2 3 4 5 6 
#
# 1 0.021447 -0.007610 -0.003934 0.000000 -0.003026 0.000000
# 2 -0.007610 0.017215 -0.002997 0.000000 0.003899 0.000000
# 3 -0.003934 -0.002997 0.011328 0.000000 0.006111 0.000000
# 4 0.000000 0.000000 0.000000 0.059861 0.000000 -0.017240
# 5 -0.003026 0.003899 0.006111 0.000000 0.033954 0.000000
# 6 0.000000 0.000000 0.000000 -0.017240 0.000000 0.058039
#
#
# Mechanical properties :
#
#
# Convention : Reuss Voigt Hill
#
# Bulk Modulus (GPa) = 47.83334 55.47911 51.65623
# Shear Modulus (GPa) = 21.01756 25.18658 23.10207
#
# Velocity S-wave (km/s) = 3.17856 3.47956 3.33246
# Velocity P-wave (km/s) = 6.03861 6.54311 6.29592
#
# Compressibility (1/GPa) = 0.02090592
#
# Stress axis : x y z
#
# Youngs Moduli (GPa) = 46.62569 58.08978 88.27998
#
# Poissons Ratio (x) = 0.44209 0.34730
# Poissons Ratio (y) = 0.35484 0.26462
# Poissons Ratio (z) = 0.18343 0.17412
#
# Static dielectric constant tensor:
#      x y z
#    x 3.599290 0.000000 -0.035030 
#    y 0.000000 3.504180 0.000000 
#    z -0.035030 0.000000 3.996880 
# 
# 
# High freq. dielectric constant tensor:
#      x y z
#    x 1.805730 0.000000 -0.001120 
#    y 0.000000 1.788260 0.000000 
#    z -0.001120 0.000000 1.831490 
# 
# From -- ./inp_files/108645.got.cif
#   From: 2010.06.25/outbox.cif.g09.slc.cpg/sg15_55_cif.got.tgz:108645.got - 2010.06.28 07:06:18.
