data_PCOD8133537
_publ_section_title
;
Structure prediction by ZEFSAII (Michael W. Deem and Ramdas Pophale) SiO2 
 PCOD8133537
Probable space group: C 2/C
;
_chemical_formula_sum "Si O2"
_cell_formula_units_Z 52
_cell_length_a 24.320691
_cell_length_b 8.653843
_cell_length_c 19.732884
_cell_angle_alpha 90.000000
_cell_angle_beta 38.183142
_cell_angle_gamma 90.000000
_cell_volume 2567.369817
_symmetry_space_group_name_H-M "C 2/C"
_symmetry_group_IT_number 15
_symmetry_cell_setting 'monoclinic'
loop_
_space_group_symop_operation_xyz
x,y,z
-x,y,1/2-z
-x,-y,-z
x,-y,1/2+z
1/2+x,1/2+y,z
1/2-x,1/2+y,1/2-z
1/2-x,1/2-y,-z
1/2+x,1/2-y,1/2+z
loop_
_atom_site_type_symbol
_atom_site_label
_atom_site_fract_x
_atom_site_fract_y
_atom_site_fract_z
Si Si1 0.224359 0.144397 0.321666
Si Si2 0.593039 0.733537 0.019342
Si Si3 0.218843 0.690249 0.695940
Si Si4 0.551533 0.961271 0.308710
Si Si5 0.936031 0.885260 0.430144
Si Si6 0.000000 0.691202 0.250000
Si Si7 0.080432 0.727153 0.373681
O O1 0.185741 0.190348 0.285323
O O2 0.149840 0.186237 0.448964
O O3 0.315173 0.239212 0.247489
O O4 0.242491 0.961813 0.304217
O O5 0.698799 0.765357 0.925549
O O6 0.564820 0.744621 0.968018
O O7 0.538372 0.862393 0.113556
O O8 0.570090 0.568209 0.073681
O O9 0.137349 0.651268 0.725029
O O10 0.561401 0.082537 0.237759
O O11 0.546790 0.055874 0.384179
O O12 0.937631 0.800652 0.356049
O O13 0.025966 0.855444 0.385302
#
# Coordination Sequence:
#
# PCOD8133537 Si02
#       7
#     8   8   8   8   8   4   8
#     4   9  18  32  53  80 111 138 170 219 275 328
#     4  10  19  33  58  85 108 135 176 230 280 322
#     4   9  19  34  55  86 114 137 172 220 280 337
#     4  10  20  37  55  77 113 150 180 221 264 321
#     4  10  20  36  54  78 110 145 183 227 265 313
#     4  10  24  40  54  72 106 156 198 218 258 320
#     4   9  18  33  55  86 111 137 172 217 284 340
#
# _framework density 20.254192
#
# number of rings (size 3 to 8) (size 9 to 14) (size 15 to 20)
#    0.000    2.462    0.000    1.846    0.000    9.231 
#    0.000   13.077    0.000    0.000    0.000    0.000 
#    0.000    0.000    0.000    0.000    0.000    0.000 
#
# Total GULP energy -322329.352596 kJ/mol
# GULP energy per Si atom -12397.282792 kJ/mol
# Density = 2.020809 g / cm^3
# Si number density = 20.254192 Si / 1000 Ang^3
#
#
#
# Elastic Constant Matrix: (Units=GPa)
#
#
# Indices 1 2 3 4 5 6 
#
# 1 59.6122 32.2036 42.9287 -0.0155 0.8461 0.0175
# 2 32.2036 71.8623 59.3985 -0.0188 -1.9065 0.0254
# 3 42.9287 59.3985 113.9418 0.0037 -8.5412 0.0078
# 4 -0.0155 -0.0188 0.0037 34.0796 0.0087 0.1749
# 5 0.8461 -1.9065 -8.5412 0.0087 21.9478 -0.0140
# 6 0.0175 0.0254 0.0078 0.1749 -0.0140 31.9303
#
#
#
# Elastic Compliance Matrix: (Units=1/GPa)
#
#
# Indices 1 2 3 4 5 6 
#
# 1 0.024682 -0.005679 -0.006641 0.000010 -0.004029 -0.000009
# 2 -0.005679 0.025941 -0.011535 0.000014 -0.002017 -0.000016
# 3 -0.006641 -0.011535 0.017754 -0.000013 0.006163 0.000011
# 4 0.000010 0.000014 -0.000013 0.029344 -0.000016 -0.000161
# 5 -0.004029 -0.002017 0.006163 -0.000016 0.047941 0.000023
# 6 -0.000009 -0.000016 0.000011 -0.000161 0.000023 0.031319
#
#
# Mechanical properties :
#
#
# Convention : Reuss Voigt Hill
#
# Bulk Modulus (GPa) = 48.38394 57.16421 52.77408
# Shear Modulus (GPa) = 21.59078 24.98389 23.28734
#
# Velocity S-wave (km/s) = 3.26849 3.51596 3.39448
# Velocity P-wave (km/s) = 6.17934 6.69083 6.44017
#
# Compressibility (1/GPa) = 0.02066801
#
# Stress axis : x y z
#
# Youngs Moduli (GPa) = 40.51463 38.54890 56.32608
#
# Poissons Ratio (x) = 0.21890 0.37407
# Poissons Ratio (y) = 0.23006 0.64972
# Poissons Ratio (z) = 0.26906 0.44466
#
# Static dielectric constant tensor:
#      x y z
#    x 3.502740 -0.000010 -0.229380 
#    y -0.000010 3.704680 0.000010 
#    z -0.229380 0.000010 3.778750 
# 
# 
# High freq. dielectric constant tensor:
#      x y z
#    x 1.765110 0.000000 -0.017930 
#    y 0.000000 1.791650 0.000000 
#    z -0.017930 0.000000 1.785770 
# 
# From -- ./inp_files/176126.got.cif
#   From: 2010.06.25/outbox.cif.g09.slc.cpg/sg15_89_cif.got.tgz:176126.got - 2010.06.28 07:06:18.
