data_PCOD8133722
_publ_section_title
;
Structure prediction by ZEFSAII (Michael W. Deem and Ramdas Pophale) SiO2 
 PCOD8133722
Probable space group: C 2/C
;
_chemical_formula_sum "Si O2"
_cell_formula_units_Z 56
_cell_length_a 21.662454
_cell_length_b 13.449682
_cell_length_c 20.588303
_cell_angle_alpha 90.000000
_cell_angle_beta 154.466922
_cell_angle_gamma 90.000000
_cell_volume 2585.531545
_symmetry_space_group_name_H-M "C 2/C"
_symmetry_group_IT_number 15
_symmetry_cell_setting 'monoclinic'
loop_
_space_group_symop_operation_xyz
x,y,z
-x,y,1/2-z
-x,-y,-z
x,-y,1/2+z
1/2+x,1/2+y,z
1/2-x,1/2+y,1/2-z
1/2-x,1/2-y,-z
1/2+x,1/2-y,1/2+z
loop_
_atom_site_type_symbol
_atom_site_label
_atom_site_fract_x
_atom_site_fract_y
_atom_site_fract_z
Si Si1 0.179344 0.821773 0.078291
Si Si2 0.118821 0.668914 0.516909
Si Si3 0.373407 0.315286 0.082668
Si Si4 0.475377 0.214873 0.796877
Si Si5 0.822274 0.712691 0.290163
Si Si6 0.528929 0.003201 0.350413
Si Si7 0.270220 0.541266 0.378540
O O1 0.308959 0.808894 0.150564
O O2 0.210843 0.752554 0.169908
O O3 0.153128 0.938402 0.069735
O O4 0.032348 0.787680 0.905991
O O5 0.057802 0.745676 0.406291
O O6 0.271757 0.697770 0.693691
O O7 0.147129 0.565976 0.503593
O O8 0.987547 0.675951 0.444080
O O9 0.500000 0.349116 0.250000
O O10 0.250000 0.250000 0.000000
O O11 0.319979 0.415230 0.995550
O O12 0.500000 0.265169 0.750000
O O13 0.569872 0.112823 0.886566
O O14 0.718187 0.620421 0.170110
O O15 0.500000 0.045087 0.250000
O O16 0.394895 0.016723 0.269923
#
# Coordination Sequence:
#
# PCOD8133722 Si02
#       7
#     8   8   8   8   8   8   8
#     4  11  22  41  61  81 115 153 187 237 289 338
#     4  10  19  34  55  83 114 146 188 234 277 335
#     4  11  20  34  58  88 119 152 187 234 290 338
#     4  10  22  39  60  85 110 144 188 234 286 345
#     4  10  21  37  55  80 112 151 190 229 279 337
#     4   9  17  33  57  83 111 145 188 235 284 335
#     4   9  21  36  55  84 117 149 190 237 284 338
#
# _framework density 21.658988999999998
#
# number of rings (size 3 to 8) (size 9 to 14) (size 15 to 20)
#    0.000    2.000    0.000    5.143    0.000    1.714 
#    0.000   15.000    0.000    0.000    0.000    0.000 
#    0.000    0.000    0.000    0.000    0.000    0.000 
#
# Total GULP energy -346906.529913 kJ/mol
# GULP energy per Si atom -12389.518925 kJ/mol
# Density = 2.160969 g / cm^3
# Si number density = 21.658989 Si / 1000 Ang^3
#
#
#
# Elastic Constant Matrix: (Units=GPa)
#
#
# Indices 1 2 3 4 5 6 
#
# 1 72.6276 27.8057 10.8157 0.0071 -19.1460 0.0026
# 2 27.8057 101.8887 33.7603 0.0156 -17.1127 0.0081
# 3 10.8157 33.7603 80.5168 0.0177 -16.7756 0.0089
# 4 0.0071 0.0156 0.0177 29.1019 0.0056 -4.2808
# 5 -19.1460 -17.1127 -16.7756 0.0056 33.6729 0.0017
# 6 0.0026 0.0081 0.0089 -4.2808 0.0017 28.7978
#
#
#
# Elastic Compliance Matrix: (Units=1/GPa)
#
#
# Indices 1 2 3 4 5 6 
#
# 1 0.017231 -0.003600 0.000954 -0.000005 0.008443 -0.000002
# 2 -0.003600 0.012605 -0.004344 -0.000004 0.002194 -0.000003
# 3 0.000954 -0.004344 0.015361 -0.000009 0.005987 -0.000005
# 4 -0.000005 -0.000004 -0.000009 0.035130 -0.000015 0.005222
# 5 0.008443 0.002194 0.005987 -0.000015 0.038596 -0.000008
# 6 -0.000002 -0.000003 -0.000005 0.005222 -0.000008 0.035501
#
#
# Mechanical properties :
#
#
# Convention : Reuss Voigt Hill
#
# Bulk Modulus (GPa) = 32.03565 44.42182 38.22874
# Shear Modulus (GPa) = 27.96249 30.49129 29.22689
#
# Velocity S-wave (km/s) = 3.59699 3.75612 3.67742
# Velocity P-wave (km/s) = 5.66341 6.27419 5.97661
#
# Compressibility (1/GPa) = 0.03121522
#
# Stress axis : x y z
#
# Youngs Moduli (GPa) = 58.03516 79.33166 65.10139
#
# Poissons Ratio (x) = 0.28563 -0.06212
# Poissons Ratio (y) = 0.20896 0.28283
# Poissons Ratio (z) = -0.05537 0.34465
#
# Static dielectric constant tensor:
#      x y z
#    x 3.746410 0.000000 -0.164440 
#    y 0.000000 4.244460 -0.000010 
#    z -0.164440 -0.000010 3.687440 
# 
# 
# High freq. dielectric constant tensor:
#      x y z
#    x 1.839390 0.000000 -0.012870 
#    y 0.000000 1.845440 0.000000 
#    z -0.012870 0.000000 1.834230 
# 
# From -- ./inp_files/215760.got.cif
#   From: 2010.06.25/outbox.cif.g09.slc.cpg/sg15_108_cif.got.tgz:215760.got - 2010.06.28 07:06:18.
