data_PCOD8133113
_publ_section_title
;
Structure prediction by ZEFSAII (Michael W. Deem and Ramdas Pophale) SiO2 
 PCOD8133113
Probable space group: C 2/C
;
_chemical_formula_sum "Si O2"
_cell_formula_units_Z 64
_cell_length_a 23.077595
_cell_length_b 20.386601
_cell_length_c 9.083602
_cell_angle_alpha 90.000000
_cell_angle_beta 52.713157
_cell_angle_gamma 90.000000
_cell_volume 3400.126917
_symmetry_space_group_name_H-M "C 2/C"
_symmetry_group_IT_number 15
_symmetry_cell_setting 'monoclinic'
loop_
_space_group_symop_operation_xyz
x,y,z
-x,y,1/2-z
-x,-y,-z
x,-y,1/2+z
1/2+x,1/2+y,z
1/2-x,1/2+y,1/2-z
1/2-x,1/2-y,-z
1/2+x,1/2-y,1/2+z
loop_
_atom_site_type_symbol
_atom_site_label
_atom_site_fract_x
_atom_site_fract_y
_atom_site_fract_z
Si Si1 0.139695 0.268665 0.387376
Si Si2 0.347875 0.335794 0.149439
Si Si3 0.298655 0.908673 0.180379
Si Si4 0.231954 0.490610 0.005854
Si Si5 0.419550 0.246078 0.825413
Si Si6 0.292652 0.417165 0.644015
Si Si7 0.917382 0.840212 0.343476
Si Si8 0.287162 0.207497 0.190668
O O1 0.149390 0.345606 0.408708
O O2 0.080713 0.254597 0.350406
O O3 0.106146 0.234780 0.584849
O O4 0.214951 0.234416 0.216914
O O5 0.287431 0.389757 0.198992
O O6 0.398568 0.359693 0.204531
O O7 0.308489 0.267936 0.266678
O O8 0.398521 0.317252 0.929717
O O9 0.316711 0.959308 0.018510
O O10 0.315161 0.944671 0.311423
O O11 0.278918 0.444831 0.826799
O O12 0.287566 0.529611 0.024100
O O13 0.500000 0.223554 0.750000
O O14 0.355854 0.194719 0.975096
O O15 0.373240 0.387821 0.520848
O O16 0.233001 0.360030 0.696431
O O17 0.000000 0.854261 0.250000
#
# Coordination Sequence:
#
# PCOD8133113 Si02
#       8
#     8   8   8   8   8   8   8   8
#     4  10  20  33  58  82 107 144 182 232 279 331
#     4   9  20  33  53  78 112 139 178 221 283 323
#     4  10  20  35  57  80 111 135 190 228 269 317
#     4  10  21  34  54  83 105 146 186 233 257 317
#     4  10  19  32  51  85 116 137 174 215 280 342
#     4  10  20  36  56  75 112 141 188 227 268 315
#     4  11  22  36  54  81 116 145 178 223 288 332
#     4   8  19  31  57  78 106 139 180 225 287 319
#
# _framework density 18.822827
#
# number of rings (size 3 to 8) (size 9 to 14) (size 15 to 20)
#    0.750    1.500    1.250    1.875    5.250    1.500 
#    0.000    0.625    0.000    0.000    0.000   22.750 
#    0.000    0.000    0.000    0.000    0.000    0.000 
#
# Total GULP energy -396419.252666 kJ/mol
# GULP energy per Si atom -12388.101646 kJ/mol
# Density = 1.877999 g / cm^3
# Si number density = 18.822827 Si / 1000 Ang^3
#
#
#
# Elastic Constant Matrix: (Units=GPa)
#
#
# Indices 1 2 3 4 5 6 
#
# 1 70.5754 -4.0523 3.7026 0.0000 6.8670 0.0000
# 2 -4.0523 68.3527 3.3794 0.0000 6.9195 0.0000
# 3 3.7026 3.3794 35.1660 0.0000 12.0108 0.0000
# 4 0.0000 0.0000 0.0000 29.4515 0.0000 7.3838
# 5 6.8670 6.9195 12.0108 0.0000 34.0809 0.0000
# 6 0.0000 0.0000 0.0000 7.3838 0.0000 15.0743
#
#
#
# Elastic Compliance Matrix: (Units=1/GPa)
#
#
# Indices 1 2 3 4 5 6 
#
# 1 0.014558 0.001193 -0.000640 0.000000 -0.002950 0.000000
# 2 0.001193 0.015041 -0.000507 0.000000 -0.003116 0.000000
# 3 -0.000640 -0.000507 0.032370 0.000000 -0.011176 0.000000
# 4 0.000000 0.000000 0.000000 0.038708 0.000000 -0.018960
# 5 -0.002950 -0.003116 -0.011176 0.000000 0.034508 0.000000
# 6 0.000000 0.000000 0.000000 -0.018960 0.000000 0.075625
#
#
# Mechanical properties :
#
#
# Convention : Reuss Voigt Hill
#
# Bulk Modulus (GPa) = 16.11280 20.01705 18.06492
# Shear Modulus (GPa) = 21.60719 27.12562 24.36641
#
# Velocity S-wave (km/s) = 3.39178 3.80030 3.60184
# Velocity P-wave (km/s) = 4.89057 5.46937 5.18805
#
# Compressibility (1/GPa) = 0.06206247
#
# Stress axis : x y z
#
# Youngs Moduli (GPa) = 68.68887 66.48394 30.89302
#
# Poissons Ratio (x) = -0.07934 0.01977
# Poissons Ratio (y) = -0.08197 0.01566
# Poissons Ratio (z) = 0.04395 0.03371
#
# Static dielectric constant tensor:
#      x y z
#    x 3.192780 0.000000 0.139380 
#    y 0.000000 3.549510 0.000000 
#    z 0.139380 0.000000 3.300520 
# 
# 
# High freq. dielectric constant tensor:
#      x y z
#    x 1.706260 0.000000 0.022110 
#    y 0.000000 1.723620 0.000000 
#    z 0.022110 0.000000 1.716180 
# 
# From -- ./inp_files/63252.got.cif
#   From: 2010.06.25/outbox.cif.g09.slc.cpg/sg15_32_cif.got.tgz:63252.got - 2010.06.28 07:06:18.
