data_PCOD8133281
_publ_section_title
;
Structure prediction by ZEFSAII (Michael W. Deem and Ramdas Pophale) SiO2 
 PCOD8133281
Probable space group: C 2/C
;
_chemical_formula_sum "Si O2"
_cell_formula_units_Z 56
_cell_length_a 12.795972
_cell_length_b 24.621439
_cell_length_c 12.966796
_cell_angle_alpha 90.000000
_cell_angle_beta 134.122961
_cell_angle_gamma 90.000000
_cell_volume 2932.590994
_symmetry_space_group_name_H-M "C 2/C"
_symmetry_group_IT_number 15
_symmetry_cell_setting 'monoclinic'
loop_
_space_group_symop_operation_xyz
x,y,z
-x,y,1/2-z
-x,-y,-z
x,-y,1/2+z
1/2+x,1/2+y,z
1/2-x,1/2+y,1/2-z
1/2-x,1/2-y,-z
1/2+x,1/2-y,1/2+z
loop_
_atom_site_type_symbol
_atom_site_label
_atom_site_fract_x
_atom_site_fract_y
_atom_site_fract_z
Si Si1 0.836250 0.951320 0.954189
Si Si2 0.310155 0.024366 0.935914
Si Si3 0.914510 0.745664 0.794141
Si Si4 0.850454 0.064287 0.860022
Si Si5 0.351480 0.187314 0.430883
Si Si6 0.662714 0.860000 0.360234
Si Si7 0.113036 0.424696 0.642384
O O1 0.711289 0.916613 0.811965
O O2 0.859928 0.002307 0.897780
O O3 0.797203 0.971414 0.041391
O O4 0.986343 0.916341 0.058349
O O5 0.255059 0.066708 0.811313
O O6 0.313800 0.961694 0.898226
O O7 0.468754 0.044145 0.079643
O O8 0.786736 0.789260 0.728818
O O9 0.838249 0.687724 0.724317
O O10 0.000000 0.763857 0.750000
O O11 0.028140 0.735397 0.967089
O O12 0.785076 0.097779 0.910306
O O13 0.292499 0.165565 0.499890
O O14 0.420658 0.136085 0.419480
O O15 0.500000 0.887024 0.250000
#
# Coordination Sequence:
#
# PCOD8133281 Si02
#       7
#     8   8   8   8   8   8   8
#     4  10  21  33  48  76 109 136 171 218 254 299
#     4  10  19  36  54  74 106 143 175 214 250 303
#     4   9  18  31  49  73 103 134 163 205 263 314
#     4  10  20  33  51  77 105 138 175 206 261 311
#     4  10  19  33  50  77 108 134 166 211 258 314
#     4   9  17  31  52  76 103 135 170 209 252 314
#     4  10  21  33  54  79 103 140 180 206 256 312
#
# _framework density 19.095742000000001
#
# number of rings (size 3 to 8) (size 9 to 14) (size 15 to 20)
#    0.000    2.571    0.000    5.143    0.000    4.571 
#    0.000    2.857    0.000    0.000    0.000   18.000 
#    0.000    0.000    0.000    0.000    0.000    0.000 
#
# Total GULP energy -346993.517492 kJ/mol
# GULP energy per Si atom -12392.625625 kJ/mol
# Density = 1.905228 g / cm^3
# Si number density = 19.095742 Si / 1000 Ang^3
#
#
#
# Elastic Constant Matrix: (Units=GPa)
#
#
# Indices 1 2 3 4 5 6 
#
# 1 80.2216 18.9691 30.1893 0.0000 13.1203 0.0000
# 2 18.9691 49.9643 24.3108 0.0000 13.7456 0.0000
# 3 30.1893 24.3108 87.5849 0.0000 14.7167 0.0000
# 4 0.0000 0.0000 0.0000 20.7388 0.0000 4.4752
# 5 13.1203 13.7456 14.7167 0.0000 27.8494 0.0000
# 6 0.0000 0.0000 0.0000 4.4752 0.0000 24.2649
#
#
#
# Elastic Compliance Matrix: (Units=1/GPa)
#
#
# Indices 1 2 3 4 5 6 
#
# 1 0.015190 -0.002891 -0.003809 0.000000 -0.003717 0.000000
# 2 -0.002891 0.025842 -0.004677 0.000000 -0.008921 0.000000
# 3 -0.003809 -0.004677 0.014639 0.000000 -0.003633 0.000000
# 4 0.000000 0.000000 0.000000 0.050217 0.000000 -0.009262
# 5 -0.003717 -0.008921 -0.003633 0.000000 0.043981 0.000000
# 6 0.000000 0.000000 0.000000 -0.009262 0.000000 0.042920
#
#
# Mechanical properties :
#
#
# Convention : Reuss Voigt Hill
#
# Bulk Modulus (GPa) = 30.38006 40.52324 35.45165
# Shear Modulus (GPa) = 22.07338 24.19074 23.13206
#
# Velocity S-wave (km/s) = 3.40359 3.56309 3.48425
# Velocity P-wave (km/s) = 5.60266 6.18018 5.89849
#
# Compressibility (1/GPa) = 0.03291633
#
# Stress axis : x y z
#
# Youngs Moduli (GPa) = 65.83121 38.69663 68.31040
#
# Poissons Ratio (x) = 0.11189 0.26019
# Poissons Ratio (y) = 0.19034 0.31951
# Poissons Ratio (z) = 0.25074 0.18100
#
# Static dielectric constant tensor:
#      x y z
#    x 3.195190 0.000000 0.303620 
#    y 0.000000 3.189280 0.000000 
#    z 0.303620 0.000000 3.839070 
# 
# 
# High freq. dielectric constant tensor:
#      x y z
#    x 1.712740 0.000000 0.021560 
#    y 0.000000 1.712160 0.000000 
#    z 0.021560 0.000000 1.748750 
# 
# From -- ./inp_files/92108.got.cif
#   From: 2010.06.25/outbox.cif.g09.slc.cpg/sg15_47_cif.got.tgz:92108.got - 2010.06.28 07:06:18.
