data_PCOD8133919
_publ_section_title
;
Structure prediction by ZEFSAII (Michael W. Deem and Ramdas Pophale) SiO2 
 PCOD8133919
Probable space group: C 2/C
;
_chemical_formula_sum "Si O2"
_cell_formula_units_Z 44
_cell_length_a 12.733277
_cell_length_b 8.961425
_cell_length_c 19.802912
_cell_angle_alpha 90.000000
_cell_angle_beta 62.540931
_cell_angle_gamma 90.000000
_cell_volume 2005.102640
_symmetry_space_group_name_H-M "C 2/C"
_symmetry_group_IT_number 15
_symmetry_cell_setting 'monoclinic'
loop_
_space_group_symop_operation_xyz
x,y,z
-x,y,1/2-z
-x,-y,-z
x,-y,1/2+z
1/2+x,1/2+y,z
1/2-x,1/2+y,1/2-z
1/2-x,1/2-y,-z
1/2+x,1/2-y,1/2+z
loop_
_atom_site_type_symbol
_atom_site_label
_atom_site_fract_x
_atom_site_fract_y
_atom_site_fract_z
Si Si1 0.897566 0.112008 0.327157
Si Si2 0.386254 0.284835 0.971260
Si Si3 0.500000 0.061124 0.250000
Si Si4 0.820952 0.817434 0.281552
Si Si5 0.155817 0.243022 0.873430
Si Si6 0.434753 0.065462 0.632234
O O1 0.930233 0.106172 0.397840
O O2 0.793688 0.228428 0.344568
O O3 0.000000 0.177394 0.250000
O O4 0.873796 0.942954 0.313481
O O5 0.466206 0.136229 0.945132
O O6 0.250000 0.250000 0.000000
O O7 0.397930 0.346250 0.045466
O O8 0.378849 0.161078 0.288106
O O9 0.504613 0.953681 0.312825
O O10 0.859759 0.847806 0.191718
O O11 0.678693 0.822444 0.330037
O O12 0.096245 0.404952 0.887865
#
# Coordination Sequence:
#
# PCOD8133919 Si02
#       6
#     8   8   4   8   8   8
#     4  10  19  34  60  83 115 155 195 254 298 362
#     4  10  21  35  60  88 122 156 202 249 312 363
#     4  10  22  38  64  94 120 158 210 266 290 364
#     4  10  20  39  62  89 120 156 212 248 304 366
#     4   9  20  36  57  88 116 156 196 257 298 363
#     4  10  21  36  66  87 117 168 204 247 311 364
#
# _framework density 21.944013999999999
#
# number of rings (size 3 to 8) (size 9 to 14) (size 15 to 20)
#    0.000    2.182    0.909    1.636    6.364    0.000 
#    0.000    0.909    8.000    7.636    0.000    0.000 
#    0.000    0.000    0.000    0.000    0.000    0.000 
#
# Total GULP energy -272575.767394 kJ/mol
# GULP energy per Si atom -12389.807609 kJ/mol
# Density = 2.189407 g / cm^3
# Si number density = 21.944014 Si / 1000 Ang^3
#
#
#
# Elastic Constant Matrix: (Units=GPa)
#
#
# Indices 1 2 3 4 5 6 
#
# 1 91.5103 12.2212 47.3351 0.0000 -4.0330 0.0000
# 2 12.2212 26.6436 18.8419 0.0000 -7.1263 0.0000
# 3 47.3351 18.8419 150.2268 0.0000 -1.6275 0.0000
# 4 0.0000 0.0000 0.0000 20.7239 0.0000 2.8587
# 5 -4.0330 -7.1263 -1.6275 0.0000 30.4103 0.0000
# 6 0.0000 0.0000 0.0000 2.8587 0.0000 19.5944
#
#
#
# Elastic Compliance Matrix: (Units=1/GPa)
#
#
# Indices 1 2 3 4 5 6 
#
# 1 0.013358 -0.003226 -0.003795 0.000000 0.000812 0.000000
# 2 -0.003226 0.044824 -0.004499 0.000000 0.009836 0.000000
# 3 -0.003795 -0.004499 0.008405 0.000000 -0.001108 0.000000
# 4 0.000000 0.000000 0.000000 0.049245 0.000000 -0.007184
# 5 0.000812 0.009836 -0.001108 0.000000 0.035237 0.000000
# 6 0.000000 0.000000 0.000000 -0.007184 0.000000 0.052083
#
#
# Mechanical properties :
#
#
# Convention : Reuss Voigt Hill
#
# Bulk Modulus (GPa) = 22.96401 47.24191 35.10296
# Shear Modulus (GPa) = 20.77213 26.81122 23.79167
#
# Velocity S-wave (km/s) = 3.08002 3.49922 3.29629
# Velocity P-wave (km/s) = 4.81001 6.15639 5.52437
#
# Compressibility (1/GPa) = 0.04354640
#
# Stress axis : x y z
#
# Youngs Moduli (GPa) = 74.86380 22.30928 118.97943
#
# Poissons Ratio (x) = 0.07196 0.45158
# Poissons Ratio (y) = 0.24148 0.53530
# Poissons Ratio (z) = 0.28414 0.10037
#
# Static dielectric constant tensor:
#      x y z
#    x 4.253230 0.000000 0.170990 
#    y 0.000000 3.494000 0.000000 
#    z 0.170990 0.000000 4.525360 
# 
# 
# High freq. dielectric constant tensor:
#      x y z
#    x 1.874230 0.000000 0.006630 
#    y 0.000000 1.828510 0.000000 
#    z 0.006630 0.000000 1.872360 
# 
# From -- ./inp_files/202938.got.cif
#   From: 2010.06.25/outbox.cif.g09.slc.cpg/sg15_102_cif.got.tgz:202938.got - 2010.06.28 07:06:18.
