data_PCOD8133444
_publ_section_title
;
Structure prediction by ZEFSAII (Michael W. Deem and Ramdas Pophale) SiO2 
 PCOD8133444
Probable space group: C 2/C
;
_chemical_formula_sum "Si O2"
_cell_formula_units_Z 60
_cell_length_a 9.960137
_cell_length_b 19.554643
_cell_length_c 24.482206
_cell_angle_alpha 90.000000
_cell_angle_beta 139.362550
_cell_angle_gamma 90.000000
_cell_volume 3105.468036
_symmetry_space_group_name_H-M "C 2/C"
_symmetry_group_IT_number 15
_symmetry_cell_setting 'monoclinic'
loop_
_space_group_symop_operation_xyz
x,y,z
-x,y,1/2-z
-x,-y,-z
x,-y,1/2+z
1/2+x,1/2+y,z
1/2-x,1/2+y,1/2-z
1/2-x,1/2-y,-z
1/2+x,1/2-y,1/2+z
loop_
_atom_site_type_symbol
_atom_site_label
_atom_site_fract_x
_atom_site_fract_y
_atom_site_fract_z
Si Si1 0.454194 0.237853 0.868381
Si Si2 0.753083 0.052827 0.092711
Si Si3 0.795370 0.141622 0.007656
Si Si4 0.784586 0.245257 0.810364
Si Si5 0.006568 0.154243 0.961361
Si Si6 0.705629 0.910989 0.033987
Si Si7 0.000000 0.135874 0.250000
Si Si8 0.219441 0.236626 0.899229
O O1 0.596819 0.304799 0.917601
O O2 0.391289 0.223172 0.786806
O O3 0.260436 0.251022 0.848281
O O4 0.574164 0.170784 0.923728
O O5 0.755715 0.073714 0.029681
O O6 0.949893 0.085489 0.184086
O O7 0.783746 0.971192 0.098398
O O8 0.535784 0.074322 0.054476
O O9 0.920363 0.122907 0.991084
O O10 0.704787 0.317166 0.809589
O O11 0.821813 0.184367 0.865878
O O12 0.989618 0.260370 0.839972
O O13 0.150747 0.097489 0.976205
O O14 0.134647 0.221946 0.014803
O O15 0.735739 0.842346 0.077000
#
# Coordination Sequence:
#
# PCOD8133444 Si02
#       8
#     8   8   8   8   8   8   4   8
#     4  10  19  33  55  84 116 141 187 240 290 341
#     4  11  22  39  59  80 118 157 201 228 289 351
#     4  10  20  36  56  81 112 152 184 237 289 340
#     4  11  20  32  55  85 112 144 186 241 297 334
#     4  10  21  36  60  86 115 143 192 242 293 341
#     4  10  21  39  57  83 111 159 193 229 286 357
#     4  12  22  36  58  86 112 150 196 252 280 346
#     4  10  19  36  58  84 114 146 186 244 290 343
#
# _framework density 19.320758000000001
#
# number of rings (size 3 to 8) (size 9 to 14) (size 15 to 20)
#    0.000    1.600    2.667    4.400    1.867    0.533 
#    4.800    0.000    0.000    0.000    0.000    5.600 
#    0.000    0.000    0.000    0.000    0.000    0.000 
#
# Total GULP energy -371808.486745 kJ/mol
# GULP energy per Si atom -12393.616225 kJ/mol
# Density = 1.927678 g / cm^3
# Si number density = 19.320758 Si / 1000 Ang^3
#
#
#
# Elastic Constant Matrix: (Units=GPa)
#
#
# Indices 1 2 3 4 5 6 
#
# 1 93.0954 37.6735 35.0572 0.0001 4.7499 -0.0001
# 2 37.6735 90.6784 31.1438 0.0001 4.5838 -0.0001
# 3 35.0572 31.1438 87.5153 0.0006 -11.0880 -0.0002
# 4 0.0001 0.0001 0.0006 15.4764 0.0003 7.1459
# 5 4.7499 4.5838 -11.0880 0.0003 28.7786 -0.0002
# 6 -0.0001 -0.0001 -0.0002 7.1459 -0.0002 16.7209
#
#
#
# Elastic Compliance Matrix: (Units=1/GPa)
#
#
# Indices 1 2 3 4 5 6 
#
# 1 0.014392 -0.004178 -0.004726 0.000000 -0.003531 0.000000
# 2 -0.004178 0.014210 -0.003767 0.000000 -0.003025 0.000000
# 3 -0.004726 -0.003767 0.015596 -0.000001 0.007389 0.000001
# 4 0.000000 0.000000 -0.000001 0.080499 -0.000002 -0.034402
# 5 -0.003531 -0.003025 0.007389 -0.000002 0.038660 0.000001
# 6 0.000000 0.000000 0.000001 -0.034402 0.000001 0.074508
#
#
# Mechanical properties :
#
#
# Convention : Reuss Voigt Hill
#
# Bulk Modulus (GPa) = 53.02784 53.22646 53.12715
# Shear Modulus (GPa) = 18.55343 23.35614 20.95479
#
# Velocity S-wave (km/s) = 3.10221 3.48064 3.29686
# Velocity P-wave (km/s) = 6.35116 6.61527 6.48456
#
# Compressibility (1/GPa) = 0.01885802
#
# Stress axis : x y z
#
# Youngs Moduli (GPa) = 69.48263 70.37152 64.11791
#
# Poissons Ratio (x) = 0.29400 0.30301
# Poissons Ratio (y) = 0.29028 0.24151
# Poissons Ratio (z) = 0.32836 0.26507
#
# Static dielectric constant tensor:
#      x y z
#    x 3.897060 0.000000 0.036610 
#    y 0.000000 3.284320 0.000000 
#    z 0.036610 0.000000 3.476890 
# 
# 
# High freq. dielectric constant tensor:
#      x y z
#    x 1.767020 0.000000 0.000200 
#    y 0.000000 1.725920 0.000000 
#    z 0.000200 0.000000 1.745230 
# 
# From -- ./inp_files/293580.got.cif
#   From: 2010.06.25/outbox.cif.g09.slc.cpg/sg15_147_cif.got.tgz:293580.got - 2010.06.28 07:06:18.
