data_PCOD8133967
_publ_section_title
;
Structure prediction by ZEFSAII (Michael W. Deem and Ramdas Pophale) SiO2 
 PCOD8133967
Probable space group: C 2/C
;
_chemical_formula_sum "Si O2"
_cell_formula_units_Z 56
_cell_length_a 15.763600
_cell_length_b 11.335960
_cell_length_c 18.535945
_cell_angle_alpha 90.000000
_cell_angle_beta 56.338603
_cell_angle_gamma 90.000000
_cell_volume 2756.911483
_symmetry_space_group_name_H-M "C 2/C"
_symmetry_group_IT_number 15
_symmetry_cell_setting 'monoclinic'
loop_
_space_group_symop_operation_xyz
x,y,z
-x,y,1/2-z
-x,-y,-z
x,-y,1/2+z
1/2+x,1/2+y,z
1/2-x,1/2+y,1/2-z
1/2-x,1/2-y,-z
1/2+x,1/2-y,1/2+z
loop_
_atom_site_type_symbol
_atom_site_label
_atom_site_fract_x
_atom_site_fract_y
_atom_site_fract_z
Si Si1 0.882683 0.010619 0.575051
Si Si2 0.537229 0.883147 0.065013
Si Si3 0.176195 0.972360 0.681568
Si Si4 0.399396 0.906195 0.624488
Si Si5 0.617316 0.303821 0.823972
Si Si6 0.328064 0.684844 0.726315
Si Si7 0.740211 0.391072 0.501707
O O1 0.866958 0.107431 0.642491
O O2 0.811189 0.052256 0.543485
O O3 0.851351 0.882649 0.621048
O O4 0.000000 0.000000 0.500000
O O5 0.492532 0.759654 0.115389
O O6 0.642350 0.929155 0.049826
O O7 0.460320 0.984041 0.126701
O O8 0.546615 0.863178 0.974667
O O9 0.286441 0.947833 0.661929
O O10 0.100825 0.885236 0.760801
O O11 0.172902 0.943494 0.598860
O O12 0.150399 0.110946 0.709860
O O13 0.394505 0.804835 0.688514
O O14 0.707723 0.209163 0.772977
O O15 0.750000 0.250000 0.500000
#
# Coordination Sequence:
#
# PCOD8133967 Si02
#       7
#     8   8   8   8   8   8   8
#     4  11  23  41  64  87 119 165 210 247 308 377
#     4  10  19  34  62  92 118 156 204 250 301 365
#     4   9  19  35  60  88 123 158 198 249 304 352
#     4   9  17  32  58  89 118 158 200 237 297 369
#     4  10  19  35  63  91 122 162 198 253 309 367
#     4  10  19  37  62  87 121 159 201 247 300 368
#     4  11  22  40  61  92 123 156 209 264 305 368
#
# _framework density 20.312586
#
# number of rings (size 3 to 8) (size 9 to 14) (size 15 to 20)
#    0.000    2.000    1.429    4.286    0.000    0.000 
#    0.000   10.714    3.143    0.000    0.000    0.000 
#    0.000    0.000    0.000    0.000    0.000    0.000 
#
# Total GULP energy -346991.548579 kJ/mol
# GULP energy per Si atom -12392.555306 kJ/mol
# Density = 2.026635 g / cm^3
# Si number density = 20.312586 Si / 1000 Ang^3
#
#
#
# Elastic Constant Matrix: (Units=GPa)
#
#
# Indices 1 2 3 4 5 6 
#
# 1 48.0691 18.3165 20.9874 0.0000 8.0538 0.0000
# 2 18.3165 102.2160 46.6554 0.0000 -0.6100 0.0000
# 3 20.9874 46.6554 95.4132 0.0000 -3.6630 0.0000
# 4 0.0000 0.0000 0.0000 50.0453 0.0000 -9.3055
# 5 8.0538 -0.6100 -3.6630 0.0000 21.9546 0.0000
# 6 0.0000 0.0000 0.0000 -9.3055 0.0000 25.4509
#
#
#
# Elastic Compliance Matrix: (Units=1/GPa)
#
#
# Indices 1 2 3 4 5 6 
#
# 1 0.025555 -0.002440 -0.004822 0.000000 -0.010247 0.000000
# 2 -0.002440 0.012837 -0.005729 0.000000 0.000296 0.000000
# 3 -0.004822 -0.005729 0.014497 0.000000 0.004028 0.000000
# 4 0.000000 0.000000 0.000000 0.021439 0.000000 0.007839
# 5 -0.010247 0.000296 0.004028 0.000000 0.049988 0.000000
# 6 0.000000 0.000000 0.000000 0.007839 0.000000 0.042158
#
#
# Mechanical properties :
#
#
# Convention : Reuss Voigt Hill
#
# Bulk Modulus (GPa) = 37.16271 46.40190 41.78230
# Shear Modulus (GPa) = 24.82317 30.13941 27.48129
#
# Velocity S-wave (km/s) = 3.49959 3.85617 3.68220
# Velocity P-wave (km/s) = 5.88767 6.53607 6.22032
#
# Compressibility (1/GPa) = 0.02690870
#
# Stress axis : x y z
#
# Youngs Moduli (GPa) = 39.13133 77.89883 68.97789
#
# Poissons Ratio (x) = 0.19005 0.33258
# Poissons Ratio (y) = 0.09547 0.39518
# Poissons Ratio (z) = 0.18867 0.44629
#
# Static dielectric constant tensor:
#      x y z
#    x 2.215420 0.000000 -1.028640 
#    y 0.000000 4.038100 0.000000 
#    z -1.028640 0.000000 3.657450 
# 
# 
# High freq. dielectric constant tensor:
#      x y z
#    x 1.755870 0.000000 -0.025250 
#    y 0.000000 1.803770 0.000000 
#    z -0.025250 0.000000 1.810460 
# 
# From -- ./inp_files/204358.got.cif
#   From: 2010.06.25/outbox.cif.g09.slc.cpg/sg15_103_cif.got.tgz:204358.got - 2010.06.28 07:06:18.
