data_PCOD8133879
_publ_section_title
;
Structure prediction by ZEFSAII (Michael W. Deem and Ramdas Pophale) SiO2 
 PCOD8133879
Probable space group: C 2/C
;
_chemical_formula_sum "Si O2"
_cell_formula_units_Z 56
_cell_length_a 12.815651
_cell_length_b 15.562990
_cell_length_c 14.811616
_cell_angle_alpha 90.000000
_cell_angle_beta 88.693412
_cell_angle_gamma 90.000000
_cell_volume 2953.406462
_symmetry_space_group_name_H-M "C 2/C"
_symmetry_group_IT_number 15
_symmetry_cell_setting 'monoclinic'
loop_
_space_group_symop_operation_xyz
x,y,z
-x,y,1/2-z
-x,-y,-z
x,-y,1/2+z
1/2+x,1/2+y,z
1/2-x,1/2+y,1/2-z
1/2-x,1/2-y,-z
1/2+x,1/2-y,1/2+z
loop_
_atom_site_type_symbol
_atom_site_label
_atom_site_fract_x
_atom_site_fract_y
_atom_site_fract_z
Si Si1 0.191119 0.240614 0.790533
Si Si2 0.094531 0.378448 0.683184
Si Si3 0.250142 0.991933 0.389152
Si Si4 0.822177 0.306486 0.435921
Si Si5 0.986983 0.246508 0.558758
Si Si6 0.620932 0.427541 0.225169
Si Si7 0.408978 0.436778 0.472304
O O1 0.182014 0.332968 0.744384
O O2 0.305734 0.229273 0.833674
O O3 0.104346 0.222460 0.869658
O O4 0.169340 0.168056 0.716386
O O5 0.141485 0.463883 0.639977
O O6 0.000000 0.405090 0.750000
O O7 0.062952 0.314965 0.603410
O O8 0.186843 0.054458 0.456879
O O9 0.282857 0.904906 0.439699
O O10 0.181973 0.979936 0.300272
O O11 0.750000 0.250000 0.500000
O O12 0.940126 0.292641 0.469170
O O13 0.048938 0.160843 0.529541
O O14 0.500000 0.422719 0.250000
O O15 0.633040 0.467192 0.125058
O O16 0.500000 0.500000 0.500000
#
# Coordination Sequence:
#
# PCOD8133879 Si02
#       7
#     8   8   8   8   8   8   8
#     4   9  16  35  60  80 107 165 205 239 298 382
#     4  10  21  39  62  83 119 166 213 243 302 380
#     4  11  25  37  59  98 123 160 213 262 308 368
#     4   9  19  36  58  85 118 157 208 247 306 383
#     4  10  19  34  59  83 116 167 202 249 311 373
#     4  11  18  37  58  84 123 157 197 250 316 368
#     4  12  21  34  62  94 123 154 205 270 310 359
#
# _framework density 18.961154000000001
#
# number of rings (size 3 to 8) (size 9 to 14) (size 15 to 20)
#    0.000    1.714    4.286    2.143    0.000    5.714 
#    0.000    0.000    3.143    0.000    0.000    0.000 
#    0.000    0.000    0.000    0.000    0.000    0.000 
#
# Total GULP energy -347043.515078 kJ/mol
# GULP energy per Si atom -12394.411253 kJ/mol
# Density = 1.891800 g / cm^3
# Si number density = 18.961154 Si / 1000 Ang^3
#
#
#
# Elastic Constant Matrix: (Units=GPa)
#
#
# Indices 1 2 3 4 5 6 
#
# 1 67.0881 47.3380 55.0547 0.0000 17.3032 0.0000
# 2 47.3380 113.3038 58.2831 0.0000 6.4527 0.0000
# 3 55.0547 58.2831 115.4239 0.0000 17.6196 0.0000
# 4 0.0000 0.0000 0.0000 29.8995 0.0000 2.0587
# 5 17.3032 6.4527 17.6196 0.0000 30.4196 0.0000
# 6 0.0000 0.0000 0.0000 2.0587 0.0000 25.8511
#
#
#
# Elastic Compliance Matrix: (Units=1/GPa)
#
#
# Indices 1 2 3 4 5 6 
#
# 1 0.030270 -0.007353 -0.009143 0.000000 -0.010362 0.000000
# 2 -0.007353 0.013740 -0.003976 0.000000 0.003571 0.000000
# 3 -0.009143 -0.003976 0.015478 0.000000 -0.002921 0.000000
# 4 0.000000 0.000000 0.000000 0.033630 0.000000 -0.002678
# 5 -0.010362 0.003571 -0.002921 0.000000 0.039702 0.000000
# 6 0.000000 0.000000 0.000000 -0.002678 0.000000 0.038896
#
#
# Mechanical properties :
#
#
# Convention : Reuss Voigt Hill
#
# Bulk Modulus (GPa) = 53.92663 68.57413 61.25038
# Shear Modulus (GPa) = 22.84744 26.24336 24.54540
#
# Velocity S-wave (km/s) = 3.47502 3.72433 3.60183
# Velocity P-wave (km/s) = 6.67857 7.39853 7.04775
#
# Compressibility (1/GPa) = 0.01854371
#
# Stress axis : x y z
#
# Youngs Moduli (GPa) = 33.03555 72.78181 64.60674
#
# Poissons Ratio (x) = 0.53520 0.59072
# Poissons Ratio (y) = 0.24292 0.25685
# Poissons Ratio (z) = 0.30206 0.28935
#
# Static dielectric constant tensor:
#      x y z
#    x 3.626100 0.000000 0.686720 
#    y 0.000000 3.451210 0.000000 
#    z 0.686720 0.000000 4.125580 
# 
# 
# High freq. dielectric constant tensor:
#      x y z
#    x 1.714170 0.000000 0.035630 
#    y 0.000000 1.732920 0.000000 
#    z 0.035630 0.000000 1.740090 
# 
# From -- ./inp_files/153443.got.cif
#   From: 2010.06.25/outbox.cif.g09.slc.cpg/sg15_77_cif.got.tgz:153443.got - 2010.06.28 07:06:18.
