data_PCOD8133813
_publ_section_title
;
Structure prediction by ZEFSAII (Michael W. Deem and Ramdas Pophale) SiO2 
 PCOD8133813
Probable space group: C 2/C
;
_chemical_formula_sum "Si O2"
_cell_formula_units_Z 48
_cell_length_a 14.883667
_cell_length_b 23.120130
_cell_length_c 10.142106
_cell_angle_alpha 90.000000
_cell_angle_beta 141.358020
_cell_angle_gamma 90.000000
_cell_volume 2179.352350
_symmetry_space_group_name_H-M "C 2/C"
_symmetry_group_IT_number 15
_symmetry_cell_setting 'monoclinic'
loop_
_space_group_symop_operation_xyz
x,y,z
-x,y,1/2-z
-x,-y,-z
x,-y,1/2+z
1/2+x,1/2+y,z
1/2-x,1/2+y,1/2-z
1/2-x,1/2-y,-z
1/2+x,1/2-y,1/2+z
loop_
_atom_site_type_symbol
_atom_site_label
_atom_site_fract_x
_atom_site_fract_y
_atom_site_fract_z
Si Si1 0.386546 0.842481 0.403284
Si Si2 0.882560 0.791838 0.512631
Si Si3 0.566063 0.280863 0.461858
Si Si4 0.182394 0.668462 0.100840
Si Si5 0.852761 0.468424 0.365937
Si Si6 0.172862 0.445124 0.450325
O O1 0.251817 0.835033 0.148868
O O2 0.390461 0.787288 0.505568
O O3 0.527852 0.848830 0.477696
O O4 0.372706 0.904983 0.457782
O O5 0.950657 0.785856 0.445543
O O6 0.827373 0.727940 0.494709
O O7 0.000000 0.815760 0.750000
O O8 0.500000 0.303575 0.250000
O O9 0.704458 0.320500 0.650741
O O10 0.236214 0.616824 0.068791
O O11 0.768608 0.460313 0.129649
O O12 0.769152 0.507188 0.377859
O O13 0.000000 0.500000 0.500000
O O14 0.000000 0.444219 0.250000
#
# Coordination Sequence:
#
# PCOD8133813 Si02
#       6
#     8   8   8   8   8   8
#     4  10  21  37  61  90 121 153 201 246 293 349
#     4  10  23  37  59  91 124 156 195 241 302 362
#     4  10  24  41  56  87 126 162 194 241 311 361
#     4  10  20  36  64  84 119 161 200 243 293 358
#     4  10  20  35  55  91 118 150 193 257 292 338
#     4  10  19  34  57  87 121 145 196 248 300 337
#
# _framework density 22.024892999999999
#
# number of rings (size 3 to 8) (size 9 to 14) (size 15 to 20)
#    0.000    2.000    3.333    0.500    4.667   11.333 
#    3.000    0.000    0.000    2.000    0.000    0.000 
#    0.000    0.000    0.000    0.000    0.000    0.000 
#
# Total GULP energy -297423.069793 kJ/mol
# GULP energy per Si atom -12392.627908 kJ/mol
# Density = 2.197476 g / cm^3
# Si number density = 22.024893 Si / 1000 Ang^3
#
#
#
# Elastic Constant Matrix: (Units=GPa)
#
#
# Indices 1 2 3 4 5 6 
#
# 1 61.9655 36.2955 44.5159 0.0000 -26.4994 0.0000
# 2 36.2955 122.1572 43.2973 0.0000 0.1380 0.0000
# 3 44.5159 43.2973 143.0286 0.0000 -14.5455 0.0000
# 4 0.0000 0.0000 0.0000 30.8486 0.0000 -3.0334
# 5 -26.4994 0.1380 -14.5455 0.0000 31.9902 0.0000
# 6 0.0000 0.0000 0.0000 -3.0334 0.0000 20.6091
#
#
#
# Elastic Compliance Matrix: (Units=1/GPa)
#
#
# Indices 1 2 3 4 5 6 
#
# 1 0.038452 -0.009257 -0.006209 0.000000 0.029069 0.000000
# 2 -0.009257 0.011456 -0.001438 0.000000 -0.008371 0.000000
# 3 -0.006209 -0.001438 0.009266 0.000000 -0.000924 0.000000
# 4 0.000000 0.000000 0.000000 0.032892 0.000000 0.004841
# 5 0.029069 -0.008371 -0.000924 0.000000 0.054955 0.000000
# 6 0.000000 0.000000 0.000000 0.004841 0.000000 0.049235
#
#
# Mechanical properties :
#
#
# Convention : Reuss Voigt Hill
#
# Bulk Modulus (GPa) = 39.42485 63.92985 51.67735
# Shear Modulus (GPa) = 20.96269 30.22576 25.59423
#
# Velocity S-wave (km/s) = 3.08843 3.70854 3.41260
# Velocity P-wave (km/s) = 5.53686 6.88672 6.24835
#
# Compressibility (1/GPa) = 0.02536471
#
# Stress axis : x y z
#
# Youngs Moduli (GPa) = 26.00638 87.29216 107.92721
#
# Poissons Ratio (x) = 0.80806 0.67015
# Poissons Ratio (y) = 0.24074 0.15521
# Poissons Ratio (z) = 0.16148 0.12554
#
# Static dielectric constant tensor:
#      x y z
#    x 3.865810 0.000000 -0.247230 
#    y 0.000000 4.260640 0.000000 
#    z -0.247230 0.000000 3.998890 
# 
# 
# High freq. dielectric constant tensor:
#      x y z
#    x 1.840080 0.000000 -0.018440 
#    y 0.000000 1.867670 0.000000 
#    z -0.018440 0.000000 1.846350 
# 
# From -- ./inp_files/108129.got.cif
#   From: 2010.06.25/outbox.cif.g09.slc.cpg/sg15_55_cif.got.tgz:108129.got - 2010.06.28 07:06:18.
