data_PCOD8133144
_publ_section_title
;
Structure prediction by ZEFSAII (Michael W. Deem and Ramdas Pophale) SiO2 
 PCOD8133144
Probable space group: C 2/C
;
_chemical_formula_sum "Si O2"
_cell_formula_units_Z 40
_cell_length_a 10.638316
_cell_length_b 21.330388
_cell_length_c 16.495691
_cell_angle_alpha 90.000000
_cell_angle_beta 143.533191
_cell_angle_gamma 90.000000
_cell_volume 2224.792697
_symmetry_space_group_name_H-M "C 2/C"
_symmetry_group_IT_number 15
_symmetry_cell_setting 'monoclinic'
loop_
_space_group_symop_operation_xyz
x,y,z
-x,y,1/2-z
-x,-y,-z
x,-y,1/2+z
1/2+x,1/2+y,z
1/2-x,1/2+y,1/2-z
1/2-x,1/2-y,-z
1/2+x,1/2-y,1/2+z
loop_
_atom_site_type_symbol
_atom_site_label
_atom_site_fract_x
_atom_site_fract_y
_atom_site_fract_z
Si Si1 0.437720 0.427334 0.890951
Si Si2 0.942331 0.440723 0.917152
Si Si3 0.304880 0.012040 0.094789
Si Si4 0.343056 0.809861 0.939428
Si Si5 0.453252 0.707378 0.354447
O O1 0.291476 0.450401 0.740732
O O2 0.362935 0.450094 0.939561
O O3 0.415831 0.353048 0.890025
O O4 0.676097 0.451475 0.994357
O O5 0.948886 0.377144 0.973958
O O6 0.113003 0.440834 0.932527
O O7 0.000000 0.500000 0.000000
O O8 0.500000 0.986956 0.250000
O O9 0.247861 0.779206 0.807896
O O10 0.156259 0.813223 0.907532
O O11 0.521558 0.766070 0.072265
#
# Coordination Sequence:
#
# PCOD8133144 Si02
#       5
#     8   8   8   8   8
#     4   9  18  34  52  72 105 132 166 210 256 299
#     4  10  19  32  53  76 102 133 167 211 257 301
#     4   9  18  33  50  77  99 133 169 206 256 306
#     4   9  18  32  50  74 100 131 172 209 254 299
#     4   9  17  33  50  71 100 136 166 211 254 297
#
# _framework density 17.979203999999999
#
# number of rings (size 3 to 8) (size 9 to 14) (size 15 to 20)
#    0.000    2.800    0.000    1.200    0.000    2.400 
#   18.000    1.000    0.000    0.000    0.000    0.000 
#    0.000    0.000    0.000    0.000    0.000    0.000 
#
# Total GULP energy -247850.006199 kJ/mol
# GULP energy per Si atom -12392.500310 kJ/mol
# Density = 1.793828 g / cm^3
# Si number density = 17.979204 Si / 1000 Ang^3
#
#
#
# Elastic Constant Matrix: (Units=GPa)
#
#
# Indices 1 2 3 4 5 6 
#
# 1 63.2529 49.3335 40.8699 -0.0003 -3.8717 -0.0003
# 2 49.3335 128.3034 79.0432 0.0022 -16.6977 0.0003
# 3 40.8699 79.0432 98.2891 0.0186 -7.2859 0.0015
# 4 -0.0003 0.0022 0.0186 35.2880 -0.0004 -4.3350
# 5 -3.8717 -16.6977 -7.2859 -0.0004 22.8514 -0.0008
# 6 -0.0003 0.0003 0.0015 -4.3350 -0.0008 28.5252
#
#
#
# Elastic Compliance Matrix: (Units=1/GPa)
#
#
# Indices 1 2 3 4 5 6 
#
# 1 0.023871 -0.006445 -0.004908 0.000003 -0.002230 0.000001
# 2 -0.006445 0.018555 -0.011591 0.000005 0.008770 0.000001
# 3 -0.004908 -0.011591 0.021352 -0.000011 -0.002494 -0.000003
# 4 0.000003 0.000005 -0.000011 0.028877 0.000002 0.004389
# 5 -0.002230 0.008770 -0.002494 0.000002 0.048997 0.000002
# 6 0.000001 0.000001 -0.000003 0.004389 0.000002 0.035724
#
#
# Mechanical properties :
#
#
# Convention : Reuss Voigt Hill
#
# Bulk Modulus (GPa) = 55.90245 69.81540 62.85892
# Shear Modulus (GPa) = 21.81240 25.37283 23.59262
#
# Velocity S-wave (km/s) = 3.48688 3.76071 3.62638
# Velocity P-wave (km/s) = 6.88269 7.60084 7.25066
#
# Compressibility (1/GPa) = 0.01788830
#
# Stress axis : x y z
#
# Youngs Moduli (GPa) = 41.89149 53.89489 46.83447
#
# Poissons Ratio (x) = 0.34736 0.22987
# Poissons Ratio (y) = 0.26999 0.54288
# Poissons Ratio (z) = 0.20561 0.62472
#
# Static dielectric constant tensor:
#      x y z
#    x 3.378930 0.000010 -0.034340 
#    y 0.000010 3.274820 0.000010 
#    z -0.034340 0.000010 3.487020 
# 
# 
# High freq. dielectric constant tensor:
#      x y z
#    x 1.686470 0.000000 -0.011220 
#    y 0.000000 1.683520 0.000000 
#    z -0.011220 0.000000 1.697560 
# 
# From -- ./inp_files/30189.got.cif
#   From: 2010.06.25/outbox.cif.g09.slc.cpg/sg15_16_cif.got.tgz:30189.got - 2010.06.28 07:06:18.
