data_PCOD8133717
_publ_section_title
;
Structure prediction by ZEFSAII (Michael W. Deem and Ramdas Pophale) SiO2 
 PCOD8133717
Probable space group: C 2/C
;
_chemical_formula_sum "Si O2"
_cell_formula_units_Z 56
_cell_length_a 21.594341
_cell_length_b 17.028033
_cell_length_c 18.147809
_cell_angle_alpha 90.000000
_cell_angle_beta 26.944111
_cell_angle_gamma 90.000000
_cell_volume 3023.729772
_symmetry_space_group_name_H-M "C 2/C"
_symmetry_group_IT_number 15
_symmetry_cell_setting 'monoclinic'
loop_
_space_group_symop_operation_xyz
x,y,z
-x,y,1/2-z
-x,-y,-z
x,-y,1/2+z
1/2+x,1/2+y,z
1/2-x,1/2+y,1/2-z
1/2-x,1/2-y,-z
1/2+x,1/2-y,1/2+z
loop_
_atom_site_type_symbol
_atom_site_label
_atom_site_fract_x
_atom_site_fract_y
_atom_site_fract_z
Si Si1 0.159157 0.442625 0.669676
Si Si2 0.388450 0.814660 0.670928
Si Si3 0.139717 0.227606 0.058867
Si Si4 0.789968 0.401171 0.318958
Si Si5 0.161322 0.533425 0.001815
Si Si6 0.399227 0.872935 0.499276
Si Si7 0.297397 0.835321 0.151300
O O1 0.182443 0.358265 0.683945
O O2 0.233053 0.506494 0.643117
O O3 0.216873 0.451708 0.525629
O O4 0.998716 0.455527 0.836743
O O5 0.373060 0.869657 0.614833
O O6 0.549498 0.799524 0.515366
O O7 0.313535 0.732634 0.739572
O O8 0.147877 0.291403 0.985503
O O9 0.000000 0.221699 0.250000
O O10 0.250000 0.250000 0.000000
O O11 0.174087 0.143912 0.987247
O O12 0.774294 0.381841 0.250708
O O13 0.940491 0.379863 0.189462
O O14 0.188793 0.444662 0.943036
O O15 0.235553 0.599996 0.875553
#
# Coordination Sequence:
#
# PCOD8133717 Si02
#       7
#     8   8   8   8   8   8   8
#     4   9  18  33  56  81 106 140 184 228 264 306
#     4  10  20  35  57  81 108 143 182 221 267 320
#     4  12  22  32  52  82 109 144 172 214 272 324
#     4  10  19  35  55  79 110 141 179 220 266 322
#     4   9  18  32  55  84 106 136 186 232 260 305
#     4  10  19  34  55  81 109 142 180 219 267 319
#     4  10  20  35  57  82 107 142 182 222 269 318
#
# _framework density 18.520174000000001
#
# number of rings (size 3 to 8) (size 9 to 14) (size 15 to 20)
#    0.000    2.000    2.857    1.714    2.000    4.000 
#    0.000    0.000    6.286    1.714    0.000    0.000 
#    0.000    0.000    0.000    0.000    0.000    0.000 
#
# Total GULP energy -347104.494855 kJ/mol
# GULP energy per Si atom -12396.589102 kJ/mol
# Density = 1.847802 g / cm^3
# Si number density = 18.520174 Si / 1000 Ang^3
#
#
#
# Elastic Constant Matrix: (Units=GPa)
#
#
# Indices 1 2 3 4 5 6 
#
# 1 80.9680 47.4163 37.0480 0.0029 17.7558 -0.0018
# 2 47.4163 97.2019 42.1767 0.0010 11.5464 -0.0009
# 3 37.0480 42.1767 70.0696 0.0045 11.6007 -0.0031
# 4 0.0029 0.0010 0.0045 28.4294 -0.0029 6.1742
# 5 17.7558 11.5464 11.6007 -0.0029 23.9495 0.0016
# 6 -0.0018 -0.0009 -0.0031 6.1742 0.0016 35.8504
#
#
#
# Elastic Compliance Matrix: (Units=1/GPa)
#
#
# Indices 1 2 3 4 5 6 
#
# 1 0.020846 -0.006680 -0.005409 -0.000002 -0.009614 0.000001
# 2 -0.006680 0.016251 -0.006276 0.000001 0.000157 -0.000001
# 3 -0.005409 -0.006276 0.021466 -0.000003 -0.003361 0.000002
# 4 -0.000002 0.000001 -0.000003 0.036542 0.000008 -0.006293
# 5 -0.009614 0.000157 -0.003361 0.000008 0.050435 -0.000004
# 6 0.000001 -0.000001 0.000002 -0.006293 -0.000004 0.028978
#
#
# Mechanical properties :
#
#
# Convention : Reuss Voigt Hill
#
# Bulk Modulus (GPa) = 45.80404 55.72460 50.76432
# Shear Modulus (GPa) = 22.88082 25.75245 24.31664
#
# Velocity S-wave (km/s) = 3.51872 3.73300 3.62744
# Velocity P-wave (km/s) = 6.42605 6.98099 6.70926
#
# Compressibility (1/GPa) = 0.02183213
#
# Stress axis : x y z
#
# Youngs Moduli (GPa) = 47.97154 61.53551 46.58543
#
# Poissons Ratio (x) = 0.41103 0.25200
# Poissons Ratio (y) = 0.32043 0.29238
# Poissons Ratio (z) = 0.25950 0.38620
#
# Static dielectric constant tensor:
#      x y z
#    x 3.547740 0.000000 0.272100 
#    y 0.000000 3.431850 0.000000 
#    z 0.272100 0.000000 3.032500 
# 
# 
# High freq. dielectric constant tensor:
#      x y z
#    x 1.721430 0.000000 0.025240 
#    y 0.000000 1.721280 0.000000 
#    z 0.025240 0.000000 1.687220 
# 
# From -- ./inp_files/56726.got.cif
#   From: 2010.06.25/outbox.cif.g09.slc.cpg/sg15_29_cif.got.tgz:56726.got - 2010.06.28 07:06:18.
