data_PCOD8133023
_publ_section_title
;
Structure prediction by ZEFSAII (Michael W. Deem and Ramdas Pophale) SiO2 
 PCOD8133023
Probable space group: C 2/C
;
_chemical_formula_sum "Si O2"
_cell_formula_units_Z 64
_cell_length_a 8.591127
_cell_length_b 29.258101
_cell_length_c 23.382507
_cell_angle_alpha 90.000000
_cell_angle_beta 37.900947
_cell_angle_gamma 90.000000
_cell_volume 3610.493933
_symmetry_space_group_name_H-M "C 2/C"
_symmetry_group_IT_number 15
_symmetry_cell_setting 'monoclinic'
loop_
_space_group_symop_operation_xyz
x,y,z
-x,y,1/2-z
-x,-y,-z
x,-y,1/2+z
1/2+x,1/2+y,z
1/2-x,1/2+y,1/2-z
1/2-x,1/2-y,-z
1/2+x,1/2-y,1/2+z
loop_
_atom_site_type_symbol
_atom_site_label
_atom_site_fract_x
_atom_site_fract_y
_atom_site_fract_z
Si Si1 0.275413 0.502805 0.143149
Si Si2 0.523502 0.354330 0.555891
Si Si3 0.626087 0.099738 0.368518
Si Si4 0.545421 0.576639 0.329384
Si Si5 0.401237 0.212701 0.990543
Si Si6 0.401732 0.569392 0.007235
Si Si7 0.849545 0.728875 0.351634
Si Si8 0.215070 0.705732 0.344448
O O1 0.451804 0.529308 0.137067
O O2 0.401610 0.453820 0.093445
O O3 0.000000 0.495074 0.250000
O O4 0.268746 0.532265 0.087003
O O5 0.395960 0.379985 0.646776
O O6 0.801712 0.336106 0.495377
O O7 0.556475 0.391155 0.495704
O O8 0.342747 0.313734 0.586877
O O9 0.733298 0.074439 0.281514
O O10 0.691634 0.152265 0.340854
O O11 0.765496 0.080483 0.384021
O O12 0.326882 0.092118 0.462353
O O13 0.698372 0.222693 0.893525
O O14 0.250000 0.250000 0.000000
O O15 0.353507 0.218973 0.071472
O O16 0.000000 0.722606 0.250000
O O17 0.032597 0.731637 0.353079
O O18 0.500000 0.722103 0.250000
#
# Coordination Sequence:
#
# PCOD8133023 Si02
#       8
#     8   8   8   8   8   8   8   8
#     4  10  20  36  55  80 114 148 183 230 283 342
#     4  10  19  34  55  78 112 144 185 232 283 331
#     4  11  18  31  53  86 110 139 184 230 288 337
#     4  10  19  31  54  83 114 143 172 238 286 335
#     4  10  21  37  53  81 115 148 186 234 290 340
#     4  10  21  33  57  84 108 149 191 227 284 346
#     4  11  22  34  58  84 112 151 188 237 291 341
#     4  12  20  34  56  87 115 142 187 237 291 347
#
# _framework density 17.726106999999999
#
# number of rings (size 3 to 8) (size 9 to 14) (size 15 to 20)
#    0.000    1.500    5.000    2.625    0.000    0.500 
#    0.000    0.000    2.750    3.000    0.000    0.000 
#    0.000    0.000    0.000    0.000    0.000    0.000 
#
# Total GULP energy -396720.093513 kJ/mol
# GULP energy per Si atom -12397.502922 kJ/mol
# Density = 1.768576 g / cm^3
# Si number density = 17.726107 Si / 1000 Ang^3
#
#
#
# Elastic Constant Matrix: (Units=GPa)
#
#
# Indices 1 2 3 4 5 6 
#
# 1 125.8852 39.5382 39.4559 0.0000 -13.3512 0.0000
# 2 39.5382 67.0997 44.1470 -0.0001 -7.7328 0.0000
# 3 39.4559 44.1470 76.8268 -0.0007 -10.0578 -0.0001
# 4 0.0000 -0.0001 -0.0007 28.6464 0.0001 0.2193
# 5 -13.3512 -7.7328 -10.0578 0.0001 29.9412 0.0000
# 6 0.0000 0.0000 -0.0001 0.2193 0.0000 23.7974
#
#
#
# Elastic Compliance Matrix: (Units=1/GPa)
#
#
# Indices 1 2 3 4 5 6 
#
# 1 0.010321 -0.004046 -0.002625 0.000000 0.002675 0.000000
# 2 -0.004046 0.025626 -0.012570 0.000000 0.000592 0.000000
# 3 -0.002625 -0.012570 0.021976 0.000000 0.002965 0.000000
# 4 0.000000 0.000000 0.000000 0.034911 0.000000 -0.000322
# 5 0.002675 0.000592 0.002965 0.000000 0.035741 0.000000
# 6 0.000000 0.000000 0.000000 -0.000322 0.000000 0.042024
#
#
# Mechanical properties :
#
#
# Convention : Reuss Voigt Hill
#
# Bulk Modulus (GPa) = 51.44049 57.34380 54.39214
# Shear Modulus (GPa) = 23.19529 26.25504 24.72516
#
# Velocity S-wave (km/s) = 3.62130 3.85275 3.73881
# Velocity P-wave (km/s) = 6.82405 7.22577 7.02778
#
# Compressibility (1/GPa) = 0.01943994
#
# Stress axis : x y z
#
# Youngs Moduli (GPa) = 96.88837 39.02353 45.50462
#
# Poissons Ratio (x) = 0.15789 0.11947
# Poissons Ratio (y) = 0.39201 0.57199
# Poissons Ratio (z) = 0.25437 0.49052
#
# Static dielectric constant tensor:
#      x y z
#    x 3.645190 0.000000 -0.188000 
#    y 0.000000 3.304160 0.000000 
#    z -0.188000 0.000000 3.251090 
# 
# 
# High freq. dielectric constant tensor:
#      x y z
#    x 1.704710 0.000000 -0.001620 
#    y 0.000000 1.665840 0.000000 
#    z -0.001620 0.000000 1.663290 
# 
# From -- ./inp_files/139273.got.cif
#   From: 2010.06.25/outbox.cif.g09.slc.cpg/sg15_70_cif.got.tgz:139273.got - 2010.06.28 07:06:18.
