data_PCOD8133376
_publ_section_title
;
Structure prediction by ZEFSAII (Michael W. Deem and Ramdas Pophale) SiO2 
 PCOD8133376
Probable space group: C 2/C
;
_chemical_formula_sum "Si O2"
_cell_formula_units_Z 48
_cell_length_a 11.895026
_cell_length_b 13.436342
_cell_length_c 16.203443
_cell_angle_alpha 90.000000
_cell_angle_beta 107.484364
_cell_angle_gamma 90.000000
_cell_volume 2470.077636
_symmetry_space_group_name_H-M "C 2/C"
_symmetry_group_IT_number 15
_symmetry_cell_setting 'monoclinic'
loop_
_space_group_symop_operation_xyz
x,y,z
-x,y,1/2-z
-x,-y,-z
x,-y,1/2+z
1/2+x,1/2+y,z
1/2-x,1/2+y,1/2-z
1/2-x,1/2-y,-z
1/2+x,1/2-y,1/2+z
loop_
_atom_site_type_symbol
_atom_site_label
_atom_site_fract_x
_atom_site_fract_y
_atom_site_fract_z
Si Si1 0.319785 0.635895 0.206895
Si Si2 0.379413 0.742672 0.673296
Si Si3 0.138488 0.447864 0.773352
Si Si4 0.997712 0.141649 0.938681
Si Si5 0.993712 0.917397 0.614420
Si Si6 0.237746 0.844853 0.203647
O O1 0.187252 0.592058 0.194462
O O2 0.400192 0.593521 0.298451
O O3 0.367761 0.601946 0.129334
O O4 0.328876 0.755404 0.208759
O O5 0.500000 0.754795 0.750000
O O6 0.325313 0.855458 0.657543
O O7 0.400166 0.704608 0.585058
O O8 0.301073 0.662819 0.708034
O O9 0.204339 0.550484 0.808632
O O10 0.000000 0.470025 0.750000
O O11 0.870093 0.177810 0.881278
O O12 0.010766 0.156443 0.039991
O O13 0.012890 0.028388 0.917942
#
# Coordination Sequence:
#
# PCOD8133376 Si02
#       6
#     8   8   8   8   8   8
#     4  10  21  37  57  85 109 147 191 231 279 332
#     4   8  17  32  55  82 104 146 185 223 273 329
#     4  10  19  33  54  80 112 145 190 223 267 341
#     4  10  19  36  61  85 110 147 185 237 284 324
#     4  10  21  35  61  87 112 138 194 240 277 327
#     4  10  19  33  58  82 112 149 184 228 284 330
#
# _framework density 19.432587999999999
#
# number of rings (size 3 to 8) (size 9 to 14) (size 15 to 20)
#    0.000    2.333    1.667    2.000    7.000    0.667 
#    0.000    3.333    3.667    2.000    0.000    0.000 
#    0.000    0.000    0.000    0.000    0.000    0.000 
#
# Total GULP energy -297334.177173 kJ/mol
# GULP energy per Si atom -12388.924049 kJ/mol
# Density = 1.938836 g / cm^3
# Si number density = 19.432588 Si / 1000 Ang^3
#
#
#
# Elastic Constant Matrix: (Units=GPa)
#
#
# Indices 1 2 3 4 5 6 
#
# 1 104.9577 29.4982 34.2624 0.0000 -20.0505 0.0000
# 2 29.4982 93.8214 20.2729 0.0000 -5.9135 0.0000
# 3 34.2624 20.2729 81.2672 0.0000 -30.3048 0.0000
# 4 0.0000 0.0000 0.0000 18.4285 0.0000 -6.6706
# 5 -20.0505 -5.9135 -30.3048 0.0000 18.3495 0.0000
# 6 0.0000 0.0000 0.0000 -6.6706 0.0000 28.2548
#
#
#
# Elastic Compliance Matrix: (Units=1/GPa)
#
#
# Indices 1 2 3 4 5 6 
#
# 1 0.012953 -0.003320 0.000641 0.000000 0.014142 0.000000
# 2 -0.003320 0.012166 -0.003972 0.000000 -0.006267 0.000000
# 3 0.000641 -0.003972 0.033346 0.000000 0.054492 0.000000
# 4 0.000000 0.000000 0.000000 0.059334 0.000000 0.014008
# 5 0.014142 -0.006267 0.054492 0.000000 0.157926 0.000000
# 6 0.000000 0.000000 0.000000 0.014008 0.000000 0.038699
#
#
# Mechanical properties :
#
#
# Convention : Reuss Voigt Hill
#
# Bulk Modulus (GPa) = 22.14227 49.79037 35.96632
# Shear Modulus (GPa) = 14.58656 26.07408 20.33032
#
# Velocity S-wave (km/s) = 2.74272 3.66699 3.23801
# Velocity P-wave (km/s) = 4.63133 6.60355 5.70333
#
# Compressibility (1/GPa) = 0.04516249
#
# Stress axis : x y z
#
# Youngs Moduli (GPa) = 77.20154 82.19902 29.98840
#
# Poissons Ratio (x) = 0.27287 -0.01921
# Poissons Ratio (y) = 0.25628 0.11912
# Poissons Ratio (z) = -0.04947 0.32652
#
# Static dielectric constant tensor:
#      x y z
#    x 3.885300 0.000000 -0.359890 
#    y 0.000000 3.681500 0.000000 
#    z -0.359890 0.000000 3.452340 
# 
# 
# High freq. dielectric constant tensor:
#      x y z
#    x 1.768050 0.000000 -0.024840 
#    y 0.000000 1.766100 0.000000 
#    z -0.024840 0.000000 1.706600 
# 
# From -- ./inp_files/143805.got.cif
#   From: 2010.06.25/outbox.cif.g09.slc.cpg/sg15_72_cif.got.tgz:143805.got - 2010.06.28 07:06:18.
