data_PCOD8133923
_publ_section_title
;
Structure prediction by ZEFSAII (Michael W. Deem and Ramdas Pophale) SiO2 
 PCOD8133923
Probable space group: C 2/C
;
_chemical_formula_sum "Si O2"
_cell_formula_units_Z 64
_cell_length_a 13.780372
_cell_length_b 13.460972
_cell_length_c 25.452061
_cell_angle_alpha 90.000000
_cell_angle_beta 45.883312
_cell_angle_gamma 90.000000
_cell_volume 3389.522591
_symmetry_space_group_name_H-M "C 2/C"
_symmetry_group_IT_number 15
_symmetry_cell_setting 'monoclinic'
loop_
_space_group_symop_operation_xyz
x,y,z
-x,y,1/2-z
-x,-y,-z
x,-y,1/2+z
1/2+x,1/2+y,z
1/2-x,1/2+y,1/2-z
1/2-x,1/2-y,-z
1/2+x,1/2-y,1/2+z
loop_
_atom_site_type_symbol
_atom_site_label
_atom_site_fract_x
_atom_site_fract_y
_atom_site_fract_z
Si Si1 0.855167 0.097259 0.784245
Si Si2 0.850393 0.474282 0.285316
Si Si3 0.008734 0.841923 0.472417
Si Si4 0.685093 0.700701 0.809476
Si Si5 0.741623 0.779242 0.422192
Si Si6 0.689739 0.484737 0.447132
Si Si7 0.632890 0.892067 0.557927
Si Si8 0.171792 0.421209 0.813832
O O1 0.871384 0.159206 0.724452
O O2 0.797597 0.173300 0.848537
O O3 0.000000 0.058668 0.750000
O O4 0.759703 0.000712 0.813277
O O5 0.810643 0.364545 0.281114
O O6 0.745544 0.513481 0.368295
O O7 0.844386 0.550794 0.240381
O O8 0.000000 0.467540 0.250000
O O9 0.060180 0.800979 0.397314
O O10 0.906721 0.763846 0.536582
O O11 0.931154 0.944009 0.489081
O O12 0.132594 0.870988 0.465549
O O13 0.741636 0.813013 0.786083
O O14 0.719210 0.863769 0.474281
O O15 0.840649 0.692358 0.406973
O O16 0.810734 0.500646 0.443149
O O17 0.476076 0.908964 0.604283
#
# Coordination Sequence:
#
# PCOD8133923 Si02
#       8
#     8   8   8   8   8   8   8   8
#     4  11  26  40  57  84 119 155 189 236 288 343
#     4  10  20  35  57  87 112 146 192 239 284 336
#     4   9  18  35  55  85 110 147 184 234 284 326
#     4  10  22  39  59  81 117 150 192 238 280 345
#     4  10  21  37  59  85 113 148 190 236 285 335
#     4   9  18  31  57  83 114 141 185 235 283 328
#     4  10  19  34  60  86 110 146 188 240 279 332
#     4  11  22  38  57  86 115 150 194 233 285 342
#
# _framework density 18.881715
#
# number of rings (size 3 to 8) (size 9 to 14) (size 15 to 20)
#    0.000    2.000    2.500    0.750    7.000    1.500 
#    0.000    0.000    0.000    0.750    0.000    0.000 
#    0.000    0.000    0.000    0.000    0.000    0.000 
#
# Total GULP energy -396602.002969 kJ/mol
# GULP energy per Si atom -12393.812593 kJ/mol
# Density = 1.883874 g / cm^3
# Si number density = 18.881715 Si / 1000 Ang^3
#
#
#
# Elastic Constant Matrix: (Units=GPa)
#
#
# Indices 1 2 3 4 5 6 
#
# 1 96.8190 59.1592 43.8159 0.0000 -3.3749 0.0000
# 2 59.1592 98.2048 40.5532 0.0000 -4.8998 0.0000
# 3 43.8159 40.5532 82.3878 0.0000 -9.9903 0.0000
# 4 0.0000 0.0000 0.0000 27.7186 0.0000 -1.3591
# 5 -3.3749 -4.8998 -9.9903 0.0000 20.1773 0.0000
# 6 0.0000 0.0000 0.0000 -1.3591 0.0000 27.8166
#
#
#
# Elastic Compliance Matrix: (Units=1/GPa)
#
#
# Indices 1 2 3 4 5 6 
#
# 1 0.018097 -0.008694 -0.005568 0.000000 -0.001841 0.000000
# 2 -0.008694 0.016957 -0.003617 0.000000 0.000873 0.000000
# 3 -0.005568 -0.003617 0.017724 0.000000 0.006966 0.000000
# 4 0.000000 0.000000 0.000000 0.036164 0.000000 0.001767
# 5 -0.001841 0.000873 0.006966 0.000000 0.052913 0.000000
# 6 0.000000 0.000000 0.000000 0.001767 0.000000 0.036036
#
#
# Mechanical properties :
#
#
# Convention : Reuss Voigt Hill
#
# Bulk Modulus (GPa) = 58.75676 62.71870 60.73773
# Shear Modulus (GPa) = 22.79741 24.06805 23.43273
#
# Velocity S-wave (km/s) = 3.47851 3.57413 3.52664
# Velocity P-wave (km/s) = 6.87890 7.09375 6.98715
#
# Compressibility (1/GPa) = 0.01701932
#
# Stress axis : x y z
#
# Youngs Moduli (GPa) = 55.25924 58.97114 56.42014
#
# Poissons Ratio (x) = 0.51270 0.31415
# Poissons Ratio (y) = 0.48043 0.20409
# Poissons Ratio (z) = 0.30769 0.21332
#
# Static dielectric constant tensor:
#      x y z
#    x 3.600010 0.000000 -0.087810 
#    y 0.000000 3.556890 0.000000 
#    z -0.087810 0.000000 3.493670 
# 
# 
# High freq. dielectric constant tensor:
#      x y z
#    x 1.722070 0.000000 -0.009350 
#    y 0.000000 1.721680 0.000000 
#    z -0.009350 0.000000 1.739770 
# 
# From -- ./inp_files/274310.got.cif
#   From: 2010.06.25/outbox.cif.g09.slc.cpg/sg15_138_cif.got.tgz:274310.got - 2010.06.28 07:06:18.
