data_PCOD8133665
_publ_section_title
;
Structure prediction by ZEFSAII (Michael W. Deem and Ramdas Pophale) SiO2 
 PCOD8133665
Probable space group: C 2/C
;
_chemical_formula_sum "Si O2"
_cell_formula_units_Z 64
_cell_length_a 26.213490
_cell_length_b 12.641922
_cell_length_c 21.106709
_cell_angle_alpha 90.000000
_cell_angle_beta 148.492826
_cell_angle_gamma 90.000000
_cell_volume 3655.378060
_symmetry_space_group_name_H-M "C 2/C"
_symmetry_group_IT_number 15
_symmetry_cell_setting 'monoclinic'
loop_
_space_group_symop_operation_xyz
x,y,z
-x,y,1/2-z
-x,-y,-z
x,-y,1/2+z
1/2+x,1/2+y,z
1/2-x,1/2+y,1/2-z
1/2-x,1/2-y,-z
1/2+x,1/2-y,1/2+z
loop_
_atom_site_type_symbol
_atom_site_label
_atom_site_fract_x
_atom_site_fract_y
_atom_site_fract_z
Si Si1 0.454070 0.077547 0.399087
Si Si2 0.296803 0.716919 0.114489
Si Si3 0.422830 0.866366 0.322061
Si Si4 0.383473 0.224600 0.918802
Si Si5 0.338022 0.723996 0.812455
Si Si6 0.387273 0.753844 0.002841
Si Si7 0.982462 0.076056 0.302544
Si Si8 0.497221 0.424670 0.436607
O O1 0.542319 0.148378 0.463320
O O2 0.369417 0.154049 0.335368
O O3 0.500000 0.000000 0.500000
O O4 0.405182 0.993369 0.299562
O O5 0.354938 0.821488 0.195835
O O6 0.371265 0.618280 0.191346
O O7 0.250000 0.750000 0.000000
O O8 0.208603 0.691952 0.069151
O O9 0.396411 0.804534 0.358746
O O10 0.537167 0.847757 0.430353
O O11 0.273754 0.207223 0.825447
O O12 0.410126 0.346863 0.959071
O O13 0.398631 0.644488 0.832840
O O14 0.356402 0.694917 0.905321
O O15 0.438208 0.668586 0.102843
O O16 0.000000 0.031596 0.250000
O O17 0.000317 0.985159 0.373144
O O18 0.500000 0.500000 0.500000
#
# Coordination Sequence:
#
# PCOD8133665 Si02
#       8
#     8   8   8   8   8   8   8   8
#     4   9  18  33  47  77 110 141 175 211 279 337
#     4  11  22  35  54  81 110 143 184 223 271 336
#     4  10  19  34  54  78 111 149 171 222 282 334
#     4  10  20  33  51  82 115 139 177 229 276 323
#     4  11  20  33  55  84 114 144 178 237 277 322
#     4  11  19  34  54  79 117 145 175 226 277 329
#     4  11  23  39  56  81 115 155 183 225 284 337
#     4  11  21  36  54  85 115 143 190 233 278 332
#
# _framework density 17.50845
#
# number of rings (size 3 to 8) (size 9 to 14) (size 15 to 20)
#    0.000    1.500    7.500    0.750    0.000    4.000 
#    0.000    0.000    0.000    0.750   13.000    0.000 
#    0.000    0.000    0.000    0.000    0.000    0.000 
#
# Total GULP energy -396610.533830 kJ/mol
# GULP energy per Si atom -12394.079182 kJ/mol
# Density = 1.746860 g / cm^3
# Si number density = 17.508450 Si / 1000 Ang^3
#
#
#
# Elastic Constant Matrix: (Units=GPa)
#
#
# Indices 1 2 3 4 5 6 
#
# 1 91.9705 36.6793 40.6443 0.0000 10.5909 0.0000
# 2 36.6793 99.8803 35.8055 0.0000 -4.5413 0.0000
# 3 40.6443 35.8055 87.9714 0.0000 12.2637 0.0000
# 4 0.0000 0.0000 0.0000 20.9974 0.0000 -1.8301
# 5 10.5909 -4.5413 12.2637 0.0000 41.8431 0.0000
# 6 0.0000 0.0000 0.0000 -1.8301 0.0000 19.3560
#
#
#
# Elastic Compliance Matrix: (Units=1/GPa)
#
#
# Indices 1 2 3 4 5 6 
#
# 1 0.014898 -0.003822 -0.004946 0.000000 -0.002736 0.000000
# 2 -0.003822 0.013023 -0.004031 0.000000 0.003562 0.000000
# 3 -0.004946 -0.004031 0.015826 0.000000 -0.003824 0.000000
# 4 0.000000 0.000000 0.000000 0.048021 0.000000 0.004540
# 5 -0.002736 0.003562 -0.003824 0.000000 0.026099 0.000000
# 6 0.000000 0.000000 0.000000 0.004540 0.000000 0.052093
#
#
# Mechanical properties :
#
#
# Convention : Reuss Voigt Hill
#
# Bulk Modulus (GPa) = 55.10153 56.23115 55.66634
# Shear Modulus (GPa) = 24.80058 27.55219 26.17638
#
# Velocity S-wave (km/s) = 3.76771 3.97123 3.87081
# Velocity P-wave (km/s) = 7.10403 7.29478 7.20004
#
# Compressibility (1/GPa) = 0.01814832
#
# Stress axis : x y z
#
# Youngs Moduli (GPa) = 67.12120 76.78876 63.18613
#
# Poissons Ratio (x) = 0.29352 0.31252
# Poissons Ratio (y) = 0.25657 0.25470
# Poissons Ratio (z) = 0.33199 0.30953
#
# Static dielectric constant tensor:
#      x y z
#    x 3.799070 0.000000 0.824830 
#    y 0.000000 -2.756880 0.000000 
#    z 0.824830 0.000000 4.204030 
# 
# 
# High freq. dielectric constant tensor:
#      x y z
#    x 1.657420 0.000000 0.021420 
#    y 0.000000 1.669290 0.000000 
#    z 0.021420 0.000000 1.677840 
# 
# From -- ./inp_files/257536.got.cif
#   From: 2010.06.25/outbox.cif.g09.slc.cpg/sg15_129_cif.got.tgz:257536.got - 2010.06.28 07:06:18.
