data_PCOD8133767
_publ_section_title
;
Structure prediction by ZEFSAII (Michael W. Deem and Ramdas Pophale) SiO2 
 PCOD8133767
Probable space group: C 2/C
;
_chemical_formula_sum "Si O2"
_cell_formula_units_Z 64
_cell_length_a 30.567843
_cell_length_b 20.626832
_cell_length_c 14.341370
_cell_angle_alpha 90.000000
_cell_angle_beta 157.541167
_cell_angle_gamma 90.000000
_cell_volume 3454.407182
_symmetry_space_group_name_H-M "C 2/C"
_symmetry_group_IT_number 15
_symmetry_cell_setting 'monoclinic'
loop_
_space_group_symop_operation_xyz
x,y,z
-x,y,1/2-z
-x,-y,-z
x,-y,1/2+z
1/2+x,1/2+y,z
1/2-x,1/2+y,1/2-z
1/2-x,1/2-y,-z
1/2+x,1/2-y,1/2+z
loop_
_atom_site_type_symbol
_atom_site_label
_atom_site_fract_x
_atom_site_fract_y
_atom_site_fract_z
Si Si1 0.502498 0.612929 0.142638
Si Si2 0.331912 0.434596 0.674375
Si Si3 0.249230 0.803126 0.921543
Si Si4 0.647283 0.198745 0.292571
Si Si5 0.969608 0.092659 0.793041
Si Si6 0.297005 0.424781 0.105600
Si Si7 0.018084 0.741671 0.679487
Si Si8 0.987808 0.236751 0.625335
O O1 0.500000 0.604796 0.250000
O O2 0.604837 0.568694 0.302385
O O3 0.529027 0.686012 0.157282
O O4 0.382176 0.594164 0.857872
O O5 0.250502 0.373540 0.530366
O O6 0.257595 0.500350 0.542125
O O7 0.428409 0.432353 0.942854
O O8 0.143640 0.784143 0.648030
O O9 0.250000 0.750000 0.000000
O O10 0.367498 0.800420 0.099400
O O11 0.750000 0.250000 0.500000
O O12 0.691562 0.125770 0.398587
O O13 0.543851 0.215404 0.160226
O O14 0.588843 0.203263 0.075991
O O15 0.853216 0.069939 0.613294
O O16 0.000000 0.064917 0.750000
O O17 0.944796 0.169321 0.740931
O O18 0.000000 0.755692 0.750000
O O19 0.000000 0.271382 0.750000
#
# Coordination Sequence:
#
# PCOD8133767 Si02
#       8
#     8   8   8   8   8   8   8   8
#     4  10  19  34  56  87 117 146 187 241 298 340
#     4  10  21  35  53  82 114 153 191 229 287 344
#     4  11  20  40  61  79 114 150 192 237 279 338
#     4  12  21  38  57  84 121 149 190 237 284 337
#     4   9  17  32  56  83 112 145 188 239 293 341
#     4  11  22  34  54  83 119 153 186 236 290 342
#     4  11  23  37  62  90 112 148 193 244 289 331
#     4  10  21  34  60  90 111 150 190 236 287 336
#
# _framework density 18.527056999999999
#
# number of rings (size 3 to 8) (size 9 to 14) (size 15 to 20)
#    0.000    1.500    5.000    2.250    1.750    3.000 
#    0.000    0.625    0.000    0.750    0.000    0.000 
#    0.000    0.000    0.000    0.000    0.000    0.000 
#
# Total GULP energy -396500.403292 kJ/mol
# GULP energy per Si atom -12390.637603 kJ/mol
# Density = 1.848489 g / cm^3
# Si number density = 18.527057 Si / 1000 Ang^3
#
#
#
# Elastic Constant Matrix: (Units=GPa)
#
#
# Indices 1 2 3 4 5 6 
#
# 1 87.1631 26.6861 25.9997 0.0000 -12.9000 0.0000
# 2 26.6861 138.9375 45.9073 0.0000 2.8774 0.0000
# 3 25.9997 45.9073 80.0539 0.0000 2.1658 0.0000
# 4 0.0000 0.0000 0.0000 24.4934 0.0000 1.5237
# 5 -12.9000 2.8774 2.1658 0.0000 25.2485 0.0000
# 6 0.0000 0.0000 0.0000 1.5237 0.0000 9.4366
#
#
#
# Elastic Compliance Matrix: (Units=1/GPa)
#
#
# Indices 1 2 3 4 5 6 
#
# 1 0.014296 -0.001609 -0.003932 0.000000 0.007825 0.000000
# 2 -0.001609 0.009069 -0.004639 0.000000 -0.001458 0.000000
# 3 -0.003932 -0.004639 0.016507 0.000000 -0.002896 0.000000
# 4 0.000000 0.000000 0.000000 0.041242 0.000000 -0.006659
# 5 0.007825 -0.001458 -0.002896 0.000000 0.044019 0.000000
# 6 0.000000 0.000000 0.000000 -0.006659 0.000000 0.107046
#
#
# Mechanical properties :
#
#
# Convention : Reuss Voigt Hill
#
# Bulk Modulus (GPa) = 51.24772 55.92675 53.58723
# Shear Modulus (GPa) = 19.30178 25.67313 22.48745
#
# Velocity S-wave (km/s) = 3.23122 3.72655 3.48769
# Velocity P-wave (km/s) = 6.45307 6.98343 6.72348
#
# Compressibility (1/GPa) = 0.01951306
#
# Stress axis : x y z
#
# Youngs Moduli (GPa) = 69.94819 110.26009 60.57906
#
# Poissons Ratio (x) = 0.17737 0.23822
# Poissons Ratio (y) = 0.11252 0.28103
# Poissons Ratio (z) = 0.27506 0.51150
#
# Static dielectric constant tensor:
#      x y z
#    x 3.273680 0.000000 -0.385330 
#    y 0.000000 3.197580 0.000000 
#    z -0.385330 0.000000 2.776410 
# 
# 
# High freq. dielectric constant tensor:
#      x y z
#    x 1.724050 0.000000 -0.009920 
#    y 0.000000 1.715080 0.000000 
#    z -0.009920 0.000000 1.690590 
# 
# From -- ./inp_files/183172.got.cif
#   From: 2010.06.25/outbox.cif.g09.slc.cpg/sg15_92_cif.got.tgz:183172.got - 2010.06.28 07:06:18.
