data_PCOD8133780
_publ_section_title
;
Structure prediction by ZEFSAII (Michael W. Deem and Ramdas Pophale) SiO2 
 PCOD8133780
Probable space group: C 2/C
;
_chemical_formula_sum "Si O2"
_cell_formula_units_Z 52
_cell_length_a 24.686906
_cell_length_b 8.008312
_cell_length_c 13.737342
_cell_angle_alpha 90.000000
_cell_angle_beta 101.240994
_cell_angle_gamma 90.000000
_cell_volume 2663.777038
_symmetry_space_group_name_H-M "C 2/C"
_symmetry_group_IT_number 15
_symmetry_cell_setting 'monoclinic'
loop_
_space_group_symop_operation_xyz
x,y,z
-x,y,1/2-z
-x,-y,-z
x,-y,1/2+z
1/2+x,1/2+y,z
1/2-x,1/2+y,1/2-z
1/2-x,1/2-y,-z
1/2+x,1/2-y,1/2+z
loop_
_atom_site_type_symbol
_atom_site_label
_atom_site_fract_x
_atom_site_fract_y
_atom_site_fract_z
Si Si1 0.110677 0.398334 0.785229
Si Si2 0.828638 0.479612 0.891465
Si Si3 0.719696 0.394754 0.930745
Si Si4 0.000000 0.778897 0.250000
Si Si5 0.046677 0.993086 0.438070
Si Si6 0.655121 0.695723 0.977713
Si Si7 0.615744 0.208873 0.915279
O O1 0.146850 0.457943 0.706853
O O2 0.145171 0.270348 0.865342
O O3 0.095472 0.556933 0.844349
O O4 0.051678 0.329090 0.728458
O O5 0.762733 0.442783 0.860549
O O6 0.833523 0.665545 0.936900
O O7 0.859270 0.349494 0.972933
O O8 0.705827 0.562666 0.989109
O O9 0.661715 0.318919 0.872341
O O10 0.750000 0.250000 0.000000
O O11 0.021983 0.895004 0.340756
O O12 0.061577 0.181412 0.413636
O O13 0.100915 0.900070 0.497173
O O14 0.000000 0.000000 0.500000
#
# Coordination Sequence:
#
# PCOD8133780 Si02
#       7
#     8   8   8   4   8   8   8
#     4  10  21  36  53  78 110 141 178 223 271 321
#     4  10  19  34  57  78 103 144 177 211 270 328
#     4   9  18  35  56  79 109 142 176 220 267 317
#     4  10  22  36  52  78 108 138 176 226 272 318
#     4  10  20  36  56  76 103 141 178 218 268 321
#     4   9  20  36  53  80 113 137 176 229 266 311
#     4   9  20  36  52  78 108 133 176 227 260 311
#
# _framework density 19.521155
#
# number of rings (size 3 to 8) (size 9 to 14) (size 15 to 20)
#    0.000    2.462    0.000    1.385    0.000    4.308 
#    0.000   12.308    0.000    0.000    0.000    0.000 
#    0.000    0.000    0.000    0.000    0.000    0.000 
#
# Total GULP energy -322235.741326 kJ/mol
# GULP energy per Si atom -12393.682359 kJ/mol
# Density = 1.947672 g / cm^3
# Si number density = 19.521155 Si / 1000 Ang^3
#
#
#
# Elastic Constant Matrix: (Units=GPa)
#
#
# Indices 1 2 3 4 5 6 
#
# 1 131.5038 56.3280 38.9853 0.0000 -22.8755 0.0000
# 2 56.3280 128.3787 29.7589 0.0000 -4.3778 0.0000
# 3 38.9853 29.7589 56.3933 0.0000 -16.0386 0.0000
# 4 0.0000 0.0000 0.0000 12.2025 0.0000 1.3991
# 5 -22.8755 -4.3778 -16.0386 0.0000 25.0638 0.0000
# 6 0.0000 0.0000 0.0000 1.3991 0.0000 43.8323
#
#
#
# Elastic Compliance Matrix: (Units=1/GPa)
#
#
# Indices 1 2 3 4 5 6 
#
# 1 0.011793 -0.004017 -0.003877 0.000000 0.007581 0.000000
# 2 -0.004017 0.010308 -0.003904 0.000000 -0.004364 0.000000
# 3 -0.003877 -0.003904 0.026005 0.000000 0.012421 0.000000
# 4 0.000000 0.000000 0.000000 0.082252 0.000000 -0.002625
# 5 0.007581 -0.004364 0.012421 0.000000 0.054003 0.000000
# 6 0.000000 0.000000 0.000000 -0.002625 0.000000 0.022898
#
#
# Mechanical properties :
#
#
# Convention : Reuss Voigt Hill
#
# Bulk Modulus (GPa) = 40.79752 62.93557 51.86654
# Shear Modulus (GPa) = 20.91832 28.96662 24.94247
#
# Velocity S-wave (km/s) = 3.27704 3.85627 3.57839
# Velocity P-wave (km/s) = 5.93828 7.22062 6.61062
#
# Compressibility (1/GPa) = 0.02451130
#
# Stress axis : x y z
#
# Youngs Moduli (GPa) = 84.79543 97.01075 38.45389
#
# Poissons Ratio (x) = 0.38971 0.14907
# Poissons Ratio (y) = 0.34064 0.15011
# Poissons Ratio (z) = 0.32873 0.37869
#
# Static dielectric constant tensor:
#      x y z
#    x 6.802340 0.000000 -0.370330 
#    y 0.000000 3.805740 0.000000 
#    z -0.370330 0.000000 3.210760 
# 
# 
# High freq. dielectric constant tensor:
#      x y z
#    x 1.776770 0.000000 -0.003810 
#    y 0.000000 1.782680 0.000000 
#    z -0.003810 0.000000 1.720920 
# 
# From -- ./inp_files/121558.got.cif
#   From: 2010.06.25/outbox.cif.g09.slc.cpg/sg15_61_cif.got.tgz:121558.got - 2010.06.28 07:06:18.
