data_PCOD8133627
_publ_section_title
;
Structure prediction by ZEFSAII (Michael W. Deem and Ramdas Pophale) SiO2 
 PCOD8133627
Probable space group: C 2/C
;
_chemical_formula_sum "Si O2"
_cell_formula_units_Z 64
_cell_length_a 19.545445
_cell_length_b 20.823152
_cell_length_c 8.723719
_cell_angle_alpha 90.000000
_cell_angle_beta 90.000047
_cell_angle_gamma 90.000000
_cell_volume 3550.534198
_symmetry_space_group_name_H-M "C 2/C"
_symmetry_group_IT_number 15
_symmetry_cell_setting 'monoclinic'
loop_
_space_group_symop_operation_xyz
x,y,z
-x,y,1/2-z
-x,-y,-z
x,-y,1/2+z
1/2+x,1/2+y,z
1/2-x,1/2+y,1/2-z
1/2-x,1/2-y,-z
1/2+x,1/2-y,1/2+z
loop_
_atom_site_type_symbol
_atom_site_label
_atom_site_fract_x
_atom_site_fract_y
_atom_site_fract_z
Si Si1 0.930215 0.124681 0.818628
Si Si2 0.789164 0.933525 0.679809
Si Si3 0.429393 0.764360 0.681524
Si Si4 0.569785 0.624677 0.318625
Si Si5 0.429393 0.764355 0.318480
Si Si6 0.204722 0.310977 0.681341
Si Si7 0.704721 0.810974 0.318658
Si Si8 0.710836 0.566479 0.679821
O O1 0.915420 0.193877 0.747478
O O2 0.867978 0.078329 0.772419
O O3 0.000000 0.094821 0.750000
O O4 0.936813 0.133064 0.000002
O O5 0.867978 0.921676 0.727575
O O6 0.742654 0.875074 0.739471
O O7 0.782195 0.938292 0.499994
O O8 0.762829 0.000003 0.749989
O O9 0.500000 0.792374 0.750000
O O10 0.434882 0.761280 0.500002
O O11 0.367788 0.810234 0.733032
O O12 0.500000 0.594815 0.250000
O O13 0.584581 0.693870 0.247462
O O14 0.500000 0.792368 0.250000
O O15 0.367789 0.810229 0.266966
O O16 0.250001 0.250002 0.730991
O O17 0.192511 0.310637 0.499999
O O18 0.742654 0.875069 0.260522
#
# Coordination Sequence:
#
# PCOD8133627 Si02
#       8
#     8   8   8   8   8   8   8   8
#     4  10  19  34  52  76 108 148 186 222 269 318
#     4  10  22  37  55  77 109 148 182 224 273 323
#     4  11  21  33  54  84 112 141 179 227 274 322
#     4  10  19  34  52  76 108 148 186 222 269 318
#     4  11  21  33  54  84 112 141 179 227 274 322
#     4  10  19  37  59  79 109 145 182 224 274 323
#     4  10  19  37  59  79 109 145 182 224 274 323
#     4  10  22  37  55  77 109 148 182 224 273 323
#
# _framework density 18.025456999999999
#
# number of rings (size 3 to 8) (size 9 to 14) (size 15 to 20)
#    0.000    1.750    2.500    4.500    0.000    4.000 
#    0.000    2.500    0.000    0.750    0.000    5.250 
#    0.000    0.000    0.000    0.000    0.000    0.000 
#
# Total GULP energy -396859.247161 kJ/mol
# GULP energy per Si atom -12401.851474 kJ/mol
# Density = 1.798443 g / cm^3
# Si number density = 18.025457 Si / 1000 Ang^3
#
#
#
# Elastic Constant Matrix: (Units=GPa)
#
#
# Indices 1 2 3 4 5 6 
#
# 1 127.4579 66.2484 48.7288 0.0000 -0.0016 0.0000
# 2 66.2484 117.5240 31.4322 0.0000 -0.0019 0.0000
# 3 48.7288 31.4322 80.8285 0.0000 -0.0015 0.0000
# 4 0.0000 0.0000 0.0000 24.0908 0.0000 0.0014
# 5 -0.0016 -0.0019 -0.0015 0.0000 33.0508 0.0000
# 6 0.0000 0.0000 0.0000 0.0014 0.0000 24.0033
#
#
#
# Elastic Compliance Matrix: (Units=1/GPa)
#
#
# Indices 1 2 3 4 5 6 
#
# 1 0.013015 -0.005846 -0.005573 0.000000 0.000000 0.000000
# 2 -0.005846 0.012123 -0.001190 0.000000 0.000000 0.000000
# 3 -0.005573 -0.001190 0.016194 0.000000 0.000000 0.000000
# 4 0.000000 0.000000 0.000000 0.041510 0.000000 -0.000002
# 5 0.000000 0.000000 0.000000 0.000000 0.030256 0.000000
# 6 0.000000 0.000000 0.000000 -0.000002 0.000000 0.041661
#
#
# Mechanical properties :
#
#
# Convention : Reuss Voigt Hill
#
# Bulk Modulus (GPa) = 62.05657 68.73655 65.39656
# Shear Modulus (GPa) = 26.97638 28.18905 27.58271
#
# Velocity S-wave (km/s) = 3.87275 3.95884 3.91603
# Velocity P-wave (km/s) = 7.38238 7.68846 7.53697
#
# Compressibility (1/GPa) = 0.01611433
#
# Stress axis : x y z
#
# Youngs Moduli (GPa) = 76.83519 82.49112 61.75034
#
# Poissons Ratio (x) = 0.48224 0.34413
# Poissons Ratio (y) = 0.44918 0.07347
# Poissons Ratio (z) = 0.42819 0.09815
#
# Static dielectric constant tensor:
#      x y z
#    x 3.597830 0.000000 0.000000 
#    y 0.000000 3.320220 0.000000 
#    z 0.000000 0.000000 3.264370 
# 
# 
# High freq. dielectric constant tensor:
#      x y z
#    x 1.706050 0.000000 0.000000 
#    y 0.000000 1.670750 0.000000 
#    z 0.000000 0.000000 1.700440 
# 
# From -- ./inp_files/50251.got.cif
#   From: 2010.06.25/outbox.cif.g09.slc.cpg/sg15_26_cif.got.tgz:50251.got - 2010.06.28 07:06:18.
