data_PCOD8133347
_publ_section_title
;
Structure prediction by ZEFSAII (Michael W. Deem and Ramdas Pophale) SiO2 
 PCOD8133347
Probable space group: C 2/C
;
_chemical_formula_sum "Si O2"
_cell_formula_units_Z 64
_cell_length_a 29.641175
_cell_length_b 12.218481
_cell_length_c 20.141862
_cell_angle_alpha 90.000000
_cell_angle_beta 27.560584
_cell_angle_gamma 90.000000
_cell_volume 3375.194954
_symmetry_space_group_name_H-M "C 2/C"
_symmetry_group_IT_number 15
_symmetry_cell_setting 'monoclinic'
loop_
_space_group_symop_operation_xyz
x,y,z
-x,y,1/2-z
-x,-y,-z
x,-y,1/2+z
1/2+x,1/2+y,z
1/2-x,1/2+y,1/2-z
1/2-x,1/2-y,-z
1/2+x,1/2-y,1/2+z
loop_
_atom_site_type_symbol
_atom_site_label
_atom_site_fract_x
_atom_site_fract_y
_atom_site_fract_z
Si Si1 0.102284 0.274340 0.166285
Si Si2 0.653358 0.508831 0.768517
Si Si3 0.515426 0.338880 0.517725
Si Si4 0.636872 0.709278 0.978172
Si Si5 0.777116 0.523795 0.838237
Si Si6 0.692421 0.924871 0.834086
Si Si7 0.714696 0.569384 0.055987
Si Si8 0.516827 0.890550 0.398949
O O1 0.125938 0.155106 0.165582
O O2 0.023257 0.331343 0.318146
O O3 0.075717 0.256006 0.122493
O O4 0.192209 0.357507 0.048861
O O5 0.592863 0.618318 0.862238
O O6 0.743835 0.499999 0.700935
O O7 0.694893 0.517009 0.640065
O O8 0.585769 0.401428 0.861796
O O9 0.562460 0.361248 0.529911
O O10 0.498077 0.209478 0.529077
O O11 0.728705 0.639806 0.883054
O O12 0.687692 0.801045 0.865926
O O13 0.761103 0.434329 0.801126
O O14 0.892468 0.537331 0.698476
O O15 0.728923 0.493153 0.971845
O O16 0.579667 0.967459 0.977415
#
# Coordination Sequence:
#
# PCOD8133347 Si02
#       8
#     8   8   8   8   8   8   8   8
#     4   9  16  31  51  81 109 135 168 210 289 323
#     4  11  19  36  48  76 108 143 179 211 259 320
#     4  10  21  31  52  74 106 142 178 211 255 318
#     4  10  19  33  53  82 108 142 171 222 260 321
#     4  10  20  37  53  81 111 139 179 218 269 316
#     4  11  21  32  54  77 112 141 179 215 264 321
#     4   9  17  31  54  74 111 141 164 224 268 320
#     4  10  20  34  53  81 107 142 171 219 268 321
#
# _framework density 18.961867000000002
#
# number of rings (size 3 to 8) (size 9 to 14) (size 15 to 20)
#    0.000    2.000    3.750    1.875    0.000    2.000 
#    0.000    0.000    0.000    3.000    0.000    0.000 
#    0.000    0.000    0.000    0.000    0.000    0.000 
#
# Total GULP energy -396493.601503 kJ/mol
# GULP energy per Si atom -12390.425047 kJ/mol
# Density = 1.891871 g / cm^3
# Si number density = 18.961867 Si / 1000 Ang^3
#
#
#
# Elastic Constant Matrix: (Units=GPa)
#
#
# Indices 1 2 3 4 5 6 
#
# 1 88.9677 16.5498 41.0758 0.0000 24.4665 0.0000
# 2 16.5498 37.1876 33.7033 0.0000 16.2056 0.0000
# 3 41.0758 33.7033 112.0030 0.0000 29.2592 0.0000
# 4 0.0000 0.0000 0.0000 29.5989 0.0000 10.2960
# 5 24.4665 16.2056 29.2592 0.0000 40.3078 0.0000
# 6 0.0000 0.0000 0.0000 10.2960 0.0000 25.8420
#
#
#
# Elastic Compliance Matrix: (Units=1/GPa)
#
#
# Indices 1 2 3 4 5 6 
#
# 1 0.014688 -0.000624 -0.003622 0.000000 -0.006035 0.000000
# 2 -0.000624 0.039445 -0.009375 0.000000 -0.008675 0.000000
# 3 -0.003622 -0.009375 0.014214 0.000000 -0.004350 0.000000
# 4 0.000000 0.000000 0.000000 0.039221 0.000000 -0.015626
# 5 -0.006035 -0.008675 -0.004350 0.000000 0.035118 0.000000
# 6 0.000000 0.000000 0.000000 -0.015626 0.000000 0.044922
#
#
# Mechanical properties :
#
#
# Convention : Reuss Voigt Hill
#
# Bulk Modulus (GPa) = 24.32727 46.75733 35.54230
# Shear Modulus (GPa) = 21.87687 28.93837 25.40762
#
# Velocity S-wave (km/s) = 3.40034 3.91082 3.66448
# Velocity P-wave (km/s) = 5.31732 6.71601 6.05717
#
# Compressibility (1/GPa) = 0.04110614
#
# Stress axis : x y z
#
# Youngs Moduli (GPa) = 68.08158 25.35182 70.35230
#
# Poissons Ratio (x) = 0.01581 0.25485
# Poissons Ratio (y) = 0.04246 0.65952
# Poissons Ratio (z) = 0.24662 0.23766
#
# Static dielectric constant tensor:
#      x y z
#    x 3.855940 0.000000 0.021020 
#    y 0.000000 3.007160 0.000000 
#    z 0.021020 0.000000 3.792490 
# 
# 
# High freq. dielectric constant tensor:
#      x y z
#    x 1.761440 0.000000 -0.007980 
#    y 0.000000 1.673580 0.000000 
#    z -0.007980 0.000000 1.749570 
# 
# From -- ./inp_files/225393.got.cif
#   From: 2010.06.25/outbox.cif.g09.slc.cpg/sg15_113_cif.got.tgz:225393.got - 2010.06.28 07:06:18.
