data_PCOD8133312
_publ_section_title
;
Structure prediction by ZEFSAII (Michael W. Deem and Ramdas Pophale) SiO2 
 PCOD8133312
Probable space group: C 2/C
;
_chemical_formula_sum "Si O2"
_cell_formula_units_Z 56
_cell_length_a 8.680974
_cell_length_b 27.613648
_cell_length_c 14.289433
_cell_angle_alpha 90.000000
_cell_angle_beta 59.876920
_cell_angle_gamma 90.000000
_cell_volume 2962.769761
_symmetry_space_group_name_H-M "C 2/C"
_symmetry_group_IT_number 15
_symmetry_cell_setting 'monoclinic'
loop_
_space_group_symop_operation_xyz
x,y,z
-x,y,1/2-z
-x,-y,-z
x,-y,1/2+z
1/2+x,1/2+y,z
1/2-x,1/2+y,1/2-z
1/2-x,1/2-y,-z
1/2+x,1/2-y,1/2+z
loop_
_atom_site_type_symbol
_atom_site_label
_atom_site_fract_x
_atom_site_fract_y
_atom_site_fract_z
Si Si1 0.791762 0.919491 0.120875
Si Si2 0.186548 0.081353 0.520604
Si Si3 0.823392 0.320179 0.039173
Si Si4 0.505293 0.750753 0.852618
Si Si5 0.557269 0.998868 0.128230
Si Si6 0.172492 0.680421 0.745826
Si Si7 0.687110 0.523936 0.698401
O O1 0.724164 0.867234 0.172100
O O2 0.779780 0.956663 0.209161
O O3 0.996851 0.915323 0.023228
O O4 0.657185 0.945810 0.087659
O O5 0.289466 0.132029 0.488001
O O6 0.304143 0.039903 0.440296
O O7 0.147580 0.068522 0.640596
O O8 0.646470 0.288903 0.089867
O O9 0.868254 0.332098 0.133253
O O10 0.984618 0.292093 0.938011
O O11 0.500000 0.774024 0.750000
O O12 0.688252 0.723025 0.811023
O O13 0.500000 0.011277 0.250000
O O14 0.377311 0.002042 0.116462
O O15 0.000000 0.702585 0.750000
O O16 0.500000 0.492250 0.750000
#
# Coordination Sequence:
#
# PCOD8133312 Si02
#       7
#     8   8   8   8   8   8   8
#     4  10  19  33  52  80 106 135 183 233 273 322
#     4  11  19  32  55  77 105 143 180 223 279 331
#     4  10  20  35  58  84 108 144 191 226 279 336
#     4   9  20  37  57  83 112 141 184 236 276 335
#     4  10  21  34  48  76 112 140 180 225 275 329
#     4  11  20  34  59  83 114 147 182 235 286 329
#     4   9  18  31  52  73 101 137 178 221 263 319
#
# _framework density 18.901233000000001
#
# number of rings (size 3 to 8) (size 9 to 14) (size 15 to 20)
#    0.000    2.000    2.857    2.143    0.000    1.143 
#    0.000    0.000    0.000    0.857    0.000    0.000 
#    0.000    0.000    0.000    0.000    0.000    0.000 
#
# Total GULP energy -346903.703691 kJ/mol
# GULP energy per Si atom -12389.417989 kJ/mol
# Density = 1.885821 g / cm^3
# Si number density = 18.901233 Si / 1000 Ang^3
#
#
#
# Elastic Constant Matrix: (Units=GPa)
#
#
# Indices 1 2 3 4 5 6 
#
# 1 139.1485 43.8343 46.2750 0.0000 -25.8463 0.0000
# 2 43.8343 91.4060 51.3592 0.0000 -12.0974 0.0000
# 3 46.2750 51.3592 64.5724 0.0000 -21.7976 0.0000
# 4 0.0000 0.0000 0.0000 22.6651 0.0000 -4.9015
# 5 -25.8463 -12.0974 -21.7976 0.0000 21.5044 0.0000
# 6 0.0000 0.0000 0.0000 -4.9015 0.0000 2.7841
#
#
#
# Elastic Compliance Matrix: (Units=1/GPa)
#
#
# Indices 1 2 3 4 5 6 
#
# 1 0.010396 -0.002313 -0.002785 0.000000 0.008371 0.000000
# 2 -0.002313 0.021084 -0.018313 0.000000 -0.009481 0.000000
# 3 -0.002785 -0.018313 0.041713 0.000000 0.028633 0.000000
# 4 0.000000 0.000000 0.000000 0.071247 0.000000 0.125435
# 5 0.008371 -0.009481 0.028633 0.000000 0.080253 0.000000
# 6 0.000000 0.000000 0.000000 0.125435 0.000000 0.580023
#
#
# Mechanical properties :
#
#
# Convention : Reuss Voigt Hill
#
# Bulk Modulus (GPa) = 37.91823 64.22932 51.07378
# Shear Modulus (GPa) = 5.81173 19.63460 12.72316
#
# Velocity S-wave (km/s) = 1.75541 3.22654 2.59731
# Velocity P-wave (km/s) = 4.92071 6.92359 6.00622
#
# Compressibility (1/GPa) = 0.02637254
#
# Stress axis : x y z
#
# Youngs Moduli (GPa) = 96.18856 47.42896 23.97318
#
# Poissons Ratio (x) = 0.10970 0.06676
# Poissons Ratio (y) = 0.22248 0.43902
# Poissons Ratio (z) = 0.26786 0.86856
#
# Static dielectric constant tensor:
#      x y z
#    x 3.946170 0.000000 -0.236050 
#    y 0.000000 3.205740 0.000000 
#    z -0.236050 0.000000 3.585500 
# 
# 
# High freq. dielectric constant tensor:
#      x y z
#    x 1.746940 0.000000 -0.016390 
#    y 0.000000 1.704610 0.000000 
#    z -0.016390 0.000000 1.724510 
# 
# From -- ./inp_files/137469.got.cif
#   From: 2010.06.25/outbox.cif.g09.slc.cpg/sg15_69_cif.got.tgz:137469.got - 2010.06.28 07:06:18.
