data_PCOD8133481
_publ_section_title
;
Structure prediction by ZEFSAII (Michael W. Deem and Ramdas Pophale) SiO2 
 PCOD8133481
Probable space group: C 2/C
;
_chemical_formula_sum "Si O2"
_cell_formula_units_Z 48
_cell_length_a 20.619233
_cell_length_b 9.330887
_cell_length_c 15.551956
_cell_angle_alpha 90.000000
_cell_angle_beta 131.211395
_cell_angle_gamma 90.000000
_cell_volume 2250.931189
_symmetry_space_group_name_H-M "C 2/C"
_symmetry_group_IT_number 15
_symmetry_cell_setting 'monoclinic'
loop_
_space_group_symop_operation_xyz
x,y,z
-x,y,1/2-z
-x,-y,-z
x,-y,1/2+z
1/2+x,1/2+y,z
1/2-x,1/2+y,1/2-z
1/2-x,1/2-y,-z
1/2+x,1/2-y,1/2+z
loop_
_atom_site_type_symbol
_atom_site_label
_atom_site_fract_x
_atom_site_fract_y
_atom_site_fract_z
Si Si1 0.850663 0.582731 0.251256
Si Si2 0.844163 0.907764 0.238803
Si Si3 0.185569 0.412414 0.579892
Si Si4 0.191008 0.090708 0.589766
Si Si5 0.993934 0.623046 0.647893
Si Si6 0.504917 0.431697 0.910898
O O1 0.855550 0.744063 0.220380
O O2 0.837649 0.572952 0.340966
O O3 0.769799 0.510423 0.131629
O O4 0.938477 0.502836 0.306741
O O5 0.828767 0.920980 0.326684
O O6 0.761859 0.978934 0.119236
O O7 0.931878 0.992467 0.288920
O O8 0.218337 0.251827 0.589032
O O9 0.099836 0.446774 0.450719
O O10 0.103166 0.045029 0.462188
O O11 0.011377 0.759067 0.600209
O O12 0.000000 0.681479 0.750000
O O13 0.500000 0.500000 0.000000
#
# Coordination Sequence:
#
# PCOD8133481 Si02
#       6
#     8   8   8   8   8   8
#     4  10  19  33  56  84 113 148 186 231 280 331
#     4   9  17  30  54  83 108 139 187 237 274 319
#     4   9  18  34  55  80 109 147 190 230 274 332
#     4   8  16  30  52  81 107 137 184 232 276 327
#     4  11  23  38  55  82 116 151 188 233 286 337
#     4   9  18  35  57  80 107 144 188 231 274 332
#
# _framework density 21.324507000000001
#
# number of rings (size 3 to 8) (size 9 to 14) (size 15 to 20)
#    0.000    2.667    0.000    2.500    0.000    5.333 
#    0.000    9.167    0.000    0.000    0.000    0.000 
#    0.000    0.000    0.000    0.000    0.000    0.000 
#
# Total GULP energy -297488.038329 kJ/mol
# GULP energy per Si atom -12395.334930 kJ/mol
# Density = 2.127597 g / cm^3
# Si number density = 21.324507 Si / 1000 Ang^3
#
#
#
# Elastic Constant Matrix: (Units=GPa)
#
#
# Indices 1 2 3 4 5 6 
#
# 1 43.9750 58.3524 57.1931 0.0000 34.1520 0.0000
# 2 58.3524 170.5822 82.3107 0.0000 49.3195 0.0000
# 3 57.1931 82.3107 127.4372 0.0000 58.3553 0.0000
# 4 0.0000 0.0000 0.0000 7.1847 0.0000 14.9012
# 5 34.1520 49.3195 58.3553 0.0000 47.9363 0.0000
# 6 0.0000 0.0000 0.0000 14.9012 0.0000 21.6772
#
#
#
# Elastic Compliance Matrix: (Units=1/GPa)
#
#
# Indices 1 2 3 4 5 6 
#
# 1 0.078731 -0.012087 -0.017030 0.000000 -0.022925 0.000000
# 2 -0.012087 0.010861 -0.000942 0.000000 -0.001417 0.000000
# 3 -0.017030 -0.000942 0.022819 0.000000 -0.014677 0.000000
# 4 0.000000 0.000000 0.000000 -0.326952 0.000000 0.224751
# 5 -0.022925 -0.001417 -0.014677 0.000000 0.056518 0.000000
# 6 0.000000 0.000000 0.000000 0.224751 0.000000 -0.108365
#
#
# Mechanical properties :
#
#
# Convention : Reuss Voigt Hill
#
# Bulk Modulus (GPa) = 19.12247 81.96741 50.54494
# Shear Modulus (GPa) = -26.47741 24.96886 -0.75427
#
# Velocity S-wave (km/s) = -3.52752 3.42555 -0.59538
# Velocity P-wave (km/s) = 2.75760 7.35986 4.82510
#
# Compressibility (1/GPa) = 0.05229450
#
# Stress axis : x y z
#
# Youngs Moduli (GPa) = 12.70150 92.07321 43.82330
#
# Poissons Ratio (x) = 1.11286 0.74629
# Poissons Ratio (y) = 0.15352 0.04127
# Poissons Ratio (z) = 0.21630 0.08672
#
# Static dielectric constant tensor:
#      x y z
#    x 3.566710 0.000000 0.538540 
#    y 0.000000 3.908340 0.000000 
#    z 0.538540 0.000000 4.194760 
# 
# 
# High freq. dielectric constant tensor:
#      x y z
#    x 1.803370 0.000000 0.036800 
#    y 0.000000 1.834610 0.000000 
#    z 0.036800 0.000000 1.840700 
# 
# From -- ./inp_files/214070.got.cif
#   From: 2010.06.25/outbox.cif.g09.slc.cpg/sg15_108_cif.got.tgz:214070.got - 2010.06.28 07:06:18.
