data_PCOD8133180
_publ_section_title
;
Structure prediction by ZEFSAII (Michael W. Deem and Ramdas Pophale) SiO2 
 PCOD8133180
Probable space group: C 2/C
;
_chemical_formula_sum "Si O2"
_cell_formula_units_Z 56
_cell_length_a 13.343889
_cell_length_b 17.647328
_cell_length_c 14.510534
_cell_angle_alpha 90.000000
_cell_angle_beta 124.888986
_cell_angle_gamma 90.000000
_cell_volume 2802.833398
_symmetry_space_group_name_H-M "C 2/C"
_symmetry_group_IT_number 15
_symmetry_cell_setting 'monoclinic'
loop_
_space_group_symop_operation_xyz
x,y,z
-x,y,1/2-z
-x,-y,-z
x,-y,1/2+z
1/2+x,1/2+y,z
1/2-x,1/2+y,1/2-z
1/2-x,1/2-y,-z
1/2+x,1/2-y,1/2+z
loop_
_atom_site_type_symbol
_atom_site_label
_atom_site_fract_x
_atom_site_fract_y
_atom_site_fract_z
Si Si1 0.667281 0.209322 0.672762
Si Si2 0.947555 0.789126 0.626386
Si Si3 0.724471 0.160043 0.899037
Si Si4 0.123957 0.766225 0.364589
Si Si5 0.884207 0.451473 0.411110
Si Si6 0.226269 0.382575 0.974685
Si Si7 0.640723 0.000452 0.299189
O O1 0.567186 0.275503 0.627157
O O2 0.743205 0.195178 0.807085
O O3 0.763823 0.233842 0.647612
O O4 0.588743 0.134042 0.607199
O O5 0.852055 0.842904 0.522910
O O6 0.879911 0.708937 0.606231
O O7 0.000000 0.824116 0.750000
O O8 0.676035 0.075068 0.871767
O O9 0.122869 0.685042 0.416103
O O10 0.145624 0.837631 0.445032
O O11 0.000000 0.783056 0.250000
O O12 0.795878 0.442269 0.453148
O O13 0.827938 0.495366 0.293127
O O14 0.000000 0.500000 0.500000
O O15 0.223969 0.430190 0.879400
O O16 0.500000 0.019029 0.250000
#
# Coordination Sequence:
#
# PCOD8133180 Si02
#       7
#     8   8   8   8   8   8   8
#     4   9  19  34  55  82 112 152 195 240 301 348
#     4   9  17  33  52  82 118 151 195 238 294 359
#     4   9  18  31  54  84 116 152 185 248 307 350
#     4  10  22  40  60  83 118 158 207 249 296 360
#     4  10  19  32  54  87 113 140 188 246 294 346
#     4  10  22  38  58  88 116 155 200 252 304 348
#     4  11  19  34  57  85 117 149 192 245 303 352
#
# _framework density 19.979780999999999
#
# number of rings (size 3 to 8) (size 9 to 14) (size 15 to 20)
#    0.000    2.286    1.429    2.571    0.000    3.429 
#    0.000    3.571    0.000   12.000    0.000    0.000 
#    0.000    0.000    0.000    0.000    0.000    0.000 
#
# Total GULP energy -346890.351752 kJ/mol
# GULP energy per Si atom -12388.941134 kJ/mol
# Density = 1.993431 g / cm^3
# Si number density = 19.979781 Si / 1000 Ang^3
#
#
#
# Elastic Constant Matrix: (Units=GPa)
#
#
# Indices 1 2 3 4 5 6 
#
# 1 61.4855 19.2026 34.0738 0.0000 -3.1605 0.0000
# 2 19.2026 74.4147 49.7587 0.0000 -3.2363 0.0000
# 3 34.0738 49.7587 151.1229 0.0000 8.8945 0.0000
# 4 0.0000 0.0000 0.0000 43.5118 0.0000 -2.7164
# 5 -3.1605 -3.2363 8.8945 0.0000 32.8032 0.0000
# 6 0.0000 0.0000 0.0000 -2.7164 0.0000 17.3963
#
#
#
# Elastic Compliance Matrix: (Units=1/GPa)
#
#
# Indices 1 2 3 4 5 6 
#
# 1 0.019188 -0.002361 -0.003703 0.000000 0.002620 0.000000
# 2 -0.002361 0.017880 -0.005533 0.000000 0.003037 0.000000
# 3 -0.003703 -0.005533 0.009478 0.000000 -0.003473 0.000000
# 4 0.000000 0.000000 0.000000 0.023209 0.000000 0.003624
# 5 0.002620 0.003037 -0.003473 0.000000 0.031978 0.000000
# 6 0.000000 0.000000 0.000000 0.003624 0.000000 0.058050
#
#
# Mechanical properties :
#
#
# Convention : Reuss Voigt Hill
#
# Bulk Modulus (GPa) = 42.82551 54.78814 48.80683
# Shear Modulus (GPa) = 26.21068 31.00813 28.60940
#
# Velocity S-wave (km/s) = 3.62589 3.94379 3.78817
# Velocity P-wave (km/s) = 6.24583 6.94401 6.60415
#
# Compressibility (1/GPa) = 0.02335057
#
# Stress axis : x y z
#
# Youngs Moduli (GPa) = 52.11507 55.92970 105.50362
#
# Poissons Ratio (x) = 0.13208 0.39069
# Poissons Ratio (y) = 0.12307 0.58378
# Poissons Ratio (z) = 0.19299 0.30948
#
# Static dielectric constant tensor:
#      x y z
#    x 3.354050 0.000000 -0.207400 
#    y 0.000000 3.553330 0.000000 
#    z -0.207400 0.000000 4.140760 
# 
# 
# High freq. dielectric constant tensor:
#      x y z
#    x 1.742470 0.000000 -0.019600 
#    y 0.000000 1.764440 0.000000 
#    z -0.019600 0.000000 1.800990 
# 
# From -- ./inp_files/155236.got.cif
#   From: 2010.06.25/outbox.cif.g09.slc.cpg/sg15_78_cif.got.tgz:155236.got - 2010.06.28 07:06:18.
