data_PCOD8133008
_publ_section_title
;
Structure prediction by ZEFSAII (Michael W. Deem and Ramdas Pophale) SiO2 
 PCOD8133008
Probable space group: C 2/C
;
_chemical_formula_sum "Si O2"
_cell_formula_units_Z 36
_cell_length_a 10.961547
_cell_length_b 32.882549
_cell_length_c 5.197187
_cell_angle_alpha 90.000000
_cell_angle_beta 111.604504
_cell_angle_gamma 90.000000
_cell_volume 1741.689405
_symmetry_space_group_name_H-M "C 2/C"
_symmetry_group_IT_number 15
_symmetry_cell_setting 'monoclinic'
loop_
_space_group_symop_operation_xyz
x,y,z
-x,y,1/2-z
-x,-y,-z
x,-y,1/2+z
1/2+x,1/2+y,z
1/2-x,1/2+y,1/2-z
1/2-x,1/2-y,-z
1/2+x,1/2-y,1/2+z
loop_
_atom_site_type_symbol
_atom_site_label
_atom_site_fract_x
_atom_site_fract_y
_atom_site_fract_z
Si Si1 0.855643 0.888144 0.738631
Si Si2 0.500000 0.710362 0.750000
Si Si3 0.712219 0.343655 0.284963
Si Si4 0.638829 0.232731 0.722674
Si Si5 0.146992 0.017544 0.142790
O O1 0.764564 0.877387 0.420470
O O2 0.848007 0.934784 0.811223
O O3 0.000000 0.877923 0.750000
O O4 0.806429 0.862556 0.945712
O O5 0.420958 0.681635 0.888213
O O6 0.382599 0.736097 0.529217
O O7 0.831837 0.311886 0.369759
O O8 0.500000 0.229195 0.750000
O O9 0.750000 0.250000 0.000000
O O10 0.219997 0.994482 0.434704
O O11 0.000000 0.000000 0.000000
#
# Coordination Sequence:
#
# PCOD8133008 Si02
#       5
#     8   4   8   8   8
#     4  12  22  37  57  89 133 173 206 261 331 398
#     4  12  24  42  66  88 128 172 232 278 334 388
#     4  12  26  39  61  93 126 173 221 271 328 394
#     4  12  27  46  67  93 128 174 238 289 336 392
#     4  10  19  31  53  82 123 173 200 245 316 402
#
# _framework density 20.669588000000001
#
# number of rings (size 3 to 8) (size 9 to 14) (size 15 to 20)
#    0.000    0.444    6.667    3.333    6.222    0.000 
#    0.000    0.000    0.000    0.000    0.000    0.000 
#    0.000   17.778    0.000    0.000    0.000    0.000 
#
# Total GULP energy -223006.391813 kJ/mol
# GULP energy per Si atom -12389.243990 kJ/mol
# Density = 2.062254 g / cm^3
# Si number density = 20.669588 Si / 1000 Ang^3
#
#
#
# Elastic Constant Matrix: (Units=GPa)
#
#
# Indices 1 2 3 4 5 6 
#
# 1 72.9505 47.9718 41.2489 0.0000 -4.6862 0.0000
# 2 47.9718 145.3610 61.2290 0.0000 -15.2605 0.0000
# 3 41.2489 61.2290 158.1863 0.0000 -31.3362 0.0000
# 4 0.0000 0.0000 0.0000 38.5045 0.0000 -0.4879
# 5 -4.6862 -15.2605 -31.3362 0.0000 34.2612 0.0000
# 6 0.0000 0.0000 0.0000 -0.4879 0.0000 18.3653
#
#
#
# Elastic Compliance Matrix: (Units=1/GPa)
#
#
# Indices 1 2 3 4 5 6 
#
# 1 0.018829 -0.005028 -0.003538 0.000000 -0.002900 0.000000
# 2 -0.005028 0.009586 -0.002064 0.000000 0.001695 0.000000
# 3 -0.003538 -0.002064 0.009483 0.000000 0.007271 0.000000
# 4 0.000000 0.000000 0.000000 0.025980 0.000000 0.000690
# 5 -0.002900 0.001695 0.007271 0.000000 0.036195 0.000000
# 6 0.000000 0.000000 0.000000 0.000690 0.000000 0.054469
#
#
# Mechanical properties :
#
#
# Convention : Reuss Voigt Hill
#
# Bulk Modulus (GPa) = 60.10201 75.26635 67.68418
# Shear Modulus (GPa) = 27.57144 33.29608 30.43376
#
# Velocity S-wave (km/s) = 3.65624 4.01792 3.84134
# Velocity P-wave (km/s) = 6.85308 7.61696 7.24509
#
# Compressibility (1/GPa) = 0.01663838
#
# Stress axis : x y z
#
# Youngs Moduli (GPa) = 53.11083 104.32030 105.44837
#
# Poissons Ratio (x) = 0.52451 0.37309
# Poissons Ratio (y) = 0.26704 0.21761
# Poissons Ratio (z) = 0.18791 0.21528
#
# Static dielectric constant tensor:
#      x y z
#    x 3.306360 0.000000 -0.630880 
#    y 0.000000 3.898620 0.000000 
#    z -0.630880 0.000000 3.591990 
# 
# 
# High freq. dielectric constant tensor:
#      x y z
#    x 1.763710 0.000000 -0.041080 
#    y 0.000000 1.821890 0.000000 
#    z -0.041080 0.000000 1.818810 
# 
# From -- ./inp_files/5132.got.cif
#   From: 2010.06.25/outbox.cif.g09.slc.cpg/sg15_3_cif.got.tgz:5132.got - 2010.06.28 07:06:18.
