data_PCOD8133171
_publ_section_title
;
Structure prediction by ZEFSAII (Michael W. Deem and Ramdas Pophale) SiO2 
 PCOD8133171
Probable space group: C 2/C
;
_chemical_formula_sum "Si O2"
_cell_formula_units_Z 64
_cell_length_a 27.262643
_cell_length_b 19.410578
_cell_length_c 8.905426
_cell_angle_alpha 90.000000
_cell_angle_beta 130.791378
_cell_angle_gamma 90.000000
_cell_volume 3567.882715
_symmetry_space_group_name_H-M "C 2/C"
_symmetry_group_IT_number 15
_symmetry_cell_setting 'monoclinic'
loop_
_space_group_symop_operation_xyz
x,y,z
-x,y,1/2-z
-x,-y,-z
x,-y,1/2+z
1/2+x,1/2+y,z
1/2-x,1/2+y,1/2-z
1/2-x,1/2-y,-z
1/2+x,1/2-y,1/2+z
loop_
_atom_site_type_symbol
_atom_site_label
_atom_site_fract_x
_atom_site_fract_y
_atom_site_fract_z
Si Si1 0.236480 0.567787 0.647079
Si Si2 0.374107 0.569238 0.425280
Si Si3 0.433442 0.712337 0.191309
Si Si4 0.315828 0.785854 0.458594
Si Si5 0.874106 0.930762 0.571147
Si Si6 0.315828 0.214147 0.304718
Si Si7 0.763520 0.567788 0.201158
Si Si8 0.066558 0.212338 0.957539
O O1 0.188477 0.631921 0.571779
O O2 0.250505 0.553092 0.501009
O O3 0.204564 0.500000 0.659127
O O4 0.304027 0.584814 0.862128
O O5 0.404126 0.500000 0.558252
O O6 0.367194 0.559348 0.234388
O O7 0.304028 0.584815 0.353983
O O8 0.420174 0.632908 0.558984
O O9 0.500000 0.736617 0.250000
O O10 0.420173 0.632908 0.121709
O O11 0.440050 0.722479 0.380100
O O12 0.375835 0.760799 0.021258
O O13 0.327177 0.765419 0.654353
O O14 0.250000 0.750000 0.268447
O O15 0.375835 0.760799 0.482080
O O16 0.311522 0.131922 0.317868
O O17 0.000000 0.236617 0.750000
#
# Coordination Sequence:
#
# PCOD8133171 Si02
#       8
#     8   8   8   8   8   8   8   8
#     4  10  19  32  54  82 111 143 177 222 272 320
#     4  10  20  33  51  77 108 145 184 223 266 318
#     4  11  24  38  55  79 110 147 186 229 274 325
#     4  10  20  36  58  82 110 145 182 224 274 324
#     4  10  20  33  51  77 108 145 184 223 266 318
#     4  10  20  36  58  82 110 145 182 224 274 324
#     4  10  19  32  54  82 111 143 177 222 272 320
#     4  11  24  38  55  79 110 147 186 229 274 325
#
# _framework density 17.937809999999999
#
# number of rings (size 3 to 8) (size 9 to 14) (size 15 to 20)
#    0.000    1.750    2.500    3.750    0.000    6.000 
#    0.000    2.500    0.000    0.750    0.000    5.250 
#    0.000    0.000    0.000    0.000    0.000    0.000 
#
# Total GULP energy -396865.166956 kJ/mol
# GULP energy per Si atom -12402.036467 kJ/mol
# Density = 1.789698 g / cm^3
# Si number density = 17.937810 Si / 1000 Ang^3
#
#
#
# Elastic Constant Matrix: (Units=GPa)
#
#
# Indices 1 2 3 4 5 6 
#
# 1 95.7385 51.8061 47.2369 0.0000 2.8540 0.0000
# 2 51.8061 99.9178 51.6185 0.0000 0.6478 0.0000
# 3 47.2369 51.6185 94.3781 0.0000 1.8501 0.0000
# 4 0.0000 0.0000 0.0000 18.6555 0.0000 -1.1771
# 5 2.8540 0.6478 1.8501 0.0000 27.3125 0.0000
# 6 0.0000 0.0000 0.0000 -1.1771 0.0000 18.3170
#
#
#
# Elastic Compliance Matrix: (Units=1/GPa)
#
#
# Indices 1 2 3 4 5 6 
#
# 1 0.015992 -0.005800 -0.004808 0.000000 -0.001208 0.000000
# 2 -0.005800 0.016054 -0.005890 0.000000 0.000624 0.000000
# 3 -0.004808 -0.005890 0.016233 0.000000 -0.000457 0.000000
# 4 0.000000 0.000000 0.000000 0.053822 0.000000 0.003459
# 5 -0.001208 0.000624 -0.000457 0.000000 0.036756 0.000000
# 6 0.000000 0.000000 0.000000 0.003459 0.000000 0.054816
#
#
# Mechanical properties :
#
#
# Convention : Reuss Voigt Hill
#
# Bulk Modulus (GPa) = 65.43370 65.70636 65.57003
# Shear Modulus (GPa) = 21.57382 22.14853 21.86118
#
# Velocity S-wave (km/s) = 3.47176 3.51770 3.49481
# Velocity P-wave (km/s) = 7.25452 7.29442 7.27450
#
# Compressibility (1/GPa) = 0.01528264
#
# Stress axis : x y z
#
# Youngs Moduli (GPa) = 62.53176 62.28956 61.60433
#
# Poissons Ratio (x) = 0.36126 0.29621
# Poissons Ratio (y) = 0.36267 0.36284
# Poissons Ratio (z) = 0.30067 0.36688
#
# Static dielectric constant tensor:
#      x y z
#    x 3.177960 0.000000 -0.201940 
#    y 0.000000 3.698840 0.000000 
#    z -0.201940 0.000000 3.236310 
# 
# 
# High freq. dielectric constant tensor:
#      x y z
#    x 1.682800 0.000000 -0.022070 
#    y 0.000000 1.701430 0.000000 
#    z -0.022070 0.000000 1.689180 
# 
# From -- ./inp_files/67447.got.cif
#   From: 2010.06.25/outbox.cif.g09.slc.cpg/sg15_34_cif.got.tgz:67447.got - 2010.06.28 07:06:18.
