data_PCOD8133819
_publ_section_title
;
Structure prediction by ZEFSAII (Michael W. Deem and Ramdas Pophale) SiO2 
 PCOD8133819
Probable space group: C 2/C
;
_chemical_formula_sum "Si O2"
_cell_formula_units_Z 56
_cell_length_a 17.432261
_cell_length_b 5.024113
_cell_length_c 29.531512
_cell_angle_alpha 90.000000
_cell_angle_beta 90.802737
_cell_angle_gamma 90.000000
_cell_volume 2586.164680
_symmetry_space_group_name_H-M "C 2/C"
_symmetry_group_IT_number 15
_symmetry_cell_setting 'monoclinic'
loop_
_space_group_symop_operation_xyz
x,y,z
-x,y,1/2-z
-x,-y,-z
x,-y,1/2+z
1/2+x,1/2+y,z
1/2-x,1/2+y,1/2-z
1/2-x,1/2-y,-z
1/2+x,1/2-y,1/2+z
loop_
_atom_site_type_symbol
_atom_site_label
_atom_site_fract_x
_atom_site_fract_y
_atom_site_fract_z
Si Si1 0.831066 0.547953 0.660540
Si Si2 0.054467 0.396342 0.415781
Si Si3 0.727110 0.951753 0.149265
Si Si4 0.688832 0.949832 0.479913
Si Si5 0.825625 0.207810 0.439043
Si Si6 0.527225 0.422274 0.050468
Si Si7 0.202488 0.651812 0.744723
O O1 0.909872 0.551907 0.633091
O O2 0.796574 0.254856 0.655659
O O3 0.855115 0.607088 0.713277
O O4 0.766380 0.759231 0.642323
O O5 0.122258 0.312845 0.450930
O O6 0.004199 0.638680 0.434526
O O7 0.001196 0.139568 0.413291
O O8 0.670790 0.872547 0.107740
O O9 0.674069 0.943098 0.194607
O O10 0.750000 0.750000 0.500000
O O11 0.735652 0.143418 0.446374
O O12 0.645908 0.105744 0.519683
O O13 0.879844 0.944078 0.442733
O O14 0.500000 0.500000 0.000000
O O15 0.276053 0.463414 0.756916
#
# Coordination Sequence:
#
# PCOD8133819 Si02
#       7
#     8   8   8   8   8   8   8
#     4  10  19  35  58  87 116 146 193 240 294 355
#     4  12  24  40  60  82 118 159 199 236 292 355
#     4  10  19  34  57  89 115 147 188 250 295 345
#     4  11  23  37  60  84 114 156 196 250 293 332
#     4  11  24  37  57  85 118 153 197 245 291 347
#     4  12  26  42  56  81 121 163 196 237 292 354
#     4   8  16  30  53  84 117 141 176 238 302 341
#
# _framework density 21.653689
#
# number of rings (size 3 to 8) (size 9 to 14) (size 15 to 20)
#    0.000    1.429    2.857    3.000    4.000    0.000 
#    0.000    0.000    0.000    0.857    0.000    2.000 
#    0.000    0.000    0.000    0.000    0.000    0.000 
#
# Total GULP energy -347012.427350 kJ/mol
# GULP energy per Si atom -12393.300977 kJ/mol
# Density = 2.160440 g / cm^3
# Si number density = 21.653689 Si / 1000 Ang^3
#
#
#
# Elastic Constant Matrix: (Units=GPa)
#
#
# Indices 1 2 3 4 5 6 
#
# 1 67.6801 13.1808 36.9872 0.0000 -10.9755 0.0000
# 2 13.1808 75.4588 -5.0510 0.0000 -4.0679 0.0000
# 3 36.9872 -5.0510 118.8518 0.0000 -18.3808 0.0000
# 4 0.0000 0.0000 0.0000 24.7554 0.0000 -2.2526
# 5 -10.9755 -4.0679 -18.3808 0.0000 24.0515 0.0000
# 6 0.0000 0.0000 0.0000 -2.2526 0.0000 32.4389
#
#
#
# Elastic Compliance Matrix: (Units=1/GPa)
#
#
# Indices 1 2 3 4 5 6 
#
# 1 0.019088 -0.003489 -0.005480 0.000000 0.003932 0.000000
# 2 -0.003489 0.014127 0.002052 0.000000 0.002365 0.000000
# 3 -0.005480 0.002052 0.011197 0.000000 0.006403 0.000000
# 4 0.000000 0.000000 0.000000 0.040652 0.000000 0.002823
# 5 0.003932 0.002365 0.006403 0.000000 0.048665 0.000000
# 6 0.000000 0.000000 0.000000 0.002823 0.000000 0.031023
#
#
# Mechanical properties :
#
#
# Convention : Reuss Voigt Hill
#
# Bulk Modulus (GPa) = 32.70523 39.13609 35.92066
# Shear Modulus (GPa) = 26.48612 30.70740 28.59676
#
# Velocity S-wave (km/s) = 3.50118 3.76987 3.63801
# Velocity P-wave (km/s) = 5.61078 6.08787 5.85419
#
# Compressibility (1/GPa) = 0.03057615
#
# Stress axis : x y z
#
# Youngs Moduli (GPa) = 52.39030 70.78860 89.31131
#
# Poissons Ratio (x) = 0.24698 0.48945
# Poissons Ratio (y) = 0.18279 -0.18326
# Poissons Ratio (z) = 0.28711 -0.14525
#
# Static dielectric constant tensor:
#      x y z
#    x 3.683980 0.000000 -0.403550 
#    y 0.000000 4.074850 0.000000 
#    z -0.403550 0.000000 4.371480 
# 
# 
# High freq. dielectric constant tensor:
#      x y z
#    x 1.800400 0.000000 -0.027600 
#    y 0.000000 1.865270 0.000000 
#    z -0.027600 0.000000 1.860680 
# 
# From -- ./inp_files/312368.got.cif
#   From: 2010.06.25/outbox.cif.g09.slc.cpg/sg15_157_cif.got.tgz:312368.got - 2010.06.28 07:06:18.
