data_PCOD8133601
_publ_section_title
;
Structure prediction by ZEFSAII (Michael W. Deem and Ramdas Pophale) SiO2 
 PCOD8133601
Probable space group: C 2/C
;
_chemical_formula_sum "Si O2"
_cell_formula_units_Z 48
_cell_length_a 26.396610
_cell_length_b 23.120003
_cell_length_c 5.183977
_cell_angle_alpha 90.000000
_cell_angle_beta 102.918885
_cell_angle_gamma 90.000000
_cell_volume 3083.646101
_symmetry_space_group_name_H-M "C 2/C"
_symmetry_group_IT_number 15
_symmetry_cell_setting 'monoclinic'
loop_
_space_group_symop_operation_xyz
x,y,z
-x,y,1/2-z
-x,-y,-z
x,-y,1/2+z
1/2+x,1/2+y,z
1/2-x,1/2+y,1/2-z
1/2-x,1/2-y,-z
1/2+x,1/2-y,1/2+z
loop_
_atom_site_type_symbol
_atom_site_label
_atom_site_fract_x
_atom_site_fract_y
_atom_site_fract_z
Si Si1 0.467554 0.656241 0.454866
Si Si2 0.773812 0.163050 0.119081
Si Si3 0.295832 0.465645 0.623158
Si Si4 0.318645 0.762147 0.882323
Si Si5 0.081291 0.034652 0.224994
Si Si6 0.134743 0.225200 0.072819
O O1 0.500000 0.645016 0.750000
O O2 0.444022 0.596916 0.323718
O O3 0.423200 0.701364 0.481350
O O4 0.500000 0.682183 0.250000
O O5 0.768451 0.095905 0.044764
O O6 0.720275 0.183793 0.192104
O O7 0.823051 0.172631 0.367568
O O8 0.784124 0.202818 0.874984
O O9 0.277389 0.507331 0.372007
O O10 0.357293 0.456912 0.696145
O O11 0.356781 0.759580 0.682371
O O12 0.355039 0.769072 0.177217
O O13 0.062406 0.994381 0.968799
#
# Coordination Sequence:
#
# PCOD8133601 Si02
#       6
#     8   8   8   8   8   8
#     4  12  24  34  47  63  85 122 155 198 246 275
#     4   9  19  31  52  70  92 112 158 192 233 281
#     4  10  21  30  46  66  93 127 150 188 239 276
#     4   9  19  29  55  71  86 113 146 207 236 263
#     4  10  20  34  46  58  80 116 161 203 236 261
#     4  10  19  34  46  69  89 111 148 204 229 282
#
# _framework density 15.565987
#
# number of rings (size 3 to 8) (size 9 to 14) (size 15 to 20)
#    1.000    1.000    1.667    2.500    2.333    3.333 
#    0.000    0.000    0.000    0.000    0.000    0.000 
#    0.000    0.000    0.000    0.000    0.000   58.333 
#
# Total GULP energy -297484.144427 kJ/mol
# GULP energy per Si atom -12395.172684 kJ/mol
# Density = 1.553056 g / cm^3
# Si number density = 15.565987 Si / 1000 Ang^3
#
#
#
# Elastic Constant Matrix: (Units=GPa)
#
#
# Indices 1 2 3 4 5 6 
#
# 1 69.2272 32.6851 32.9323 0.0000 -15.4201 0.0000
# 2 32.6851 57.0849 27.0707 0.0000 -0.1081 0.0000
# 3 32.9323 27.0707 101.1283 0.0000 -19.2789 0.0000
# 4 0.0000 0.0000 0.0000 13.9223 0.0000 -1.7734
# 5 -15.4201 -0.1081 -19.2789 0.0000 21.7992 0.0000
# 6 0.0000 0.0000 0.0000 -1.7734 0.0000 19.3438
#
#
#
# Elastic Compliance Matrix: (Units=1/GPa)
#
#
# Indices 1 2 3 4 5 6 
#
# 1 0.025329 -0.013817 -0.001380 0.000000 0.016628 0.000000
# 2 -0.013817 0.028185 -0.005872 0.000000 -0.014827 0.000000
# 3 -0.001380 -0.005872 0.014094 0.000000 0.011460 0.000000
# 4 0.000000 0.000000 0.000000 0.072676 0.000000 0.006663
# 5 0.016628 -0.014827 0.011460 0.000000 0.067697 0.000000
# 6 0.000000 0.000000 0.000000 0.006663 0.000000 0.052307
#
#
# Mechanical properties :
#
#
# Convention : Reuss Voigt Hill
#
# Bulk Modulus (GPa) = 39.25972 45.86849 42.56410
# Shear Modulus (GPa) = 16.08154 19.99655 18.03904
#
# Velocity S-wave (km/s) = 3.21771 3.58806 3.40792
# Velocity P-wave (km/s) = 6.25149 6.83350 6.54896
#
# Compressibility (1/GPa) = 0.02547140
#
# Stress axis : x y z
#
# Youngs Moduli (GPa) = 39.48062 35.47946 70.95083
#
# Poissons Ratio (x) = 0.49021 0.09790
# Poissons Ratio (y) = 0.54549 0.41662
# Poissons Ratio (z) = 0.05448 0.20834
#
# Static dielectric constant tensor:
#      x y z
#    x 2.835470 0.000000 -0.086560 
#    y 0.000000 2.642090 0.000000 
#    z -0.086560 0.000000 3.049900 
# 
# 
# High freq. dielectric constant tensor:
#      x y z
#    x 1.573470 0.000000 -0.010970 
#    y 0.000000 1.556950 0.000000 
#    z -0.010970 0.000000 1.609700 
# 
# From -- ./inp_files/15565.got.cif
#   From: 2010.06.25/outbox.cif.g09.slc.cpg/sg15_8_cif.got.tgz:15565.got - 2010.06.28 07:06:18.
