data_PCOD8133428
_publ_section_title
;
Structure prediction by ZEFSAII (Michael W. Deem and Ramdas Pophale) SiO2 
 PCOD8133428
Probable space group: C 2/C
;
_chemical_formula_sum "Si O2"
_cell_formula_units_Z 56
_cell_length_a 17.450189
_cell_length_b 12.031125
_cell_length_c 23.927598
_cell_angle_alpha 90.000000
_cell_angle_beta 142.232417
_cell_angle_gamma 90.000000
_cell_volume 3076.685722
_symmetry_space_group_name_H-M "C 2/C"
_symmetry_group_IT_number 15
_symmetry_cell_setting 'monoclinic'
loop_
_space_group_symop_operation_xyz
x,y,z
-x,y,1/2-z
-x,-y,-z
x,-y,1/2+z
1/2+x,1/2+y,z
1/2-x,1/2+y,1/2-z
1/2-x,1/2-y,-z
1/2+x,1/2-y,1/2+z
loop_
_atom_site_type_symbol
_atom_site_label
_atom_site_fract_x
_atom_site_fract_y
_atom_site_fract_z
Si Si1 0.309123 0.037639 0.216857
Si Si2 0.898153 0.118306 0.325286
Si Si3 0.744181 0.705074 0.671994
Si Si4 0.971486 0.680751 0.168775
Si Si5 0.030251 0.128951 0.625932
Si Si6 0.235142 0.935044 0.550509
Si Si7 0.679485 0.676384 0.505058
O O1 0.193261 0.109683 0.174084
O O2 0.439368 0.091656 0.311401
O O3 0.301426 0.043979 0.146664
O O4 0.313647 0.906738 0.233682
O O5 0.826971 0.186909 0.235429
O O6 0.027838 0.181806 0.413906
O O7 0.918653 0.988818 0.321195
O O8 0.614842 0.699247 0.631750
O O9 0.719184 0.709365 0.591089
O O10 0.828717 0.646868 0.071006
O O11 0.000000 0.684563 0.250000
O O12 0.002097 0.803076 0.165249
O O13 0.901286 0.115147 0.517880
O O14 0.222883 0.053229 0.512858
O O15 0.750000 0.750000 0.500000
#
# Coordination Sequence:
#
# PCOD8133428 Si02
#       7
#     8   8   8   8   8   8   8
#     4   9  18  34  57  81 103 140 197 226 261 325
#     4  10  20  36  58  81 111 146 182 233 276 328
#     4  10  20  36  61  79 109 151 183 228 277 322
#     4  10  19  33  55  82 110 139 182 227 270 323
#     4  10  19  36  56  81 109 143 188 222 277 334
#     4   9  19  34  56  80 106 147 183 232 267 317
#     4  10  22  37  54  85 114 143 188 228 277 334
#
# _framework density 18.201402999999999
#
# number of rings (size 3 to 8) (size 9 to 14) (size 15 to 20)
#    0.000    2.286    1.429    1.286    2.000    4.000 
#    5.143    0.000    0.000    4.286    0.000    0.000 
#    0.000    0.000    0.000    0.000    0.000    0.000 
#
# Total GULP energy -346883.549871 kJ/mol
# GULP energy per Si atom -12388.698210 kJ/mol
# Density = 1.815998 g / cm^3
# Si number density = 18.201403 Si / 1000 Ang^3
#
#
#
# Elastic Constant Matrix: (Units=GPa)
#
#
# Indices 1 2 3 4 5 6 
#
# 1 90.7766 47.8653 33.2103 0.0000 8.0305 0.0000
# 2 47.8653 85.5382 45.4062 0.0000 2.9470 0.0000
# 3 33.2103 45.4062 80.3483 0.0000 10.5859 0.0000
# 4 0.0000 0.0000 0.0000 25.8384 0.0000 1.9068
# 5 8.0305 2.9470 10.5859 0.0000 25.6699 0.0000
# 6 0.0000 0.0000 0.0000 1.9068 0.0000 35.2533
#
#
#
# Elastic Compliance Matrix: (Units=1/GPa)
#
#
# Indices 1 2 3 4 5 6 
#
# 1 0.016176 -0.008035 -0.001692 0.000000 -0.003440 0.000000
# 2 -0.008035 0.020798 -0.008934 0.000000 0.003810 0.000000
# 3 -0.001692 -0.008934 0.019023 0.000000 -0.006290 0.000000
# 4 0.000000 0.000000 0.000000 0.038857 0.000000 -0.002102
# 5 -0.003440 0.003810 -0.006290 0.000000 0.042189 0.000000
# 6 0.000000 0.000000 0.000000 -0.002102 0.000000 0.028480
#
#
# Mechanical properties :
#
#
# Convention : Reuss Voigt Hill
#
# Bulk Modulus (GPa) = 53.54959 56.62519 55.08739
# Shear Modulus (GPa) = 23.91531 26.03107 24.97319
#
# Velocity S-wave (km/s) = 3.62875 3.78586 3.70813
# Velocity P-wave (km/s) = 6.85868 7.09142 6.97602
#
# Compressibility (1/GPa) = 0.01867428
#
# Stress axis : x y z
#
# Youngs Moduli (GPa) = 61.81891 48.08081 52.56853
#
# Poissons Ratio (x) = 0.38634 0.08895
# Poissons Ratio (y) = 0.49673 0.46966
# Poissons Ratio (z) = 0.10460 0.42957
#
# Static dielectric constant tensor:
#      x y z
#    x 3.537280 0.000000 0.395520 
#    y 0.000000 3.539340 0.000000 
#    z 0.395520 0.000000 3.355940 
# 
# 
# High freq. dielectric constant tensor:
#      x y z
#    x 1.708980 0.000000 0.024340 
#    y 0.000000 1.706990 0.000000 
#    z 0.024340 0.000000 1.690310 
# 
# From -- ./inp_files/152607.got.cif
#   From: 2010.06.25/outbox.cif.g09.slc.cpg/sg15_77_cif.got.tgz:152607.got - 2010.06.28 07:06:18.
