data_PCOD8133936
_publ_section_title
;
Structure prediction by ZEFSAII (Michael W. Deem and Ramdas Pophale) SiO2 
 PCOD8133936
Probable space group: C 2/C
;
_chemical_formula_sum "Si O2"
_cell_formula_units_Z 44
_cell_length_a 11.007203
_cell_length_b 20.393117
_cell_length_c 12.617927
_cell_angle_alpha 90.000000
_cell_angle_beta 52.111847
_cell_angle_gamma 90.000000
_cell_volume 2235.330650
_symmetry_space_group_name_H-M "C 2/C"
_symmetry_group_IT_number 15
_symmetry_cell_setting 'monoclinic'
loop_
_space_group_symop_operation_xyz
x,y,z
-x,y,1/2-z
-x,-y,-z
x,-y,1/2+z
1/2+x,1/2+y,z
1/2-x,1/2+y,1/2-z
1/2-x,1/2-y,-z
1/2+x,1/2-y,1/2+z
loop_
_atom_site_type_symbol
_atom_site_label
_atom_site_fract_x
_atom_site_fract_y
_atom_site_fract_z
Si Si1 0.448179 0.927218 0.003666
Si Si2 0.101347 0.659220 0.594495
Si Si3 0.941072 0.187040 0.396306
Si Si4 0.820970 0.161986 0.856559
Si Si5 0.775756 0.200190 0.120862
Si Si6 0.500000 0.884098 0.750000
O O1 0.559942 0.879134 0.008989
O O2 0.273521 0.903513 0.126481
O O3 0.446625 0.927396 0.876925
O O4 0.500000 0.000000 0.000000
O O5 0.077958 0.735367 0.587224
O O6 0.285110 0.649052 0.514239
O O7 0.000000 0.634519 0.750000
O O8 0.000000 0.164030 0.250000
O O9 0.072792 0.168728 0.409132
O O10 0.757475 0.224490 0.822869
O O11 0.000000 0.146495 0.750000
O O12 0.785945 0.188134 0.991380
O O13 0.628178 0.160295 0.238460
#
# Coordination Sequence:
#
# PCOD8133936 Si02
#       6
#     8   8   8   8   8   4
#     4  11  24  42  61  84 125 168 209 244 298 381
#     4  10  22  36  58  90 124 166 202 250 311 368
#     4  10  20  34  58  93 127 154 197 255 318 371
#     4  10  21  35  60  91 119 156 197 255 310 354
#     4  10  19  34  60  91 122 148 195 261 308 362
#     4  10  22  40  62  90 116 162 202 254 316 348
#
# _framework density 19.683890000000002
#
# number of rings (size 3 to 8) (size 9 to 14) (size 15 to 20)
#    0.000    1.818    2.727    1.091    3.818    1.455 
#    0.000    2.727    0.000    4.364    0.000    0.000 
#    0.000    0.000    0.000    0.000    0.000    0.000 
#
# Total GULP energy -272547.502123 kJ/mol
# GULP energy per Si atom -12388.522824 kJ/mol
# Density = 1.963909 g / cm^3
# Si number density = 19.683890 Si / 1000 Ang^3
#
#
#
# Elastic Constant Matrix: (Units=GPa)
#
#
# Indices 1 2 3 4 5 6 
#
# 1 154.5107 41.2958 38.9231 0.0000 -30.7736 0.0000
# 2 41.2958 80.9535 39.7403 0.0000 -13.3968 0.0000
# 3 38.9231 39.7403 68.4764 0.0000 -16.7433 0.0000
# 4 0.0000 0.0000 0.0000 10.8085 0.0000 1.8067
# 5 -30.7736 -13.3968 -16.7433 0.0000 44.8316 0.0000
# 6 0.0000 0.0000 0.0000 1.8067 0.0000 32.3251
#
#
#
# Elastic Compliance Matrix: (Units=1/GPa)
#
#
# Indices 1 2 3 4 5 6 
#
# 1 0.008591 -0.002506 -0.002388 0.000000 0.004256 0.000000
# 2 -0.002506 0.018105 -0.009003 0.000000 0.000328 0.000000
# 3 -0.002388 -0.009003 0.022150 0.000000 0.003943 0.000000
# 4 0.000000 0.000000 0.000000 0.093392 0.000000 -0.005220
# 5 0.004256 0.000328 0.003943 0.000000 0.026798 0.000000
# 6 0.000000 0.000000 0.000000 -0.005220 0.000000 0.031227
#
#
# Mechanical properties :
#
#
# Convention : Reuss Voigt Hill
#
# Bulk Modulus (GPa) = 47.50072 60.42878 53.96475
# Shear Modulus (GPa) = 21.26990 29.85847 25.56418
#
# Velocity S-wave (km/s) = 3.29077 3.89896 3.60771
# Velocity P-wave (km/s) = 6.21475 7.14391 6.69547
#
# Compressibility (1/GPa) = 0.02105231
#
# Stress axis : x y z
#
# Youngs Moduli (GPa) = 116.39902 55.23453 45.14694
#
# Poissons Ratio (x) = 0.13840 0.10783
# Poissons Ratio (y) = 0.29165 0.40644
# Poissons Ratio (z) = 0.27801 0.49725
#
# Static dielectric constant tensor:
#      x y z
#    x 3.525960 0.000000 -0.158720 
#    y 0.000000 3.261620 0.000000 
#    z -0.158720 0.000000 3.798120 
# 
# 
# High freq. dielectric constant tensor:
#      x y z
#    x 1.785790 0.000000 -0.003870 
#    y 0.000000 1.718290 0.000000 
#    z -0.003870 0.000000 1.768380 
# 
# From -- ./inp_files/88729.got.cif
#   From: 2010.06.25/outbox.cif.g09.slc.cpg/sg15_45_cif.got.tgz:88729.got - 2010.06.28 07:06:18.
