data_PCOD8133995
_publ_section_title
;
Structure prediction by ZEFSAII (Michael W. Deem and Ramdas Pophale) SiO2 
 PCOD8133995
Probable space group: C 2/C
;
_chemical_formula_sum "Si O2"
_cell_formula_units_Z 60
_cell_length_a 15.851344
_cell_length_b 10.458520
_cell_length_c 20.360374
_cell_angle_alpha 90.000000
_cell_angle_beta 134.276380
_cell_angle_gamma 90.000000
_cell_volume 2416.703237
_symmetry_space_group_name_H-M "C 2/C"
_symmetry_group_IT_number 15
_symmetry_cell_setting 'monoclinic'
loop_
_space_group_symop_operation_xyz
x,y,z
-x,y,1/2-z
-x,-y,-z
x,-y,1/2+z
1/2+x,1/2+y,z
1/2-x,1/2+y,1/2-z
1/2-x,1/2-y,-z
1/2+x,1/2-y,1/2+z
loop_
_atom_site_type_symbol
_atom_site_label
_atom_site_fract_x
_atom_site_fract_y
_atom_site_fract_z
Si Si1 0.018537 0.229869 0.618149
Si Si2 0.566677 0.795270 0.495928
Si Si3 0.719338 0.880656 0.797543
Si Si4 0.056503 0.401508 0.188319
Si Si5 0.976273 0.046693 0.415224
Si Si6 0.716930 0.381428 0.944808
Si Si7 0.500000 0.311909 0.750000
Si Si8 0.846578 0.415119 0.593454
O O1 0.018903 0.268078 0.541964
O O2 0.138659 0.276440 0.717583
O O3 0.901237 0.294059 0.584303
O O4 0.014782 0.076104 0.627423
O O5 0.473602 0.881127 0.404767
O O6 0.575723 0.658063 0.458007
O O7 0.689452 0.871070 0.564963
O O8 0.853042 0.875040 0.844908
O O9 0.709423 0.859984 0.870355
O O10 0.678461 0.023753 0.757523
O O11 0.074764 0.272550 0.239456
O O12 0.950443 0.483136 0.164347
O O13 0.000000 0.000000 0.500000
O O14 0.588292 0.396435 0.841921
O O15 0.750000 0.250000 0.000000
O O16 0.741451 0.512020 0.998185
#
# Coordination Sequence:
#
# PCOD8133995 Si02
#       8
#     8   8   8   8   8   8   4   8
#     4  10  23  43  68 101 135 185 245 288 359 440
#     4  10  23  42  64  96 147 178 226 298 372 417
#     4  11  22  40  74  95 133 186 243 284 344 436
#     4  10  19  34  66  95 131 170 231 289 352 412
#     4  10  25  41  65  96 138 187 227 287 362 422
#     4  11  22  38  69 104 143 179 240 304 362 424
#     4  12  20  34  66 110 130 182 242 300 356 426
#     4  10  21  42  69 100 135 189 231 294 355 424
#
# _framework density 24.827210000000001
#
# number of rings (size 3 to 8) (size 9 to 14) (size 15 to 20)
#    0.000    1.600    4.000    1.200    9.333    4.800 
#    0.000    2.667    2.933    0.000    0.000    0.933 
#    0.000    0.000    0.000    0.000    0.000    0.000 
#
# Total GULP energy -371843.857121 kJ/mol
# GULP energy per Si atom -12394.795237 kJ/mol
# Density = 2.477070 g / cm^3
# Si number density = 24.827210 Si / 1000 Ang^3
#
#
#
# Elastic Constant Matrix: (Units=GPa)
#
#
# Indices 1 2 3 4 5 6 
#
# 1 72.9402 48.9772 39.7836 0.0000 -9.4911 0.0000
# 2 48.9772 112.8534 50.8409 0.0000 3.7255 0.0000
# 3 39.7836 50.8409 143.6701 0.0000 5.2898 0.0000
# 4 0.0000 0.0000 0.0000 35.8242 0.0000 0.6321
# 5 -9.4911 3.7255 5.2898 0.0000 36.2024 0.0000
# 6 0.0000 0.0000 0.0000 0.6321 0.0000 34.2768
#
#
#
# Elastic Compliance Matrix: (Units=1/GPa)
#
#
# Indices 1 2 3 4 5 6 
#
# 1 0.022065 -0.008257 -0.003451 0.000000 0.007139 0.000000
# 2 -0.008257 0.013642 -0.002423 0.000000 -0.003215 0.000000
# 3 -0.003451 -0.002423 0.008845 0.000000 -0.001948 0.000000
# 4 0.000000 0.000000 0.000000 0.027923 0.000000 -0.000515
# 5 0.007139 -0.003215 -0.001948 0.000000 0.030109 0.000000
# 6 0.000000 0.000000 0.000000 -0.000515 0.000000 0.029184
#
#
# Mechanical properties :
#
#
# Convention : Reuss Voigt Hill
#
# Bulk Modulus (GPa) = 61.38399 67.62969 64.50684
# Shear Modulus (GPa) = 30.21857 33.91816 32.06836
#
# Velocity S-wave (km/s) = 3.49256 3.70018 3.59787
# Velocity P-wave (km/s) = 6.40641 6.74940 6.58014
#
# Compressibility (1/GPa) = 0.01629089
#
# Stress axis : x y z
#
# Youngs Moduli (GPa) = 45.31963 73.30228 113.05741
#
# Poissons Ratio (x) = 0.60527 0.39016
# Poissons Ratio (y) = 0.37421 0.27391
# Poissons Ratio (z) = 0.15640 0.17759
#
# Static dielectric constant tensor:
#      x y z
#    x 4.973590 0.000000 0.192590 
#    y 0.000000 4.712350 0.000000 
#    z 0.192590 0.000000 4.548140 
# 
# 
# High freq. dielectric constant tensor:
#      x y z
#    x 1.989850 0.000000 -0.000440 
#    y 0.000000 1.980050 0.000000 
#    z -0.000440 0.000000 1.991240 
# 
# From -- ./inp_files/248785.got.cif
#   From: 2010.06.25/outbox.cif.g09.slc.cpg/sg15_125_cif.got.tgz:248785.got - 2010.06.28 07:06:18.
