data_PCOD8133934
_publ_section_title
;
Structure prediction by ZEFSAII (Michael W. Deem and Ramdas Pophale) SiO2 
 PCOD8133934
Probable space group: C 2/C
;
_chemical_formula_sum "Si O2"
_cell_formula_units_Z 56
_cell_length_a 14.920303
_cell_length_b 19.601018
_cell_length_c 15.199543
_cell_angle_alpha 90.000000
_cell_angle_beta 142.682991
_cell_angle_gamma 90.000000
_cell_volume 2694.761284
_symmetry_space_group_name_H-M "C 2/C"
_symmetry_group_IT_number 15
_symmetry_cell_setting 'monoclinic'
loop_
_space_group_symop_operation_xyz
x,y,z
-x,y,1/2-z
-x,-y,-z
x,-y,1/2+z
1/2+x,1/2+y,z
1/2-x,1/2+y,1/2-z
1/2-x,1/2-y,-z
1/2+x,1/2-y,1/2+z
loop_
_atom_site_type_symbol
_atom_site_label
_atom_site_fract_x
_atom_site_fract_y
_atom_site_fract_z
Si Si1 0.850943 0.605786 0.686535
Si Si2 0.848466 0.146029 0.593718
Si Si3 0.668543 0.243369 0.563749
Si Si4 0.155984 0.553692 0.326296
Si Si5 0.253130 0.645171 0.247777
Si Si6 0.046323 0.167894 0.384712
Si Si7 0.976309 0.689548 0.554065
O O1 0.821863 0.526034 0.670420
O O2 0.709140 0.639782 0.531675
O O3 0.000000 0.622475 0.750000
O O4 0.890017 0.639580 0.811095
O O5 0.749787 0.174588 0.596141
O O6 0.880348 0.209791 0.555434
O O7 0.777227 0.082513 0.487741
O O8 0.000000 0.116593 0.750000
O O9 0.767404 0.286081 0.710345
O O10 0.519169 0.220340 0.493411
O O11 0.180791 0.584475 0.248340
O O12 0.000000 0.572068 0.250000
O O13 0.427504 0.635042 0.360713
O O14 0.174124 0.649817 0.089900
O O15 0.051888 0.250123 0.398075
O O16 0.000000 0.148580 0.250000
#
# Coordination Sequence:
#
# PCOD8133934 Si02
#       7
#     8   8   8   8   8   8   8
#     4  11  25  42  60  84 116 156 199 242 297 360
#     4  10  19  34  60  89 121 158 196 240 294 350
#     4   9  19  33  57  92 123 149 191 245 297 348
#     4  10  23  42  59  83 123 163 196 237 292 358
#     4  10  21  37  61  90 118 153 195 239 293 350
#     4  11  23  40  62  88 116 148 193 252 301 340
#     4  11  21  37  61  86 115 150 195 244 295 350
#
# _framework density 20.781061999999999
#
# number of rings (size 3 to 8) (size 9 to 14) (size 15 to 20)
#    0.000    1.714    0.000    4.714    0.000    9.714 
#    0.000    1.429    0.000    0.000    0.000    0.000 
#    0.000    0.000    0.000    0.000    0.000    0.000 
#
# Total GULP energy -347091.716113 kJ/mol
# GULP energy per Si atom -12396.132718 kJ/mol
# Density = 2.073376 g / cm^3
# Si number density = 20.781062 Si / 1000 Ang^3
#
#
#
# Elastic Constant Matrix: (Units=GPa)
#
#
# Indices 1 2 3 4 5 6 
#
# 1 93.1827 43.2122 35.2352 0.0000 1.6604 0.0000
# 2 43.2122 112.6739 48.1949 0.0000 11.5641 0.0001
# 3 35.2352 48.1949 155.1211 -0.0002 11.3210 0.0001
# 4 0.0000 0.0000 -0.0002 22.2681 -0.0001 3.7907
# 5 1.6604 11.5641 11.3210 -0.0001 27.8059 0.0001
# 6 0.0000 0.0001 0.0001 3.7907 0.0001 14.7188
#
#
#
# Elastic Compliance Matrix: (Units=1/GPa)
#
#
# Indices 1 2 3 4 5 6 
#
# 1 0.013506 -0.004611 -0.001769 0.000000 0.001831 0.000000
# 2 -0.004611 0.012067 -0.002428 0.000000 -0.003755 0.000000
# 3 -0.001769 -0.002428 0.007752 0.000000 -0.002041 0.000000
# 4 0.000000 0.000000 0.000000 0.046966 0.000000 -0.012096
# 5 0.001831 -0.003755 -0.002041 0.000000 0.038247 0.000000
# 6 0.000000 0.000000 0.000000 -0.012096 0.000000 0.071056
#
#
# Mechanical properties :
#
#
# Convention : Reuss Voigt Hill
#
# Bulk Modulus (GPa) = 63.65567 68.25136 65.95351
# Shear Modulus (GPa) = 23.53537 28.58092 26.05815
#
# Velocity S-wave (km/s) = 3.36897 3.71257 3.54494
# Velocity P-wave (km/s) = 6.76989 7.16184 6.96862
#
# Compressibility (1/GPa) = 0.01570952
#
# Stress axis : x y z
#
# Youngs Moduli (GPa) = 74.03996 82.86739 129.00550
#
# Poissons Ratio (x) = 0.38212 0.22820
# Poissons Ratio (y) = 0.34141 0.31320
# Poissons Ratio (z) = 0.13097 0.20119
#
# Static dielectric constant tensor:
#      x y z
#    x 3.888550 0.000000 -0.031480 
#    y 0.000000 3.560890 0.000000 
#    z -0.031480 0.000000 3.773450 
# 
# 
# High freq. dielectric constant tensor:
#      x y z
#    x 1.822440 0.000000 -0.000360 
#    y 0.000000 1.790220 0.000000 
#    z -0.000360 0.000000 1.822690 
# 
# From -- ./inp_files/156219.got.cif
#   From: 2010.06.25/outbox.cif.g09.slc.cpg/sg15_79_cif.got.tgz:156219.got - 2010.06.28 07:06:18.
