data_PCOD8133771
_publ_section_title
;
Structure prediction by ZEFSAII (Michael W. Deem and Ramdas Pophale) SiO2 
 PCOD8133771
Probable space group: C 2/C
;
_chemical_formula_sum "Si O2"
_cell_formula_units_Z 40
_cell_length_a 20.102251
_cell_length_b 12.016799
_cell_length_c 7.925178
_cell_angle_alpha 90.000000
_cell_angle_beta 121.988724
_cell_angle_gamma 90.000000
_cell_volume 1623.739641
_symmetry_space_group_name_H-M "C 2/C"
_symmetry_group_IT_number 15
_symmetry_cell_setting 'monoclinic'
loop_
_space_group_symop_operation_xyz
x,y,z
-x,y,1/2-z
-x,-y,-z
x,-y,1/2+z
1/2+x,1/2+y,z
1/2-x,1/2+y,1/2-z
1/2-x,1/2-y,-z
1/2+x,1/2-y,1/2+z
loop_
_atom_site_type_symbol
_atom_site_label
_atom_site_fract_x
_atom_site_fract_y
_atom_site_fract_z
Si Si1 0.047995 0.615890 0.658465
Si Si2 0.137677 0.050547 0.628246
Si Si3 0.358871 0.671970 0.516939
Si Si4 0.000000 0.170427 0.250000
Si Si5 0.780498 0.332558 0.180878
Si Si6 0.000000 0.334995 0.750000
O O1 0.045229 0.750620 0.676431
O O2 0.141712 0.595555 0.770692
O O3 0.001416 0.586879 0.420981
O O4 0.000000 0.559056 0.750000
O O5 0.155626 0.097511 0.837483
O O6 0.214976 0.075113 0.623079
O O7 0.059640 0.097232 0.437139
O O8 0.124922 0.916705 0.613150
O O9 0.290653 0.755701 0.362657
O O10 0.426501 0.756307 0.654158
O O11 0.750000 0.250000 0.000000
#
# Coordination Sequence:
#
# PCOD8133771 Si02
#       6
#     8   8   8   4   8   4
#     4   9  18  34  56  83 116 156 188 239 290 353
#     4  12  23  37  57  89 120 157 200 235 299 352
#     4  11  24  36  58  86 122 156 191 246 290 360
#     4  10  19  34  58  82 123 152 187 240 290 360
#     4  11  21  38  57  83 119 156 196 238 296 351
#     4  10  19  34  56  88 119 154 189 232 308 364
#
# _framework density 24.634491000000001
#
# number of rings (size 3 to 8) (size 9 to 14) (size 15 to 20)
#    0.600    0.800    4.000    2.400    2.800    1.600 
#    0.000    0.000    0.000    0.000    0.000   18.200 
#    0.000    0.800    0.000    0.000    0.000    0.000 
#
# Total GULP energy -247810.885136 kJ/mol
# GULP energy per Si atom -12390.544257 kJ/mol
# Density = 2.457842 g / cm^3
# Si number density = 24.634491 Si / 1000 Ang^3
#
#
#
# Elastic Constant Matrix: (Units=GPa)
#
#
# Indices 1 2 3 4 5 6 
#
# 1 97.7572 14.4680 50.9844 0.0000 -1.6621 0.0000
# 2 14.4680 67.9373 41.8182 0.0000 -10.8144 0.0000
# 3 50.9844 41.8182 152.0459 0.0000 1.7767 0.0000
# 4 0.0000 0.0000 0.0000 5.3965 0.0000 -37.1473
# 5 -1.6621 -10.8144 1.7767 0.0000 40.5555 0.0000
# 6 0.0000 0.0000 0.0000 -37.1473 0.0000 2.3634
#
#
#
# Elastic Compliance Matrix: (Units=1/GPa)
#
#
# Indices 1 2 3 4 5 6 
#
# 1 0.012417 0.000043 -0.004184 0.000000 0.000704 0.000000
# 2 0.000043 0.018768 -0.005237 0.000000 0.005236 0.000000
# 3 -0.004184 -0.005237 0.009443 0.000000 -0.001982 0.000000
# 4 0.000000 0.000000 0.000000 -0.001729 0.000000 -0.027171
# 5 0.000704 0.005236 -0.001982 0.000000 0.026169 0.000000
# 6 0.000000 0.000000 0.000000 -0.027171 0.000000 -0.003947
#
#
# Mechanical properties :
#
#
# Convention : Reuss Voigt Hill
#
# Bulk Modulus (GPa) = 45.72109 59.14240 52.43174
# Shear Modulus (GPa) = 57.36028 23.69441 40.52734
#
# Velocity S-wave (km/s) = 4.83064 3.10472 4.06044
# Velocity P-wave (km/s) = 7.05078 6.07556 6.58126
#
# Compressibility (1/GPa) = 0.02187174
#
# Stress axis : x y z
#
# Youngs Moduli (GPa) = 80.53455 53.28349 105.89312
#
# Poissons Ratio (x) = -0.00229 0.44303
# Poissons Ratio (y) = -0.00346 0.55460
# Poissons Ratio (z) = 0.33694 0.27906
#
# Static dielectric constant tensor:
#      x y z
#    x 4.352400 0.000000 -0.002430 
#    y 0.000000 4.534520 0.000000 
#    z -0.002430 0.000000 4.210850 
# 
# 
# High freq. dielectric constant tensor:
#      x y z
#    x 1.965210 0.000000 -0.008620 
#    y 0.000000 1.995630 0.000000 
#    z -0.008620 0.000000 2.005670 
# 
# From -- ./inp_files/46761.got.cif
#   From: 2010.06.25/outbox.cif.g09.slc.cpg/sg15_24_cif.got.tgz:46761.got - 2010.06.28 07:06:18.
