data_PCOD8133612
_publ_section_title
;
Structure prediction by ZEFSAII (Michael W. Deem and Ramdas Pophale) SiO2 
 PCOD8133612
Probable space group: C 2/C
;
_chemical_formula_sum "Si O2"
_cell_formula_units_Z 60
_cell_length_a 13.882693
_cell_length_b 30.017873
_cell_length_c 8.381332
_cell_angle_alpha 90.000000
_cell_angle_beta 96.170627
_cell_angle_gamma 90.000000
_cell_volume 3472.507136
_symmetry_space_group_name_H-M "C 2/C"
_symmetry_group_IT_number 15
_symmetry_cell_setting 'monoclinic'
loop_
_space_group_symop_operation_xyz
x,y,z
-x,y,1/2-z
-x,-y,-z
x,-y,1/2+z
1/2+x,1/2+y,z
1/2-x,1/2+y,1/2-z
1/2-x,1/2-y,-z
1/2+x,1/2-y,1/2+z
loop_
_atom_site_type_symbol
_atom_site_label
_atom_site_fract_x
_atom_site_fract_y
_atom_site_fract_z
Si Si1 0.896664 0.930537 0.145173
Si Si2 0.107210 0.229582 0.029596
Si Si3 0.309923 0.183105 0.557422
Si Si4 0.203336 0.255141 0.735234
Si Si5 0.073229 0.024090 0.393927
Si Si6 0.828997 0.107547 0.927837
Si Si7 0.477508 0.636225 0.431186
Si Si8 0.000000 0.710733 0.750000
O O1 0.818190 0.903748 0.237629
O O2 0.000000 0.929842 0.250000
O O3 0.858783 0.981860 0.140173
O O4 0.914938 0.907486 0.975600
O O5 0.203807 0.230824 0.149103
O O6 0.025100 0.258608 0.102151
O O7 0.081074 0.178310 0.020936
O O8 0.118603 0.245867 0.848568
O O9 0.228076 0.211433 0.635942
O O10 0.328821 0.204614 0.387052
O O11 0.268391 0.132670 0.530295
O O12 0.409193 0.180642 0.677997
O O13 0.144811 0.062496 0.469084
O O14 0.000000 0.044913 0.250000
O O15 0.000000 0.000000 0.500000
O O16 0.919500 0.140560 0.963117
O O17 0.500000 0.635097 0.250000
#
# Coordination Sequence:
#
# PCOD8133612 Si02
#       8
#     8   8   8   8   8   8   8   4
#     4   9  19  31  44  71 107 142 170 201 254 315
#     4  10  19  34  50  77 104 144 175 225 268 314
#     4  10  21  37  51  76  98 141 183 232 268 317
#     4   9  20  35  53  71 107 135 184 229 265 315
#     4  11  18  33  50  75 112 145 165 197 263 327
#     4  11  21  32  50  74 106 139 175 216 253 322
#     4  11  19  27  47  76 104 138 179 209 251 312
#     4  10  22  38  54  68 104 140 188 232 278 304
#
# _framework density 17.278580999999999
#
# number of rings (size 3 to 8) (size 9 to 14) (size 15 to 20)
#    0.000    1.867    4.667    2.000    3.733    0.533 
#    0.000    0.000    0.000    0.000    0.000    0.933 
#    0.000    0.000    0.000    0.000    0.000    0.000 
#
# Total GULP energy -371655.687972 kJ/mol
# GULP energy per Si atom -12388.522932 kJ/mol
# Density = 1.723925 g / cm^3
# Si number density = 17.278581 Si / 1000 Ang^3
#
#
#
# Elastic Constant Matrix: (Units=GPa)
#
#
# Indices 1 2 3 4 5 6 
#
# 1 44.8183 48.9904 32.6971 0.0000 -11.2954 0.0000
# 2 48.9904 119.1369 43.7375 0.0000 -4.5038 0.0000
# 3 32.6971 43.7375 101.4252 0.0000 -22.8848 0.0000
# 4 0.0000 0.0000 0.0000 20.0134 0.0000 2.8640
# 5 -11.2954 -4.5038 -22.8848 0.0000 24.9759 0.0000
# 6 0.0000 0.0000 0.0000 2.8640 0.0000 26.7731
#
#
#
# Elastic Compliance Matrix: (Units=1/GPa)
#
#
# Indices 1 2 3 4 5 6 
#
# 1 0.048962 -0.017812 -0.004830 0.000000 0.014505 0.000000
# 2 -0.017812 0.016599 -0.003225 0.000000 -0.008017 0.000000
# 3 -0.004830 -0.003225 0.015358 0.000000 0.011306 0.000000
# 4 0.000000 0.000000 0.000000 0.050743 0.000000 -0.005428
# 5 0.014505 -0.008017 0.011306 0.000000 0.055513 0.000000
# 6 0.000000 0.000000 0.000000 -0.005428 0.000000 0.037932
#
#
# Mechanical properties :
#
#
# Convention : Reuss Voigt Hill
#
# Bulk Modulus (GPa) = 34.26375 57.35895 45.81135
# Shear Modulus (GPa) = 17.44776 23.68284 20.56530
#
# Velocity S-wave (km/s) = 3.18117 3.70624 3.45370
# Velocity P-wave (km/s) = 5.77636 7.18217 6.51728
#
# Compressibility (1/GPa) = 0.02918537
#
# Stress axis : x y z
#
# Youngs Moduli (GPa) = 20.42391 60.24455 65.11137
#
# Poissons Ratio (x) = 1.07308 0.31451
# Poissons Ratio (y) = 0.36379 0.20996
# Poissons Ratio (z) = 0.09865 0.19427
#
# Static dielectric constant tensor:
#      x y z
#    x 2.964350 0.000000 -0.291850 
#    y 0.000000 3.810660 0.000000 
#    z -0.291850 0.000000 3.857660 
# 
# 
# High freq. dielectric constant tensor:
#      x y z
#    x 1.613680 0.000000 -0.015060 
#    y 0.000000 1.666100 0.000000 
#    z -0.015060 0.000000 1.685750 
# 
# From -- ./inp_files/43190.got.cif
#   From: 2010.06.25/outbox.cif.g09.slc.cpg/sg15_22_cif.got.tgz:43190.got - 2010.06.28 07:06:18.
