data_PCOD8133866
_publ_section_title
;
Structure prediction by ZEFSAII (Michael W. Deem and Ramdas Pophale) SiO2 
 PCOD8133866
Probable space group: C 2/C
;
_chemical_formula_sum "Si O2"
_cell_formula_units_Z 52
_cell_length_a 13.888204
_cell_length_b 27.346169
_cell_length_c 8.868162
_cell_angle_alpha 90.000000
_cell_angle_beta 48.219218
_cell_angle_gamma 90.000000
_cell_volume 2511.539799
_symmetry_space_group_name_H-M "C 2/C"
_symmetry_group_IT_number 15
_symmetry_cell_setting 'monoclinic'
loop_
_space_group_symop_operation_xyz
x,y,z
-x,y,1/2-z
-x,-y,-z
x,-y,1/2+z
1/2+x,1/2+y,z
1/2-x,1/2+y,1/2-z
1/2-x,1/2-y,-z
1/2+x,1/2-y,1/2+z
loop_
_atom_site_type_symbol
_atom_site_label
_atom_site_fract_x
_atom_site_fract_y
_atom_site_fract_z
Si Si1 0.639295 0.892634 0.407608
Si Si2 0.632817 0.471937 0.850555
Si Si3 0.276006 0.037564 0.906580
Si Si4 0.000000 0.465959 0.750000
Si Si5 0.978167 0.712324 0.451156
Si Si6 0.258553 0.278896 0.647228
Si Si7 0.852991 0.119335 0.941103
O O1 0.677005 0.909243 0.198401
O O2 0.527457 0.929791 0.581149
O O3 0.575544 0.840367 0.450244
O O4 0.764899 0.891825 0.386482
O O5 0.733507 0.512715 0.795231
O O6 0.663031 0.455128 0.648253
O O7 0.500000 0.500000 0.000000
O O8 0.642418 0.427027 0.954946
O O9 0.381312 0.001934 0.862982
O O10 0.874320 0.752555 0.618827
O O11 0.000000 0.714842 0.250000
O O12 0.119252 0.723409 0.377936
O O13 0.250000 0.250000 0.500000
O O14 0.289837 0.335620 0.593566
O O15 0.000000 0.133688 0.750000
#
# Coordination Sequence:
#
# PCOD8133866 Si02
#       7
#     8   8   8   4   8   8   8
#     4  12  22  38  61  90 125 162 204 254 315 366
#     4  12  25  44  61  87 125 165 211 260 310 375
#     4  12  25  39  62  88 120 163 206 255 308 370
#     4  12  22  40  58  86 124 158 202 254 306 368
#     4  10  19  34  58  89 127 155 200 262 308 371
#     4  10  19  34  58  94 123 156 204 257 317 365
#     4  12  22  37  63  91 124 162 206 257 313 371
#
# _framework density 20.704429999999999
#
# number of rings (size 3 to 8) (size 9 to 14) (size 15 to 20)
#    0.000    0.615    6.923    4.154    0.000    0.000 
#    0.000    0.000    0.000    0.923    0.000    0.000 
#    0.000    0.000    0.000    0.000    0.000    0.000 
#
# Total GULP energy -322212.213701 kJ/mol
# GULP energy per Si atom -12392.777450 kJ/mol
# Density = 2.065731 g / cm^3
# Si number density = 20.704430 Si / 1000 Ang^3
#
#
#
# Elastic Constant Matrix: (Units=GPa)
#
#
# Indices 1 2 3 4 5 6 
#
# 1 48.0515 36.2486 45.9552 0.0000 -27.3557 0.0000
# 2 36.2486 110.8752 36.2721 0.0000 -17.2623 0.0000
# 3 45.9552 36.2721 116.2498 0.0000 -18.6023 0.0000
# 4 0.0000 0.0000 0.0000 20.5756 0.0000 -9.8617
# 5 -27.3557 -17.2623 -18.6023 0.0000 36.0867 0.0000
# 6 0.0000 0.0000 0.0000 -9.8617 0.0000 25.7901
#
#
#
# Elastic Compliance Matrix: (Units=1/GPa)
#
#
# Indices 1 2 3 4 5 6 
#
# 1 0.064719 -0.010147 -0.016724 0.000000 0.035586 0.000000
# 2 -0.010147 0.012052 -0.000063 0.000000 -0.001959 0.000000
# 3 -0.016724 -0.000063 0.014386 0.000000 -0.005292 0.000000
# 4 0.000000 0.000000 0.000000 0.059507 0.000000 0.022754
# 5 0.035586 -0.001959 -0.005292 0.000000 0.051022 0.000000
# 6 0.000000 0.000000 0.000000 0.022754 0.000000 0.047475
#
#
# Mechanical properties :
#
#
# Convention : Reuss Voigt Hill
#
# Bulk Modulus (GPa) = 26.81704 56.90316 41.86010
# Shear Modulus (GPa) = 15.84994 26.93718 21.39356
#
# Velocity S-wave (km/s) = 2.76983 3.61090 3.21796
# Velocity P-wave (km/s) = 4.81765 6.70284 5.83685
#
# Compressibility (1/GPa) = 0.03728973
#
# Stress axis : x y z
#
# Youngs Moduli (GPa) = 15.45144 82.97338 69.51160
#
# Poissons Ratio (x) = 0.84195 1.16249
# Poissons Ratio (y) = 0.15679 0.00435
# Poissons Ratio (z) = 0.25841 0.00520
#
# Static dielectric constant tensor:
#      x y z
#    x 4.544590 0.000000 -0.777290 
#    y 0.000000 3.994820 0.000000 
#    z -0.777290 0.000000 3.748610 
# 
# 
# High freq. dielectric constant tensor:
#      x y z
#    x 1.798020 0.000000 -0.042100 
#    y 0.000000 1.821970 0.000000 
#    z -0.042100 0.000000 1.793950 
# 
# From -- ./inp_files/43416.got.cif
#   From: 2010.06.25/outbox.cif.g09.slc.cpg/sg15_22_cif.got.tgz:43416.got - 2010.06.28 07:06:18.
