data_PCOD8133609
_publ_section_title
;
Structure prediction by ZEFSAII (Michael W. Deem and Ramdas Pophale) SiO2 
 PCOD8133609
Probable space group: C 2/C
;
_chemical_formula_sum "Si O2"
_cell_formula_units_Z 56
_cell_length_a 30.677549
_cell_length_b 12.951744
_cell_length_c 8.988619
_cell_angle_alpha 90.000000
_cell_angle_beta 123.134629
_cell_angle_gamma 90.000000
_cell_volume 2990.672639
_symmetry_space_group_name_H-M "C 2/C"
_symmetry_group_IT_number 15
_symmetry_cell_setting 'monoclinic'
loop_
_space_group_symop_operation_xyz
x,y,z
-x,y,1/2-z
-x,-y,-z
x,-y,1/2+z
1/2+x,1/2+y,z
1/2-x,1/2+y,1/2-z
1/2-x,1/2-y,-z
1/2+x,1/2-y,1/2+z
loop_
_atom_site_type_symbol
_atom_site_label
_atom_site_fract_x
_atom_site_fract_y
_atom_site_fract_z
Si Si1 0.238421 0.093382 0.075917
Si Si2 0.500000 0.143505 0.750000
Si Si3 0.500000 0.860433 0.750000
Si Si4 0.928894 0.559472 0.872026
Si Si5 0.725304 0.395419 0.892785
Si Si6 0.323125 0.200272 0.070472
Si Si7 0.828369 0.312247 0.237382
Si Si8 0.930289 0.320360 0.873107
O O1 0.242972 0.076515 0.259782
O O2 0.295997 0.106573 0.111138
O O3 0.209884 0.197550 0.983889
O O4 0.206648 0.999092 0.941224
O O5 0.471833 0.075418 0.823610
O O6 0.456760 0.210948 0.580488
O O7 0.456257 0.927612 0.583376
O O8 0.470358 0.789777 0.815911
O O9 0.879981 0.638110 0.758988
O O10 0.912759 0.440769 0.833022
O O11 0.678125 0.311381 0.805920
O O12 0.775951 0.360824 0.077385
O O13 0.376330 0.237716 0.249068
O O14 0.332393 0.162900 0.919495
#
# Coordination Sequence:
#
# PCOD8133609 Si02
#       8
#     8   4   4   8   8   8   8   8
#     4  10  21  37  55  78 108 138 174 219 261 312
#     4  10  23  30  46  80 109 140 175 204 270 308
#     4  10  19  34  50  68 105 144 169 214 256 314
#     4  11  19  32  50  75 109 140 172 213 256 314
#     4  10  21  37  55  78 108 138 174 219 261 312
#     4  10  21  35  55  80 105 141 180 211 259 314
#     4  10  21  35  55  80 105 141 180 211 259 314
#     4  11  19  32  50  75 109 140 172 213 256 314
#
# _framework density 18.724885
#
# number of rings (size 3 to 8) (size 9 to 14) (size 15 to 20)
#    0.000    1.714    1.429    5.143    2.000    1.143 
#    0.000    0.000    0.000    0.000    0.000    6.000 
#    0.000    0.000    0.000    0.000    0.000    0.000 
#
# Total GULP energy -347009.092061 kJ/mol
# GULP energy per Si atom -12393.181859 kJ/mol
# Density = 1.868227 g / cm^3
# Si number density = 18.724885 Si / 1000 Ang^3
#
#
#
# Elastic Constant Matrix: (Units=GPa)
#
#
# Indices 1 2 3 4 5 6 
#
# 1 65.6137 13.9373 30.1292 0.0000 4.5082 0.0000
# 2 13.9373 34.1245 6.6144 0.0000 -9.5217 0.0000
# 3 30.1292 6.6144 130.0663 0.0000 -2.5960 0.0000
# 4 0.0000 0.0000 0.0000 11.6669 0.0000 -3.9734
# 5 4.5082 -9.5217 -2.5960 0.0000 29.4620 0.0000
# 6 0.0000 0.0000 0.0000 -3.9734 0.0000 9.8849
#
#
#
# Elastic Compliance Matrix: (Units=1/GPa)
#
#
# Indices 1 2 3 4 5 6 
#
# 1 0.019475 -0.008878 -0.004184 0.000000 -0.006218 0.000000
# 2 -0.008878 0.036525 0.000463 0.000000 0.013204 0.000000
# 3 -0.004184 0.000463 0.008665 0.000000 0.001553 0.000000
# 4 0.000000 0.000000 0.000000 0.099308 0.000000 0.039918
# 5 -0.006218 0.013204 0.001553 0.000000 0.039298 0.000000
# 6 0.000000 0.000000 0.000000 0.039918 0.000000 0.117210
#
#
# Mechanical properties :
#
#
# Convention : Reuss Voigt Hill
#
# Bulk Modulus (GPa) = 25.33802 36.79627 31.06714
# Shear Modulus (GPa) = 13.93398 22.14431 18.03914
#
# Velocity S-wave (km/s) = 2.73086 3.44265 3.10720
# Velocity P-wave (km/s) = 4.84815 5.95786 5.43142
#
# Compressibility (1/GPa) = 0.03946638
#
# Stress axis : x y z
#
# Youngs Moduli (GPa) = 51.34786 27.37844 115.40623
#
# Poissons Ratio (x) = 0.24307 0.48285
# Poissons Ratio (y) = 0.45587 -0.05339
# Poissons Ratio (z) = 0.21483 -0.01267
#
# Static dielectric constant tensor:
#      x y z
#    x 3.543400 0.000000 -0.091720 
#    y 0.000000 3.223050 0.000000 
#    z -0.091720 0.000000 3.785130 
# 
# 
# High freq. dielectric constant tensor:
#      x y z
#    x 1.724970 0.000000 -0.008060 
#    y 0.000000 1.680550 0.000000 
#    z -0.008060 0.000000 1.750390 
# 
# From -- ./inp_files/69479.got.cif
#   From: 2010.06.25/outbox.cif.g09.slc.cpg/sg15_35_cif.got.tgz:69479.got - 2010.06.28 07:06:18.
