data_PCOD8133179
_publ_section_title
;
Structure prediction by ZEFSAII (Michael W. Deem and Ramdas Pophale) SiO2 
 PCOD8133179
Probable space group: C 2/C
;
_chemical_formula_sum "Si O2"
_cell_formula_units_Z 52
_cell_length_a 16.525242
_cell_length_b 17.381349
_cell_length_c 9.283162
_cell_angle_alpha 90.000000
_cell_angle_beta 106.013003
_cell_angle_gamma 90.000000
_cell_volume 2562.952754
_symmetry_space_group_name_H-M "C 2/C"
_symmetry_group_IT_number 15
_symmetry_cell_setting 'monoclinic'
loop_
_space_group_symop_operation_xyz
x,y,z
-x,y,1/2-z
-x,-y,-z
x,-y,1/2+z
1/2+x,1/2+y,z
1/2-x,1/2+y,1/2-z
1/2-x,1/2-y,-z
1/2+x,1/2-y,1/2+z
loop_
_atom_site_type_symbol
_atom_site_label
_atom_site_fract_x
_atom_site_fract_y
_atom_site_fract_z
Si Si1 0.966088 0.619234 0.955560
Si Si2 0.235977 0.924812 0.570104
Si Si3 0.000000 0.262026 0.250000
Si Si4 0.106141 0.458695 0.660959
Si Si5 0.791479 0.336418 0.337450
Si Si6 0.268994 0.915689 0.028197
Si Si7 0.326374 0.317961 0.731077
O O1 0.021563 0.679832 0.890299
O O2 0.932211 0.544438 0.850348
O O3 0.882374 0.665192 0.960997
O O4 0.023819 0.596514 0.119897
O O5 0.332375 0.937109 0.676742
O O6 0.228199 0.869697 0.425982
O O7 0.174357 0.890538 0.660778
O O8 0.205952 0.010585 0.512494
O O9 0.079653 0.207961 0.258612
O O10 0.153372 0.444335 0.531604
O O11 0.797968 0.391633 0.201674
O O12 0.770222 0.249649 0.277358
O O13 0.219059 0.843592 0.937672
#
# Coordination Sequence:
#
# PCOD8133179 Si02
#       7
#     8   8   4   8   8   8   8
#     4  10  19  32  54  85 126 158 191 235 279 367
#     4  11  21  37  57  89 120 152 202 249 293 343
#     4  10  22  40  60  84 114 160 200 240 308 356
#     4  10  20  32  55  88 124 159 194 229 291 353
#     4  11  20  35  55  86 121 161 195 238 294 352
#     4  11  20  38  57  85 113 159 206 239 289 359
#     4  10  23  39  60  81 114 152 203 254 297 354
#
# _framework density 20.289099
#
# number of rings (size 3 to 8) (size 9 to 14) (size 15 to 20)
#    0.000    1.538    3.077    3.692    0.000    1.846 
#    0.000    0.769    0.000    2.769    0.000    0.000 
#    0.000    0.000    0.000    0.000    0.000    0.000 
#
# Total GULP energy -322115.215000 kJ/mol
# GULP energy per Si atom -12389.046731 kJ/mol
# Density = 2.024292 g / cm^3
# Si number density = 20.289099 Si / 1000 Ang^3
#
#
#
# Elastic Constant Matrix: (Units=GPa)
#
#
# Indices 1 2 3 4 5 6 
#
# 1 62.9745 40.7024 26.8631 0.0000 3.7746 0.0000
# 2 40.7024 115.9557 28.7191 0.0000 8.9170 0.0000
# 3 26.8631 28.7191 82.7711 0.0000 -2.3533 0.0000
# 4 0.0000 0.0000 0.0000 40.6685 0.0000 -2.1293
# 5 3.7746 8.9170 -2.3533 0.0000 21.6828 0.0000
# 6 0.0000 0.0000 0.0000 -2.1293 0.0000 36.4427
#
#
#
# Elastic Compliance Matrix: (Units=1/GPa)
#
#
# Indices 1 2 3 4 5 6 
#
# 1 0.022305 -0.006440 -0.005055 0.000000 -0.001783 0.000000
# 2 -0.006440 0.011701 -0.002081 0.000000 -0.003917 0.000000
# 3 -0.005055 -0.002081 0.014538 0.000000 0.003314 0.000000
# 4 0.000000 0.000000 0.000000 0.024664 0.000000 0.001441
# 5 -0.001783 -0.003917 0.003314 0.000000 0.048400 0.000000
# 6 0.000000 0.000000 0.000000 0.001441 0.000000 0.027525
#
#
# Mechanical properties :
#
#
# Convention : Reuss Voigt Hill
#
# Bulk Modulus (GPa) = 46.74725 50.47449 48.61087
# Shear Modulus (GPa) = 27.26006 30.78660 29.02333
#
# Velocity S-wave (km/s) = 3.66947 3.89960 3.78628
# Velocity P-wave (km/s) = 6.40655 6.72365 6.56702
#
# Compressibility (1/GPa) = 0.02139163
#
# Stress axis : x y z
#
# Youngs Moduli (GPa) = 44.83232 85.46032 68.78305
#
# Poissons Ratio (x) = 0.55040 0.34771
# Poissons Ratio (y) = 0.28874 0.14315
# Poissons Ratio (z) = 0.22664 0.17786
#
# Static dielectric constant tensor:
#      x y z
#    x 3.338530 0.000000 -0.087420 
#    y 0.000000 3.924820 0.000000 
#    z -0.087420 0.000000 3.720620 
# 
# 
# High freq. dielectric constant tensor:
#      x y z
#    x 1.751110 0.000000 -0.016030 
#    y 0.000000 1.802220 0.000000 
#    z -0.016030 0.000000 1.791020 
# 
# From -- ./inp_files/48653.got.cif
#   From: 2010.06.25/outbox.cif.g09.slc.cpg/sg15_25_cif.got.tgz:48653.got - 2010.06.28 07:06:18.
