data_PCOD8133327
_publ_section_title
;
Structure prediction by ZEFSAII (Michael W. Deem and Ramdas Pophale) SiO2 
 PCOD8133327
Probable space group: C 2/C
;
_chemical_formula_sum "Si O2"
_cell_formula_units_Z 52
_cell_length_a 10.715615
_cell_length_b 27.257238
_cell_length_c 14.010692
_cell_angle_alpha 90.000000
_cell_angle_beta 133.814727
_cell_angle_gamma 90.000000
_cell_volume 2952.870527
_symmetry_space_group_name_H-M "C 2/C"
_symmetry_group_IT_number 15
_symmetry_cell_setting 'monoclinic'
loop_
_space_group_symop_operation_xyz
x,y,z
-x,y,1/2-z
-x,-y,-z
x,-y,1/2+z
1/2+x,1/2+y,z
1/2-x,1/2+y,1/2-z
1/2-x,1/2-y,-z
1/2+x,1/2-y,1/2+z
loop_
_atom_site_type_symbol
_atom_site_label
_atom_site_fract_x
_atom_site_fract_y
_atom_site_fract_z
Si Si1 0.949702 0.740274 0.615749
Si Si2 0.536393 0.036706 0.603521
Si Si3 0.935762 0.027032 0.824454
Si Si4 0.583053 0.135597 0.897299
Si Si5 0.135381 0.067206 0.099915
Si Si6 0.500000 0.028024 0.250000
Si Si7 0.481520 0.653744 0.126314
O O1 0.750000 0.750000 0.500000
O O2 0.991824 0.686340 0.592868
O O3 0.039368 0.790375 0.625698
O O4 0.000000 0.731491 0.750000
O O5 0.739017 0.044510 0.727930
O O6 0.454675 0.090940 0.549521
O O7 0.500000 0.000000 0.500000
O O8 0.436128 0.009002 0.634764
O O9 0.000000 0.028063 0.750000
O O10 0.952234 0.972350 0.875669
O O11 0.049717 0.063933 0.949474
O O12 0.500000 0.123625 0.750000
O O13 0.787831 0.141047 0.991381
O O14 0.341415 0.061264 0.200544
O O15 0.110197 0.119837 0.134829
O O16 0.500000 0.646992 0.250000
#
# Coordination Sequence:
#
# PCOD8133327 Si02
#       7
#     8   8   8   8   8   4   8
#     4   8  16  31  49  76 106 129 163 213 262 313
#     4  11  22  32  51  75 104 139 169 208 253 308
#     4  10  21  35  49  73 102 138 180 211 255 311
#     4  10  19  33  53  76 110 136 168 214 263 312
#     4  10  21  33  53  71 106 140 170 217 260 305
#     4  10  22  36  44  74 106 130 178 206 246 308
#     4  10  20  32  54  82 107 135 169 210 269 318
#
# _framework density 17.609983
#
# number of rings (size 3 to 8) (size 9 to 14) (size 15 to 20)
#    0.000    2.154    0.769    2.308   10.769    0.000 
#    0.000    0.000    0.000    0.000    2.000    2.154 
#    0.000    0.000    0.000    0.000    0.000    0.000 
#
# Total GULP energy -322092.193682 kJ/mol
# GULP energy per Si atom -12388.161295 kJ/mol
# Density = 1.756990 g / cm^3
# Si number density = 17.609983 Si / 1000 Ang^3
#
#
#
# Elastic Constant Matrix: (Units=GPa)
#
#
# Indices 1 2 3 4 5 6 
#
# 1 74.5250 58.7728 20.2755 0.0000 -9.0576 0.0000
# 2 58.7728 184.3943 33.7705 0.0000 -6.1076 0.0000
# 3 20.2755 33.7705 85.0374 0.0000 -4.4091 0.0000
# 4 0.0000 0.0000 0.0000 21.1693 0.0000 0.7248
# 5 -9.0576 -6.1076 -4.4091 0.0000 29.0482 0.0000
# 6 0.0000 0.0000 0.0000 0.7248 0.0000 23.9227
#
#
#
# Elastic Compliance Matrix: (Units=1/GPa)
#
#
# Indices 1 2 3 4 5 6 
#
# 1 0.018841 -0.005477 -0.002089 0.000000 0.004406 0.000000
# 2 -0.005477 0.007463 -0.001678 0.000000 -0.000393 0.000000
# 3 -0.002089 -0.001678 0.012974 0.000000 0.000965 0.000000
# 4 0.000000 0.000000 0.000000 0.047287 0.000000 -0.001433
# 5 0.004406 -0.000393 0.000965 0.000000 0.035863 0.000000
# 6 0.000000 0.000000 0.000000 -0.001433 0.000000 0.041845
#
#
# Mechanical properties :
#
#
# Convention : Reuss Voigt Hill
#
# Bulk Modulus (GPa) = 48.09897 63.28829 55.69363
# Shear Modulus (GPa) = 26.35844 30.23722 28.29783
#
# Velocity S-wave (km/s) = 3.87303 4.14823 4.01299
# Velocity P-wave (km/s) = 6.88283 7.67858 7.29157
#
# Compressibility (1/GPa) = 0.02079047
#
# Stress axis : x y z
#
# Youngs Moduli (GPa) = 53.07450 133.99094 77.07640
#
# Poissons Ratio (x) = 0.73386 0.16100
# Poissons Ratio (y) = 0.29068 0.12936
# Poissons Ratio (z) = 0.11087 0.22488
#
# Static dielectric constant tensor:
#      x y z
#    x 2.895350 0.000000 0.051580 
#    y 0.000000 3.785570 0.000000 
#    z 0.051580 0.000000 3.578360 
# 
# 
# High freq. dielectric constant tensor:
#      x y z
#    x 1.633170 0.000000 0.005460 
#    y 0.000000 1.688120 0.000000 
#    z 0.005460 0.000000 1.703080 
# 
# From -- ./inp_files/148416.got.cif
#   From: 2010.06.25/outbox.cif.g09.slc.cpg/sg15_75_cif.got.tgz:148416.got - 2010.06.28 07:06:18.
