data_PCOD8133828
_publ_section_title
;
Structure prediction by ZEFSAII (Michael W. Deem and Ramdas Pophale) SiO2 
 PCOD8133828
Probable space group: C 2/C
;
_chemical_formula_sum "Si O2"
_cell_formula_units_Z 48
_cell_length_a 16.418976
_cell_length_b 9.688856
_cell_length_c 21.637127
_cell_angle_alpha 90.000000
_cell_angle_beta 39.050995
_cell_angle_gamma 90.000000
_cell_volume 2168.537141
_symmetry_space_group_name_H-M "C 2/C"
_symmetry_group_IT_number 15
_symmetry_cell_setting 'monoclinic'
loop_
_space_group_symop_operation_xyz
x,y,z
-x,y,1/2-z
-x,-y,-z
x,-y,1/2+z
1/2+x,1/2+y,z
1/2-x,1/2+y,1/2-z
1/2-x,1/2-y,-z
1/2+x,1/2-y,1/2+z
loop_
_atom_site_type_symbol
_atom_site_label
_atom_site_fract_x
_atom_site_fract_y
_atom_site_fract_z
Si Si1 0.994084 0.829986 0.383722
Si Si2 0.741458 0.279822 0.316571
Si Si3 0.412702 0.426785 0.001371
Si Si4 0.945211 0.657654 0.600162
Si Si5 0.865280 0.589650 0.510270
Si Si6 0.124553 0.987062 0.708375
O O1 0.096374 0.772089 0.374904
O O2 0.897444 0.698417 0.436043
O O3 0.075656 0.879544 0.276446
O O4 0.897536 0.955660 0.458743
O O5 0.723658 0.370189 0.390219
O O6 0.830056 0.363634 0.216985
O O7 0.794565 0.125630 0.299597
O O8 0.500000 0.500000 0.000000
O O9 0.491653 0.304422 0.922692
O O10 0.891681 0.653150 0.562555
O O11 0.051912 0.544964 0.551042
O O12 0.714039 0.548041 0.600608
O O13 0.000000 0.915123 0.750000
#
# Coordination Sequence:
#
# PCOD8133828 Si02
#       6
#     8   8   8   8   8   8
#     4  11  23  38  68  96 125 168 225 270 320 386
#     4  11  21  37  65  95 130 168 221 264 316 388
#     4  10  19  34  58 100 124 157 210 277 311 373
#     4  11  19  34  65  99 126 161 222 272 319 368
#     4  11  22  38  60  96 131 169 214 273 325 387
#     4  12  26  43  64  96 136 176 213 271 342 392
#
# _framework density 22.134737999999999
#
# number of rings (size 3 to 8) (size 9 to 14) (size 15 to 20)
#    0.000    1.000    8.333    1.000    0.000    2.000 
#    0.000    3.333    0.000    2.000    0.000    0.000 
#    0.000    0.000    0.000    0.000    0.000    0.000 
#
# Total GULP energy -297380.495821 kJ/mol
# GULP energy per Si atom -12390.853993 kJ/mol
# Density = 2.208436 g / cm^3
# Si number density = 22.134738 Si / 1000 Ang^3
#
#
#
# Elastic Constant Matrix: (Units=GPa)
#
#
# Indices 1 2 3 4 5 6 
#
# 1 27.7065 15.9885 12.1315 0.0000 -6.4682 0.0000
# 2 15.9885 120.2018 53.1955 0.0000 -7.9548 0.0000
# 3 12.1315 53.1955 177.5746 0.0000 -6.0987 0.0000
# 4 0.0000 0.0000 0.0000 46.1490 0.0000 -2.2945
# 5 -6.4682 -7.9548 -6.0987 0.0000 19.5460 0.0000
# 6 0.0000 0.0000 0.0000 -2.2945 0.0000 10.3253
#
#
#
# Elastic Compliance Matrix: (Units=1/GPa)
#
#
# Indices 1 2 3 4 5 6 
#
# 1 0.041807 -0.004264 -0.001176 0.000000 0.011733 0.000000
# 2 -0.004264 0.010208 -0.002701 0.000000 0.001900 0.000000
# 3 -0.001176 -0.002701 0.006540 0.000000 0.000552 0.000000
# 4 0.000000 0.000000 0.000000 0.021911 0.000000 0.004869
# 5 0.011733 0.001900 0.000552 0.000000 0.055990 0.000000
# 6 0.000000 0.000000 0.000000 0.004869 0.000000 0.097931
#
#
# Mechanical properties :
#
#
# Convention : Reuss Voigt Hill
#
# Bulk Modulus (GPa) = 23.65612 54.23488 38.94550
# Shear Modulus (GPa) = 18.88502 31.48190 25.18346
#
# Velocity S-wave (km/s) = 2.92410 3.77541 3.37669
# Velocity P-wave (km/s) = 4.70224 6.60002 5.73024
#
# Compressibility (1/GPa) = 0.04227237
#
# Stress axis : x y z
#
# Youngs Moduli (GPa) = 23.91932 97.96460 152.90627
#
# Poissons Ratio (x) = 0.41773 0.17979
# Poissons Ratio (y) = 0.10200 0.41305
# Poissons Ratio (z) = 0.02812 0.26463
#
# Static dielectric constant tensor:
#      x y z
#    x 3.628810 0.000000 0.107350 
#    y 0.000000 -2.126660 0.000000 
#    z 0.107350 0.000000 4.603360 
# 
# 
# High freq. dielectric constant tensor:
#      x y z
#    x 1.812010 0.000000 -0.000390 
#    y 0.000000 1.877010 0.000000 
#    z -0.000390 0.000000 1.898120 
# 
# From -- ./inp_files/300442.got.cif
#   From: 2010.06.25/outbox.cif.g09.slc.cpg/sg15_151_cif.got.tgz:300442.got - 2010.06.28 07:06:18.
