data_PCOD8133249
_publ_section_title
;
Structure prediction by ZEFSAII (Michael W. Deem and Ramdas Pophale) SiO2 
 PCOD8133249
Probable space group: C 2/C
;
_chemical_formula_sum "Si O2"
_cell_formula_units_Z 56
_cell_length_a 21.003155
_cell_length_b 16.330439
_cell_length_c 18.515920
_cell_angle_alpha 90.000000
_cell_angle_beta 25.818007
_cell_angle_gamma 90.000000
_cell_volume 2765.857777
_symmetry_space_group_name_H-M "C 2/C"
_symmetry_group_IT_number 15
_symmetry_cell_setting 'monoclinic'
loop_
_space_group_symop_operation_xyz
x,y,z
-x,y,1/2-z
-x,-y,-z
x,-y,1/2+z
1/2+x,1/2+y,z
1/2-x,1/2+y,1/2-z
1/2-x,1/2-y,-z
1/2+x,1/2-y,1/2+z
loop_
_atom_site_type_symbol
_atom_site_label
_atom_site_fract_x
_atom_site_fract_y
_atom_site_fract_z
Si Si1 0.744614 0.799956 0.269484
Si Si2 0.405162 0.913972 0.418444
Si Si3 0.351598 0.681799 0.358611
Si Si4 0.346377 0.637026 0.891883
Si Si5 0.365069 0.914873 0.009808
Si Si6 0.642410 0.796913 0.713021
Si Si7 0.995714 0.259947 0.423244
O O1 0.735862 0.888582 0.318619
O O2 0.793845 0.729377 0.274696
O O3 0.580284 0.785846 0.409217
O O4 0.858398 0.797211 0.086697
O O5 0.500000 0.924761 0.250000
O O6 0.240629 0.901476 0.556323
O O7 0.449104 0.836096 0.421332
O O8 0.422023 0.991883 0.455066
O O9 0.500000 0.665195 0.250000
O O10 0.250000 0.750000 0.500000
O O11 0.391721 0.706440 0.236797
O O12 0.500000 0.590428 0.750000
O O13 0.234653 0.583865 0.959524
O O14 0.390582 0.720292 0.804882
O O15 0.270417 0.650264 0.046496
O O16 0.494920 0.849370 0.870457
#
# Coordination Sequence:
#
# PCOD8133249 Si02
#       7
#     8   8   8   8   8   8   8
#     4  11  23  39  65  94 128 174 216 261 318 402
#     4  12  25  42  69  98 130 167 219 283 330 371
#     4  12  21  42  72 101 122 165 224 274 319 381
#     4  10  19  32  61  86 123 168 223 268 305 371
#     4  11  24  41  60  95 135 170 214 269 334 383
#     4  10  19  36  57  88 123 172 220 255 311 392
#     4  12  22  41  69  95 124 167 223 266 316 397
#
# _framework density 20.246883
#
# number of rings (size 3 to 8) (size 9 to 14) (size 15 to 20)
#    0.000    0.857    5.714    3.857    2.000    1.143 
#    0.000    0.714    0.000    0.000    0.000    0.000 
#    0.000    0.000    0.000    0.000    0.000    0.000 
#
# Total GULP energy -347078.049274 kJ/mol
# GULP energy per Si atom -12395.644617 kJ/mol
# Density = 2.020080 g / cm^3
# Si number density = 20.246883 Si / 1000 Ang^3
#
#
#
# Elastic Constant Matrix: (Units=GPa)
#
#
# Indices 1 2 3 4 5 6 
#
# 1 97.7995 19.9816 38.9955 -0.0003 -10.5442 -0.0011
# 2 19.9816 86.1519 42.9104 -0.0039 11.8939 -0.0002
# 3 38.9955 42.9104 123.1054 -0.0067 6.8824 -0.0011
# 4 -0.0003 -0.0039 -0.0067 17.8592 0.0022 3.0153
# 5 -10.5442 11.8939 6.8824 0.0022 47.0956 0.0012
# 6 -0.0011 -0.0002 -0.0011 3.0153 0.0012 26.1465
#
#
#
# Elastic Compliance Matrix: (Units=1/GPa)
#
#
# Indices 1 2 3 4 5 6 
#
# 1 0.012374 -0.001603 -0.003567 -0.000002 0.003697 0.000000
# 2 -0.001603 0.014645 -0.004406 0.000002 -0.003414 0.000000
# 3 -0.003567 -0.004406 0.010860 0.000003 -0.001273 0.000000
# 4 -0.000002 0.000002 0.000003 0.057105 -0.000004 -0.006586
# 5 0.003697 -0.003414 -0.001273 -0.000004 0.023109 -0.000001
# 6 0.000000 0.000000 0.000000 -0.006586 -0.000001 0.039005
#
#
# Mechanical properties :
#
#
# Convention : Reuss Voigt Hill
#
# Bulk Modulus (GPa) = 53.40371 56.75909 55.08140
# Shear Modulus (GPa) = 27.39815 31.89822 29.64819
#
# Velocity S-wave (km/s) = 3.68258 3.97352 3.83081
# Velocity P-wave (km/s) = 6.67199 7.01043 6.84330
#
# Compressibility (1/GPa) = 0.01872529
#
# Stress axis : x y z
#
# Youngs Moduli (GPa) = 80.81780 68.28200 92.08037
#
# Poissons Ratio (x) = 0.10948 0.32848
# Poissons Ratio (y) = 0.12958 0.40571
# Poissons Ratio (z) = 0.28830 0.30085
#
# Static dielectric constant tensor:
#      x y z
#    x 3.859580 0.000000 -0.043130 
#    y 0.000000 3.363780 0.000000 
#    z -0.043130 0.000000 3.967180 
# 
# 
# High freq. dielectric constant tensor:
#      x y z
#    x 1.801730 0.000000 -0.003780 
#    y 0.000000 1.749200 0.000000 
#    z -0.003780 0.000000 1.812060 
# 
# From -- ./inp_files/255898.got.cif
#   From: 2010.06.25/outbox.cif.g09.slc.cpg/sg15_128_cif.got.tgz:255898.got - 2010.06.28 07:06:18.
