data_PCOD8133433
_publ_section_title
;
Structure prediction by ZEFSAII (Michael W. Deem and Ramdas Pophale) SiO2 
 PCOD8133433
Probable space group: C 2/C
;
_chemical_formula_sum "Si O2"
_cell_formula_units_Z 64
_cell_length_a 9.653688
_cell_length_b 27.325820
_cell_length_c 14.291624
_cell_angle_alpha 90.000000
_cell_angle_beta 60.396797
_cell_angle_gamma 90.000000
_cell_volume 3277.942299
_symmetry_space_group_name_H-M "C 2/C"
_symmetry_group_IT_number 15
_symmetry_cell_setting 'monoclinic'
loop_
_space_group_symop_operation_xyz
x,y,z
-x,y,1/2-z
-x,-y,-z
x,-y,1/2+z
1/2+x,1/2+y,z
1/2-x,1/2+y,1/2-z
1/2-x,1/2-y,-z
1/2+x,1/2-y,1/2+z
loop_
_atom_site_type_symbol
_atom_site_label
_atom_site_fract_x
_atom_site_fract_y
_atom_site_fract_z
Si Si1 0.149103 0.353750 0.964501
Si Si2 0.355287 0.273120 0.366490
Si Si3 0.417062 0.619052 0.875764
Si Si4 0.088326 0.483974 0.819064
Si Si5 0.523951 0.754473 0.483287
Si Si6 0.891623 0.566385 0.546415
Si Si7 0.155982 0.098511 0.257188
Si Si8 0.448552 0.356330 0.982677
O O1 0.227894 0.363831 0.836568
O O2 0.279210 0.371139 0.996706
O O3 0.105462 0.296666 0.992185
O O4 0.992291 0.385251 0.036593
O O5 0.500000 0.268213 0.250000
O O6 0.334070 0.328333 0.409169
O O7 0.403417 0.238110 0.436698
O O8 0.189590 0.258726 0.368495
O O9 0.500000 0.609461 0.750000
O O10 0.282210 0.578786 0.934523
O O11 0.542041 0.616861 0.920002
O O12 0.132855 0.536331 0.848879
O O13 0.245797 0.450745 0.751960
O O14 0.000000 0.490807 0.750000
O O15 0.971166 0.461613 0.934661
O O16 0.444006 0.702483 0.491951
O O17 0.098424 0.125794 0.370351
O O18 0.000000 0.083537 0.250000
#
# Coordination Sequence:
#
# PCOD8133433 Si02
#       8
#     8   8   8   8   8   8   8   8
#     4  10  20  37  56  83 121 153 187 238 287 338
#     4   9  19  33  51  80 117 152 193 233 274 329
#     4  10  20  37  57  78 113 151 191 232 278 341
#     4  10  21  38  61  87 111 141 191 241 292 356
#     4  10  19  33  55  82 116 158 194 235 276 336
#     4  10  21  38  59  83 114 149 184 239 296 340
#     4   9  20  38  59  85 116 147 187 242 294 342
#     4  10  21  36  58  86 116 153 196 234 283 340
#
# _framework density 19.524442000000001
#
# number of rings (size 3 to 8) (size 9 to 14) (size 15 to 20)
#    0.000    2.250    1.250    1.125    1.750    1.500 
#    0.000    0.000    0.000    7.500    0.000    0.000 
#    0.000    0.000    0.000    0.000    0.000    0.000 
#
# Total GULP energy -396627.028724 kJ/mol
# GULP energy per Si atom -12394.594648 kJ/mol
# Density = 1.948000 g / cm^3
# Si number density = 19.524442 Si / 1000 Ang^3
#
#
#
# Elastic Constant Matrix: (Units=GPa)
#
#
# Indices 1 2 3 4 5 6 
#
# 1 95.6149 31.0318 41.9019 0.0000 5.6532 0.0000
# 2 31.0318 70.4083 41.5483 0.0000 -4.9273 0.0000
# 3 41.9019 41.5483 81.4646 0.0000 11.4846 0.0000
# 4 0.0000 0.0000 0.0000 14.0809 0.0000 -5.2611
# 5 5.6532 -4.9273 11.4846 0.0000 26.2422 0.0000
# 6 0.0000 0.0000 0.0000 -5.2611 0.0000 27.8702
#
#
#
# Elastic Compliance Matrix: (Units=1/GPa)
#
#
# Indices 1 2 3 4 5 6 
#
# 1 0.013887 -0.002981 -0.005459 0.000000 -0.001162 0.000000
# 2 -0.002981 0.023114 -0.011679 0.000000 0.010093 0.000000
# 3 -0.005459 -0.011679 0.022576 0.000000 -0.010897 0.000000
# 4 0.000000 0.000000 0.000000 0.076407 0.000000 0.014423
# 5 -0.001162 0.010093 -0.010897 0.000000 0.045021 0.000000
# 6 0.000000 0.000000 0.000000 0.014423 0.000000 0.038603
#
#
# Mechanical properties :
#
#
# Convention : Reuss Voigt Hill
#
# Bulk Modulus (GPa) = 51.70386 52.93908 52.32147
# Shear Modulus (GPa) = 18.77643 22.50571 20.64107
#
# Velocity S-wave (km/s) = 3.10447 3.39882 3.25498
# Velocity P-wave (km/s) = 6.27610 6.52501 6.40176
#
# Compressibility (1/GPa) = 0.01934092
#
# Stress axis : x y z
#
# Youngs Moduli (GPa) = 72.00996 43.26302 44.29573
#
# Poissons Ratio (x) = 0.12895 0.24180
# Poissons Ratio (y) = 0.21463 0.51731
# Poissons Ratio (z) = 0.39309 0.50525
#
# Static dielectric constant tensor:
#      x y z
#    x 3.577660 0.000000 -0.065310 
#    y 0.000000 3.857850 0.000000 
#    z -0.065310 0.000000 3.591070 
# 
# 
# High freq. dielectric constant tensor:
#      x y z
#    x 1.764140 0.000000 -0.009850 
#    y 0.000000 1.752230 0.000000 
#    z -0.009850 0.000000 1.756300 
# 
# From -- ./inp_files/139502.got.cif
#   From: 2010.06.25/outbox.cif.g09.slc.cpg/sg15_70_cif.got.tgz:139502.got - 2010.06.28 07:06:18.
