data_PCOD8133757
_publ_section_title
;
Structure prediction by ZEFSAII (Michael W. Deem and Ramdas Pophale) SiO2 
 PCOD8133757
Probable space group: C 2/C
;
_chemical_formula_sum "Si O2"
_cell_formula_units_Z 40
_cell_length_a 18.219125
_cell_length_b 9.301220
_cell_length_c 13.671191
_cell_angle_alpha 90.000000
_cell_angle_beta 58.385872
_cell_angle_gamma 90.000000
_cell_volume 1972.914501
_symmetry_space_group_name_H-M "C 2/C"
_symmetry_group_IT_number 15
_symmetry_cell_setting 'monoclinic'
loop_
_space_group_symop_operation_xyz
x,y,z
-x,y,1/2-z
-x,-y,-z
x,-y,1/2+z
1/2+x,1/2+y,z
1/2-x,1/2+y,1/2-z
1/2-x,1/2-y,-z
1/2+x,1/2-y,1/2+z
loop_
_atom_site_type_symbol
_atom_site_label
_atom_site_fract_x
_atom_site_fract_y
_atom_site_fract_z
Si Si1 0.726429 0.021605 0.694330
Si Si2 0.988492 0.279302 0.455002
Si Si3 0.345302 0.339762 0.740129
Si Si4 0.461461 0.924767 0.674038
Si Si5 0.327576 0.355860 0.967341
O O1 0.702574 0.186629 0.733337
O O2 0.784145 0.009741 0.554844
O O3 0.782417 0.961860 0.744141
O O4 0.641314 0.926410 0.742277
O O5 0.988837 0.315137 0.569794
O O6 0.897188 0.213262 0.490892
O O7 0.065433 0.166360 0.382366
O O8 0.002170 0.418189 0.377265
O O9 0.369457 0.391819 0.833335
O O10 0.500000 0.871820 0.750000
O O11 0.250000 0.250000 0.000000
#
# Coordination Sequence:
#
# PCOD8133757 Si02
#       5
#     8   8   8   8   8
#     4  10  21  36  58  85 115 151 195 237 288 347
#     4  10  20  35  57  83 115 155 199 236 285 352
#     4  10  21  38  59  85 116 154 194 240 288 345
#     4  10  19  34  56  84 115 152 198 245 284 336
#     4  10  19  35  58  81 112 152 192 234 286 346
#
# _framework density 20.274573
#
# number of rings (size 3 to 8) (size 9 to 14) (size 15 to 20)
#    0.000    2.000    0.000    6.600    0.000    4.000 
#    0.000    6.000    0.000    0.000    0.000    0.000 
#    0.000    0.000    0.000    0.000    0.000    0.000 
#
# Total GULP energy -247957.447067 kJ/mol
# GULP energy per Si atom -12397.872353 kJ/mol
# Density = 2.022843 g / cm^3
# Si number density = 20.274573 Si / 1000 Ang^3
#
#
#
# Elastic Constant Matrix: (Units=GPa)
#
#
# Indices 1 2 3 4 5 6 
#
# 1 117.1687 14.1269 63.8448 0.0000 0.1648 0.0000
# 2 14.1269 19.4119 28.8480 0.0000 -0.2233 0.0000
# 3 63.8448 28.8480 160.4558 0.0000 6.0438 0.0000
# 4 0.0000 0.0000 0.0000 24.8038 0.0000 -3.5036
# 5 0.1648 -0.2233 6.0438 0.0000 43.7354 0.0000
# 6 0.0000 0.0000 0.0000 -3.5036 0.0000 29.7794
#
#
#
# Elastic Compliance Matrix: (Units=1/GPa)
#
#
# Indices 1 2 3 4 5 6 
#
# 1 0.010967 -0.001995 -0.004024 0.000000 0.000505 0.000000
# 2 -0.001995 0.070856 -0.012022 0.000000 0.002031 0.000000
# 3 -0.004024 -0.012022 0.010049 0.000000 -0.001435 0.000000
# 4 0.000000 0.000000 0.000000 0.040998 0.000000 0.004824
# 5 0.000505 0.002031 -0.001435 0.000000 0.023072 0.000000
# 6 0.000000 0.000000 0.000000 0.004824 0.000000 0.034148
#
#
# Mechanical properties :
#
#
# Convention : Reuss Voigt Hill
#
# Bulk Modulus (GPa) = 17.92446 56.74178 37.33312
# Shear Modulus (GPa) = 20.42757 32.34485 26.38621
#
# Velocity S-wave (km/s) = 3.17763 3.99850 3.61147
# Velocity P-wave (km/s) = 4.72474 7.02601 5.98698
#
# Compressibility (1/GPa) = 0.05578968
#
# Stress axis : x y z
#
# Youngs Moduli (GPa) = 91.18019 14.11321 99.51443
#
# Poissons Ratio (x) = 0.02816 0.40046
# Poissons Ratio (y) = 0.18194 1.19631
# Poissons Ratio (z) = 0.36692 0.16966
#
# Static dielectric constant tensor:
#      x y z
#    x 3.735410 0.000000 -0.098650 
#    y 0.000000 3.310590 0.000000 
#    z -0.098650 0.000000 4.440270 
# 
# 
# High freq. dielectric constant tensor:
#      x y z
#    x 1.803160 0.000000 -0.007680 
#    y 0.000000 1.743210 0.000000 
#    z -0.007680 0.000000 1.811630 
# 
# From -- ./inp_files/94663.got.cif
#   From: 2010.06.25/outbox.cif.g09.slc.cpg/sg15_48_cif.got.tgz:94663.got - 2010.06.28 07:06:18.
