data_PCOD8133369
_publ_section_title
;
Structure prediction by ZEFSAII (Michael W. Deem and Ramdas Pophale) SiO2 
 PCOD8133369
Probable space group: C 2/C
;
_chemical_formula_sum "Si O2"
_cell_formula_units_Z 48
_cell_length_a 32.079072
_cell_length_b 16.365708
_cell_length_c 16.129559
_cell_angle_alpha 90.000000
_cell_angle_beta 162.554748
_cell_angle_gamma 90.000000
_cell_volume 2538.648297
_symmetry_space_group_name_H-M "C 2/C"
_symmetry_group_IT_number 15
_symmetry_cell_setting 'monoclinic'
loop_
_space_group_symop_operation_xyz
x,y,z
-x,y,1/2-z
-x,-y,-z
x,-y,1/2+z
1/2+x,1/2+y,z
1/2-x,1/2+y,1/2-z
1/2-x,1/2-y,-z
1/2+x,1/2-y,1/2+z
loop_
_atom_site_type_symbol
_atom_site_label
_atom_site_fract_x
_atom_site_fract_y
_atom_site_fract_z
Si Si1 0.937932 0.165005 0.965204
Si Si2 0.149311 0.941918 0.054813
Si Si3 0.296400 0.084941 0.077162
Si Si4 0.114734 0.485168 0.402394
Si Si5 0.281733 0.583961 0.996598
Si Si6 0.959430 0.345835 0.356768
O O1 0.874886 0.138628 0.934506
O O2 0.818194 0.152329 0.668411
O O3 0.066941 0.109023 0.184321
O O4 0.006040 0.253889 0.102070
O O5 0.235128 0.010990 0.267608
O O6 0.230308 0.913340 0.126045
O O7 0.000000 0.982088 0.750000
O O8 0.390215 0.053401 0.178756
O O9 0.395610 0.121852 0.333928
O O10 0.225480 0.007571 0.984352
O O11 0.086158 0.394952 0.312268
O O12 0.000000 0.511620 0.250000
O O13 0.162886 0.644130 0.807446
#
# Coordination Sequence:
#
# PCOD8133369 Si02
#       6
#     8   8   8   8   8   8
#     4  10  21  35  54  79 109 140 171 215 268 310
#     4   9  19  35  54  76 104 140 177 215 259 312
#     4  10  20  35  56  78 105 142 179 213 255 310
#     4  10  19  33  54  80 106 138 178 216 257 309
#     4  10  19  36  55  76 103 139 181 216 254 312
#     4  11  21  34  54  83 109 135 172 221 266 307
#
# _framework density 18.907699999999998
#
# number of rings (size 3 to 8) (size 9 to 14) (size 15 to 20)
#    0.000    2.000    0.000    5.500    0.000    3.333 
#    0.000    0.000    0.000    2.000    0.000   10.500 
#    0.000    0.000    0.000    0.000    0.000    0.000 
#
# Total GULP energy -297497.942726 kJ/mol
# GULP energy per Si atom -12395.747614 kJ/mol
# Density = 1.886467 g / cm^3
# Si number density = 18.907700 Si / 1000 Ang^3
#
#
#
# Elastic Constant Matrix: (Units=GPa)
#
#
# Indices 1 2 3 4 5 6 
#
# 1 108.2261 48.5222 54.5531 0.0000 2.1604 0.0000
# 2 48.5222 66.4815 44.4150 0.0000 -2.2440 0.0000
# 3 54.5531 44.4150 116.2056 0.0000 -13.3103 0.0000
# 4 0.0000 0.0000 0.0000 30.1449 0.0000 -2.0401
# 5 2.1604 -2.2440 -13.3103 0.0000 26.1079 0.0000
# 6 0.0000 0.0000 0.0000 -2.0401 0.0000 10.1417
#
#
#
# Elastic Compliance Matrix: (Units=1/GPa)
#
#
# Indices 1 2 3 4 5 6 
#
# 1 0.015327 -0.008321 -0.004505 0.000000 -0.004280 0.000000
# 2 -0.008321 0.024853 -0.005596 0.000000 -0.000028 0.000000
# 3 -0.004505 -0.005596 0.013643 0.000000 0.006848 0.000000
# 4 0.000000 0.000000 0.000000 0.033631 0.000000 0.006765
# 5 -0.004280 -0.000028 0.006848 0.000000 0.042145 0.000000
# 6 0.000000 0.000000 0.000000 0.006765 0.000000 0.099964
#
#
# Mechanical properties :
#
#
# Convention : Reuss Voigt Hill
#
# Bulk Modulus (GPa) = 58.89677 65.09934 61.99805
# Shear Modulus (GPa) = 18.37782 22.84041 20.60912
#
# Velocity S-wave (km/s) = 3.12103 3.47939 3.30507
# Velocity P-wave (km/s) = 6.64869 7.11663 6.88663
#
# Compressibility (1/GPa) = 0.01697886
#
# Stress axis : x y z
#
# Youngs Moduli (GPa) = 65.24442 40.23732 73.29535
#
# Poissons Ratio (x) = 0.33483 0.33020
# Poissons Ratio (y) = 0.54292 0.41014
# Poissons Ratio (z) = 0.29393 0.22516
#
# Static dielectric constant tensor:
#      x y z
#    x 3.668190 0.000000 -0.030200 
#    y 0.000000 3.240810 0.000000 
#    z -0.030200 0.000000 3.716360 
# 
# 
# High freq. dielectric constant tensor:
#      x y z
#    x 1.742100 0.000000 0.000860 
#    y 0.000000 1.706320 0.000000 
#    z 0.000860 0.000000 1.752670 
# 
# From -- ./inp_files/182504.got.cif
#   From: 2010.06.25/outbox.cif.g09.slc.cpg/sg15_92_cif.got.tgz:182504.got - 2010.06.28 07:06:18.
