data_PCOD8133305
_publ_section_title
;
Structure prediction by ZEFSAII (Michael W. Deem and Ramdas Pophale) SiO2 
 PCOD8133305
Probable space group: C 2/C
;
_chemical_formula_sum "Si O2"
_cell_formula_units_Z 48
_cell_length_a 16.744332
_cell_length_b 17.443644
_cell_length_c 16.344667
_cell_angle_alpha 90.000000
_cell_angle_beta 34.117237
_cell_angle_gamma 90.000000
_cell_volume 2677.671723
_symmetry_space_group_name_H-M "C 2/C"
_symmetry_group_IT_number 15
_symmetry_cell_setting 'monoclinic'
loop_
_space_group_symop_operation_xyz
x,y,z
-x,y,1/2-z
-x,-y,-z
x,-y,1/2+z
1/2+x,1/2+y,z
1/2-x,1/2+y,1/2-z
1/2-x,1/2-y,-z
1/2+x,1/2-y,1/2+z
loop_
_atom_site_type_symbol
_atom_site_label
_atom_site_fract_x
_atom_site_fract_y
_atom_site_fract_z
Si Si1 0.846179 0.932356 0.899917
Si Si2 0.757586 0.331506 0.647313
Si Si3 0.324451 0.795666 0.009578
Si Si4 0.957217 0.222800 0.373866
Si Si5 0.662823 0.067923 0.106249
Si Si6 0.150834 0.310120 0.753533
O O1 0.764452 0.910679 0.884368
O O2 0.869073 0.855181 0.932764
O O3 0.000000 0.969486 0.750000
O O4 0.757695 0.992065 0.028634
O O5 0.858113 0.277674 0.508709
O O6 0.604145 0.293810 0.796856
O O7 0.834678 0.344962 0.668165
O O8 0.305461 0.886333 0.005945
O O9 0.492662 0.779989 0.869723
O O10 0.250000 0.750000 0.000000
O O11 0.250820 0.765514 0.155532
O O12 0.000000 0.259972 0.250000
O O13 0.500000 0.041470 0.250000
O O14 0.699783 0.122266 0.151360
#
# Coordination Sequence:
#
# PCOD8133305 Si02
#       6
#     8   8   8   8   8   8
#     4   9  19  34  50  70  99 134 169 200 243 304
#     4  10  19  33  52  77 101 125 164 215 252 287
#     4   9  18  33  52  73  99 133 166 198 244 300
#     4   9  18  33  52  75  99 130 167 202 248 306
#     4   9  19  34  50  70  99 134 168 198 242 305
#     4  10  19  33  52  77 102 126 165 215 250 286
#
# _framework density 17.926022
#
# number of rings (size 3 to 8) (size 9 to 14) (size 15 to 20)
#    0.000    3.000    0.000    4.500    0.000    4.667 
#    0.000    8.333    0.000    0.000    0.000    0.000 
#    0.000    0.000    0.000    0.000    0.000    0.000 
#
# Total GULP energy -297400.640389 kJ/mol
# GULP energy per Si atom -12391.693350 kJ/mol
# Density = 1.788522 g / cm^3
# Si number density = 17.926022 Si / 1000 Ang^3
#
#
#
# Elastic Constant Matrix: (Units=GPa)
#
#
# Indices 1 2 3 4 5 6 
#
# 1 104.2261 37.8612 48.6429 -0.0003 -0.0271 0.0004
# 2 37.8612 70.2692 69.2231 0.0011 2.7426 -0.0004
# 3 48.6429 69.2231 105.7934 -0.0016 -4.8256 0.0001
# 4 -0.0003 0.0011 -0.0016 43.6339 0.0004 -0.5248
# 5 -0.0271 2.7426 -4.8256 0.0004 23.7603 -0.0004
# 6 0.0004 -0.0004 0.0001 -0.5248 -0.0004 11.6222
#
#
#
# Elastic Compliance Matrix: (Units=1/GPa)
#
#
# Indices 1 2 3 4 5 6 
#
# 1 0.012441 -0.002904 -0.003840 0.000000 -0.000431 -0.000001
# 2 -0.002904 0.043238 -0.027439 -0.000002 -0.010567 0.000001
# 3 -0.003840 -0.027439 0.029590 0.000002 0.009172 -0.000001
# 4 0.000000 -0.000002 0.000002 0.022930 0.000000 0.001035
# 5 -0.000431 -0.010567 0.009172 0.000000 0.045169 0.000001
# 6 -0.000001 0.000001 -0.000001 0.001035 0.000001 0.086089
#
#
# Mechanical properties :
#
#
# Convention : Reuss Voigt Hill
#
# Bulk Modulus (GPa) = 59.15480 65.74926 62.45203
# Shear Modulus (GPa) = 15.95112 24.10739 20.02925
#
# Velocity S-wave (km/s) = 2.98624 3.67117 3.34627
# Velocity P-wave (km/s) = 6.70531 7.39782 7.06006
#
# Compressibility (1/GPa) = 0.01690480
#
# Stress axis : x y z
#
# Youngs Moduli (GPa) = 80.37662 23.12778 33.79504
#
# Poissons Ratio (x) = 0.06716 0.12978
# Poissons Ratio (y) = 0.23339 0.92729
# Poissons Ratio (z) = 0.30866 0.63459
#
# Static dielectric constant tensor:
#      x y z
#    x 3.388420 0.000000 -0.065420 
#    y 0.000000 3.117490 0.000000 
#    z -0.065420 0.000000 3.473480 
# 
# 
# High freq. dielectric constant tensor:
#      x y z
#    x 1.688110 0.000000 -0.015630 
#    y 0.000000 1.667960 0.000000 
#    z -0.015630 0.000000 1.701110 
# 
# From -- ./inp_files/211587.got.cif
#   From: 2010.06.25/outbox.cif.g09.slc.cpg/sg15_106_cif.got.tgz:211587.got - 2010.06.28 07:06:18.
