data_PCOD8133922
_publ_section_title
;
Structure prediction by ZEFSAII (Michael W. Deem and Ramdas Pophale) SiO2 
 PCOD8133922
Probable space group: C 2/C
;
_chemical_formula_sum "Si O2"
_cell_formula_units_Z 48
_cell_length_a 7.496470
_cell_length_b 19.115974
_cell_length_c 19.237401
_cell_angle_alpha 90.000000
_cell_angle_beta 112.934842
_cell_angle_gamma 90.000000
_cell_volume 2538.838241
_symmetry_space_group_name_H-M "C 2/C"
_symmetry_group_IT_number 15
_symmetry_cell_setting 'monoclinic'
loop_
_space_group_symop_operation_xyz
x,y,z
-x,y,1/2-z
-x,-y,-z
x,-y,1/2+z
1/2+x,1/2+y,z
1/2-x,1/2+y,1/2-z
1/2-x,1/2-y,-z
1/2+x,1/2-y,1/2+z
loop_
_atom_site_type_symbol
_atom_site_label
_atom_site_fract_x
_atom_site_fract_y
_atom_site_fract_z
Si Si1 0.116692 0.399671 0.662578
Si Si2 0.589043 0.505962 0.839043
Si Si3 0.542698 0.744954 0.087146
Si Si4 0.631599 0.244955 0.087148
Si Si5 0.089514 0.162239 0.839515
Si Si6 0.708465 0.399673 0.662577
O O1 0.208048 0.464441 0.634299
O O2 0.117562 0.333017 0.613581
O O3 0.242905 0.381676 0.750001
O O4 0.899815 0.421380 0.649813
O O5 0.500000 0.513302 0.750000
O O6 0.623920 0.583725 0.873914
O O7 0.439444 0.464445 0.865701
O O8 0.350967 0.764374 0.100965
O O9 0.705655 0.799540 0.133639
O O10 0.609591 0.666979 0.113577
O O11 0.508474 0.750000 0.999999
O O12 0.561632 0.299545 0.133639
O O13 0.000000 0.162396 0.750000
#
# Coordination Sequence:
#
# PCOD8133922 Si02
#       6
#     8   8   8   8   8   8
#     4  10  19  34  60  86 108 149 196 233 283 349
#     4   9  20  37  56  84 121 145 184 245 291 334
#     4  11  23  38  60  85 120 154 194 238 289 342
#     4  11  23  38  60  85 120 154 194 238 289 342
#     4  11  23  39  61  90 117 149 191 245 294 334
#     4  10  19  34  60  86 108 149 196 233 283 349
#
# _framework density 18.906285
#
# number of rings (size 3 to 8) (size 9 to 14) (size 15 to 20)
#    0.000    1.667    3.333    1.500    0.000    3.333 
#    0.000    5.000    0.000    0.000    0.000    0.000 
#    0.000    0.000    0.000    0.000    0.000    0.000 
#
# Total GULP energy -297670.759078 kJ/mol
# GULP energy per Si atom -12402.948295 kJ/mol
# Density = 1.886325 g / cm^3
# Si number density = 18.906285 Si / 1000 Ang^3
#
#
#
# Elastic Constant Matrix: (Units=GPa)
#
#
# Indices 1 2 3 4 5 6 
#
# 1 133.8866 69.7486 48.0685 0.0000 6.2818 0.0000
# 2 69.7486 168.0143 43.8360 0.0000 4.3063 0.0000
# 3 48.0685 43.8360 70.8974 0.0000 4.1937 0.0000
# 4 0.0000 0.0000 0.0000 -2.6574 0.0000 7.5039
# 5 6.2818 4.3063 4.1937 0.0000 24.3711 0.0000
# 6 0.0000 0.0000 0.0000 7.5039 0.0000 42.4393
#
#
#
# Elastic Compliance Matrix: (Units=1/GPa)
#
#
# Indices 1 2 3 4 5 6 
#
# 1 0.011165 -0.003155 -0.005538 0.000000 -0.001367 0.000000
# 2 -0.003155 0.007994 -0.002797 0.000000 -0.000118 0.000000
# 3 -0.005538 -0.002797 0.019676 0.000000 -0.001464 0.000000
# 4 0.000000 0.000000 0.000000 -0.250995 0.000000 0.044380
# 5 -0.001367 -0.000118 -0.001464 0.000000 0.041657 0.000000
# 6 0.000000 0.000000 0.000000 0.044380 0.000000 0.015716
#
#
# Mechanical properties :
#
#
# Convention : Reuss Voigt Hill
#
# Bulk Modulus (GPa) = 63.07199 77.34494 70.20846
# Shear Modulus (GPa) = -39.51940 26.90695 -6.30623
#
# Velocity S-wave (km/s) = -4.57692 3.77659 -1.82832
# Velocity P-wave (km/s) = 2.34561 7.74696 5.72351
#
# Compressibility (1/GPa) = 0.01585490
#
# Stress axis : x y z
#
# Youngs Moduli (GPa) = 89.56413 125.08791 50.82383
#
# Poissons Ratio (x) = 0.39465 0.28148
# Poissons Ratio (y) = 0.28258 0.14215
# Poissons Ratio (z) = 0.49604 0.34985
#
# Static dielectric constant tensor:
#      x y z
#    x 3.823470 0.000000 0.078280 
#    y 0.000000 3.659740 0.000000 
#    z 0.078280 0.000000 3.352580 
# 
# 
# High freq. dielectric constant tensor:
#      x y z
#    x 1.753820 0.000000 0.005580 
#    y 0.000000 1.736160 0.000000 
#    z 0.005580 0.000000 1.720290 
# 
# From -- ./inp_files/265362.got.cif
#   From: 2010.06.25/outbox.cif.g09.slc.cpg/sg15_133_cif.got.tgz:265362.got - 2010.06.28 07:06:18.
