data_PCOD8133530
_publ_section_title
;
Structure prediction by ZEFSAII (Michael W. Deem and Ramdas Pophale) SiO2 
 PCOD8133530
Probable space group: C 2/C
;
_chemical_formula_sum "Si O2"
_cell_formula_units_Z 40
_cell_length_a 22.032670
_cell_length_b 4.876254
_cell_length_c 21.372874
_cell_angle_alpha 90.000000
_cell_angle_beta 119.725291
_cell_angle_gamma 90.000000
_cell_volume 1994.079897
_symmetry_space_group_name_H-M "C 2/C"
_symmetry_group_IT_number 15
_symmetry_cell_setting 'monoclinic'
loop_
_space_group_symop_operation_xyz
x,y,z
-x,y,1/2-z
-x,-y,-z
x,-y,1/2+z
1/2+x,1/2+y,z
1/2-x,1/2+y,1/2-z
1/2-x,1/2-y,-z
1/2+x,1/2-y,1/2+z
loop_
_atom_site_type_symbol
_atom_site_label
_atom_site_fract_x
_atom_site_fract_y
_atom_site_fract_z
Si Si1 0.661832 0.512565 0.441517
Si Si2 0.715219 0.997114 0.903720
Si Si3 0.234360 0.150864 0.702329
Si Si4 0.909652 0.233749 0.932586
Si Si5 0.060159 0.273598 0.973481
O O1 0.655312 0.806308 0.403767
O O2 0.708804 0.558934 0.527530
O O3 0.589447 0.367301 0.425049
O O4 0.698320 0.318178 0.408809
O O5 0.719681 0.045519 0.832360
O O6 0.275893 0.399558 0.755407
O O7 0.158717 0.264866 0.644230
O O8 0.976850 0.318631 0.924824
O O9 0.904758 0.431680 0.991854
O O10 0.920381 0.920547 0.958249
#
# Coordination Sequence:
#
# PCOD8133530 Si02
#       5
#     8   8   8   8   8
#     4  10  19  33  58  82 113 136 173 252 284 327
#     4  10  21  33  53  85 110 143 186 221 292 329
#     4  12  24  38  57  78 119 156 187 225 264 352
#     4  10  21  35  55  85 111 145 191 222 289 331
#     4  10  19  35  59  83 114 138 177 252 284 328
#
# _framework density 20.059374999999999
#
# number of rings (size 3 to 8) (size 9 to 14) (size 15 to 20)
#    0.000    1.600    2.000    3.600    5.600    0.000 
#    0.000    0.000    0.000    7.200    0.000    0.000 
#    0.000    0.000    0.000    0.000    0.000    0.000 
#
# Total GULP energy -248005.239589 kJ/mol
# GULP energy per Si atom -12400.261979 kJ/mol
# Density = 2.001372 g / cm^3
# Si number density = 20.059375 Si / 1000 Ang^3
#
#
#
# Elastic Constant Matrix: (Units=GPa)
#
#
# Indices 1 2 3 4 5 6 
#
# 1 78.4689 0.6457 29.3834 0.0009 -5.1757 -0.0022
# 2 0.6457 83.5636 18.2819 0.0020 -0.6262 0.0003
# 3 29.3834 18.2819 73.8898 0.0001 -10.2154 -0.0004
# 4 0.0009 0.0020 0.0001 32.6314 0.0015 -6.5950
# 5 -5.1757 -0.6262 -10.2154 0.0015 14.3783 -0.0010
# 6 -0.0022 0.0003 -0.0004 -6.5950 -0.0010 31.9554
#
#
#
# Elastic Compliance Matrix: (Units=1/GPa)
#
#
# Indices 1 2 3 4 5 6 
#
# 1 0.015115 0.001240 -0.006163 0.000000 0.001116 0.000001
# 2 0.001240 0.012798 -0.003904 -0.000001 -0.001770 0.000000
# 3 -0.006163 -0.003904 0.018431 0.000000 0.010706 0.000000
# 4 0.000000 -0.000001 0.000000 0.031979 -0.000003 0.006600
# 5 0.001116 -0.001770 0.010706 -0.000003 0.077480 0.000002
# 6 0.000001 0.000000 0.000000 0.006600 0.000002 0.032656
#
#
# Mechanical properties :
#
#
# Convention : Reuss Voigt Hill
#
# Bulk Modulus (GPa) = 34.85684 36.94939 35.90312
# Shear Modulus (GPa) = 23.18275 28.30044 25.74159
#
# Velocity S-wave (km/s) = 3.40326 3.76018 3.58616
# Velocity P-wave (km/s) = 5.73214 6.10835 5.92323
#
# Compressibility (1/GPa) = 0.02868878
#
# Stress axis : x y z
#
# Youngs Moduli (GPa) = 66.15849 78.13547 54.25726
#
# Poissons Ratio (x) = -0.09688 0.33440
# Poissons Ratio (y) = -0.08203 0.21184
# Poissons Ratio (z) = 0.40775 0.30507
#
# Static dielectric constant tensor:
#      x y z
#    x 3.639840 -0.000010 -0.079790 
#    y -0.000010 3.841310 0.000010 
#    z -0.079790 0.000010 3.199490 
# 
# 
# High freq. dielectric constant tensor:
#      x y z
#    x 1.780150 0.000000 -0.018870 
#    y 0.000000 1.810570 0.000000 
#    z -0.018870 0.000000 1.725580 
# 
# From -- ./inp_files/217625.got.cif
#   From: 2010.06.25/outbox.cif.g09.slc.cpg/sg15_109_cif.got.tgz:217625.got - 2010.06.28 07:06:18.
