data_PCOD8133611
_publ_section_title
;
Structure prediction by ZEFSAII (Michael W. Deem and Ramdas Pophale) SiO2 
 PCOD8133611
Probable space group: C 2/C
;
_chemical_formula_sum "Si O2"
_cell_formula_units_Z 56
_cell_length_a 31.792413
_cell_length_b 13.143232
_cell_length_c 8.906932
_cell_angle_alpha 90.000000
_cell_angle_beta 127.236365
_cell_angle_gamma 90.000000
_cell_volume 2963.101535
_symmetry_space_group_name_H-M "C 2/C"
_symmetry_group_IT_number 15
_symmetry_cell_setting 'monoclinic'
loop_
_space_group_symop_operation_xyz
x,y,z
-x,y,1/2-z
-x,-y,-z
x,-y,1/2+z
1/2+x,1/2+y,z
1/2-x,1/2+y,1/2-z
1/2-x,1/2-y,-z
1/2+x,1/2-y,1/2+z
loop_
_atom_site_type_symbol
_atom_site_label
_atom_site_fract_x
_atom_site_fract_y
_atom_site_fract_z
Si Si1 0.231088 0.904276 0.522478
Si Si2 0.500000 0.139596 0.250000
Si Si3 0.167222 0.706449 0.892173
Si Si4 0.928787 0.677639 0.340763
Si Si5 0.928376 0.556987 0.840903
Si Si6 0.325878 0.226851 0.254513
Si Si7 0.717536 0.615704 0.335835
Si Si8 0.000000 0.361711 0.250000
O O1 0.294143 0.880706 0.669282
O O2 0.211139 0.821036 0.361560
O O3 0.206085 0.896578 0.634447
O O4 0.214230 0.010960 0.418129
O O5 0.455080 0.206918 0.236688
O O6 0.525796 0.070737 0.435923
O O7 0.121073 0.631751 0.732503
O O8 0.172635 0.807411 0.801315
O O9 0.152814 0.737896 0.030407
O O10 0.223426 0.652448 0.006270
O O11 0.910989 0.559492 0.310026
O O12 0.874680 0.737662 0.245378
O O13 0.970852 0.707035 0.561863
O O14 0.953793 0.573066 0.731252
#
# Coordination Sequence:
#
# PCOD8133611 Si02
#       8
#     8   4   8   8   8   8   8   4
#     4  10  21  38  56  80 110 140 176 222 265 316
#     4  10  23  30  50  76 113 144 183 220 266 310
#     4  10  21  35  55  81 108 144 182 215 262 317
#     4  11  19  33  50  78 111 147 179 218 263 320
#     4  11  19  33  50  78 111 147 179 218 263 320
#     4  10  21  35  55  81 108 144 182 215 262 317
#     4  10  21  38  56  80 110 140 176 222 265 316
#     4  10  19  34  50  72 109 148 179 216 264 320
#
# _framework density 18.899114999999998
#
# number of rings (size 3 to 8) (size 9 to 14) (size 15 to 20)
#    0.000    1.714    1.429    5.143    2.000    1.143 
#    0.000    0.000    0.000    0.000    0.000    6.000 
#    0.000    0.000    0.000    0.000    0.000    0.000 
#
# Total GULP energy -347039.580065 kJ/mol
# GULP energy per Si atom -12394.270717 kJ/mol
# Density = 1.885610 g / cm^3
# Si number density = 18.899115 Si / 1000 Ang^3
#
#
#
# Elastic Constant Matrix: (Units=GPa)
#
#
# Indices 1 2 3 4 5 6 
#
# 1 120.2768 22.9554 19.1301 0.0000 -7.5183 0.0000
# 2 22.9554 65.7274 14.7604 0.0000 0.5756 0.0000
# 3 19.1301 14.7604 64.3504 0.0000 -13.1617 0.0000
# 4 0.0000 0.0000 0.0000 17.8332 0.0000 -2.7913
# 5 -7.5183 0.5756 -13.1617 0.0000 27.9196 0.0000
# 6 0.0000 0.0000 0.0000 -2.7913 0.0000 26.1024
#
#
#
# Elastic Compliance Matrix: (Units=1/GPa)
#
#
# Indices 1 2 3 4 5 6 
#
# 1 0.009243 -0.002853 -0.001740 0.000000 0.001728 0.000000
# 2 -0.002853 0.017054 -0.003644 0.000000 -0.002838 0.000000
# 3 -0.001740 -0.003644 0.018607 0.000000 0.008378 0.000000
# 4 0.000000 0.000000 0.000000 0.057030 0.000000 0.006098
# 5 0.001728 -0.002838 0.008378 0.000000 0.040290 0.000000
# 6 0.000000 0.000000 0.000000 0.006098 0.000000 0.038963
#
#
# Mechanical properties :
#
#
# Convention : Reuss Voigt Hill
#
# Bulk Modulus (GPa) = 35.17403 40.44959 37.81181
# Shear Modulus (GPa) = 24.13859 27.27162 25.70510
#
# Velocity S-wave (km/s) = 3.57772 3.80282 3.69198
# Velocity P-wave (km/s) = 5.97651 6.38211 6.18263
#
# Compressibility (1/GPa) = 0.02843007
#
# Stress axis : x y z
#
# Youngs Moduli (GPa) = 108.18583 58.63780 53.74418
#
# Poissons Ratio (x) = 0.16727 0.09353
# Poissons Ratio (y) = 0.30861 0.19585
# Poissons Ratio (z) = 0.18827 0.21368
#
# Static dielectric constant tensor:
#      x y z
#    x 3.695270 0.000000 -0.176140 
#    y 0.000000 3.073200 0.000000 
#    z -0.176140 0.000000 3.520110 
# 
# 
# High freq. dielectric constant tensor:
#      x y z
#    x 1.745420 0.000000 -0.015240 
#    y 0.000000 1.684410 0.000000 
#    z -0.015240 0.000000 1.742260 
# 
# From -- ./inp_files/69493.got.cif
#   From: 2010.06.25/outbox.cif.g09.slc.cpg/sg15_35_cif.got.tgz:69493.got - 2010.06.28 07:06:18.
