data_PCOD8133002
_publ_section_title
;
Structure prediction by ZEFSAII (Michael W. Deem and Ramdas Pophale) SiO2 
 PCOD8133002
Probable space group: C 2/C
;
_chemical_formula_sum "Si O2"
_cell_formula_units_Z 48
_cell_length_a 34.484039
_cell_length_b 13.548545
_cell_length_c 13.015696
_cell_angle_alpha 90.000000
_cell_angle_beta 24.234961
_cell_angle_gamma 90.000000
_cell_volume 2496.144226
_symmetry_space_group_name_H-M "C 2/C"
_symmetry_group_IT_number 15
_symmetry_cell_setting 'monoclinic'
loop_
_space_group_symop_operation_xyz
x,y,z
-x,y,1/2-z
-x,-y,-z
x,-y,1/2+z
1/2+x,1/2+y,z
1/2-x,1/2+y,1/2-z
1/2-x,1/2-y,-z
1/2+x,1/2-y,1/2+z
loop_
_atom_site_type_symbol
_atom_site_label
_atom_site_fract_x
_atom_site_fract_y
_atom_site_fract_z
Si Si1 0.087856 0.404995 0.356644
Si Si2 0.238930 0.384053 0.812424
Si Si3 0.897509 0.624370 0.221199
Si Si4 0.109983 0.274631 0.964767
Si Si5 0.294121 0.210316 0.789416
Si Si6 0.283482 0.601715 0.701514
O O1 0.079895 0.522271 0.393990
O O2 0.115093 0.354710 0.399646
O O3 0.991895 0.350570 0.555934
O O4 0.165444 0.389328 0.082305
O O5 0.179585 0.350953 0.855643
O O6 0.316574 0.301215 0.657341
O O7 0.299277 0.484191 0.653535
O O8 0.872669 0.708912 0.198478
O O9 0.814727 0.619132 0.503322
O O10 0.134083 0.160769 0.936757
O O11 0.000000 0.297081 0.250000
O O12 0.220236 0.141125 0.906259
O O13 0.250000 0.250000 0.000000
#
# Coordination Sequence:
#
# PCOD8133002 Si02
#       6
#     8   8   8   8   8   8
#     4   9  17  31  52  83 109 135 176 227 275 326
#     4   9  18  34  54  79 106 142 183 219 273 326
#     4  10  19  31  52  83 111 134 176 233 281 317
#     4  11  20  34  56  77 105 146 182 221 271 332
#     4   9  18  33  54  78 107 146 179 222 272 330
#     4  10  21  34  53  80 108 139 180 232 275 322
#
# _framework density 19.229658000000001
#
# number of rings (size 3 to 8) (size 9 to 14) (size 15 to 20)
#    0.000    2.333    1.667    1.500    0.000    0.667 
#    0.000    0.000    7.333    1.000    0.000    0.000 
#    0.000    0.000    0.000    0.000    0.000    0.000 
#
# Total GULP energy -297374.206373 kJ/mol
# GULP energy per Si atom -12390.591932 kJ/mol
# Density = 1.918589 g / cm^3
# Si number density = 19.229658 Si / 1000 Ang^3
#
#
#
# Elastic Constant Matrix: (Units=GPa)
#
#
# Indices 1 2 3 4 5 6 
#
# 1 119.6277 48.2543 17.3169 0.0000 -18.0891 0.0000
# 2 48.2543 110.1937 7.2332 0.0000 -12.6260 0.0000
# 3 17.3169 7.2332 25.5548 0.0000 -4.7071 0.0000
# 4 0.0000 0.0000 0.0000 20.5446 0.0000 -3.4930
# 5 -18.0891 -12.6260 -4.7071 0.0000 22.8652 0.0000
# 6 0.0000 0.0000 0.0000 -3.4930 0.0000 33.7048
#
#
#
# Elastic Compliance Matrix: (Units=1/GPa)
#
#
# Indices 1 2 3 4 5 6 
#
# 1 0.011717 -0.004087 -0.005708 0.000000 0.005837 0.000000
# 2 -0.004087 0.011196 0.000149 0.000000 0.002980 0.000000
# 3 -0.005708 0.000149 0.043801 0.000000 0.004584 0.000000
# 4 0.000000 0.000000 0.000000 0.049548 0.000000 0.005135
# 5 0.005837 0.002980 0.004584 0.000000 0.050942 0.000000
# 6 0.000000 0.000000 0.000000 0.005135 0.000000 0.030202
#
#
# Mechanical properties :
#
#
# Convention : Reuss Voigt Hill
#
# Bulk Modulus (GPa) = 21.08653 44.55388 32.82021
# Shear Modulus (GPa) = 21.50496 27.59439 24.54968
#
# Velocity S-wave (km/s) = 3.34776 3.79224 3.57691
# Velocity P-wave (km/s) = 5.09242 6.51110 5.84496
#
# Compressibility (1/GPa) = 0.04742364
#
# Stress axis : x y z
#
# Youngs Moduli (GPa) = 85.34677 89.31435 22.83033
#
# Poissons Ratio (x) = 0.36506 0.13031
# Poissons Ratio (y) = 0.34884 -0.00341
# Poissons Ratio (z) = 0.48713 -0.01335
#
# Static dielectric constant tensor:
#      x y z
#    x 3.862810 0.000000 -0.151560 
#    y 0.000000 4.079670 0.000000 
#    z -0.151560 0.000000 3.120340 
# 
# 
# High freq. dielectric constant tensor:
#      x y z
#    x 1.765210 0.000000 0.000880 
#    y 0.000000 1.749820 0.000000 
#    z 0.000880 0.000000 1.702710 
# 
# From -- ./inp_files/96401.got.cif
#   From: 2010.06.25/outbox.cif.g09.slc.cpg/sg15_49_cif.got.tgz:96401.got - 2010.06.28 07:06:18.
