data_PCOD8133354
_publ_section_title
;
Structure prediction by ZEFSAII (Michael W. Deem and Ramdas Pophale) SiO2 
 PCOD8133354
Probable space group: C 2/C
;
_chemical_formula_sum "Si O2"
_cell_formula_units_Z 44
_cell_length_a 11.287717
_cell_length_b 24.675577
_cell_length_c 7.753595
_cell_angle_alpha 90.000000
_cell_angle_beta 84.631728
_cell_angle_gamma 90.000000
_cell_volume 2150.143789
_symmetry_space_group_name_H-M "C 2/C"
_symmetry_group_IT_number 15
_symmetry_cell_setting 'monoclinic'
loop_
_space_group_symop_operation_xyz
x,y,z
-x,y,1/2-z
-x,-y,-z
x,-y,1/2+z
1/2+x,1/2+y,z
1/2-x,1/2+y,1/2-z
1/2-x,1/2-y,-z
1/2+x,1/2-y,1/2+z
loop_
_atom_site_type_symbol
_atom_site_label
_atom_site_fract_x
_atom_site_fract_y
_atom_site_fract_z
Si Si1 0.500000 0.650269 0.250000
Si Si2 0.954602 0.756600 0.989665
Si Si3 0.621985 0.156640 0.009957
Si Si4 0.964882 0.559341 0.061911
Si Si5 0.737935 0.198917 0.673538
Si Si6 0.252880 0.122648 0.155054
O O1 0.517491 0.687728 0.418620
O O2 0.614770 0.610797 0.216059
O O3 0.863888 0.769105 0.162413
O O4 0.045469 0.711126 0.040421
O O5 0.876546 0.738384 0.830785
O O6 0.538288 0.106823 0.953885
O O7 0.682423 0.145472 0.184176
O O8 0.723035 0.164037 0.849318
O O9 0.821871 0.569164 0.073121
O O10 0.000000 0.567081 0.250000
O O11 0.000000 0.500000 0.000000
O O12 0.738415 0.166042 0.496103
#
# Coordination Sequence:
#
# PCOD8133354 Si02
#       6
#     4   8   8   8   8   8
#     4  10  20  40  56  84 128 162 192 236 290 358
#     4  10  19  33  53  87 119 162 200 223 288 364
#     4  11  21  38  58  85 122 153 198 254 288 345
#     4  10  23  38  62  93 112 145 199 252 310 352
#     4  10  20  36  54  83 125 160 193 233 294 353
#     4  10  23  39  58  87 120 154 204 242 293 360
#
# _framework density 20.463747999999999
#
# number of rings (size 3 to 8) (size 9 to 14) (size 15 to 20)
#    0.000    1.818    3.636    0.000    2.545    0.727 
#    3.273    2.727    0.000    4.364    0.000    0.000 
#    0.000    0.000    0.000    0.000    0.000    0.000 
#
# Total GULP energy -272596.295627 kJ/mol
# GULP energy per Si atom -12390.740710 kJ/mol
# Density = 2.041717 g / cm^3
# Si number density = 20.463748 Si / 1000 Ang^3
#
#
#
# Elastic Constant Matrix: (Units=GPa)
#
#
# Indices 1 2 3 4 5 6 
#
# 1 133.7746 61.1786 35.2681 0.0000 -26.6368 0.0000
# 2 61.1786 101.3347 29.7665 0.0000 -19.6304 0.0000
# 3 35.2681 29.7665 93.1805 0.0000 -15.3397 0.0000
# 4 0.0000 0.0000 0.0000 22.8462 0.0000 -13.1993
# 5 -26.6368 -19.6304 -15.3397 0.0000 23.6787 0.0000
# 6 0.0000 0.0000 0.0000 -13.1993 0.0000 26.7172
#
#
#
# Elastic Compliance Matrix: (Units=1/GPa)
#
#
# Indices 1 2 3 4 5 6 
#
# 1 0.011828 -0.005134 -0.001508 0.000000 0.008073 0.000000
# 2 -0.005134 0.014488 -0.001856 0.000000 0.005033 0.000000
# 3 -0.001508 -0.001856 0.012719 0.000000 0.005005 0.000000
# 4 0.000000 0.000000 0.000000 0.061255 0.000000 0.030262
# 5 0.008073 0.005033 0.005005 0.000000 0.058728 0.000000
# 6 0.000000 0.000000 0.000000 0.030262 0.000000 0.052380
#
#
# Mechanical properties :
#
#
# Convention : Reuss Voigt Hill
#
# Bulk Modulus (GPa) = 45.37435 64.52403 54.94919
# Shear Modulus (GPa) = 21.20961 28.12018 24.66489
#
# Velocity S-wave (km/s) = 3.22288 3.71097 3.47551
# Velocity P-wave (km/s) = 6.00587 7.06831 6.55864
#
# Compressibility (1/GPa) = 0.02203888
#
# Stress axis : x y z
#
# Youngs Moduli (GPa) = 84.54347 69.02125 78.61946
#
# Poissons Ratio (x) = 0.35438 0.11854
# Poissons Ratio (y) = 0.43407 0.14595
# Poissons Ratio (z) = 0.12748 0.12813
#
# Static dielectric constant tensor:
#      x y z
#    x 5.085140 0.000000 -1.304410 
#    y 0.000000 3.201470 0.000000 
#    z -1.304410 0.000000 4.524080 
# 
# 
# High freq. dielectric constant tensor:
#      x y z
#    x 1.800220 0.000000 -0.022120 
#    y 0.000000 1.755180 0.000000 
#    z -0.022120 0.000000 1.808810 
# 
# From -- ./inp_files/30835.got.cif
#   From: 2010.06.25/outbox.cif.g09.slc.cpg/sg15_16_cif.got.tgz:30835.got - 2010.06.28 07:06:18.
