data_PCOD8133092
_publ_section_title
;
Structure prediction by ZEFSAII (Michael W. Deem and Ramdas Pophale) SiO2 
 PCOD8133092
Probable space group: C 2/C
;
_chemical_formula_sum "Si O2"
_cell_formula_units_Z 64
_cell_length_a 21.216073
_cell_length_b 21.565382
_cell_length_c 9.314448
_cell_angle_alpha 90.000000
_cell_angle_beta 119.453169
_cell_angle_gamma 90.000000
_cell_volume 3710.878178
_symmetry_space_group_name_H-M "C 2/C"
_symmetry_group_IT_number 15
_symmetry_cell_setting 'monoclinic'
loop_
_space_group_symop_operation_xyz
x,y,z
-x,y,1/2-z
-x,-y,-z
x,-y,1/2+z
1/2+x,1/2+y,z
1/2-x,1/2+y,1/2-z
1/2-x,1/2-y,-z
1/2+x,1/2-y,1/2+z
loop_
_atom_site_type_symbol
_atom_site_label
_atom_site_fract_x
_atom_site_fract_y
_atom_site_fract_z
Si Si1 0.928696 0.117015 0.093826
Si Si2 0.929637 0.888488 0.260545
Si Si3 0.218216 0.936466 0.030646
Si Si4 0.221376 0.056839 0.871355
Si Si5 0.787879 0.682230 0.913208
Si Si6 0.867779 0.761096 0.220646
Si Si7 0.924799 0.741218 0.587766
Si Si8 0.795277 0.689548 0.595296
O O1 0.905328 0.187516 0.103621
O O2 0.000000 0.094477 0.250000
O O3 0.946405 0.110408 0.946928
O O4 0.867440 0.071992 0.086476
O O5 0.859892 0.932293 0.158334
O O6 0.909225 0.818332 0.191590
O O7 0.000000 0.911302 0.250000
O O8 0.228850 0.949676 0.209641
O O9 0.255335 0.874387 0.011617
O O10 0.249664 0.994101 0.976185
O O11 0.272947 0.114866 0.966503
O O12 0.711110 0.717678 0.811351
O O13 0.818015 0.684909 0.786791
O O14 0.851565 0.710487 0.081366
O O15 0.918180 0.734235 0.406347
O O16 0.869228 0.692295 0.590661
O O17 0.000000 0.724482 0.750000
O O18 0.750000 0.750000 0.500000
#
# Coordination Sequence:
#
# PCOD8133092 Si02
#       8
#     8   8   8   8   8   8   8   8
#     4   9  18  31  47  69 101 136 173 214 250 292
#     4   9  18  32  46  67 105 141 171 210 249 308
#     4  10  20  35  51  72 102 136 176 219 255 312
#     4   9  20  35  48  71 102 134 174 216 260 302
#     4   9  18  32  52  74 104 130 171 224 259 300
#     4   9  17  31  48  74 103 135 171 218 262 297
#     4  10  19  32  50  77 108 134 166 214 263 315
#     4  11  18  34  55  77 100 132 177 217 264 310
#
# _framework density 17.246590999999999
#
# number of rings (size 3 to 8) (size 9 to 14) (size 15 to 20)
#    0.000    2.500    2.500    1.500    0.000    5.500 
#    2.250    2.500    0.000    0.000    0.000    8.750 
#    0.000    0.000    0.000    0.000    0.000    0.000 
#
# Total GULP energy -396504.068127 kJ/mol
# GULP energy per Si atom -12390.752129 kJ/mol
# Density = 1.720734 g / cm^3
# Si number density = 17.246591 Si / 1000 Ang^3
#
#
#
# Elastic Constant Matrix: (Units=GPa)
#
#
# Indices 1 2 3 4 5 6 
#
# 1 50.3258 27.6506 12.6021 0.0000 -8.7979 0.0000
# 2 27.6506 102.5450 43.2037 0.0000 -5.9914 0.0000
# 3 12.6021 43.2037 83.1812 0.0000 14.3950 0.0000
# 4 0.0000 0.0000 0.0000 26.1637 0.0000 -4.6093
# 5 -8.7979 -5.9914 14.3950 0.0000 17.2175 0.0000
# 6 0.0000 0.0000 0.0000 -4.6093 0.0000 20.8920
#
#
#
# Elastic Compliance Matrix: (Units=1/GPa)
#
#
# Indices 1 2 3 4 5 6 
#
# 1 0.026024 -0.004248 -0.004422 0.000000 0.015517 0.000000
# 2 -0.004248 0.015445 -0.009275 0.000000 0.010959 0.000000
# 3 -0.004422 -0.009275 0.021581 0.000000 -0.023530 0.000000
# 4 0.000000 0.000000 0.000000 0.039766 0.000000 0.008773
# 5 0.015517 0.010959 -0.023530 0.000000 0.089495 0.000000
# 6 0.000000 0.000000 0.000000 0.008773 0.000000 0.049801
#
#
# Mechanical properties :
#
#
# Convention : Reuss Voigt Hill
#
# Bulk Modulus (GPa) = 36.81650 44.77384 40.79517
# Shear Modulus (GPa) = 17.41819 23.02770 20.22294
#
# Velocity S-wave (km/s) = 3.18142 3.65801 3.42800
# Velocity P-wave (km/s) = 5.90666 6.62259 6.27485
#
# Compressibility (1/GPa) = 0.02716174
#
# Stress axis : x y z
#
# Youngs Moduli (GPa) = 38.42568 64.74523 46.33652
#
# Poissons Ratio (x) = 0.27502 0.20489
# Poissons Ratio (y) = 0.16322 0.42977
# Poissons Ratio (z) = 0.16991 0.60051
#
# Static dielectric constant tensor:
#      x y z
#    x 3.068860 0.000000 0.055460 
#    y 0.000000 3.149690 0.000000 
#    z 0.055460 0.000000 3.213470 
# 
# 
# High freq. dielectric constant tensor:
#      x y z
#    x 1.643170 0.000000 -0.005970 
#    y 0.000000 1.650240 0.000000 
#    z -0.005970 0.000000 1.665120 
# 
# From -- ./inp_files/58490.got.cif
#   From: 2010.06.25/outbox.cif.g09.slc.cpg/sg15_30_cif.got.tgz:58490.got - 2010.06.28 07:06:18.
