data_PCOD8133872
_publ_section_title
;
Structure prediction by ZEFSAII (Michael W. Deem and Ramdas Pophale) SiO2 
 PCOD8133872
Probable space group: C 2/C
;
_chemical_formula_sum "Si O2"
_cell_formula_units_Z 64
_cell_length_a 23.968962
_cell_length_b 15.433681
_cell_length_c 10.153920
_cell_angle_alpha 90.000000
_cell_angle_beta 52.135548
_cell_angle_gamma 90.000000
_cell_volume 2965.414414
_symmetry_space_group_name_H-M "C 2/C"
_symmetry_group_IT_number 15
_symmetry_cell_setting 'monoclinic'
loop_
_space_group_symop_operation_xyz
x,y,z
-x,y,1/2-z
-x,-y,-z
x,-y,1/2+z
1/2+x,1/2+y,z
1/2-x,1/2+y,1/2-z
1/2-x,1/2-y,-z
1/2+x,1/2-y,1/2+z
loop_
_atom_site_type_symbol
_atom_site_label
_atom_site_fract_x
_atom_site_fract_y
_atom_site_fract_z
Si Si1 0.055251 0.856987 0.776411
Si Si2 0.795708 0.018346 0.713113
Si Si3 0.058273 0.564007 0.765220
Si Si4 0.167133 0.194049 0.928091
Si Si5 0.550631 0.693842 0.871598
Si Si6 0.048113 0.614153 0.380251
Si Si7 0.169865 0.614129 0.419070
Si Si8 0.615197 0.465035 0.157984
O O1 0.132583 0.818783 0.624255
O O2 0.000000 0.821180 0.750000
O O3 0.057572 0.961148 0.770525
O O4 0.028414 0.826023 0.958835
O O5 0.854004 0.974549 0.533586
O O6 0.778150 0.115480 0.682164
O O7 0.822814 0.025846 0.823205
O O8 0.727073 0.958859 0.808444
O O9 0.062785 0.459054 0.750223
O O10 0.134801 0.601825 0.614662
O O11 0.000000 0.600496 0.750000
O O12 0.031149 0.597220 0.946747
O O13 0.104678 0.183714 0.913331
O O14 0.203543 0.288730 0.865062
O O15 0.551802 0.790730 0.809764
O O16 0.574175 0.626766 0.724485
O O17 0.108435 0.602990 0.402237
#
# Coordination Sequence:
#
# PCOD8133872 Si02
#       8
#     8   8   8   8   8   8   8   8
#     4   9  16  31  58  79 106 141 182 222 276 326
#     4  10  22  38  55  77 117 148 185 231 267 318
#     4   9  18  33  53  78 106 133 173 232 279 322
#     4   8  17  34  52  81 104 137 189 230 253 330
#     4   9  16  30  54  81 102 139 177 223 278 330
#     4   9  18  33  54  81 106 131 180 232 274 326
#     4  10  19  34  59  75 100 152 189 215 276 326
#     4  10  21  37  53  81 117 143 185 230 270 321
#
# _framework density 21.582142999999999
#
# number of rings (size 3 to 8) (size 9 to 14) (size 15 to 20)
#    0.000    2.750    0.000    1.875    1.750    3.000 
#    2.250    6.250    5.500    0.000    0.000    0.000 
#    0.000    0.000    0.000    0.000    0.000    0.000 
#
# Total GULP energy -396524.305926 kJ/mol
# GULP energy per Si atom -12391.384560 kJ/mol
# Density = 2.153302 g / cm^3
# Si number density = 21.582143 Si / 1000 Ang^3
#
#
#
# Elastic Constant Matrix: (Units=GPa)
#
#
# Indices 1 2 3 4 5 6 
#
# 1 16.4494 7.7900 7.5269 0.0000 -4.0854 0.0000
# 2 7.7900 162.9988 44.6437 0.0000 -18.2634 0.0000
# 3 7.5269 44.6437 62.1340 0.0000 -10.0048 0.0000
# 4 0.0000 0.0000 0.0000 32.2107 0.0000 -3.3423
# 5 -4.0854 -18.2634 -10.0048 0.0000 20.1408 0.0000
# 6 0.0000 0.0000 0.0000 -3.3423 0.0000 26.3309
#
#
#
# Elastic Compliance Matrix: (Units=1/GPa)
#
#
# Indices 1 2 3 4 5 6 
#
# 1 0.066276 -0.000354 -0.006153 0.000000 0.010066 0.000000
# 2 -0.000354 0.008047 -0.004973 0.000000 0.004754 0.000000
# 3 -0.006153 -0.004973 0.021180 0.000000 0.004763 0.000000
# 4 0.000000 0.000000 0.000000 0.031460 0.000000 0.003993
# 5 0.010066 0.004754 0.004763 0.000000 0.058370 0.000000
# 6 0.000000 0.000000 0.000000 0.003993 0.000000 0.038485
#
#
# Mechanical properties :
#
#
# Convention : Reuss Voigt Hill
#
# Bulk Modulus (GPa) = 13.78535 40.16705 26.97620
# Shear Modulus (GPa) = 18.45298 27.84459 23.14879
#
# Velocity S-wave (km/s) = 2.92723 3.59579 3.27859
# Velocity P-wave (km/s) = 4.22210 5.99093 5.18254
#
# Compressibility (1/GPa) = 0.07254079
#
# Stress axis : x y z
#
# Youngs Moduli (GPa) = 15.08847 124.27349 47.21456
#
# Poissons Ratio (x) = 0.04403 0.29053
# Poissons Ratio (y) = 0.00535 0.23481
# Poissons Ratio (z) = 0.09284 0.61803
#
# Static dielectric constant tensor:
#      x y z
#    x 3.378900 0.000000 0.061840 
#    y 0.000000 4.162080 0.000000 
#    z 0.061840 0.000000 3.879830 
# 
# 
# High freq. dielectric constant tensor:
#      x y z
#    x 1.797140 0.000000 0.004520 
#    y 0.000000 1.862340 0.000000 
#    z 0.004520 0.000000 1.834960 
# 
# From -- ./inp_files/126876.got.cif
#   From: 2010.06.25/outbox.cif.g09.slc.cpg/sg15_64_cif.got.tgz:126876.got - 2010.06.28 07:06:18.
