data_PCOD8133850
_publ_section_title
;
Structure prediction by ZEFSAII (Michael W. Deem and Ramdas Pophale) SiO2 
 PCOD8133850
Probable space group: C 2/C
;
_chemical_formula_sum "Si O2"
_cell_formula_units_Z 64
_cell_length_a 13.962243
_cell_length_b 17.309714
_cell_length_c 14.637450
_cell_angle_alpha 90.000000
_cell_angle_beta 83.161737
_cell_angle_gamma 90.000000
_cell_volume 3512.448701
_symmetry_space_group_name_H-M "C 2/C"
_symmetry_group_IT_number 15
_symmetry_cell_setting 'monoclinic'
loop_
_space_group_symop_operation_xyz
x,y,z
-x,y,1/2-z
-x,-y,-z
x,-y,1/2+z
1/2+x,1/2+y,z
1/2-x,1/2+y,1/2-z
1/2-x,1/2-y,-z
1/2+x,1/2-y,1/2+z
loop_
_atom_site_type_symbol
_atom_site_label
_atom_site_fract_x
_atom_site_fract_y
_atom_site_fract_z
Si Si1 0.146405 0.000595 0.823623
Si Si2 0.912436 0.181013 0.486637
Si Si3 0.782508 0.930634 0.367166
Si Si4 0.377498 0.175710 0.681184
Si Si5 0.906253 0.341540 0.385170
Si Si6 0.749323 0.943063 0.017749
Si Si7 0.490881 0.375060 0.353131
Si Si8 0.563954 0.659961 0.328286
O O1 0.204038 0.041581 0.737217
O O2 0.210016 0.002965 0.906871
O O3 0.043634 0.041805 0.850702
O O4 0.130470 0.912152 0.796421
O O5 0.891726 0.265106 0.448300
O O6 0.814410 0.132637 0.495287
O O7 0.956398 0.184827 0.584447
O O8 0.992789 0.136065 0.418289
O O9 0.700452 0.865837 0.373489
O O10 0.880413 0.891733 0.394715
O O11 0.745747 0.003442 0.429371
O O12 0.481331 0.140408 0.642317
O O13 0.355371 0.167554 0.791917
O O14 0.371400 0.265995 0.653796
O O15 0.857402 0.412867 0.444342
O O16 0.500000 0.339524 0.250000
O O17 0.500000 0.687699 0.250000
#
# Coordination Sequence:
#
# PCOD8133850 Si02
#       8
#     8   8   8   8   8   8   8   8
#     4  10  20  34  55  85 116 141 177 223 284 343
#     4  10  19  34  58  86 113 142 185 224 280 338
#     4  11  21  35  55  83 113 149 182 227 281 331
#     4  10  21  38  58  76 110 154 191 223 271 323
#     4  10  20  39  56  81 107 150 195 230 263 322
#     4  11  21  34  57  85 114 142 183 234 277 325
#     4   9  19  35  53  81 119 150 169 222 289 340
#     4  11  18  33  57  82 108 143 181 229 270 332
#
# _framework density 18.220907
#
# number of rings (size 3 to 8) (size 9 to 14) (size 15 to 20)
#    0.000    1.750    3.750    3.750    0.000    2.500 
#    0.000    5.625    0.000    0.000    0.000    0.000 
#    0.000    0.000    0.000    0.000    0.000    0.000 
#
# Total GULP energy -396824.558269 kJ/mol
# GULP energy per Si atom -12400.767446 kJ/mol
# Density = 1.817944 g / cm^3
# Si number density = 18.220907 Si / 1000 Ang^3
#
#
#
# Elastic Constant Matrix: (Units=GPa)
#
#
# Indices 1 2 3 4 5 6 
#
# 1 91.3855 58.4865 35.0033 0.0000 1.2876 0.0000
# 2 58.4865 78.7536 31.5475 0.0000 2.9621 0.0000
# 3 35.0033 31.5475 82.5279 0.0000 4.2634 0.0000
# 4 0.0000 0.0000 0.0000 23.7026 0.0000 1.1451
# 5 1.2876 2.9621 4.2634 0.0000 24.6225 0.0000
# 6 0.0000 0.0000 0.0000 1.1451 0.0000 18.8599
#
#
#
# Elastic Compliance Matrix: (Units=1/GPa)
#
#
# Indices 1 2 3 4 5 6 
#
# 1 0.021762 -0.014744 -0.003660 0.000000 0.001269 0.000000
# 2 -0.014744 0.024999 -0.003216 0.000000 -0.001679 0.000000
# 3 -0.003660 -0.003216 0.015003 0.000000 -0.002020 0.000000
# 4 0.000000 0.000000 0.000000 0.042314 0.000000 -0.002569
# 5 0.001269 -0.001679 -0.002020 0.000000 0.041099 0.000000
# 6 0.000000 0.000000 0.000000 -0.002569 0.000000 0.053179
#
#
# Mechanical properties :
#
#
# Convention : Reuss Voigt Hill
#
# Bulk Modulus (GPa) = 53.98050 55.86015 54.92032
# Shear Modulus (GPa) = 20.18009 21.94565 21.06287
#
# Velocity S-wave (km/s) = 3.33156 3.47424 3.40365
# Velocity P-wave (km/s) = 6.67000 6.84233 6.75672
#
# Compressibility (1/GPa) = 0.01852521
#
# Stress axis : x y z
#
# Youngs Moduli (GPa) = 45.95064 40.00221 66.65271
#
# Poissons Ratio (x) = 0.58978 0.24395
# Poissons Ratio (y) = 0.67748 0.21435
# Poissons Ratio (z) = 0.16818 0.12865
#
# Static dielectric constant tensor:
#      x y z
#    x 3.234760 0.000000 -0.056600 
#    y 0.000000 3.085540 0.000000 
#    z -0.056600 0.000000 3.528730 
# 
# 
# High freq. dielectric constant tensor:
#      x y z
#    x 1.693230 0.000000 -0.004990 
#    y 0.000000 1.687160 0.000000 
#    z -0.004990 0.000000 1.715970 
# 
# From -- ./inp_files/154828.got.cif
#   From: 2010.06.25/outbox.cif.g09.slc.cpg/sg15_78_cif.got.tgz:154828.got - 2010.06.28 07:06:18.
