data_PCOD8133833
_publ_section_title
;
Structure prediction by ZEFSAII (Michael W. Deem and Ramdas Pophale) SiO2 
 PCOD8133833
Probable space group: C 2/C
;
_chemical_formula_sum "Si O2"
_cell_formula_units_Z 48
_cell_length_a 12.379355
_cell_length_b 12.941918
_cell_length_c 17.369563
_cell_angle_alpha 90.000000
_cell_angle_beta 64.915699
_cell_angle_gamma 90.000000
_cell_volume 2520.360857
_symmetry_space_group_name_H-M "C 2/C"
_symmetry_group_IT_number 15
_symmetry_cell_setting 'monoclinic'
loop_
_space_group_symop_operation_xyz
x,y,z
-x,y,1/2-z
-x,-y,-z
x,-y,1/2+z
1/2+x,1/2+y,z
1/2-x,1/2+y,1/2-z
1/2-x,1/2-y,-z
1/2+x,1/2-y,1/2+z
loop_
_atom_site_type_symbol
_atom_site_label
_atom_site_fract_x
_atom_site_fract_y
_atom_site_fract_z
Si Si1 0.672328 0.452792 0.985975
Si Si2 0.549516 0.055219 0.097069
Si Si3 0.000000 0.032887 0.250000
Si Si4 0.171458 0.861579 0.148627
Si Si5 0.449432 0.853737 0.068749
Si Si6 0.500000 0.187666 0.250000
Si Si7 0.504903 0.373616 0.585108
O O1 0.646582 0.374109 0.064623
O O2 0.625260 0.567601 0.021661
O O3 0.811249 0.453911 0.925592
O O4 0.607426 0.413233 0.929656
O O5 0.475684 0.115389 0.184252
O O6 0.500922 0.939499 0.109976
O O7 0.522770 0.116465 0.027106
O O8 0.981435 0.105333 0.181927
O O9 0.117351 0.960986 0.208253
O O10 0.309173 0.848776 0.126057
O O11 0.114377 0.757210 0.197546
O O12 0.518160 0.748200 0.067788
#
# Coordination Sequence:
#
# PCOD8133833 Si02
#       7
#     8   8   4   8   8   4   8
#     4   9  19  37  58  78 105 142 183 218 259 322
#     4  10  22  37  53  80 112 141 178 221 264 314
#     4   9  20  35  52  82 112 133 172 227 274 310
#     4   9  19  36  56  79 108 140 177 222 265 309
#     4  10  21  37  55  77 111 148 175 211 268 323
#     4  11  20  33  56  80 104 139 186 227 258 304
#     4  10  19  34  58  81 104 142 182 219 264 316
#
# _framework density 19.044892000000001
#
# number of rings (size 3 to 8) (size 9 to 14) (size 15 to 20)
#    0.000    2.333    0.000    2.000    0.000    8.000 
#    0.000    0.000    0.000    2.000    0.000    0.000 
#    0.000    0.000    0.000    0.000    0.000    0.000 
#
# Total GULP energy -297634.338666 kJ/mol
# GULP energy per Si atom -12401.430778 kJ/mol
# Density = 1.900154 g / cm^3
# Si number density = 19.044892 Si / 1000 Ang^3
#
#
#
# Elastic Constant Matrix: (Units=GPa)
#
#
# Indices 1 2 3 4 5 6 
#
# 1 66.2663 47.7933 45.4765 0.0000 6.1682 0.0000
# 2 47.7933 162.7524 68.9253 0.0000 8.4288 0.0000
# 3 45.4765 68.9253 106.8880 0.0000 9.2552 0.0000
# 4 0.0000 0.0000 0.0000 27.3672 0.0000 9.3980
# 5 6.1682 8.4288 9.2552 0.0000 22.1097 0.0000
# 6 0.0000 0.0000 0.0000 9.3980 0.0000 15.3365
#
#
#
# Elastic Compliance Matrix: (Units=1/GPa)
#
#
# Indices 1 2 3 4 5 6 
#
# 1 0.022792 -0.003517 -0.007258 0.000000 -0.001980 0.000000
# 2 -0.003517 0.009016 -0.004259 0.000000 -0.000673 0.000000
# 3 -0.007258 -0.004259 0.015433 0.000000 -0.002812 0.000000
# 4 0.000000 0.000000 0.000000 0.046279 0.000000 -0.028359
# 5 -0.001980 -0.000673 -0.002812 0.000000 0.047215 0.000000
# 6 0.000000 0.000000 0.000000 -0.028359 0.000000 0.082582
#
#
# Mechanical properties :
#
#
# Convention : Reuss Voigt Hill
#
# Bulk Modulus (GPa) = 58.22894 73.36632 65.79763
# Shear Modulus (GPa) = 19.29687 24.54344 21.92016
#
# Velocity S-wave (km/s) = 3.18658 3.59376 3.39628
# Velocity P-wave (km/s) = 6.64680 7.47172 7.07130
#
# Compressibility (1/GPa) = 0.01717359
#
# Stress axis : x y z
#
# Youngs Moduli (GPa) = 43.87451 110.91890 64.79438
#
# Poissons Ratio (x) = 0.39008 0.47028
# Poissons Ratio (y) = 0.15430 0.27596
# Poissons Ratio (z) = 0.31844 0.47241
#
# Static dielectric constant tensor:
#      x y z
#    x 3.345320 0.000000 0.002290 
#    y 0.000000 3.617240 0.000000 
#    z 0.002290 0.000000 3.549330 
# 
# 
# High freq. dielectric constant tensor:
#      x y z
#    x 1.730000 0.000000 -0.000480 
#    y 0.000000 1.747510 0.000000 
#    z -0.000480 0.000000 1.743060 
# 
# From -- ./inp_files/152224.got.cif
#   From: 2010.06.25/outbox.cif.g09.slc.cpg/sg15_77_cif.got.tgz:152224.got - 2010.06.28 07:06:18.
