data_PCOD8133111
_publ_section_title
;
Structure prediction by ZEFSAII (Michael W. Deem and Ramdas Pophale) SiO2 
 PCOD8133111
Probable space group: C 2/C
;
_chemical_formula_sum "Si O2"
_cell_formula_units_Z 64
_cell_length_a 29.830026
_cell_length_b 19.860869
_cell_length_c 13.433079
_cell_angle_alpha 90.000000
_cell_angle_beta 153.498538
_cell_angle_gamma 90.000000
_cell_volume 3551.216181
_symmetry_space_group_name_H-M "C 2/C"
_symmetry_group_IT_number 15
_symmetry_cell_setting 'monoclinic'
loop_
_space_group_symop_operation_xyz
x,y,z
-x,y,1/2-z
-x,-y,-z
x,-y,1/2+z
1/2+x,1/2+y,z
1/2-x,1/2+y,1/2-z
1/2-x,1/2-y,-z
1/2+x,1/2-y,1/2+z
loop_
_atom_site_type_symbol
_atom_site_label
_atom_site_fract_x
_atom_site_fract_y
_atom_site_fract_z
Si Si1 0.266548 0.282810 0.183377
Si Si2 0.245764 0.038890 0.164308
Si Si3 0.248102 0.933601 0.340414
Si Si4 0.164544 0.830449 0.586623
Si Si5 0.087856 0.949386 0.184578
Si Si6 0.411439 0.055359 0.329262
Si Si7 0.405992 0.207441 0.322128
Si Si8 0.001261 0.822740 0.411322
O O1 0.282657 0.358306 0.254797
O O2 0.224514 0.239258 0.191997
O O3 0.367425 0.244758 0.345915
O O4 0.190204 0.293159 0.940501
O O5 0.240635 0.107510 0.219138
O O6 0.340770 0.036432 0.280773
O O7 0.254490 0.975488 0.252817
O O8 0.144101 0.035133 0.899198
O O9 0.160019 0.960527 0.235155
O O10 0.353164 0.942301 0.608161
O O11 0.075190 0.829135 0.330842
O O12 0.115113 0.835180 0.598632
O O13 0.036924 0.875769 0.082449
O O14 0.000000 0.000000 0.000000
O O15 0.448652 0.132010 0.425372
O O16 0.500000 0.000000 0.500000
O O17 0.496793 0.249248 0.452976
#
# Coordination Sequence:
#
# PCOD8133111 Si02
#       8
#     8   8   8   8   8   8   8   8
#     4   9  15  28  50  73  99 134 171 219 268 305
#     4  10  20  34  51  76 109 140 173 217 268 327
#     4  10  20  33  53  79 107 139 178 220 268 319
#     4   9  16  27  46  73 101 131 166 211 264 310
#     4  10  19  32  51  77 108 138 167 214 277 325
#     4  10  21  35  53  77 107 145 182 217 266 315
#     4   9  15  29  50  72 101 132 172 225 263 307
#     4   9  16  26  46  75 100 126 170 213 260 313
#
# _framework density 18.021995
#
# number of rings (size 3 to 8) (size 9 to 14) (size 15 to 20)
#    0.000    2.500    2.500    0.750    0.000    3.000 
#    0.000    2.500    0.000    1.500    0.000    5.250 
#    0.000    0.000    0.000    0.000    0.000    0.000 
#
# Total GULP energy -396552.611080 kJ/mol
# GULP energy per Si atom -12392.269096 kJ/mol
# Density = 1.798098 g / cm^3
# Si number density = 18.021995 Si / 1000 Ang^3
#
#
#
# Elastic Constant Matrix: (Units=GPa)
#
#
# Indices 1 2 3 4 5 6 
#
# 1 95.2711 57.5093 29.5579 0.0000 14.7046 0.0000
# 2 57.5093 161.1007 46.3079 0.0000 9.4691 0.0000
# 3 29.5579 46.3079 44.9054 0.0000 16.6980 0.0000
# 4 0.0000 0.0000 0.0000 25.3616 0.0000 5.0825
# 5 14.7046 9.4691 16.6980 0.0000 19.9801 0.0000
# 6 0.0000 0.0000 0.0000 5.0825 0.0000 36.0032
#
#
#
# Elastic Compliance Matrix: (Units=1/GPa)
#
#
# Indices 1 2 3 4 5 6 
#
# 1 0.014918 -0.003986 -0.003379 0.000000 -0.006266 0.000000
# 2 -0.003986 0.010241 -0.010480 0.000000 0.006838 0.000000
# 3 -0.003379 -0.010480 0.047195 0.000000 -0.031989 0.000000
# 4 0.000000 0.000000 0.000000 0.040578 0.000000 -0.005728
# 5 -0.006266 0.006838 -0.031989 0.000000 0.078155 0.000000
# 6 0.000000 0.000000 0.000000 -0.005728 0.000000 0.028584
#
#
# Mechanical properties :
#
#
# Convention : Reuss Voigt Hill
#
# Bulk Modulus (GPa) = 27.27421 63.11415 45.19418
# Shear Modulus (GPa) = 18.68599 27.46246 23.07423
#
# Velocity S-wave (km/s) = 3.22350 3.90786 3.58206
# Velocity P-wave (km/s) = 5.38714 7.44705 6.49922
#
# Compressibility (1/GPa) = 0.03666467
#
# Stress axis : x y z
#
# Youngs Moduli (GPa) = 67.03417 97.65132 21.18858
#
# Poissons Ratio (x) = 0.38921 0.07160
# Poissons Ratio (y) = 0.26718 0.22205
# Poissons Ratio (z) = 0.22651 1.02335
#
# Static dielectric constant tensor:
#      x y z
#    x 2.865330 0.000000 0.305930 
#    y 0.000000 3.320990 0.000000 
#    z 0.305930 0.000000 2.868590 
# 
# 
# High freq. dielectric constant tensor:
#      x y z
#    x 1.698200 0.000000 0.027210 
#    y 0.000000 1.712920 0.000000 
#    z 0.027210 0.000000 1.639460 
# 
# From -- ./inp_files/182769.got.cif
#   From: 2010.06.25/outbox.cif.g09.slc.cpg/sg15_92_cif.got.tgz:182769.got - 2010.06.28 07:06:18.
