data_PCOD8133662
_publ_section_title
;
Structure prediction by ZEFSAII (Michael W. Deem and Ramdas Pophale) SiO2 
 PCOD8133662
Probable space group: C 2/C
;
_chemical_formula_sum "Si O2"
_cell_formula_units_Z 56
_cell_length_a 20.926034
_cell_length_b 22.554465
_cell_length_c 10.836698
_cell_angle_alpha 90.000000
_cell_angle_beta 144.686579
_cell_angle_gamma 90.000000
_cell_volume 2956.520651
_symmetry_space_group_name_H-M "C 2/C"
_symmetry_group_IT_number 15
_symmetry_cell_setting 'monoclinic'
loop_
_space_group_symop_operation_xyz
x,y,z
-x,y,1/2-z
-x,-y,-z
x,-y,1/2+z
1/2+x,1/2+y,z
1/2-x,1/2+y,1/2-z
1/2-x,1/2-y,-z
1/2+x,1/2-y,1/2+z
loop_
_atom_site_type_symbol
_atom_site_label
_atom_site_fract_x
_atom_site_fract_y
_atom_site_fract_z
Si Si1 0.817567 0.745072 0.920431
Si Si2 0.415550 0.215947 0.719150
Si Si3 0.619336 0.474764 0.668900
Si Si4 0.085661 0.753512 0.174996
Si Si5 0.452965 0.645440 0.548280
Si Si6 0.728811 0.673310 0.572094
Si Si7 0.132668 0.954648 0.955098
O O1 0.693874 0.759174 0.768143
O O2 0.861881 0.804239 0.926195
O O3 0.809434 0.692232 0.810699
O O4 0.897408 0.727684 0.160041
O O5 0.500000 0.189829 0.750000
O O6 0.371519 0.280454 0.606256
O O7 0.309602 0.173078 0.578012
O O8 0.482586 0.220543 0.952313
O O9 0.500000 0.500000 0.500000
O O10 0.607160 0.404552 0.626009
O O11 0.677504 0.482947 0.895354
O O12 0.678355 0.508055 0.646009
O O13 0.056441 0.824257 0.138627
O O14 0.500000 0.617469 0.750000
O O15 0.678922 0.611230 0.532720
O O16 0.000000 0.953675 0.750000
#
# Coordination Sequence:
#
# PCOD8133662 Si02
#       7
#     8   8   8   8   8   8   8
#     4  10  21  33  53  83 113 150 193 218 296 339
#     4  11  21  33  52  78 120 147 187 224 291 336
#     4  10  21  36  54  81 108 156 192 229 288 345
#     4  10  20  34  50  80 116 153 179 232 272 351
#     4  10  19  34  54  76 119 151 179 231 278 340
#     4  11  22  34  56  86 113 152 193 231 281 352
#     4  10  22  37  57  82 118 149 191 238 285 345
#
# _framework density 18.941182999999999
#
# number of rings (size 3 to 8) (size 9 to 14) (size 15 to 20)
#    0.000    1.714    2.857    2.571    6.000    0.000 
#    2.571    0.000    0.000    0.000    0.000    4.000 
#    0.000    0.000    0.000    0.000    0.000    0.000 
#
# Total GULP energy -346881.658944 kJ/mol
# GULP energy per Si atom -12388.630677 kJ/mol
# Density = 1.889807 g / cm^3
# Si number density = 18.941183 Si / 1000 Ang^3
#
#
#
# Elastic Constant Matrix: (Units=GPa)
#
#
# Indices 1 2 3 4 5 6 
#
# 1 108.9120 39.6270 35.3600 0.0000 -12.1084 0.0000
# 2 39.6270 75.1173 23.0810 0.0000 -8.2068 0.0000
# 3 35.3600 23.0810 72.8178 0.0000 -25.5692 0.0000
# 4 0.0000 0.0000 0.0000 16.9465 0.0000 1.4473
# 5 -12.1084 -8.2068 -25.5692 0.0000 31.2633 0.0000
# 6 0.0000 0.0000 0.0000 1.4473 0.0000 22.6457
#
#
#
# Elastic Compliance Matrix: (Units=1/GPa)
#
#
# Indices 1 2 3 4 5 6 
#
# 1 0.012528 -0.005251 -0.004488 0.000000 -0.000197 0.000000
# 2 -0.005251 0.016950 -0.002770 0.000000 0.000150 0.000000
# 3 -0.004488 -0.002770 0.022340 0.000000 0.015806 0.000000
# 4 0.000000 0.000000 0.000000 0.059333 0.000000 -0.003792
# 5 -0.000197 0.000150 0.015806 0.000000 0.044877 0.000000
# 6 0.000000 0.000000 0.000000 -0.003792 0.000000 0.044401
#
#
# Mechanical properties :
#
#
# Convention : Reuss Voigt Hill
#
# Bulk Modulus (GPa) = 37.31386 50.33146 43.82266
# Shear Modulus (GPa) = 21.33281 24.75638 23.04459
#
# Velocity S-wave (km/s) = 3.35963 3.61919 3.49182
# Velocity P-wave (km/s) = 5.89848 6.64040 6.28040
#
# Compressibility (1/GPa) = 0.02679970
#
# Stress axis : x y z
#
# Youngs Moduli (GPa) = 79.82396 58.99615 44.76188
#
# Poissons Ratio (x) = 0.30980 0.20090
# Poissons Ratio (y) = 0.41917 0.12399
# Poissons Ratio (z) = 0.35826 0.16342
#
# Static dielectric constant tensor:
#      x y z
#    x 4.181140 0.000000 -0.450830 
#    y 0.000000 6.011560 0.000000 
#    z -0.450830 0.000000 3.713460 
# 
# 
# High freq. dielectric constant tensor:
#      x y z
#    x 1.757600 0.000000 -0.025540 
#    y 0.000000 1.688710 0.000000 
#    z -0.025540 0.000000 1.729340 
# 
# From -- ./inp_files/119852.got.cif
#   From: 2010.06.25/outbox.cif.g09.slc.cpg/sg15_60_cif.got.tgz:119852.got - 2010.06.28 07:06:18.
