data_PCOD8133692
_publ_section_title
;
Structure prediction by ZEFSAII (Michael W. Deem and Ramdas Pophale) SiO2 
 PCOD8133692
Probable space group: C 2/C
;
_chemical_formula_sum "Si O2"
_cell_formula_units_Z 56
_cell_length_a 12.082829
_cell_length_b 26.782411
_cell_length_c 14.332610
_cell_angle_alpha 90.000000
_cell_angle_beta 138.511373
_cell_angle_gamma 90.000000
_cell_volume 3072.633049
_symmetry_space_group_name_H-M "C 2/C"
_symmetry_group_IT_number 15
_symmetry_cell_setting 'monoclinic'
loop_
_space_group_symop_operation_xyz
x,y,z
-x,y,1/2-z
-x,-y,-z
x,-y,1/2+z
1/2+x,1/2+y,z
1/2-x,1/2+y,1/2-z
1/2-x,1/2-y,-z
1/2+x,1/2-y,1/2+z
loop_
_atom_site_type_symbol
_atom_site_label
_atom_site_fract_x
_atom_site_fract_y
_atom_site_fract_z
Si Si1 0.174271 0.549475 0.406078
Si Si2 0.173918 0.094737 0.170241
Si Si3 0.113442 0.196608 0.228888
Si Si4 0.074179 0.390110 0.393298
Si Si5 0.498438 0.058323 0.475980
Si Si6 0.612959 0.779880 0.469471
Si Si7 0.608607 0.545492 0.410619
O O1 0.263692 0.591098 0.397754
O O2 0.293030 0.502614 0.493376
O O3 0.000000 0.531246 0.250000
O O4 0.134678 0.572371 0.483055
O O5 0.117764 0.150473 0.160986
O O6 0.314922 0.074415 0.328327
O O7 0.011903 0.060125 0.080367
O O8 0.306395 0.207409 0.379152
O O9 0.000000 0.185711 0.250000
O O10 0.049132 0.244328 0.129078
O O11 0.956773 0.411168 0.402268
O O12 0.067148 0.330456 0.387133
O O13 0.262824 0.409358 0.528261
O O14 0.000000 0.410657 0.250000
O O15 0.500000 0.000000 0.500000
O O16 0.750000 0.750000 0.500000
O O17 0.500000 0.534774 0.250000
#
# Coordination Sequence:
#
# PCOD8133692 Si02
#       7
#     8   8   8   8   8   8   8
#     4  10  23  38  56  79 112 157 200 224 274 344
#     4  11  21  36  59  85 111 157 191 233 286 340
#     4  10  19  34  59  82 120 142 184 238 296 342
#     4  12  23  36  59  87 115 152 190 234 292 347
#     4  11  21  38  58  81 116 153 194 234 277 342
#     4  10  19  34  54  86 114 145 179 236 297 343
#     4  12  20  36  56  83 120 147 188 240 290 332
#
# _framework density 18.225411999999999
#
# number of rings (size 3 to 8) (size 9 to 14) (size 15 to 20)
#    0.000    1.143    4.286    4.286    2.000    0.000 
#    2.571    0.000    0.000    0.857    0.000    0.000 
#    0.000    0.000    0.000    0.000    0.000    0.000 
#
# Total GULP energy -347115.497045 kJ/mol
# GULP energy per Si atom -12396.982037 kJ/mol
# Density = 1.818393 g / cm^3
# Si number density = 18.225412 Si / 1000 Ang^3
#
#
#
# Elastic Constant Matrix: (Units=GPa)
#
#
# Indices 1 2 3 4 5 6 
#
# 1 137.7965 53.5555 44.9422 0.0000 -20.2910 0.0000
# 2 53.5555 118.9822 37.8717 0.0000 -8.5535 0.0000
# 3 44.9422 37.8717 89.7235 0.0000 -9.3514 0.0000
# 4 0.0000 0.0000 0.0000 29.5116 0.0000 5.0907
# 5 -20.2910 -8.5535 -9.3514 0.0000 23.0518 0.0000
# 6 0.0000 0.0000 0.0000 5.0907 0.0000 14.4824
#
#
#
# Elastic Compliance Matrix: (Units=1/GPa)
#
#
# Indices 1 2 3 4 5 6 
#
# 1 0.010567 -0.003245 -0.003216 0.000000 0.006793 0.000000
# 2 -0.003245 0.010797 -0.002936 0.000000 -0.000041 0.000000
# 3 -0.003216 -0.002936 0.014187 0.000000 0.001835 0.000000
# 4 0.000000 0.000000 0.000000 0.036072 0.000000 -0.012680
# 5 0.006793 -0.000041 0.001835 0.000000 0.050089 0.000000
# 6 0.000000 0.000000 0.000000 -0.012680 0.000000 0.073506
#
#
# Mechanical properties :
#
#
# Convention : Reuss Voigt Hill
#
# Bulk Modulus (GPa) = 59.67391 68.80456 64.23923
# Shear Modulus (GPa) = 22.76899 27.41802 25.09351
#
# Velocity S-wave (km/s) = 3.53838 3.88285 3.71461
# Velocity P-wave (km/s) = 7.03610 7.61157 7.32948
#
# Compressibility (1/GPa) = 0.01675774
#
# Stress axis : x y z
#
# Youngs Moduli (GPa) = 94.63271 92.62067 70.48882
#
# Poissons Ratio (x) = 0.30052 0.22666
# Poissons Ratio (y) = 0.30704 0.20698
# Poissons Ratio (z) = 0.30429 0.27196
#
# Static dielectric constant tensor:
#      x y z
#    x 3.618400 0.000000 0.064780 
#    y 0.000000 3.440770 0.000000 
#    z 0.064780 0.000000 3.687640 
# 
# 
# High freq. dielectric constant tensor:
#      x y z
#    x 1.684940 0.000000 0.000480 
#    y 0.000000 1.700340 0.000000 
#    z 0.000480 0.000000 1.712150 
# 
# From -- ./inp_files/148558.got.cif
#   From: 2010.06.25/outbox.cif.g09.slc.cpg/sg15_75_cif.got.tgz:148558.got - 2010.06.28 07:06:18.
