data_PCOD8133806
_publ_section_title
;
Structure prediction by ZEFSAII (Michael W. Deem and Ramdas Pophale) SiO2 
 PCOD8133806
Probable space group: C 2/C
;
_chemical_formula_sum "Si O2"
_cell_formula_units_Z 56
_cell_length_a 17.682452
_cell_length_b 29.511842
_cell_length_c 5.267490
_cell_angle_alpha 90.000000
_cell_angle_beta 67.608357
_cell_angle_gamma 90.000000
_cell_volume 2541.541280
_symmetry_space_group_name_H-M "C 2/C"
_symmetry_group_IT_number 15
_symmetry_cell_setting 'monoclinic'
loop_
_space_group_symop_operation_xyz
x,y,z
-x,y,1/2-z
-x,-y,-z
x,-y,1/2+z
1/2+x,1/2+y,z
1/2-x,1/2+y,1/2-z
1/2-x,1/2-y,-z
1/2+x,1/2-y,1/2+z
loop_
_atom_site_type_symbol
_atom_site_label
_atom_site_fract_x
_atom_site_fract_y
_atom_site_fract_z
Si Si1 0.740570 0.617398 0.772973
Si Si2 0.406376 0.521427 0.016911
Si Si3 0.225348 0.483236 0.318122
Si Si4 0.177387 0.811380 0.962094
Si Si5 0.582562 0.382353 0.791910
Si Si6 0.327295 0.185790 0.965959
Si Si7 0.096058 0.721992 0.148685
O O1 0.770140 0.569950 0.619188
O O2 0.732682 0.656641 0.571648
O O3 0.652045 0.607030 0.999388
O O4 0.805096 0.634305 0.905497
O O5 0.446986 0.493532 0.197661
O O6 0.310513 0.508441 0.129164
O O7 0.422117 0.574732 0.017279
O O8 0.178328 0.508675 0.609375
O O9 0.102236 0.838531 0.935215
O O10 0.239197 0.792923 0.663589
O O11 0.138861 0.769759 0.168274
O O12 0.500000 0.372100 0.750000
O O13 0.385672 0.187284 0.141926
O O14 0.369274 0.209608 0.672529
O O15 0.000000 0.727662 0.250000
#
# Coordination Sequence:
#
# PCOD8133806 Si02
#       7
#     8   8   8   8   8   8   8
#     4  11  23  40  65  88 129 172 220 267 313 380
#     4  10  19  37  53  75 117 165 218 268 314 356
#     4  10  19  34  57  85 122 164 210 266 306 360
#     4  11  25  42  67  89 132 173 220 265 318 379
#     4  11  25  36  55  89 127 175 229 273 315 364
#     4  11  25  46  68  97 127 171 216 258 327 387
#     4  12  27  45  70  98 130 164 211 269 325 389
#
# _framework density 22.033874000000001
#
# number of rings (size 3 to 8) (size 9 to 14) (size 15 to 20)
#    0.000    1.143    4.286    3.000    8.000    0.571 
#    0.000    0.000    0.000    0.000    0.000    0.000 
#    0.000   11.429    0.000    0.000    0.000    0.000 
#
# Total GULP energy -347056.323176 kJ/mol
# GULP energy per Si atom -12394.868685 kJ/mol
# Density = 2.198372 g / cm^3
# Si number density = 22.033874 Si / 1000 Ang^3
#
#
#
# Elastic Constant Matrix: (Units=GPa)
#
#
# Indices 1 2 3 4 5 6 
#
# 1 83.5599 46.0502 40.8208 0.0000 7.6954 0.0000
# 2 46.0502 85.4081 44.1334 0.0000 -2.6864 0.0000
# 3 40.8208 44.1334 144.4840 0.0000 19.9795 0.0000
# 4 0.0000 0.0000 0.0000 28.7732 0.0000 11.3132
# 5 7.6954 -2.6864 19.9795 0.0000 30.2984 0.0000
# 6 0.0000 0.0000 0.0000 11.3132 0.0000 18.8832
#
#
#
# Elastic Compliance Matrix: (Units=1/GPa)
#
#
# Indices 1 2 3 4 5 6 
#
# 1 0.018209 -0.009019 -0.001804 0.000000 -0.004235 0.000000
# 2 -0.009019 0.018934 -0.004164 0.000000 0.006715 0.000000
# 3 -0.001804 -0.004164 0.009562 0.000000 -0.006217 0.000000
# 4 0.000000 0.000000 0.000000 0.045464 0.000000 -0.027238
# 5 -0.004235 0.006715 -0.006217 0.000000 0.038776 0.000000
# 6 0.000000 0.000000 0.000000 -0.027238 0.000000 0.069276
#
#
# Mechanical properties :
#
#
# Convention : Reuss Voigt Hill
#
# Bulk Modulus (GPa) = 59.76693 63.94008 61.85350
# Shear Modulus (GPa) = 21.20677 27.75414 24.48046
#
# Velocity S-wave (km/s) = 3.10572 3.55295 3.33684
# Velocity P-wave (km/s) = 6.32808 6.77593 6.55583
#
# Compressibility (1/GPa) = 0.01673166
#
# Stress axis : x y z
#
# Youngs Moduli (GPa) = 54.91732 52.81428 104.57520
#
# Poissons Ratio (x) = 0.47633 0.18866
# Poissons Ratio (y) = 0.49530 0.43546
# Poissons Ratio (z) = 0.09908 0.21992
#
# Static dielectric constant tensor:
#      x y z
#    x 3.872810 0.000000 0.463000 
#    y 0.000000 3.897050 0.000000 
#    z 0.463000 0.000000 4.477050 
# 
# 
# High freq. dielectric constant tensor:
#      x y z
#    x 1.833340 0.000000 0.030020 
#    y 0.000000 1.858570 0.000000 
#    z 0.030020 0.000000 1.885080 
# 
# From -- ./inp_files/11489.got.cif
#   From: 2010.06.25/outbox.cif.g09.slc.cpg/sg15_6_cif.got.tgz:11489.got - 2010.06.28 07:06:18.
