data_PCOD8133024
_publ_section_title
;
Structure prediction by ZEFSAII (Michael W. Deem and Ramdas Pophale) SiO2 
 PCOD8133024
Probable space group: C 2/C
;
_chemical_formula_sum "Si O2"
_cell_formula_units_Z 56
_cell_length_a 19.581367
_cell_length_b 5.272590
_cell_length_c 27.555405
_cell_angle_alpha 90.000000
_cell_angle_beta 101.146371
_cell_angle_gamma 90.000000
_cell_volume 2791.279030
_symmetry_space_group_name_H-M "C 2/C"
_symmetry_group_IT_number 15
_symmetry_cell_setting 'monoclinic'
loop_
_space_group_symop_operation_xyz
x,y,z
-x,y,1/2-z
-x,-y,-z
x,-y,1/2+z
1/2+x,1/2+y,z
1/2-x,1/2+y,1/2-z
1/2-x,1/2-y,-z
1/2+x,1/2-y,1/2+z
loop_
_atom_site_type_symbol
_atom_site_label
_atom_site_fract_x
_atom_site_fract_y
_atom_site_fract_z
Si Si1 0.195257 0.750001 0.036313
Si Si2 0.560334 0.249991 0.691111
Si Si3 0.540248 0.749992 0.634055
Si Si4 0.459119 0.750000 0.979112
Si Si5 0.119506 0.249996 0.858960
Si Si6 0.751061 0.249999 0.558195
Si Si7 0.599646 0.750004 0.301871
O O1 0.116285 0.750001 0.005033
O O2 0.209628 0.499579 0.070844
O O3 0.209629 0.000423 0.070844
O O4 0.250000 0.750000 0.000000
O O5 0.575632 0.501637 0.662125
O O6 0.481171 0.249995 0.696963
O O7 0.609851 0.249995 0.745181
O O8 0.575633 0.998338 0.662128
O O9 0.556361 0.749998 0.579773
O O10 0.457690 0.749994 0.630405
O O11 0.500000 0.500000 0.000000
O O12 0.500000 0.000000 0.000000
O O13 0.170291 0.249995 0.911972
O O14 0.134706 0.498082 0.828650
O O15 0.134706 0.001914 0.828649
O O16 0.750000 0.250000 0.500000
#
# Coordination Sequence:
#
# PCOD8133024 Si02
#       7
#     8   8   8   8   8   8   8
#     4  10  23  39  59  80 111 161 198 239 292 337
#     4   9  17  33  51  80 116 153 179 239 301 354
#     4  10  21  33  54  82 116 150 192 235 299 344
#     4  12  26  40  60  87 121 157 203 245 292 352
#     4  10  19  31  54  86 113 150 192 244 282 344
#     4  10  21  36  56  79 115 155 198 235 289 338
#     4   9  17  30  52  82 117 144 190 238 297 342
#
# _framework density 20.062484999999999
#
# number of rings (size 3 to 8) (size 9 to 14) (size 15 to 20)
#    0.000    2.000    0.000    3.429    8.000    3.429 
#    0.000    0.000    0.000    0.000    0.000   20.000 
#    0.000    0.000    0.000    0.000    0.000    0.000 
#
# Total GULP energy -347130.528100 kJ/mol
# GULP energy per Si atom -12397.518861 kJ/mol
# Density = 2.001682 g / cm^3
# Si number density = 20.062485 Si / 1000 Ang^3
#
#
#
# Elastic Constant Matrix: (Units=GPa)
#
#
# Indices 1 2 3 4 5 6 
#
# 1 82.0864 36.6669 25.1344 0.0000 12.4008 0.0000
# 2 36.6669 218.8889 59.6979 -0.0001 10.1217 0.0001
# 3 25.1344 59.6979 142.9161 0.0000 8.0884 0.0000
# 4 0.0000 -0.0001 0.0000 35.9710 0.0000 10.6338
# 5 12.4008 10.1217 8.0884 0.0000 27.5944 0.0000
# 6 0.0000 0.0001 0.0000 10.6338 0.0000 18.1489
#
#
#
# Elastic Compliance Matrix: (Units=1/GPa)
#
#
# Indices 1 2 3 4 5 6 
#
# 1 0.014211 -0.001732 -0.001475 0.000000 -0.005319 0.000000
# 2 -0.001732 0.005412 -0.001920 0.000000 -0.000644 0.000000
# 3 -0.001475 -0.001920 0.008116 0.000000 -0.001012 0.000000
# 4 0.000000 0.000000 0.000000 0.033624 0.000000 -0.019701
# 5 -0.005319 -0.000644 -0.001012 0.000000 0.039162 0.000000
# 6 0.000000 0.000000 0.000000 -0.019701 0.000000 0.066643
#
#
# Mechanical properties :
#
#
# Convention : Reuss Voigt Hill
#
# Bulk Modulus (GPa) = 57.19015 76.32109 66.75562
# Shear Modulus (GPa) = 27.28516 37.83568 32.56042
#
# Velocity S-wave (km/s) = 3.69183 4.34740 4.03296
# Velocity P-wave (km/s) = 6.83672 7.95764 7.41838
#
# Compressibility (1/GPa) = 0.01748553
#
# Stress axis : x y z
#
# Youngs Moduli (GPa) = 70.36721 184.77337 123.22034
#
# Poissons Ratio (x) = 0.32011 0.18170
# Poissons Ratio (y) = 0.12191 0.23653
# Poissons Ratio (z) = 0.10376 0.35468
#
# Static dielectric constant tensor:
#      x y z
#    x 3.220430 0.000000 0.126260 
#    y 0.000000 7.245500 0.000000 
#    z 0.126260 0.000000 3.586090 
# 
# 
# High freq. dielectric constant tensor:
#      x y z
#    x 1.735930 0.000000 0.014370 
#    y 0.000000 1.819470 0.000000 
#    z 0.014370 0.000000 1.772990 
# 
# From -- ./inp_files/221312.got.cif
#   From: 2010.06.25/outbox.cif.g09.slc.cpg/sg15_111_cif.got.tgz:221312.got - 2010.06.28 07:06:18.
