data_PCOD8133471
_publ_section_title
;
Structure prediction by ZEFSAII (Michael W. Deem and Ramdas Pophale) SiO2 
 PCOD8133471
Probable space group: C 2/C
;
_chemical_formula_sum "Si O2"
_cell_formula_units_Z 56
_cell_length_a 27.269012
_cell_length_b 22.433585
_cell_length_c 11.419007
_cell_angle_alpha 90.000000
_cell_angle_beta 156.467151
_cell_angle_gamma 90.000000
_cell_volume 2789.127050
_symmetry_space_group_name_H-M "C 2/C"
_symmetry_group_IT_number 15
_symmetry_cell_setting 'monoclinic'
loop_
_space_group_symop_operation_xyz
x,y,z
-x,y,1/2-z
-x,-y,-z
x,-y,1/2+z
1/2+x,1/2+y,z
1/2-x,1/2+y,1/2-z
1/2-x,1/2-y,-z
1/2+x,1/2-y,1/2+z
loop_
_atom_site_type_symbol
_atom_site_label
_atom_site_fract_x
_atom_site_fract_y
_atom_site_fract_z
Si Si1 0.735133 0.417881 0.813848
Si Si2 0.117734 0.688693 0.776766
Si Si3 0.087347 0.344860 0.831399
Si Si4 0.207849 0.806620 0.065451
Si Si5 0.918035 0.081018 0.294258
Si Si6 0.673086 0.546973 0.932581
Si Si7 0.873295 0.530983 0.190252
O O1 0.628189 0.407935 0.674346
O O2 0.676358 0.413258 0.556808
O O3 0.844222 0.369931 0.067558
O O4 0.788923 0.483862 0.939377
O O5 0.202744 0.692661 0.849494
O O6 0.976223 0.683915 0.423180
O O7 0.130710 0.745388 0.891231
O O8 0.107340 0.414809 0.855692
O O9 0.000000 0.337790 0.750000
O O10 0.214535 0.311194 0.143351
O O11 0.115394 0.862529 0.859021
O O12 0.064734 0.073390 0.614180
O O13 0.853833 0.022576 0.098998
O O14 0.803650 0.553781 0.154071
O O15 0.000000 0.500000 0.500000
#
# Coordination Sequence:
#
# PCOD8133471 Si02
#       7
#     8   8   8   8   8   8   8
#     4  10  19  33  56  82 111 143 182 233 281 327
#     4   9  18  33  52  87 109 136 194 232 277 328
#     4  10  20  35  56  81 111 143 183 233 282 332
#     4   9  18  33  58  78 111 148 182 238 276 326
#     4   9  19  36  53  81 109 145 188 222 275 340
#     4  10  21  34  54  81 115 143 178 232 279 332
#     4  11  22  34  54  84 113 146 184 229 279 345
#
# _framework density 20.077967000000001
#
# number of rings (size 3 to 8) (size 9 to 14) (size 15 to 20)
#    0.000    2.286    1.429    1.286    4.000    1.143 
#    0.000    6.429    0.000    5.143    0.000    0.000 
#    0.000    0.000    0.000    0.000    0.000    0.000 
#
# Total GULP energy -347173.377782 kJ/mol
# GULP energy per Si atom -12399.049207 kJ/mol
# Density = 2.003227 g / cm^3
# Si number density = 20.077967 Si / 1000 Ang^3
#
#
#
# Elastic Constant Matrix: (Units=GPa)
#
#
# Indices 1 2 3 4 5 6 
#
# 1 33.0372 9.0360 40.3600 0.0000 -3.7037 0.0000
# 2 9.0360 120.4504 61.8822 0.0000 -15.7172 0.0000
# 3 40.3600 61.8822 129.2733 0.0000 -8.3735 0.0000
# 4 0.0000 0.0000 0.0000 32.4577 0.0000 -4.9349
# 5 -3.7037 -15.7172 -8.3735 0.0000 29.0033 0.0000
# 6 0.0000 0.0000 0.0000 -4.9349 0.0000 23.2966
#
#
#
# Elastic Compliance Matrix: (Units=1/GPa)
#
#
# Indices 1 2 3 4 5 6 
#
# 1 0.052478 0.006548 -0.019214 0.000000 0.004703 0.000000
# 2 0.006548 0.012444 -0.007653 0.000000 0.005370 0.000000
# 3 -0.019214 -0.007653 0.017294 0.000000 -0.001608 0.000000
# 4 0.000000 0.000000 0.000000 0.031835 0.000000 0.006744
# 5 0.004703 0.005370 -0.001608 0.000000 0.037525 0.000000
# 6 0.000000 0.000000 0.000000 0.006744 0.000000 0.044353
#
#
# Mechanical properties :
#
#
# Convention : Reuss Voigt Hill
#
# Bulk Modulus (GPa) = 24.05167 56.14636 40.09902
# Shear Modulus (GPa) = 19.96607 28.38371 24.17489
#
# Velocity S-wave (km/s) = 3.15687 3.76396 3.47371
# Velocity P-wave (km/s) = 5.02921 6.84944 6.00865
#
# Compressibility (1/GPa) = 0.04157715
#
# Stress axis : x y z
#
# Youngs Moduli (GPa) = 19.05565 80.36310 57.82487
#
# Poissons Ratio (x) = -0.52623 1.11104
# Poissons Ratio (y) = -0.12478 0.44254
# Poissons Ratio (z) = 0.36613 0.61503
#
# Static dielectric constant tensor:
#      x y z
#    x 3.285850 0.000000 -0.092500 
#    y 0.000000 3.715090 0.000000 
#    z -0.092500 0.000000 3.883930 
# 
# 
# High freq. dielectric constant tensor:
#      x y z
#    x 1.740880 0.000000 -0.007520 
#    y 0.000000 1.776850 0.000000 
#    z -0.007520 0.000000 1.795240 
# 
# From -- ./inp_files/127497.got.cif
#   From: 2010.06.25/outbox.cif.g09.slc.cpg/sg15_64_cif.got.tgz:127497.got - 2010.06.28 07:06:18.
