data_PCOD8133192
_publ_section_title
;
Structure prediction by ZEFSAII (Michael W. Deem and Ramdas Pophale) SiO2 
 PCOD8133192
Probable space group: C 2/C
;
_chemical_formula_sum "Si O2"
_cell_formula_units_Z 64
_cell_length_a 21.533761
_cell_length_b 19.625454
_cell_length_c 13.537601
_cell_angle_alpha 90.000000
_cell_angle_beta 34.844324
_cell_angle_gamma 90.000000
_cell_volume 3268.756025
_symmetry_space_group_name_H-M "C 2/C"
_symmetry_group_IT_number 15
_symmetry_cell_setting 'monoclinic'
loop_
_space_group_symop_operation_xyz
x,y,z
-x,y,1/2-z
-x,-y,-z
x,-y,1/2+z
1/2+x,1/2+y,z
1/2-x,1/2+y,1/2-z
1/2-x,1/2-y,-z
1/2+x,1/2-y,1/2+z
loop_
_atom_site_type_symbol
_atom_site_label
_atom_site_fract_x
_atom_site_fract_y
_atom_site_fract_z
Si Si1 0.900755 0.289726 0.737831
Si Si2 0.411040 0.090082 0.076561
Si Si3 0.025873 0.077451 0.443270
Si Si4 0.209777 0.092060 0.801312
Si Si5 0.859728 0.459859 0.268920
Si Si6 0.744040 0.040061 0.386209
Si Si7 0.289099 0.788998 0.075600
Si Si8 0.059584 0.818068 0.073101
O O1 0.894470 0.339698 0.654335
O O2 0.830088 0.220866 0.814679
O O3 0.019641 0.256779 0.587877
O O4 0.867462 0.321428 0.888167
O O5 0.325139 0.085721 0.099621
O O6 0.391351 0.032006 0.182606
O O7 0.534017 0.087895 0.874596
O O8 0.141895 0.078152 0.234642
O O9 0.048886 0.119899 0.512449
O O10 0.921210 0.106867 0.520203
O O11 0.000000 0.000000 0.500000
O O12 0.256413 0.071961 0.846887
O O13 0.277553 0.158590 0.680888
O O14 0.231561 0.033431 0.692590
O O15 0.826676 0.470853 0.424564
O O16 0.318426 0.709211 0.065516
O O17 0.000000 0.843274 0.250000
#
# Coordination Sequence:
#
# PCOD8133192 Si02
#       8
#     8   8   8   8   8   8   8   8
#     4  10  19  32  55  84 113 143 177 229 295 344
#     4  10  20  36  58  86 114 148 193 239 293 340
#     4  10  21  39  54  83 119 156 190 231 285 346
#     4  10  20  37  56  85 119 151 189 237 290 344
#     4  10  21  36  58  83 113 154 193 241 286 337
#     4  10  21  37  57  83 117 153 199 237 281 342
#     4  10  19  32  56  85 115 143 177 235 292 348
#     4  10  20  35  56  88 116 146 188 233 294 348
#
# _framework density 19.579312999999999
#
# number of rings (size 3 to 8) (size 9 to 14) (size 15 to 20)
#    0.000    2.000    1.250    2.625    0.000    0.500 
#   13.500    3.750    0.000    8.250    0.000    0.000 
#    0.000    0.000    0.000    0.000    0.000    0.000 
#
# Total GULP energy -396493.951937 kJ/mol
# GULP energy per Si atom -12390.435998 kJ/mol
# Density = 1.953475 g / cm^3
# Si number density = 19.579313 Si / 1000 Ang^3
#
#
#
# Elastic Constant Matrix: (Units=GPa)
#
#
# Indices 1 2 3 4 5 6 
#
# 1 80.3620 22.1716 43.7744 0.0000 -4.3325 0.0000
# 2 22.1716 59.6652 26.3759 0.0000 7.0815 0.0000
# 3 43.7744 26.3759 101.7590 0.0000 -6.5170 0.0000
# 4 0.0000 0.0000 0.0000 22.2788 0.0000 2.9494
# 5 -4.3325 7.0815 -6.5170 0.0000 30.1532 0.0000
# 6 0.0000 0.0000 0.0000 2.9494 0.0000 27.6525
#
#
#
# Elastic Compliance Matrix: (Units=1/GPa)
#
#
# Indices 1 2 3 4 5 6 
#
# 1 0.016972 -0.003809 -0.006186 0.000000 0.001996 0.000000
# 2 -0.003809 0.020759 -0.004147 0.000000 -0.006319 0.000000
# 3 -0.006186 -0.004147 0.013759 0.000000 0.003059 0.000000
# 4 0.000000 0.000000 0.000000 0.045529 0.000000 -0.004856
# 5 0.001996 -0.006319 0.003059 0.000000 0.035596 0.000000
# 6 0.000000 0.000000 0.000000 -0.004856 0.000000 0.036681
#
#
# Mechanical properties :
#
#
# Convention : Reuss Voigt Hill
#
# Bulk Modulus (GPa) = 43.09198 47.38109 45.23653
# Shear Modulus (GPa) = 24.35304 25.98119 25.16712
#
# Velocity S-wave (km/s) = 3.53060 3.64671 3.58913
# Velocity P-wave (km/s) = 6.21908 6.47946 6.35061
#
# Compressibility (1/GPa) = 0.02320618
#
# Stress axis : x y z
#
# Youngs Moduli (GPa) = 58.92180 48.17246 72.68081
#
# Poissons Ratio (x) = 0.18350 0.44958
# Poissons Ratio (y) = 0.22444 0.30139
# Poissons Ratio (z) = 0.36447 0.19976
#
# Static dielectric constant tensor:
#      x y z
#    x 3.790770 0.000000 -0.419320 
#    y 0.000000 3.292890 0.000000 
#    z -0.419320 0.000000 3.607980 
# 
# 
# High freq. dielectric constant tensor:
#      x y z
#    x 1.777410 0.000000 -0.028210 
#    y 0.000000 1.741130 0.000000 
#    z -0.028210 0.000000 1.753640 
# 
# From -- ./inp_files/114240.got.cif
#   From: 2010.06.25/outbox.cif.g09.slc.cpg/sg15_58_cif.got.tgz:114240.got - 2010.06.28 07:06:18.
