data_PCOD8133790
_publ_section_title
;
Structure prediction by ZEFSAII (Michael W. Deem and Ramdas Pophale) SiO2 
 PCOD8133790
Probable space group: C 2/C
;
_chemical_formula_sum "Si O2"
_cell_formula_units_Z 52
_cell_length_a 15.881078
_cell_length_b 8.491887
_cell_length_c 18.620258
_cell_angle_alpha 90.000000
_cell_angle_beta 112.439749
_cell_angle_gamma 90.000000
_cell_volume 2320.994510
_symmetry_space_group_name_H-M "C 2/C"
_symmetry_group_IT_number 15
_symmetry_cell_setting 'monoclinic'
loop_
_space_group_symop_operation_xyz
x,y,z
-x,y,1/2-z
-x,-y,-z
x,-y,1/2+z
1/2+x,1/2+y,z
1/2-x,1/2+y,1/2-z
1/2-x,1/2-y,-z
1/2+x,1/2-y,1/2+z
loop_
_atom_site_type_symbol
_atom_site_label
_atom_site_fract_x
_atom_site_fract_y
_atom_site_fract_z
Si Si1 0.514366 0.815423 0.046424
Si Si2 0.000000 0.208496 0.250000
Si Si3 0.850256 0.482824 0.818935
Si Si4 0.874205 0.412730 0.112262
Si Si5 0.022461 0.308495 0.882668
Si Si6 0.731284 0.667280 0.664744
Si Si7 0.546138 0.488440 0.632435
O O1 0.416444 0.859170 0.050134
O O2 0.523599 0.626933 0.059179
O O3 0.604215 0.896070 0.109814
O O4 0.507493 0.860807 0.961170
O O5 0.925987 0.319253 0.191108
O O6 0.945596 0.105416 0.290595
O O7 0.933600 0.379424 0.812118
O O8 0.800143 0.589181 0.744080
O O9 0.778662 0.356491 0.829371
O O10 0.769017 0.371184 0.095856
O O11 0.889038 0.603327 0.121204
O O12 0.033130 0.120488 0.880362
O O13 0.634584 0.585848 0.640667
#
# Coordination Sequence:
#
# PCOD8133790 Si02
#       7
#     8   4   8   8   8   8   8
#     4  10  20  40  59  80 113 157 197 232 281 354
#     4  10  20  36  56  82 110 150 186 232 290 342
#     4  10  20  34  56  81 116 150 188 241 291 348
#     4  10  19  34  57  82 112 146 192 238 285 349
#     4  10  21  37  60  84 110 157 200 232 281 353
#     4  11  21  35  55  89 116 147 189 248 310 337
#     4  10  22  38  60  86 118 147 189 245 292 346
#
# _framework density 22.40419
#
# number of rings (size 3 to 8) (size 9 to 14) (size 15 to 20)
#    0.000    1.846    0.000    6.923    0.000    3.077 
#    0.000   10.769    0.000    1.846    0.000    0.000 
#    0.000    0.000    0.000    0.000    0.000    0.000 
#
# Total GULP energy -322091.978259 kJ/mol
# GULP energy per Si atom -12388.153010 kJ/mol
# Density = 2.235320 g / cm^3
# Si number density = 22.404190 Si / 1000 Ang^3
#
#
#
# Elastic Constant Matrix: (Units=GPa)
#
#
# Indices 1 2 3 4 5 6 
#
# 1 86.7531 45.2090 19.5372 0.0000 -23.4950 0.0000
# 2 45.2090 158.1683 13.4426 0.0000 -6.2591 0.0000
# 3 19.5372 13.4426 33.5714 0.0000 -12.6024 0.0000
# 4 0.0000 0.0000 0.0000 32.7446 0.0000 5.0153
# 5 -23.4950 -6.2591 -12.6024 0.0000 28.5031 0.0000
# 6 0.0000 0.0000 0.0000 5.0153 0.0000 10.3705
#
#
#
# Elastic Compliance Matrix: (Units=1/GPa)
#
#
# Indices 1 2 3 4 5 6 
#
# 1 0.017971 -0.004302 -0.004232 0.000000 0.011998 0.000000
# 2 -0.004302 0.007578 -0.001483 0.000000 -0.002538 0.000000
# 3 -0.004232 -0.001483 0.037664 0.000000 0.012838 0.000000
# 4 0.000000 0.000000 0.000000 0.032983 0.000000 -0.015951
# 5 0.011998 -0.002538 0.012838 0.000000 0.050093 0.000000
# 6 0.000000 0.000000 0.000000 -0.015951 0.000000 0.104142
#
#
# Mechanical properties :
#
#
# Convention : Reuss Voigt Hill
#
# Bulk Modulus (GPa) = 23.16025 48.31891 35.73958
# Shear Modulus (GPa) = 17.55265 27.67724 22.61495
#
# Velocity S-wave (km/s) = 2.80206 3.51858 3.18056
# Velocity P-wave (km/s) = 4.56384 6.17422 5.42907
#
# Compressibility (1/GPa) = 0.04317743
#
# Stress axis : x y z
#
# Youngs Moduli (GPa) = 55.64404 131.96593 26.55086
#
# Poissons Ratio (x) = 0.56775 0.11236
# Poissons Ratio (y) = 0.23940 0.03938
# Poissons Ratio (z) = 0.23549 0.19575
#
# Static dielectric constant tensor:
#      x y z
#    x 4.234290 0.000000 -0.231510 
#    y 0.000000 4.631020 0.000000 
#    z -0.231510 0.000000 3.867820 
# 
# 
# High freq. dielectric constant tensor:
#      x y z
#    x 1.860140 0.000000 -0.011470 
#    y 0.000000 1.912950 0.000000 
#    z -0.011470 0.000000 1.860380 
# 
# From -- ./inp_files/209027.got.cif
#   From: 2010.06.25/outbox.cif.g09.slc.cpg/sg15_105_cif.got.tgz:209027.got - 2010.06.28 07:06:18.
