data_PCOD8133571
_publ_section_title
;
Structure prediction by ZEFSAII (Michael W. Deem and Ramdas Pophale) SiO2 
 PCOD8133571
Probable space group: C 2/C
;
_chemical_formula_sum "Si O2"
_cell_formula_units_Z 36
_cell_length_a 11.738843
_cell_length_b 22.200973
_cell_length_c 8.956205
_cell_angle_alpha 90.000000
_cell_angle_beta 55.376841
_cell_angle_gamma 90.000000
_cell_volume 1920.754982
_symmetry_space_group_name_H-M "C 2/C"
_symmetry_group_IT_number 15
_symmetry_cell_setting 'monoclinic'
loop_
_space_group_symop_operation_xyz
x,y,z
-x,y,1/2-z
-x,-y,-z
x,-y,1/2+z
1/2+x,1/2+y,z
1/2-x,1/2+y,1/2-z
1/2-x,1/2-y,-z
1/2+x,1/2-y,1/2+z
loop_
_atom_site_type_symbol
_atom_site_label
_atom_site_fract_x
_atom_site_fract_y
_atom_site_fract_z
Si Si1 0.500000 0.998654 0.750000
Si Si2 0.561154 0.627247 0.858736
Si Si3 0.190469 0.535622 0.857721
Si Si4 0.624715 0.421984 0.757276
Si Si5 0.361076 0.301479 0.925174
O O1 0.600771 0.041406 0.773094
O O2 0.590367 0.955449 0.574752
O O3 0.500000 0.652951 0.750000
O O4 0.689340 0.583935 0.729292
O O5 0.438031 0.591242 0.032910
O O6 0.613708 0.682572 0.920062
O O7 0.250697 0.468017 0.820344
O O8 0.500000 0.449565 0.750000
O O9 0.682041 0.361423 0.634694
O O10 0.500000 0.274462 0.750000
O O11 0.250000 0.250000 0.000000
#
# Coordination Sequence:
#
# PCOD8133571 Si02
#       5
#     4   8   8   8   8
#     4  10  22  30  44  72 130 152 174 212 256 358
#     4  10  19  33  60  84 106 138 187 243 276 320
#     4  11  19  34  50  81 118 150 179 218 289 326
#     4   9  18  33  57  80 107 143 190 228 269 331
#     4   9  20  40  58  83 109 150 194 232 273 341
#
# _framework density 18.742629999999998
#
# number of rings (size 3 to 8) (size 9 to 14) (size 15 to 20)
#    0.000    2.667    0.000    5.333    0.000    0.000 
#   12.000    4.444    2.444    0.000    0.000    0.000 
#    0.000    0.000    0.000    0.000    0.000    0.000 
#
# Total GULP energy -223159.223102 kJ/mol
# GULP energy per Si atom -12397.734617 kJ/mol
# Density = 1.869997 g / cm^3
# Si number density = 18.742630 Si / 1000 Ang^3
#
#
#
# Elastic Constant Matrix: (Units=GPa)
#
#
# Indices 1 2 3 4 5 6 
#
# 1 128.0159 68.9657 69.1231 0.0000 13.4882 0.0000
# 2 68.9657 75.7743 50.1165 0.0000 -13.5857 0.0000
# 3 69.1231 50.1165 128.8320 0.0000 13.9444 0.0000
# 4 0.0000 0.0000 0.0000 13.4954 0.0000 -10.7820
# 5 13.4882 -13.5857 13.9444 0.0000 37.4201 0.0000
# 6 0.0000 0.0000 0.0000 -10.7820 0.0000 32.3962
#
#
#
# Elastic Compliance Matrix: (Units=1/GPa)
#
#
# Indices 1 2 3 4 5 6 
#
# 1 0.021926 -0.021471 -0.001785 0.000000 -0.015034 0.000000
# 2 -0.021471 0.042664 -0.007910 0.000000 0.026176 0.000000
# 3 -0.001785 -0.007910 0.012544 0.000000 -0.006903 0.000000
# 4 0.000000 0.000000 0.000000 0.100939 0.000000 0.033594
# 5 -0.015034 0.026176 -0.006903 0.000000 0.044218 0.000000
# 6 0.000000 0.000000 0.000000 0.033594 0.000000 0.042049
#
#
# Mechanical properties :
#
#
# Convention : Reuss Voigt Hill
#
# Bulk Modulus (GPa) = 67.55558 78.78141 73.16850
# Shear Modulus (GPa) = 15.07821 26.29012 20.68416
#
# Velocity S-wave (km/s) = 2.83943 3.74932 3.32564
# Velocity P-wave (km/s) = 6.84630 7.80177 7.33960
#
# Compressibility (1/GPa) = 0.01480263
#
# Stress axis : x y z
#
# Youngs Moduli (GPa) = 45.60738 23.43920 79.72229
#
# Poissons Ratio (x) = 0.50327 0.14227
# Poissons Ratio (y) = 0.97925 0.63057
# Poissons Ratio (z) = 0.08139 0.18539
#
# Static dielectric constant tensor:
#      x y z
#    x 3.567650 0.000000 0.060270 
#    y 0.000000 2.951470 0.000000 
#    z 0.060270 0.000000 3.750920 
# 
# 
# High freq. dielectric constant tensor:
#      x y z
#    x 1.733900 0.000000 0.003960 
#    y 0.000000 1.678690 0.000000 
#    z 0.003960 0.000000 1.751110 
# 
# From -- ./inp_files/31523.got.cif
#   From: 2010.06.25/outbox.cif.g09.slc.cpg/sg15_16_cif.got.tgz:31523.got - 2010.06.28 07:06:18.
