data_PCOD8133184
_publ_section_title
;
Structure prediction by ZEFSAII (Michael W. Deem and Ramdas Pophale) SiO2 
 PCOD8133184
Probable space group: C 2/C
;
_chemical_formula_sum "Si O2"
_cell_formula_units_Z 56
_cell_length_a 16.999646
_cell_length_b 8.720443
_cell_length_c 19.472588
_cell_angle_alpha 90.000000
_cell_angle_beta 104.149879
_cell_angle_gamma 90.000000
_cell_volume 2799.119165
_symmetry_space_group_name_H-M "C 2/C"
_symmetry_group_IT_number 15
_symmetry_cell_setting 'monoclinic'
loop_
_space_group_symop_operation_xyz
x,y,z
-x,y,1/2-z
-x,-y,-z
x,-y,1/2+z
1/2+x,1/2+y,z
1/2-x,1/2+y,1/2-z
1/2-x,1/2-y,-z
1/2+x,1/2-y,1/2+z
loop_
_atom_site_type_symbol
_atom_site_label
_atom_site_fract_x
_atom_site_fract_y
_atom_site_fract_z
Si Si1 0.858349 0.739081 0.522368
Si Si2 0.812874 0.519892 0.903762
Si Si3 0.984121 0.598591 0.930303
Si Si4 0.007070 0.341670 0.829851
Si Si5 0.830294 0.261238 0.804794
Si Si6 0.244628 0.914403 0.093885
Si Si7 0.184608 0.738201 0.358724
O O1 0.831537 0.591694 0.470957
O O2 0.955944 0.746339 0.553990
O O3 0.829263 0.893345 0.477205
O O4 0.813396 0.710945 0.585736
O O5 0.803165 0.422606 0.831912
O O6 0.732082 0.617600 0.900908
O O7 0.888515 0.639356 0.908083
O O8 0.011330 0.500510 0.870741
O O9 0.000000 0.500000 0.000000
O O10 0.089944 0.245253 0.859220
O O11 0.000000 0.392906 0.750000
O O12 0.928274 0.241771 0.834471
O O13 0.786439 0.123504 0.836048
O O14 0.802844 0.260773 0.720383
O O15 0.279130 0.084836 0.099980
#
# Coordination Sequence:
#
# PCOD8133184 Si02
#       7
#     8   8   8   8   8   8   8
#     4   9  18  34  53  75 105 144 170 206 265 320
#     4   9  19  32  54  81 104 133 177 223 254 300
#     4   9  16  33  53  74 104 139 175 214 253 310
#     4   9  18  32  53  78 101 136 179 215 257 311
#     4   9  19  35  54  74 106 142 170 208 269 317
#     4  10  19  32  55  77 105 137 174 210 264 315
#     4  11  19  32  55  83 103 129 178 227 254 304
#
# _framework density 20.006292999999999
#
# number of rings (size 3 to 8) (size 9 to 14) (size 15 to 20)
#    0.000    2.571    1.429    1.714    0.000    0.571 
#    0.000    0.714    9.429    0.000    0.000    0.000 
#    0.000    0.000    0.000    0.000    0.000    0.000 
#
# Total GULP energy -346941.944737 kJ/mol
# GULP energy per Si atom -12390.783741 kJ/mol
# Density = 1.996076 g / cm^3
# Si number density = 20.006293 Si / 1000 Ang^3
#
#
#
# Elastic Constant Matrix: (Units=GPa)
#
#
# Indices 1 2 3 4 5 6 
#
# 1 108.2620 25.5754 20.6749 0.0000 7.2319 0.0000
# 2 25.5754 43.7795 10.3026 0.0000 7.7596 0.0000
# 3 20.6749 10.3026 56.8158 0.0000 -7.1472 0.0000
# 4 0.0000 0.0000 0.0000 16.9112 0.0000 5.2669
# 5 7.2319 7.7596 -7.1472 0.0000 32.4234 0.0000
# 6 0.0000 0.0000 0.0000 5.2669 0.0000 29.5810
#
#
#
# Elastic Compliance Matrix: (Units=1/GPa)
#
#
# Indices 1 2 3 4 5 6 
#
# 1 0.011301 -0.005463 -0.003368 0.000000 -0.001956 0.000000
# 2 -0.005463 0.028079 -0.003904 0.000000 -0.006362 0.000000
# 3 -0.003368 -0.003904 0.020309 0.000000 0.006162 0.000000
# 4 0.000000 0.000000 0.000000 0.062604 0.000000 -0.011147
# 5 -0.001956 -0.006362 0.006162 0.000000 0.034159 0.000000
# 6 0.000000 0.000000 0.000000 -0.011147 0.000000 0.035790
#
#
# Mechanical properties :
#
#
# Convention : Reuss Voigt Hill
#
# Bulk Modulus (GPa) = 29.22238 35.77369 32.49803
# Shear Modulus (GPa) = 21.82263 25.93675 23.87969
#
# Velocity S-wave (km/s) = 3.30629 3.60450 3.45861
# Velocity P-wave (km/s) = 5.40497 5.93661 5.67702
#
# Compressibility (1/GPa) = 0.03422035
#
# Stress axis : x y z
#
# Youngs Moduli (GPa) = 88.48652 35.61318 49.23809
#
# Poissons Ratio (x) = 0.19455 0.16583
# Poissons Ratio (y) = 0.48338 0.19224
# Poissons Ratio (z) = 0.29801 0.13904
#
# Static dielectric constant tensor:
#      x y z
#    x 4.305940 0.000000 -0.042210 
#    y 0.000000 3.108760 0.000000 
#    z -0.042210 0.000000 3.685520 
# 
# 
# High freq. dielectric constant tensor:
#      x y z
#    x 1.799250 0.000000 -0.010460 
#    y 0.000000 1.721930 0.000000 
#    z -0.010460 0.000000 1.784460 
# 
# From -- ./inp_files/247014.got.cif
#   From: 2010.06.25/outbox.cif.g09.slc.cpg/sg15_124_cif.got.tgz:247014.got - 2010.06.28 07:06:18.
