data_PCOD8133120
_publ_section_title
;
Structure prediction by ZEFSAII (Michael W. Deem and Ramdas Pophale) SiO2 
 PCOD8133120
Probable space group: C 2/C
;
_chemical_formula_sum "Si O2"
_cell_formula_units_Z 40
_cell_length_a 10.987623
_cell_length_b 19.450099
_cell_length_c 21.847733
_cell_angle_alpha 90.000000
_cell_angle_beta 153.922291
_cell_angle_gamma 90.000000
_cell_volume 2052.482726
_symmetry_space_group_name_H-M "C 2/C"
_symmetry_group_IT_number 15
_symmetry_cell_setting 'monoclinic'
loop_
_space_group_symop_operation_xyz
x,y,z
-x,y,1/2-z
-x,-y,-z
x,-y,1/2+z
1/2+x,1/2+y,z
1/2-x,1/2+y,1/2-z
1/2-x,1/2-y,-z
1/2+x,1/2-y,1/2+z
loop_
_atom_site_type_symbol
_atom_site_label
_atom_site_fract_x
_atom_site_fract_y
_atom_site_fract_z
Si Si1 0.619357 0.277100 0.160597
Si Si2 0.714672 0.005671 0.651485
Si Si3 0.745611 0.763338 0.100254
Si Si4 0.899859 0.861611 0.773176
Si Si5 0.492427 0.141879 0.589866
O O1 0.386720 0.300118 0.104797
O O2 0.685588 0.195936 0.198247
O O3 0.903072 0.319039 0.301369
O O4 0.491630 0.288062 0.034158
O O5 0.611186 0.065171 0.649779
O O6 0.000000 0.028058 0.750000
O O7 0.500000 0.000000 0.500000
O O8 0.747372 0.935415 0.704950
O O9 0.608973 0.820715 0.081580
O O10 0.000000 0.724418 0.250000
O O11 0.000000 0.844874 0.750000
O O12 0.160394 0.860367 0.937425
#
# Coordination Sequence:
#
# PCOD8133120 Si02
#       5
#     8   8   8   8   8
#     4  10  19  32  52  75 106 141 178 217 263 319
#     4  11  19  32  51  76 110 144 170 211 277 326
#     4   9  18  32  50  74 105 134 176 214 266 309
#     4  11  20  33  50  77 113 141 175 216 267 314
#     4  11  20  35  53  80 110 142 176 220 268 320
#
# _framework density 19.488592000000001
#
# number of rings (size 3 to 8) (size 9 to 14) (size 15 to 20)
#    0.000    1.600    6.000    2.400    0.000    1.600 
#    0.000    0.000    0.000    0.000    0.000    9.800 
#    0.000    0.000    0.000    0.000    0.000    0.000 
#
# Total GULP energy -247780.678768 kJ/mol
# GULP energy per Si atom -12389.033938 kJ/mol
# Density = 1.944424 g / cm^3
# Si number density = 19.488592 Si / 1000 Ang^3
#
#
#
# Elastic Constant Matrix: (Units=GPa)
#
#
# Indices 1 2 3 4 5 6 
#
# 1 23.0225 16.0655 13.2269 0.0105 -0.7200 0.0137
# 2 16.0655 96.0352 59.4519 0.0156 -11.7531 0.0250
# 3 13.2269 59.4519 213.3152 0.0279 -19.2143 0.0433
# 4 0.0105 0.0156 0.0279 40.4977 0.0203 -0.3067
# 5 -0.7200 -11.7531 -19.2143 0.0203 27.7349 0.0227
# 6 0.0137 0.0250 0.0433 -0.3067 0.0227 24.6863
#
#
#
# Elastic Compliance Matrix: (Units=1/GPa)
#
#
# Indices 1 2 3 4 5 6 
#
# 1 0.049531 -0.007946 -0.001114 -0.000008 -0.002853 -0.000015
# 2 -0.007946 0.014113 -0.003115 -0.000003 0.003616 -0.000008
# 3 -0.001114 -0.003115 0.005870 -0.000004 0.002718 -0.000009
# 4 -0.000008 -0.000003 -0.000004 0.024695 -0.000023 0.000307
# 5 -0.002853 0.003616 0.002718 -0.000023 0.039397 -0.000043
# 6 -0.000015 -0.000008 -0.000009 0.000307 -0.000043 0.040512
#
#
# Mechanical properties :
#
#
# Convention : Reuss Voigt Hill
#
# Bulk Modulus (GPa) = 22.14081 56.65129 39.39605
# Shear Modulus (GPa) = 23.41681 34.82569 29.12125
#
# Velocity S-wave (km/s) = 3.47012 4.23185 3.86977
# Velocity P-wave (km/s) = 5.23844 7.28081 6.34237
#
# Compressibility (1/GPa) = 0.04516546
#
# Stress axis : x y z
#
# Youngs Moduli (GPa) = 20.18932 70.85682 170.36080
#
# Poissons Ratio (x) = 0.56300 0.18974
# Poissons Ratio (y) = 0.16042 0.53066
# Poissons Ratio (z) = 0.02249 0.22071
#
# Static dielectric constant tensor:
#      x y z
#    x 3.156830 -0.000020 -0.064070 
#    y -0.000020 3.702480 -0.000010 
#    z -0.064070 -0.000010 4.324750 
# 
# 
# High freq. dielectric constant tensor:
#      x y z
#    x 1.703780 0.000000 0.009520 
#    y 0.000000 1.726730 -0.000010 
#    z 0.009520 -0.000010 1.804170 
# 
# From -- ./inp_files/97569.got.cif
#   From: 2010.06.25/outbox.cif.g09.slc.cpg/sg15_49_cif.got.tgz:97569.got - 2010.06.28 07:06:18.
