data_PCOD8133816
_publ_section_title
;
Structure prediction by ZEFSAII (Michael W. Deem and Ramdas Pophale) SiO2 
 PCOD8133816
Probable space group: C 2/C
;
_chemical_formula_sum "Si O2"
_cell_formula_units_Z 60
_cell_length_a 19.396626
_cell_length_b 21.071337
_cell_length_c 12.015103
_cell_angle_alpha 90.000000
_cell_angle_beta 139.597052
_cell_angle_gamma 90.000000
_cell_volume 3182.932250
_symmetry_space_group_name_H-M "C 2/C"
_symmetry_group_IT_number 15
_symmetry_cell_setting 'monoclinic'
loop_
_space_group_symop_operation_xyz
x,y,z
-x,y,1/2-z
-x,-y,-z
x,-y,1/2+z
1/2+x,1/2+y,z
1/2-x,1/2+y,1/2-z
1/2-x,1/2-y,-z
1/2+x,1/2-y,1/2+z
loop_
_atom_site_type_symbol
_atom_site_label
_atom_site_fract_x
_atom_site_fract_y
_atom_site_fract_z
Si Si1 0.102187 0.098343 0.306748
Si Si2 0.317707 0.720277 0.182686
Si Si3 0.000000 0.638071 0.250000
Si Si4 0.675694 0.127006 0.147553
Si Si5 0.714896 0.060598 0.806396
Si Si6 0.948546 0.333135 0.448599
Si Si7 0.315648 0.061408 0.121316
Si Si8 0.785564 0.010119 0.191198
O O1 0.096391 0.170702 0.259695
O O2 0.211985 0.093040 0.511027
O O3 0.108872 0.051319 0.207678
O O4 0.000000 0.079029 0.250000
O O5 0.239559 0.686657 0.175516
O O6 0.391107 0.771842 0.331336
O O7 0.250000 0.750000 0.000000
O O8 0.020098 0.680969 0.384124
O O9 0.096606 0.591018 0.348935
O O10 0.721133 0.111393 0.328141
O O11 0.690634 0.063534 0.089826
O O12 0.551601 0.147069 0.002732
O O13 0.634171 0.109357 0.652611
O O14 0.643768 0.002855 0.767557
O O15 0.796377 0.032248 0.814288
O O16 0.224198 0.038147 0.925205
#
# Coordination Sequence:
#
# PCOD8133816 Si02
#       8
#     8   8   4   8   8   8   8   8
#     4  10  22  38  56  83 111 150 197 237 285 331
#     4  11  23  40  56  78 112 155 196 244 275 331
#     4  10  20  34  56  88 116 154 184 230 288 350
#     4   9  22  36  54  89 114 148 189 235 286 337
#     4  10  19  34  57  88 115 152 184 230 294 346
#     4  11  22  36  59  85 119 150 197 231 287 344
#     4   9  18  32  54  82 121 144 178 228 287 345
#     4   9  18  36  59  86 119 146 182 234 291 349
#
# _framework density 18.850542999999998
#
# number of rings (size 3 to 8) (size 9 to 14) (size 15 to 20)
#    0.000    2.133    2.667    0.000    3.733    2.133 
#    0.000    2.667    2.933    0.000    3.467    0.000 
#    0.000    0.000    0.000    0.000    0.000    0.000 
#
# Total GULP energy -371664.548701 kJ/mol
# GULP energy per Si atom -12388.818290 kJ/mol
# Density = 1.880764 g / cm^3
# Si number density = 18.850543 Si / 1000 Ang^3
#
#
#
# Elastic Constant Matrix: (Units=GPa)
#
#
# Indices 1 2 3 4 5 6 
#
# 1 120.6393 46.3201 22.9687 0.0000 2.2651 0.0000
# 2 46.3201 98.0610 28.5067 0.0000 -5.1993 0.0000
# 3 22.9687 28.5067 49.4415 0.0000 -6.7640 0.0000
# 4 0.0000 0.0000 0.0000 21.3242 0.0000 -8.5891
# 5 2.2651 -5.1993 -6.7640 0.0000 29.4903 0.0000
# 6 0.0000 0.0000 0.0000 -8.5891 0.0000 29.0983
#
#
#
# Elastic Compliance Matrix: (Units=1/GPa)
#
#
# Indices 1 2 3 4 5 6 
#
# 1 0.010490 -0.004285 -0.002701 0.000000 -0.002181 0.000000
# 2 -0.004285 0.014011 -0.005889 0.000000 0.001449 0.000000
# 3 -0.002701 -0.005889 0.025565 0.000000 0.005033 0.000000
# 4 0.000000 0.000000 0.000000 0.053223 0.000000 0.015710
# 5 -0.002181 0.001449 0.005033 0.000000 0.035487 0.000000
# 6 0.000000 0.000000 0.000000 0.015710 0.000000 0.039003
#
#
# Mechanical properties :
#
#
# Convention : Reuss Voigt Hill
#
# Bulk Modulus (GPa) = 41.12758 51.52587 46.32673
# Shear Modulus (GPa) = 23.62576 27.33899 25.48238
#
# Velocity S-wave (km/s) = 3.54407 3.81242 3.68069
# Velocity P-wave (km/s) = 6.21388 6.83905 6.53394
#
# Compressibility (1/GPa) = 0.02431458
#
# Stress axis : x y z
#
# Youngs Moduli (GPa) = 95.33147 71.37326 39.11663
#
# Poissons Ratio (x) = 0.30587 0.10564
# Poissons Ratio (y) = 0.40854 0.23037
# Poissons Ratio (z) = 0.25745 0.42033
#
# Static dielectric constant tensor:
#      x y z
#    x 3.777700 0.000000 -0.175630 
#    y 0.000000 3.500120 0.000000 
#    z -0.175630 0.000000 3.270240 
# 
# 
# High freq. dielectric constant tensor:
#      x y z
#    x 1.749990 0.000000 -0.021410 
#    y 0.000000 1.731310 0.000000 
#    z -0.021410 0.000000 1.697700 
# 
# From -- ./inp_files/107648.got.cif
#   From: 2010.06.25/outbox.cif.g09.slc.cpg/sg15_54_cif.got.tgz:107648.got - 2010.06.28 07:06:18.
