data_PCOD8133876
_publ_section_title
;
Structure prediction by ZEFSAII (Michael W. Deem and Ramdas Pophale) SiO2 
 PCOD8133876
Probable space group: C 2/C
;
_chemical_formula_sum "Si O2"
_cell_formula_units_Z 40
_cell_length_a 18.130373
_cell_length_b 12.530017
_cell_length_c 15.035332
_cell_angle_alpha 90.000000
_cell_angle_beta 145.249800
_cell_angle_gamma 90.000000
_cell_volume 1946.910538
_symmetry_space_group_name_H-M "C 2/C"
_symmetry_group_IT_number 15
_symmetry_cell_setting 'monoclinic'
loop_
_space_group_symop_operation_xyz
x,y,z
-x,y,1/2-z
-x,-y,-z
x,-y,1/2+z
1/2+x,1/2+y,z
1/2-x,1/2+y,1/2-z
1/2-x,1/2-y,-z
1/2+x,1/2-y,1/2+z
loop_
_atom_site_type_symbol
_atom_site_label
_atom_site_fract_x
_atom_site_fract_y
_atom_site_fract_z
Si Si1 0.869470 0.058047 0.949419
Si Si2 0.254369 0.255830 0.233058
Si Si3 0.142253 0.577344 0.493158
Si Si4 0.148398 0.426812 0.799020
Si Si5 0.643677 0.582011 0.228092
O O1 0.856939 0.163900 0.877703
O O2 0.744633 0.029297 0.886157
O O3 0.882167 0.957200 0.897662
O O4 0.003687 0.071259 0.139318
O O5 0.327103 0.167912 0.246065
O O6 0.184103 0.204439 0.250069
O O7 0.157691 0.323083 0.074765
O O8 0.162593 0.619052 0.412822
O O9 0.243846 0.482665 0.611490
O O10 0.997533 0.530748 0.362504
#
# Coordination Sequence:
#
# PCOD8133876 Si02
#       5
#     8   8   8   8   8
#     4   9  19  34  53  79 109 141 177 218 265 316
#     4  10  19  34  59  82 104 138 182 224 261 312
#     4  10  21  36  55  81 111 141 175 219 269 317
#     4  10  21  36  55  81 111 141 175 219 269 317
#     4   9  19  34  53  79 109 141 177 218 265 316
#
# _framework density 20.545373000000001
#
# number of rings (size 3 to 8) (size 9 to 14) (size 15 to 20)
#    0.000    2.400    0.000    1.800    0.000   11.200 
#    0.000    1.000    0.000    0.000    0.000    0.000 
#    0.000    0.000    0.000    0.000    0.000    0.000 
#
# Total GULP energy -247785.685115 kJ/mol
# GULP energy per Si atom -12389.284256 kJ/mol
# Density = 2.049861 g / cm^3
# Si number density = 20.545373 Si / 1000 Ang^3
#
#
#
# Elastic Constant Matrix: (Units=GPa)
#
#
# Indices 1 2 3 4 5 6 
#
# 1 71.1439 36.3445 50.1561 0.0000 25.0872 0.0000
# 2 36.3445 93.4813 50.9094 0.0000 9.0588 0.0000
# 3 50.1561 50.9094 149.1081 0.0000 36.7727 0.0000
# 4 0.0000 0.0000 0.0000 17.1103 0.0000 1.9934
# 5 25.0872 9.0588 36.7727 0.0000 34.2557 0.0000
# 6 0.0000 0.0000 0.0000 1.9934 0.0000 25.0816
#
#
#
# Elastic Compliance Matrix: (Units=1/GPa)
#
#
# Indices 1 2 3 4 5 6 
#
# 1 0.023794 -0.006604 -0.002560 0.000000 -0.012931 0.000000
# 2 -0.006604 0.015058 -0.004258 0.000000 0.005425 0.000000
# 3 -0.002560 -0.004258 0.011263 0.000000 -0.009090 0.000000
# 4 0.000000 0.000000 0.000000 0.058991 0.000000 -0.004688
# 5 -0.012931 0.005425 -0.009090 0.000000 0.046986 0.000000
# 6 0.000000 0.000000 0.000000 -0.004688 0.000000 0.040243
#
#
# Mechanical properties :
#
#
# Convention : Reuss Voigt Hill
#
# Bulk Modulus (GPa) = 42.96923 65.39481 54.18202
# Shear Modulus (GPa) = 21.65118 27.04439 24.34778
#
# Velocity S-wave (km/s) = 3.24979 3.63206 3.44622
# Velocity P-wave (km/s) = 5.91956 7.03475 6.50111
#
# Compressibility (1/GPa) = 0.02327246
#
# Stress axis : x y z
#
# Youngs Moduli (GPa) = 42.02684 66.41083 88.78568
#
# Poissons Ratio (x) = 0.43856 0.22729
# Poissons Ratio (y) = 0.27753 0.37802
# Poissons Ratio (z) = 0.10759 0.28275
#
# Static dielectric constant tensor:
#      x y z
#    x 3.780240 0.000000 0.358110 
#    y 0.000000 3.643480 0.000000 
#    z 0.358110 0.000000 3.870270 
# 
# 
# High freq. dielectric constant tensor:
#      x y z
#    x 1.785490 0.000000 0.020030 
#    y 0.000000 1.788260 0.000000 
#    z 0.020030 0.000000 1.811040 
# 
# From -- ./inp_files/46924.got.cif
#   From: 2010.06.25/outbox.cif.g09.slc.cpg/sg15_24_cif.got.tgz:46924.got - 2010.06.28 07:06:18.
