data_PCOD8133160
_publ_section_title
;
Structure prediction by ZEFSAII (Michael W. Deem and Ramdas Pophale) SiO2 
 PCOD8133160
Probable space group: C 2/C
;
_chemical_formula_sum "Si O2"
_cell_formula_units_Z 48
_cell_length_a 13.278316
_cell_length_b 22.558551
_cell_length_c 15.368560
_cell_angle_alpha 90.000000
_cell_angle_beta 38.381132
_cell_angle_gamma 90.000000
_cell_volume 2858.260523
_symmetry_space_group_name_H-M "C 2/C"
_symmetry_group_IT_number 15
_symmetry_cell_setting 'monoclinic'
loop_
_space_group_symop_operation_xyz
x,y,z
-x,y,1/2-z
-x,-y,-z
x,-y,1/2+z
1/2+x,1/2+y,z
1/2-x,1/2+y,1/2-z
1/2-x,1/2-y,-z
1/2+x,1/2-y,1/2+z
loop_
_atom_site_type_symbol
_atom_site_label
_atom_site_fract_x
_atom_site_fract_y
_atom_site_fract_z
Si Si1 0.407023 0.584363 0.554900
Si Si2 0.086341 0.412066 0.378954
Si Si3 0.579249 0.324437 0.610575
Si Si4 0.775713 0.038808 0.091593
Si Si5 0.052785 0.306015 0.119723
Si Si6 0.043215 0.467718 0.591137
O O1 0.268404 0.592410 0.720125
O O2 0.421322 0.635831 0.474395
O O3 0.579276 0.584890 0.488821
O O4 0.364150 0.524670 0.532414
O O5 0.092966 0.428963 0.475101
O O6 0.014931 0.347071 0.411564
O O7 0.968987 0.461098 0.413381
O O8 0.500000 0.355367 0.750000
O O9 0.757205 0.308032 0.519672
O O10 0.488591 0.261600 0.651475
O O11 0.637971 0.050425 0.257302
O O12 0.687461 0.046840 0.059549
O O13 0.000000 0.331746 0.250000
#
# Coordination Sequence:
#
# PCOD8133160 Si02
#       6
#     8   8   8   8   8   8
#     4  10  19  34  50  74 103 134 164 208 252 293
#     4  10  19  32  54  73 100 135 169 201 250 302
#     4  10  21  32  50  78 103 132 168 207 252 300
#     4   9  19  34  50  72 105 131 166 205 248 296
#     4  10  19  34  52  74 103 133 167 207 253 301
#     4   9  19  33  51  75  98 136 168 201 248 300
#
# _framework density 16.793431000000002
#
# number of rings (size 3 to 8) (size 9 to 14) (size 15 to 20)
#    0.000    2.333    1.667    1.000    4.667    0.667 
#    6.000    0.000    0.000    1.000    0.000    0.000 
#    0.000    0.000    0.000    0.000    0.000    0.000 
#
# Total GULP energy -297406.718104 kJ/mol
# GULP energy per Si atom -12391.946588 kJ/mol
# Density = 1.675521 g / cm^3
# Si number density = 16.793431 Si / 1000 Ang^3
#
#
#
# Elastic Constant Matrix: (Units=GPa)
#
#
# Indices 1 2 3 4 5 6 
#
# 1 100.5818 51.0481 60.1311 -0.0004 -0.4772 0.0006
# 2 51.0481 81.5520 45.3237 -0.0034 7.4065 0.0007
# 3 60.1311 45.3237 107.7763 -0.0019 13.2757 -0.0023
# 4 -0.0004 -0.0034 -0.0019 23.9922 -0.0004 9.2482
# 5 -0.4772 7.4065 13.2757 -0.0004 31.7796 0.0002
# 6 0.0006 0.0007 -0.0023 9.2482 0.0002 16.4093
#
#
#
# Elastic Compliance Matrix: (Units=1/GPa)
#
#
# Indices 1 2 3 4 5 6 
#
# 1 0.018541 -0.007798 -0.007720 -0.000001 0.005321 -0.000001
# 2 -0.007798 0.019310 -0.003375 0.000003 -0.003208 -0.000003
# 3 -0.007720 -0.003375 0.015732 -0.000001 -0.005901 0.000003
# 4 -0.000001 0.000003 -0.000001 0.053248 0.000000 -0.030010
# 5 0.005321 -0.003208 -0.005901 0.000000 0.034759 -0.000001
# 6 -0.000001 -0.000003 0.000003 -0.030010 -0.000001 0.077855
#
#
# Mechanical properties :
#
#
# Convention : Reuss Voigt Hill
#
# Bulk Modulus (GPa) = 63.30542 66.99067 65.14804
# Shear Modulus (GPa) = 19.04780 23.33004 21.18892
#
# Velocity S-wave (km/s) = 3.37150 3.73129 3.55595
# Velocity P-wave (km/s) = 7.27560 7.65121 7.46577
#
# Compressibility (1/GPa) = 0.01579644
#
# Stress axis : x y z
#
# Youngs Moduli (GPa) = 53.93544 51.78572 63.56497
#
# Poissons Ratio (x) = 0.40384 0.49074
# Poissons Ratio (y) = 0.42060 0.21451
# Poissons Ratio (z) = 0.41640 0.17476
#
# Static dielectric constant tensor:
#      x y z
#    x 2.993120 0.000000 -0.077010 
#    y 0.000000 3.162960 0.000010 
#    z -0.077010 0.000010 3.312470 
# 
# 
# High freq. dielectric constant tensor:
#      x y z
#    x 1.628530 0.000000 -0.004170 
#    y 0.000000 1.627740 0.000000 
#    z -0.004170 0.000000 1.664890 
# 
# From -- ./inp_files/57703.got.cif
#   From: 2010.06.25/outbox.cif.g09.slc.cpg/sg15_29_cif.got.tgz:57703.got - 2010.06.28 07:06:18.
