data_PCOD8133142
_publ_section_title
;
Structure prediction by ZEFSAII (Michael W. Deem and Ramdas Pophale) SiO2 
 PCOD8133142
Probable space group: C 2/C
;
_chemical_formula_sum "Si O2"
_cell_formula_units_Z 48
_cell_length_a 16.824972
_cell_length_b 17.925732
_cell_length_c 9.171024
_cell_angle_alpha 90.000000
_cell_angle_beta 62.737762
_cell_angle_gamma 90.000000
_cell_volume 2458.733315
_symmetry_space_group_name_H-M "C 2/C"
_symmetry_group_IT_number 15
_symmetry_cell_setting 'monoclinic'
loop_
_space_group_symop_operation_xyz
x,y,z
-x,y,1/2-z
-x,-y,-z
x,-y,1/2+z
1/2+x,1/2+y,z
1/2-x,1/2+y,1/2-z
1/2-x,1/2-y,-z
1/2+x,1/2-y,1/2+z
loop_
_atom_site_type_symbol
_atom_site_label
_atom_site_fract_x
_atom_site_fract_y
_atom_site_fract_z
Si Si1 0.243924 0.925832 0.545760
Si Si2 0.897340 0.322296 0.527289
Si Si3 0.266349 0.068353 0.693067
Si Si4 0.530759 0.073229 0.057015
Si Si5 0.235142 0.768480 0.177639
Si Si6 0.160364 0.221876 0.152797
O O1 0.333748 0.891491 0.539059
O O2 0.268422 0.949430 0.361956
O O3 0.159681 0.868020 0.631340
O O4 0.216252 0.000147 0.655819
O O5 0.851093 0.276155 0.695470
O O6 0.916865 0.266952 0.370669
O O7 0.990085 0.354494 0.509015
O O8 0.363273 0.079975 0.540468
O O9 0.211918 0.144341 0.714000
O O10 0.500000 0.070081 0.250000
O O11 0.500000 0.000000 0.000000
O O12 0.326694 0.746015 0.189465
O O13 0.250000 0.750000 0.000000
O O14 0.250000 0.250000 0.000000
#
# Coordination Sequence:
#
# PCOD8133142 Si02
#       6
#     8   8   8   8   8   8
#     4  10  20  32  51  77 104 148 178 225 269 324
#     4  10  19  39  49  64 113 153 180 218 264 332
#     4  12  21  33  51  79 111 139 186 218 278 329
#     4  12  25  34  49  80 116 150 176 218 281 340
#     4  10  19  32  53  72  98 144 186 233 257 317
#     4   8  16  35  50  65  99 149 183 215 267 309
#
# _framework density 19.522247
#
# number of rings (size 3 to 8) (size 9 to 14) (size 15 to 20)
#    0.000    2.000    6.667    2.000    4.667    0.000 
#    0.000    0.000    0.000    0.000    0.000    0.000 
#    0.000   26.667    0.000    0.000    0.000    0.000 
#
# Total GULP energy -297448.908917 kJ/mol
# GULP energy per Si atom -12393.704538 kJ/mol
# Density = 1.947781 g / cm^3
# Si number density = 19.522247 Si / 1000 Ang^3
#
#
#
# Elastic Constant Matrix: (Units=GPa)
#
#
# Indices 1 2 3 4 5 6 
#
# 1 38.6503 33.8180 23.3863 0.0000 15.4287 0.0000
# 2 33.8180 149.9315 57.8521 0.0000 16.6901 0.0000
# 3 23.3863 57.8521 123.3757 0.0000 37.6692 0.0000
# 4 0.0000 0.0000 0.0000 38.1268 0.0000 12.0611
# 5 15.4287 16.6901 37.6692 0.0000 25.4171 0.0000
# 6 0.0000 0.0000 0.0000 12.0611 0.0000 35.4146
#
#
#
# Elastic Compliance Matrix: (Units=1/GPa)
#
#
# Indices 1 2 3 4 5 6 
#
# 1 0.040311 -0.007696 0.003462 0.000000 -0.024548 0.000000
# 2 -0.007696 0.009617 -0.004656 0.000000 0.005256 0.000000
# 3 0.003462 -0.004656 0.017060 0.000000 -0.024328 0.000000
# 4 0.000000 0.000000 0.000000 0.029395 0.000000 -0.010011
# 5 -0.024548 0.005256 -0.024328 0.000000 0.086849 0.000000
# 6 0.000000 0.000000 0.000000 -0.010011 0.000000 0.031646
#
#
# Mechanical properties :
#
#
# Convention : Reuss Voigt Hill
#
# Bulk Modulus (GPa) = 20.32114 60.23004 40.27559
# Shear Modulus (GPa) = 20.07561 32.91842 26.49701
#
# Velocity S-wave (km/s) = 3.21026 4.11079 3.68812
# Velocity P-wave (km/s) = 4.91659 7.31098 6.22990
#
# Compressibility (1/GPa) = 0.04920984
#
# Stress axis : x y z
#
# Youngs Moduli (GPa) = 24.80732 103.98495 58.61672
#
# Poissons Ratio (x) = 0.80024 -0.20296
# Poissons Ratio (y) = 0.19091 0.27289
# Poissons Ratio (z) = -0.08589 0.48410
#
# Static dielectric constant tensor:
#      x y z
#    x 3.518810 0.000000 0.461960 
#    y 0.000000 4.162080 0.000000 
#    z 0.461960 0.000000 3.808710 
# 
# 
# High freq. dielectric constant tensor:
#      x y z
#    x 1.704970 0.000000 0.031280 
#    y 0.000000 1.775960 0.000000 
#    z 0.031280 0.000000 1.766770 
# 
# From -- ./inp_files/55239.got.cif
#   From: 2010.06.25/outbox.cif.g09.slc.cpg/sg15_28_cif.got.tgz:55239.got - 2010.06.28 07:06:18.
