data_PCOD8133450
_publ_section_title
;
Structure prediction by ZEFSAII (Michael W. Deem and Ramdas Pophale) SiO2 
 PCOD8133450
Probable space group: C 2/C
;
_chemical_formula_sum "Si O2"
_cell_formula_units_Z 64
_cell_length_a 8.864577
_cell_length_b 16.417200
_cell_length_c 23.720782
_cell_angle_alpha 90.000000
_cell_angle_beta 67.799514
_cell_angle_gamma 90.000000
_cell_volume 3196.206948
_symmetry_space_group_name_H-M "C 2/C"
_symmetry_group_IT_number 15
_symmetry_cell_setting 'monoclinic'
loop_
_space_group_symop_operation_xyz
x,y,z
-x,y,1/2-z
-x,-y,-z
x,-y,1/2+z
1/2+x,1/2+y,z
1/2-x,1/2+y,1/2-z
1/2-x,1/2-y,-z
1/2+x,1/2-y,1/2+z
loop_
_atom_site_type_symbol
_atom_site_label
_atom_site_fract_x
_atom_site_fract_y
_atom_site_fract_z
Si Si1 0.554628 0.998124 0.130432
Si Si2 0.776978 0.338860 0.366494
Si Si3 0.621051 0.166079 0.180615
Si Si4 0.013055 0.173705 0.815685
Si Si5 0.949028 0.755142 0.616895
Si Si6 0.767452 0.024376 0.997045
Si Si7 0.960098 0.869755 0.996133
Si Si8 0.713626 0.916281 0.385670
O O1 0.636035 0.925483 0.153841
O O2 0.361225 0.978885 0.150564
O O3 0.600209 0.082025 0.152218
O O4 0.622863 0.997942 0.057927
O O5 0.692421 0.328965 0.317109
O O6 0.647679 0.339879 0.435859
O O7 0.905647 0.265442 0.359279
O O8 0.500000 0.160893 0.250000
O O9 0.562869 0.241596 0.149978
O O10 0.812742 0.186506 0.166476
O O11 0.000000 0.176441 0.750000
O O12 0.907317 0.095668 0.849802
O O13 0.877286 0.669532 0.606706
O O14 0.022785 0.797509 0.551109
O O15 0.862699 0.104242 0.005987
O O16 0.683176 0.045085 0.950425
O O17 0.887769 0.947574 0.973524
#
# Coordination Sequence:
#
# PCOD8133450 Si02
#       8
#     8   8   8   8   8   8   8   8
#     4  10  21  37  58  85 116 155 194 236 291 355
#     4  10  21  38  61  88 117 154 194 242 299 359
#     4  10  22  40  57  79 113 150 196 250 298 346
#     4  10  22  40  58  80 113 150 196 250 298 345
#     4  10  21  37  59  87 117 151 196 242 294 360
#     4  10  19  33  55  86 124 156 184 234 293 352
#     4  10  19  33  57  90 122 155 186 236 298 363
#     4  10  21  36  56  85 116 152 197 235 287 354
#
# _framework density 20.023734999999999
#
# number of rings (size 3 to 8) (size 9 to 14) (size 15 to 20)
#    0.000    2.000    2.500    0.750    0.000    3.500 
#    0.000    9.375    0.000    0.000    0.000    0.000 
#    0.000    0.000    0.000    0.000    0.000    0.000 
#
# Total GULP energy -396543.835344 kJ/mol
# GULP energy per Si atom -12391.994854 kJ/mol
# Density = 1.997816 g / cm^3
# Si number density = 20.023735 Si / 1000 Ang^3
#
#
#
# Elastic Constant Matrix: (Units=GPa)
#
#
# Indices 1 2 3 4 5 6 
#
# 1 139.3076 53.3890 42.1962 0.0000 26.2642 0.0000
# 2 53.3890 95.9701 25.5345 0.0000 15.3160 0.0000
# 3 42.1962 25.5345 63.9557 0.0000 17.6429 0.0000
# 4 0.0000 0.0000 0.0000 12.9360 0.0000 -1.5534
# 5 26.2642 15.3160 17.6429 0.0000 30.4600 0.0000
# 6 0.0000 0.0000 0.0000 -1.5534 0.0000 25.3289
#
#
#
# Elastic Compliance Matrix: (Units=1/GPa)
#
#
# Indices 1 2 3 4 5 6 
#
# 1 0.010997 -0.004210 -0.004217 0.000000 -0.004923 0.000000
# 2 -0.004210 0.013645 -0.002117 0.000000 -0.002005 0.000000
# 3 -0.004217 -0.002117 0.021383 0.000000 -0.007685 0.000000
# 4 0.000000 0.000000 0.000000 0.077877 0.000000 0.004776
# 5 -0.004923 -0.002005 -0.007685 0.000000 0.042534 0.000000
# 6 0.000000 0.000000 0.000000 0.004776 0.000000 0.039774
#
#
# Mechanical properties :
#
#
# Convention : Reuss Voigt Hill
#
# Bulk Modulus (GPa) = 40.10001 60.16363 50.13182
# Shear Modulus (GPa) = 21.22137 25.61923 23.42030
#
# Velocity S-wave (km/s) = 3.25901 3.58081 3.42369
# Velocity P-wave (km/s) = 5.85074 6.87078 6.38118
#
# Compressibility (1/GPa) = 0.02493765
#
# Stress axis : x y z
#
# Youngs Moduli (GPa) = 90.93113 73.28503 46.76581
#
# Poissons Ratio (x) = 0.30855 0.19720
# Poissons Ratio (y) = 0.38285 0.09901
# Poissons Ratio (z) = 0.38343 0.15515
#
# Static dielectric constant tensor:
#      x y z
#    x 3.930230 0.000000 -0.188300 
#    y 0.000000 3.970700 0.000000 
#    z -0.188300 0.000000 3.417240 
# 
# 
# High freq. dielectric constant tensor:
#      x y z
#    x 1.791170 0.000000 -0.003550 
#    y 0.000000 1.783200 0.000000 
#    z -0.003550 0.000000 1.758160 
# 
# From -- ./inp_files/265241.got.cif
#   From: 2010.06.25/outbox.cif.g09.slc.cpg/sg15_133_cif.got.tgz:265241.got - 2010.06.28 07:06:18.
