data_PCOD8133090
_publ_section_title
;
Structure prediction by ZEFSAII (Michael W. Deem and Ramdas Pophale) SiO2 
 PCOD8133090
Probable space group: C 2/C
;
_chemical_formula_sum "Si O2"
_cell_formula_units_Z 56
_cell_length_a 19.386332
_cell_length_b 17.543760
_cell_length_c 12.993599
_cell_angle_alpha 90.000000
_cell_angle_beta 44.096127
_cell_angle_gamma 90.000000
_cell_volume 3075.192521
_symmetry_space_group_name_H-M "C 2/C"
_symmetry_group_IT_number 15
_symmetry_cell_setting 'monoclinic'
loop_
_space_group_symop_operation_xyz
x,y,z
-x,y,1/2-z
-x,-y,-z
x,-y,1/2+z
1/2+x,1/2+y,z
1/2-x,1/2+y,1/2-z
1/2-x,1/2-y,-z
1/2+x,1/2-y,1/2+z
loop_
_atom_site_type_symbol
_atom_site_label
_atom_site_fract_x
_atom_site_fract_y
_atom_site_fract_z
Si Si1 0.257293 0.038926 0.552401
Si Si2 0.018437 0.879164 0.030158
Si Si3 0.340552 0.694927 0.820641
Si Si4 0.082846 0.408606 0.466412
Si Si5 0.950846 0.031144 0.199932
Si Si6 0.359438 0.748300 0.016227
Si Si7 0.068406 0.484022 0.270258
O O1 0.211697 0.120819 0.572375
O O2 0.322146 0.047593 0.587140
O O3 0.324163 0.008713 0.386984
O O4 0.167565 0.980147 0.668194
O O5 0.923083 0.825836 0.149069
O O6 0.025470 0.902423 0.905069
O O7 0.114714 0.830644 0.955832
O O8 0.009652 0.953571 0.110725
O O9 0.259016 0.743495 0.846508
O O10 0.387930 0.742989 0.864059
O O11 0.084296 0.319137 0.491409
O O12 0.082796 0.419654 0.342744
O O13 0.982817 0.442123 0.623617
O O14 0.000000 0.062833 0.250000
O O15 0.000000 0.451976 0.250000
#
# Coordination Sequence:
#
# PCOD8133090 Si02
#       7
#     8   8   8   8   8   8   8
#     4   9  18  32  53  77 101 135 178 221 259 304
#     4  10  20  35  54  76 106 138 173 217 263 311
#     4   9  19  32  51  79 104 130 170 216 266 313
#     4   9  19  33  52  80 109 137 171 213 266 315
#     4  10  21  36  54  77 105 142 182 219 258 305
#     4  10  19  32  50  76 106 133 168 215 267 316
#     4   9  18  34  54  77 106 139 174 213 258 314
#
# _framework density 18.210241
#
# number of rings (size 3 to 8) (size 9 to 14) (size 15 to 20)
#    0.000    2.571    0.000    2.143    0.000   12.571 
#    0.000    3.571    0.000    1.714    0.000    0.000 
#    0.000    0.000    0.000    0.000    0.000    0.000 
#
# Total GULP energy -347147.427997 kJ/mol
# GULP energy per Si atom -12398.122428 kJ/mol
# Density = 1.816879 g / cm^3
# Si number density = 18.210241 Si / 1000 Ang^3
#
#
#
# Elastic Constant Matrix: (Units=GPa)
#
#
# Indices 1 2 3 4 5 6 
#
# 1 108.1491 57.6185 63.6719 0.0000 14.4408 0.0000
# 2 57.6185 80.0638 47.9368 0.0000 5.2355 0.0000
# 3 63.6719 47.9368 114.3563 0.0000 8.5852 0.0000
# 4 0.0000 0.0000 0.0000 28.2864 0.0000 0.2949
# 5 14.4408 5.2355 8.5852 0.0000 27.5444 0.0000
# 6 0.0000 0.0000 0.0000 0.2949 0.0000 29.9225
#
#
#
# Elastic Compliance Matrix: (Units=1/GPa)
#
#
# Indices 1 2 3 4 5 6 
#
# 1 0.018569 -0.009410 -0.005937 0.000000 -0.006096 0.000000
# 2 -0.009410 0.021472 -0.003917 0.000000 0.002073 0.000000
# 3 -0.005937 -0.003917 0.013724 0.000000 -0.000420 0.000000
# 4 0.000000 0.000000 0.000000 0.035356 0.000000 -0.000348
# 5 -0.006096 0.002073 -0.000420 0.000000 0.039238 0.000000
# 6 0.000000 0.000000 0.000000 -0.000348 0.000000 0.033423
#
#
# Mechanical properties :
#
#
# Convention : Reuss Voigt Hill
#
# Bulk Modulus (GPa) = 65.63041 71.22483 68.42762
# Shear Modulus (GPa) = 24.34406 26.04012 25.19209
#
# Velocity S-wave (km/s) = 3.66024 3.78560 3.72345
# Velocity P-wave (km/s) = 7.34723 7.63578 7.49289
#
# Compressibility (1/GPa) = 0.01523684
#
# Stress axis : x y z
#
# Youngs Moduli (GPa) = 53.85250 46.57263 72.86761
#
# Poissons Ratio (x) = 0.43827 0.43259
# Poissons Ratio (y) = 0.50677 0.28541
# Poissons Ratio (z) = 0.31971 0.18242
#
# Static dielectric constant tensor:
#      x y z
#    x 3.490570 0.000000 -0.108410 
#    y 0.000000 3.190570 0.000000 
#    z -0.108410 0.000000 3.308720 
# 
# 
# High freq. dielectric constant tensor:
#      x y z
#    x 1.711340 0.000000 -0.012190 
#    y 0.000000 1.681630 0.000000 
#    z -0.012190 0.000000 1.696770 
# 
# From -- ./inp_files/106628.got.cif
#   From: 2010.06.25/outbox.cif.g09.slc.cpg/sg15_54_cif.got.tgz:106628.got - 2010.06.28 07:06:18.
