data_PCOD8133834
_publ_section_title
;
Structure prediction by ZEFSAII (Michael W. Deem and Ramdas Pophale) SiO2 
 PCOD8133834
Probable space group: C 2/C
;
_chemical_formula_sum "Si O2"
_cell_formula_units_Z 44
_cell_length_a 22.911624
_cell_length_b 16.684564
_cell_length_c 14.795996
_cell_angle_alpha 90.000000
_cell_angle_beta 24.468001
_cell_angle_gamma 90.000000
_cell_volume 2342.660107
_symmetry_space_group_name_H-M "C 2/C"
_symmetry_group_IT_number 15
_symmetry_cell_setting 'monoclinic'
loop_
_space_group_symop_operation_xyz
x,y,z
-x,y,1/2-z
-x,-y,-z
x,-y,1/2+z
1/2+x,1/2+y,z
1/2-x,1/2+y,1/2-z
1/2-x,1/2-y,-z
1/2+x,1/2-y,1/2+z
loop_
_atom_site_type_symbol
_atom_site_label
_atom_site_fract_x
_atom_site_fract_y
_atom_site_fract_z
Si Si1 0.700102 0.794806 0.197551
Si Si2 0.146122 0.958272 0.819172
Si Si3 0.849941 0.642667 0.918903
Si Si4 0.749690 0.623343 0.693818
Si Si5 0.500000 0.784909 0.750000
Si Si6 0.005996 0.814367 0.411741
O O1 0.648844 0.856465 0.192027
O O2 0.778349 0.840660 0.168278
O O3 0.559340 0.753625 0.432773
O O4 0.815840 0.732558 0.999048
O O5 0.226222 0.918700 0.621081
O O6 0.250629 0.027169 0.709001
O O7 0.110638 0.885857 0.940117
O O8 0.000000 0.000000 0.000000
O O9 0.000000 0.616277 0.750000
O O10 0.891523 0.655646 0.449675
O O11 0.632938 0.647400 0.786662
O O12 0.439795 0.724597 0.758114
#
# Coordination Sequence:
#
# PCOD8133834 Si02
#       6
#     8   8   8   8   4   8
#     4   9  19  34  56  84 102 140 184 223 274 327
#     4   9  20  37  52  75 115 146 175 227 280 322
#     4  10  19  34  58  81 108 140 183 229 275 326
#     4  10  19  35  55  78 111 143 179 230 270 327
#     4  10  20  32  58  82 104 144 194 220 272 330
#     4   9  18  36  54  77 110 144 180 224 274 329
#
# _framework density 18.782067000000001
#
# number of rings (size 3 to 8) (size 9 to 14) (size 15 to 20)
#    0.000    2.545    0.000    1.636    1.273    1.455 
#    6.545    0.909    0.000    0.000    0.000    0.000 
#    0.000    0.000    0.000    0.000    0.000    0.000 
#
# Total GULP energy -272583.075762 kJ/mol
# GULP energy per Si atom -12390.139807 kJ/mol
# Density = 1.873932 g / cm^3
# Si number density = 18.782067 Si / 1000 Ang^3
#
#
#
# Elastic Constant Matrix: (Units=GPa)
#
#
# Indices 1 2 3 4 5 6 
#
# 1 100.1351 42.0433 39.3379 -0.0001 8.1545 0.0000
# 2 42.0433 108.1290 36.3783 -0.0004 5.5892 0.0002
# 3 39.3379 36.3783 75.5948 -0.0008 5.4588 0.0005
# 4 -0.0001 -0.0004 -0.0008 27.0996 0.0005 -7.4466
# 5 8.1545 5.5892 5.4588 0.0005 24.5563 -0.0002
# 6 0.0000 0.0002 0.0005 -7.4466 -0.0002 14.0982
#
#
#
# Elastic Compliance Matrix: (Units=1/GPa)
#
#
# Indices 1 2 3 4 5 6 
#
# 1 0.013716 -0.003413 -0.005307 0.000000 -0.002598 0.000000
# 2 -0.003413 0.011929 -0.003913 0.000000 -0.000712 0.000000
# 3 -0.005307 -0.003913 0.017970 0.000000 -0.001342 0.000000
# 4 0.000000 0.000000 0.000000 0.043166 -0.000001 0.022800
# 5 -0.002598 -0.000712 -0.001342 -0.000001 0.042046 0.000000
# 6 0.000000 0.000000 0.000000 0.022800 0.000000 0.082974
#
#
# Mechanical properties :
#
#
# Convention : Reuss Voigt Hill
#
# Bulk Modulus (GPa) = 54.50212 57.70866 56.10539
# Shear Modulus (GPa) = 20.56055 24.22411 22.39233
#
# Velocity S-wave (km/s) = 3.31220 3.59520 3.45660
# Velocity P-wave (km/s) = 6.61126 6.93008 6.77255
#
# Compressibility (1/GPa) = 0.01834791
#
# Stress axis : x y z
#
# Youngs Moduli (GPa) = 72.90632 83.83233 55.64790
#
# Poissons Ratio (x) = 0.28615 0.29535
# Poissons Ratio (y) = 0.24885 0.21774
# Poissons Ratio (z) = 0.38695 0.32802
#
# Static dielectric constant tensor:
#      x y z
#    x 3.346620 0.000000 0.105780 
#    y 0.000000 3.926950 0.000000 
#    z 0.105780 0.000000 3.554540 
# 
# 
# High freq. dielectric constant tensor:
#      x y z
#    x 1.707670 0.000000 0.006770 
#    y 0.000000 1.734780 0.000000 
#    z 0.006770 0.000000 1.732250 
# 
# From -- ./inp_files/86069.got.cif
#   From: 2010.06.25/outbox.cif.g09.slc.cpg/sg15_44_cif.got.tgz:86069.got - 2010.06.28 07:06:18.
