data_PCOD8133103
_publ_section_title
;
Structure prediction by ZEFSAII (Michael W. Deem and Ramdas Pophale) SiO2 
 PCOD8133103
Probable space group: C 2/C
;
_chemical_formula_sum "Si O2"
_cell_formula_units_Z 40
_cell_length_a 8.756589
_cell_length_b 24.274619
_cell_length_c 19.405389
_cell_angle_alpha 90.000000
_cell_angle_beta 31.493834
_cell_angle_gamma 90.000000
_cell_volume 2154.857548
_symmetry_space_group_name_H-M "C 2/C"
_symmetry_group_IT_number 15
_symmetry_cell_setting 'monoclinic'
loop_
_space_group_symop_operation_xyz
x,y,z
-x,y,1/2-z
-x,-y,-z
x,-y,1/2+z
1/2+x,1/2+y,z
1/2-x,1/2+y,1/2-z
1/2-x,1/2-y,-z
1/2+x,1/2-y,1/2+z
loop_
_atom_site_type_symbol
_atom_site_label
_atom_site_fract_x
_atom_site_fract_y
_atom_site_fract_z
Si Si1 0.635897 0.117494 0.772510
Si Si2 0.821939 0.723947 0.655686
Si Si3 0.707042 0.927930 0.970682
Si Si4 0.114037 0.187678 0.131320
Si Si5 0.631309 0.544287 0.624120
O O1 0.500000 0.120430 0.750000
O O2 0.675057 0.179125 0.784927
O O3 0.951256 0.087847 0.647697
O O4 0.426024 0.082599 0.902901
O O5 0.500000 0.729635 0.750000
O O6 0.917337 0.782624 0.649391
O O7 0.046160 0.705624 0.508928
O O8 0.918966 0.877864 0.867490
O O9 0.886094 0.984843 0.906146
O O10 0.461655 0.933674 0.005104
O O11 0.000000 0.204937 0.250000
O O12 0.500000 0.538751 0.750000
#
# Coordination Sequence:
#
# PCOD8133103 Si02
#       5
#     8   8   8   8   8
#     4  10  19  32  51  74 102 137 177 219 262 312
#     4  10  21  38  56  77 106 143 182 215 263 327
#     4   9  18  33  52  76 104 135 174 217 262 313
#     4  10  20  35  56  81 108 136 174 226 268 306
#     4   9  17  32  54  75 100 138 177 211 258 321
#
# _framework density 18.562712000000001
#
# number of rings (size 3 to 8) (size 9 to 14) (size 15 to 20)
#    0.000    2.400    0.000    4.200    0.000    1.600 
#    0.000    7.000    0.000    0.000    0.000    0.000 
#    0.000    0.000    0.000    0.000    0.000    0.000 
#
# Total GULP energy -248010.600033 kJ/mol
# GULP energy per Si atom -12400.530002 kJ/mol
# Density = 1.852046 g / cm^3
# Si number density = 18.562712 Si / 1000 Ang^3
#
#
#
# Elastic Constant Matrix: (Units=GPa)
#
#
# Indices 1 2 3 4 5 6 
#
# 1 103.1306 49.6663 48.9665 0.0081 -9.6827 0.0013
# 2 49.6663 141.8567 38.3896 -0.0020 -9.2636 -0.0004
# 3 48.9665 38.3896 74.7478 0.0325 -9.7090 0.0200
# 4 0.0081 -0.0020 0.0325 27.6800 0.0179 -5.8906
# 5 -9.6827 -9.2636 -9.7090 0.0179 22.1286 0.0091
# 6 0.0013 -0.0004 0.0200 -5.8906 0.0091 21.8993
#
#
#
# Elastic Compliance Matrix: (Units=1/GPa)
#
#
# Indices 1 2 3 4 5 6 
#
# 1 0.015189 -0.002986 -0.008182 0.000005 0.001806 0.000007
# 2 -0.002986 0.008833 -0.002407 0.000004 0.001335 0.000003
# 3 -0.008182 -0.002407 0.020550 -0.000031 0.004428 -0.000028
# 4 0.000005 0.000004 -0.000031 0.038321 -0.000045 0.010308
# 5 0.001806 0.001335 0.004428 -0.000045 0.048483 -0.000036
# 6 0.000007 0.000003 -0.000028 0.010308 -0.000036 0.048436
#
#
# Mechanical properties :
#
#
# Convention : Reuss Voigt Hill
#
# Bulk Modulus (GPa) = 57.39894 65.97555 61.68724
# Shear Modulus (GPa) = 23.49965 26.52241 25.01103
#
# Velocity S-wave (km/s) = 3.56189 3.78405 3.67465
# Velocity P-wave (km/s) = 6.92133 7.39670 7.16296
#
# Compressibility (1/GPa) = 0.01742193
#
# Stress axis : x y z
#
# Youngs Moduli (GPa) = 65.83865 113.20689 48.66204
#
# Poissons Ratio (x) = 0.33799 0.39815
# Poissons Ratio (y) = 0.19657 0.11715
# Poissons Ratio (z) = 0.53869 0.27254
#
# Static dielectric constant tensor:
#      x y z
#    x 3.120690 0.000000 -0.094300 
#    y 0.000000 3.635280 0.000010 
#    z -0.094300 0.000010 3.492840 
# 
# 
# High freq. dielectric constant tensor:
#      x y z
#    x 1.691930 0.000000 -0.000340 
#    y 0.000000 1.736350 0.000000 
#    z -0.000340 0.000000 1.716190 
# 
# From -- ./inp_files/23595.got.cif
#   From: 2010.06.25/outbox.cif.g09.slc.cpg/sg15_12_cif.got.tgz:23595.got - 2010.06.28 07:06:18.
