data_PCOD8133494
_publ_section_title
;
Structure prediction by ZEFSAII (Michael W. Deem and Ramdas Pophale) SiO2 
 PCOD8133494
Probable space group: C 2/C
;
_chemical_formula_sum "Si O2"
_cell_formula_units_Z 56
_cell_length_a 25.999753
_cell_length_b 5.472856
_cell_length_c 18.053150
_cell_angle_alpha 90.000000
_cell_angle_beta 105.545132
_cell_angle_gamma 90.000000
_cell_volume 2474.866255
_symmetry_space_group_name_H-M "C 2/C"
_symmetry_group_IT_number 15
_symmetry_cell_setting 'monoclinic'
loop_
_space_group_symop_operation_xyz
x,y,z
-x,y,1/2-z
-x,-y,-z
x,-y,1/2+z
1/2+x,1/2+y,z
1/2-x,1/2+y,1/2-z
1/2-x,1/2-y,-z
1/2+x,1/2-y,1/2+z
loop_
_atom_site_type_symbol
_atom_site_label
_atom_site_fract_x
_atom_site_fract_y
_atom_site_fract_z
Si Si1 0.298438 0.015190 0.064058
Si Si2 0.458644 0.223978 0.302169
Si Si3 0.611972 0.359875 0.925259
Si Si4 0.782823 0.117211 0.270287
Si Si5 0.998004 0.770116 0.838572
Si Si6 0.145907 0.851801 0.308794
Si Si7 0.686239 0.397773 0.554627
O O1 0.306124 0.188609 0.139688
O O2 0.236574 0.929780 0.048214
O O3 0.340953 0.804778 0.088836
O O4 0.308148 0.147523 0.989292
O O5 0.500000 0.215710 0.250000
O O6 0.469889 0.475215 0.352774
O O7 0.395977 0.207121 0.258296
O O8 0.466988 0.974693 0.352833
O O9 0.554357 0.236364 0.903391
O O10 0.608194 0.572007 0.862768
O O11 0.630746 0.465454 0.012148
O O12 0.748988 0.863694 0.262354
O O13 0.827667 0.077592 0.224921
O O14 0.814057 0.159088 0.359102
O O15 0.000000 0.774024 0.750000
#
# Coordination Sequence:
#
# PCOD8133494 Si02
#       7
#     8   8   8   8   8   8   8
#     4  10  20  38  61  91 123 164 216 260 320 377
#     4  10  19  34  56  91 123 152 207 267 311 360
#     4  11  21  35  64  93 125 168 211 267 328 374
#     4  12  27  45  64  91 134 176 216 259 317 390
#     4  10  19  33  56  89 124 151 204 266 315 359
#     4  11  22  37  65  94 125 173 212 266 325 381
#     4  10  23  38  59  92 128 167 214 264 314 384
#
# _framework density 22.627483999999999
#
# number of rings (size 3 to 8) (size 9 to 14) (size 15 to 20)
#    0.000    1.429    4.286    3.000    4.000    0.000 
#    0.000    0.000    0.000    1.714    0.000    0.000 
#    0.000    0.000    0.000    0.000    0.000    0.000 
#
# Total GULP energy -346943.900715 kJ/mol
# GULP energy per Si atom -12390.853597 kJ/mol
# Density = 2.257598 g / cm^3
# Si number density = 22.627484 Si / 1000 Ang^3
#
#
#
# Elastic Constant Matrix: (Units=GPa)
#
#
# Indices 1 2 3 4 5 6 
#
# 1 45.8879 14.8775 39.9878 0.0000 26.7828 0.0000
# 2 14.8775 128.1369 31.4892 0.0000 17.8211 0.0000
# 3 39.9878 31.4892 112.9380 0.0000 29.8501 0.0000
# 4 0.0000 0.0000 0.0000 9.2414 0.0000 4.0853
# 5 26.7828 17.8211 29.8501 0.0000 38.1108 0.0000
# 6 0.0000 0.0000 0.0000 4.0853 0.0000 27.4139
#
#
#
# Elastic Compliance Matrix: (Units=1/GPa)
#
#
# Indices 1 2 3 4 5 6 
#
# 1 0.043451 0.000511 -0.009323 0.000000 -0.023472 0.000000
# 2 0.000511 0.008599 -0.001792 0.000000 -0.002977 0.000000
# 3 -0.009323 -0.001792 0.013496 0.000000 -0.003181 0.000000
# 4 0.000000 0.000000 0.000000 0.115841 0.000000 -0.017263
# 5 -0.023472 -0.002977 -0.003181 0.000000 0.046618 0.000000
# 6 0.000000 0.000000 0.000000 -0.017263 0.000000 0.039051
#
#
# Mechanical properties :
#
#
# Convention : Reuss Voigt Hill
#
# Bulk Modulus (GPa) = 22.55441 51.07467 36.81454
# Shear Modulus (GPa) = 16.49938 28.32710 22.41324
#
# Velocity S-wave (km/s) = 2.70325 3.54204 3.15069
# Velocity P-wave (km/s) = 4.44216 6.27288 5.43516
#
# Compressibility (1/GPa) = 0.04433723
#
# Stress axis : x y z
#
# Youngs Moduli (GPa) = 23.01457 116.29069 74.09788
#
# Poissons Ratio (x) = -0.05939 0.69083
# Poissons Ratio (y) = -0.01175 0.13276
# Poissons Ratio (z) = 0.21457 0.20835
#
# Static dielectric constant tensor:
#      x y z
#    x 3.747410 0.000000 0.412280 
#    y 0.000000 4.663460 0.000000 
#    z 0.412280 0.000000 4.006450 
# 
# 
# High freq. dielectric constant tensor:
#      x y z
#    x 1.859350 0.000000 0.040900 
#    y 0.000000 1.898460 0.000000 
#    z 0.040900 0.000000 1.878410 
# 
# From -- ./inp_files/223805.got.cif
#   From: 2010.06.25/outbox.cif.g09.slc.cpg/sg15_112_cif.got.tgz:223805.got - 2010.06.28 07:06:18.
