data_PCOD8133946
_publ_section_title
;
Structure prediction by ZEFSAII (Michael W. Deem and Ramdas Pophale) SiO2 
 PCOD8133946
Probable space group: C 2/C
;
_chemical_formula_sum "Si O2"
_cell_formula_units_Z 60
_cell_length_a 24.232157
_cell_length_b 8.841266
_cell_length_c 19.667609
_cell_angle_alpha 90.000000
_cell_angle_beta 138.096146
_cell_angle_gamma 90.000000
_cell_volume 2814.221257
_symmetry_space_group_name_H-M "C 2/C"
_symmetry_group_IT_number 15
_symmetry_cell_setting 'monoclinic'
loop_
_space_group_symop_operation_xyz
x,y,z
-x,y,1/2-z
-x,-y,-z
x,-y,1/2+z
1/2+x,1/2+y,z
1/2-x,1/2+y,1/2-z
1/2-x,1/2-y,-z
1/2+x,1/2-y,1/2+z
loop_
_atom_site_type_symbol
_atom_site_label
_atom_site_fract_x
_atom_site_fract_y
_atom_site_fract_z
Si Si1 0.793736 0.389580 0.360639
Si Si2 0.500000 0.212791 0.750000
Si Si3 0.368833 0.415337 0.481597
Si Si4 0.764459 0.485328 0.540430
Si Si5 0.836416 0.098911 0.319910
Si Si6 0.837120 0.203964 0.652395
Si Si7 0.624083 0.095710 0.966299
Si Si8 0.453882 0.542322 0.303741
O O1 0.828385 0.272203 0.337220
O O2 0.751605 0.536334 0.287263
O O3 0.726009 0.303262 0.342700
O O4 0.868116 0.446784 0.478780
O O5 0.542914 0.103546 0.844610
O O6 0.563253 0.327027 0.768717
O O7 0.281414 0.437695 0.438909
O O8 0.368962 0.490031 0.408587
O O9 0.376447 0.235105 0.482007
O O10 0.448234 0.477187 0.595310
O O11 0.842525 0.382800 0.639027
O O12 0.695833 0.378761 0.444469
O O13 0.798258 0.602584 0.515100
O O14 0.906034 0.097868 0.326389
O O15 0.922980 0.123578 0.751410
#
# Coordination Sequence:
#
# PCOD8133946 Si02
#       8
#     8   4   8   8   8   8   8   8
#     4  10  21  39  60  91 123 163 210 262 303 365
#     4  10  22  44  60  90 126 166 204 254 322 378
#     4  11  21  38  62  90 125 168 204 250 307 374
#     4  10  19  34  61  90 121 156 209 259 303 355
#     4  11  22  39  63  92 125 165 213 254 308 374
#     4   9  18  36  55  89 121 153 207 259 303 358
#     4  10  22  39  62  92 130 162 207 259 309 369
#     4  10  22  39  63  88 126 166 207 250 316 380
#
# _framework density 21.320284999999998
#
# number of rings (size 3 to 8) (size 9 to 14) (size 15 to 20)
#    0.000    1.867    1.333    3.200    0.000    3.200 
#    2.400    2.667    0.000    0.000    0.000    0.000 
#    0.000    0.000    0.000    0.000    0.000    0.000 
#
# Total GULP energy -371786.254899 kJ/mol
# GULP energy per Si atom -12392.875163 kJ/mol
# Density = 2.127176 g / cm^3
# Si number density = 21.320285 Si / 1000 Ang^3
#
#
#
# Elastic Constant Matrix: (Units=GPa)
#
#
# Indices 1 2 3 4 5 6 
#
# 1 88.7602 37.9858 23.0842 0.0000 -12.7986 0.0000
# 2 37.9858 78.3398 48.5648 0.0000 -0.2070 0.0000
# 3 23.0842 48.5648 97.3112 0.0000 -5.0828 0.0000
# 4 0.0000 0.0000 0.0000 35.3209 0.0000 -5.0973
# 5 -12.7986 -0.2070 -5.0828 0.0000 29.7966 0.0000
# 6 0.0000 0.0000 0.0000 -5.0973 0.0000 25.1023
#
#
#
# Elastic Compliance Matrix: (Units=1/GPa)
#
#
# Indices 1 2 3 4 5 6 
#
# 1 0.015425 -0.007833 0.000598 0.000000 0.006673 0.000000
# 2 -0.007833 0.022524 -0.009636 0.000000 -0.004852 0.000000
# 3 0.000598 -0.009636 0.015088 0.000000 0.002764 0.000000
# 4 0.000000 0.000000 0.000000 0.029167 0.000000 0.005923
# 5 0.006673 -0.004852 0.002764 0.000000 0.036865 0.000000
# 6 0.000000 0.000000 0.000000 0.005923 0.000000 0.041040
#
#
# Mechanical properties :
#
#
# Convention : Reuss Voigt Hill
#
# Bulk Modulus (GPa) = 51.82507 53.74232 52.78369
# Shear Modulus (GPa) = 24.96499 28.36239 26.66369
#
# Velocity S-wave (km/s) = 3.42563 3.65129 3.54025
# Velocity P-wave (km/s) = 6.32512 6.56031 6.44379
#
# Compressibility (1/GPa) = 0.01929568
#
# Stress axis : x y z
#
# Youngs Moduli (GPa) = 64.82985 44.39754 66.27867
#
# Poissons Ratio (x) = 0.34775 -0.03967
# Poissons Ratio (y) = 0.50780 0.63867
# Poissons Ratio (z) = -0.03880 0.42782
#
# Static dielectric constant tensor:
#      x y z
#    x 3.719580 0.000000 -0.212320 
#    y 0.000000 3.881340 0.000000 
#    z -0.212320 0.000000 3.932210 
# 
# 
# High freq. dielectric constant tensor:
#      x y z
#    x 1.825890 0.000000 -0.019870 
#    y 0.000000 1.830050 0.000000 
#    z -0.019870 0.000000 1.831810 
# 
# From -- ./inp_files/257217.got.cif
#   From: 2010.06.25/outbox.cif.g09.slc.cpg/sg15_129_cif.got.tgz:257217.got - 2010.06.28 07:06:18.
