data_PCOD8133890
_publ_section_title
;
Structure prediction by ZEFSAII (Michael W. Deem and Ramdas Pophale) SiO2 
 PCOD8133890
Probable space group: C 2/C
;
_chemical_formula_sum "Si O2"
_cell_formula_units_Z 56
_cell_length_a 14.224284
_cell_length_b 16.424931
_cell_length_c 25.970929
_cell_angle_alpha 90.000000
_cell_angle_beta 28.391644
_cell_angle_gamma 90.000000
_cell_volume 2885.148989
_symmetry_space_group_name_H-M "C 2/C"
_symmetry_group_IT_number 15
_symmetry_cell_setting 'monoclinic'
loop_
_space_group_symop_operation_xyz
x,y,z
-x,y,1/2-z
-x,-y,-z
x,-y,1/2+z
1/2+x,1/2+y,z
1/2-x,1/2+y,1/2-z
1/2-x,1/2-y,-z
1/2+x,1/2-y,1/2+z
loop_
_atom_site_type_symbol
_atom_site_label
_atom_site_fract_x
_atom_site_fract_y
_atom_site_fract_z
Si Si1 0.278414 0.097653 0.369455
Si Si2 0.101001 0.195651 0.966231
Si Si3 0.236891 0.433900 0.185588
Si Si4 0.447714 0.874624 0.492637
Si Si5 0.152546 0.385987 0.072093
Si Si6 0.629880 0.454092 0.047393
Si Si7 0.207985 0.034830 0.623460
O O1 0.500000 0.128571 0.250000
O O2 0.243258 0.096701 0.448181
O O3 0.120560 0.159164 0.419653
O O4 0.241668 0.006927 0.365654
O O5 0.212409 0.150885 0.866178
O O6 0.237378 0.186586 0.951324
O O7 0.093206 0.291262 0.956810
O O8 0.392953 0.446418 0.156494
O O9 0.015509 0.430650 0.313055
O O10 0.445404 0.853493 0.433062
O O11 0.663385 0.905968 0.403446
O O12 0.289840 0.942988 0.583649
O O13 0.321862 0.451074 0.979441
O O14 0.697172 0.424951 0.071630
O O15 0.000000 0.028583 0.750000
#
# Coordination Sequence:
#
# PCOD8133890 Si02
#       7
#     8   8   8   8   8   8   8
#     4  11  19  35  58  92 118 149 187 229 296 349
#     4  11  21  36  55  87 125 146 183 243 293 340
#     4  11  19  34  60  88 119 149 186 233 293 345
#     4  10  24  40  58  84 117 153 196 240 282 334
#     4  11  19  35  60  85 115 153 190 237 286 339
#     4  10  19  34  59  87 111 147 194 239 278 337
#     4  10  22  43  62  78 109 157 205 237 274 340
#
# _framework density 19.409742999999999
#
# number of rings (size 3 to 8) (size 9 to 14) (size 15 to 20)
#    0.000    1.429    4.286    2.571    0.000    1.714 
#    0.000    4.286    0.000    0.000    0.000    0.000 
#    0.000    0.000    0.000    0.000    0.000    0.000 
#
# Total GULP energy -347196.415605 kJ/mol
# GULP energy per Si atom -12399.871986 kJ/mol
# Density = 1.936557 g / cm^3
# Si number density = 19.409743 Si / 1000 Ang^3
#
#
#
# Elastic Constant Matrix: (Units=GPa)
#
#
# Indices 1 2 3 4 5 6 
#
# 1 81.7754 23.0767 3.2782 0.0053 -25.6205 0.0157
# 2 23.0767 80.8653 -3.7568 0.0235 -12.4507 0.0098
# 3 3.2782 -3.7568 44.4675 0.0425 -26.3901 0.0512
# 4 0.0053 0.0235 0.0425 8.6669 -0.0122 2.3117
# 5 -25.6205 -12.4507 -26.3901 -0.0122 29.2785 -0.0019
# 6 0.0157 0.0098 0.0512 2.3117 -0.0019 16.0273
#
#
#
# Elastic Compliance Matrix: (Units=1/GPa)
#
#
# Indices 1 2 3 4 5 6 
#
# 1 0.024815 0.000832 0.024379 -0.000051 0.044043 -0.000090
# 2 0.000832 0.015479 0.012009 -0.000066 0.018135 -0.000037
# 3 0.024379 0.012009 0.080411 -0.000238 0.098918 -0.000242
# 4 -0.000051 -0.000066 -0.000238 0.119998 -0.000238 -0.017307
# 5 0.044043 0.018135 0.098918 -0.000238 0.169566 -0.000316
# 6 -0.000090 -0.000037 -0.000242 -0.017307 -0.000316 0.064890
#
#
# Mechanical properties :
#
#
# Convention : Reuss Voigt Hill
#
# Bulk Modulus (GPa) = 5.12439 28.03382 16.57910
# Shear Modulus (GPa) = 10.73496 23.09523 16.91509
#
# Velocity S-wave (km/s) = 2.35430 3.45320 2.95528
# Velocity P-wave (km/s) = 3.16798 5.51126 4.49500
#
# Compressibility (1/GPa) = 0.19514536
#
# Stress axis : x y z
#
# Youngs Moduli (GPa) = 40.29793 64.60429 12.43609
#
# Poissons Ratio (x) = -0.05376 -0.30318
# Poissons Ratio (y) = -0.03354 -0.14934
# Poissons Ratio (z) = -0.98242 -0.77583
#
# Static dielectric constant tensor:
#      x y z
#    x 3.911840 0.000000 -0.135520 
#    y 0.000000 3.216970 0.000000 
#    z -0.135520 0.000000 3.457810 
# 
# 
# High freq. dielectric constant tensor:
#      x y z
#    x 1.772170 0.000000 -0.014540 
#    y 0.000000 1.728220 0.000000 
#    z -0.014540 0.000000 1.750650 
# 
# From -- ./inp_files/296544.got.cif
#   From: 2010.06.25/outbox.cif.g09.slc.cpg/sg15_149_cif.got.tgz:296544.got - 2010.06.28 07:06:18.
