data_PCOD8133122
_publ_section_title
;
Structure prediction by ZEFSAII (Michael W. Deem and Ramdas Pophale) SiO2 
 PCOD8133122
Probable space group: C 2/C
;
_chemical_formula_sum "Si O2"
_cell_formula_units_Z 64
_cell_length_a 29.763600
_cell_length_b 8.930726
_cell_length_c 15.049146
_cell_angle_alpha 90.000000
_cell_angle_beta 122.639623
_cell_angle_gamma 90.000000
_cell_volume 3368.505264
_symmetry_space_group_name_H-M "C 2/C"
_symmetry_group_IT_number 15
_symmetry_cell_setting 'monoclinic'
loop_
_space_group_symop_operation_xyz
x,y,z
-x,y,1/2-z
-x,-y,-z
x,-y,1/2+z
1/2+x,1/2+y,z
1/2-x,1/2+y,1/2-z
1/2-x,1/2-y,-z
1/2+x,1/2-y,1/2+z
loop_
_atom_site_type_symbol
_atom_site_label
_atom_site_fract_x
_atom_site_fract_y
_atom_site_fract_z
Si Si1 0.786149 0.597169 0.120957
Si Si2 0.741656 0.111915 0.057780
Si Si3 0.825203 0.855120 0.935041
Si Si4 0.938722 0.422637 0.708140
Si Si5 0.369274 0.651840 0.662919
Si Si6 0.351661 0.400931 0.774022
Si Si7 0.618926 0.069934 0.700218
Si Si8 0.140935 0.512834 0.529475
O O1 0.738404 0.624250 0.138139
O O2 0.820527 0.745633 0.143856
O O3 0.823249 0.465919 0.197570
O O4 0.761128 0.542999 0.000708
O O5 0.791096 0.111182 0.176619
O O6 0.686501 0.112968 0.056968
O O7 0.750000 0.250000 0.000000
O O8 0.850115 0.940695 0.877044
O O9 0.834395 0.678042 0.944244
O O10 0.851816 0.927109 0.051701
O O11 0.922270 0.249267 0.702998
O O12 0.928880 0.507156 0.790600
O O13 0.904228 0.501186 0.594028
O O14 0.000000 0.432948 0.750000
O O15 0.382603 0.527626 0.751226
O O16 0.385482 0.248760 0.803178
O O17 0.614771 0.990842 0.598867
#
# Coordination Sequence:
#
# PCOD8133122 Si02
#       8
#     8   8   8   8   8   8   8   8
#     4  11  18  33  51  77 115 156 183 213 255 325
#     4  12  19  32  52  83 121 153 185 220 257 325
#     4  10  19  32  52  76 110 155 184 209 269 325
#     4  10  21  41  62  77  99 140 189 237 289 340
#     4  10  20  37  56  76 108 145 189 226 271 338
#     4  11  21  32  53  81 115 148 178 221 267 326
#     4  10  21  37  54  83 114 141 185 229 277 332
#     4  10  20  36  56  80 113 150 181 229 280 327
#
# _framework density 18.999525999999999
#
# number of rings (size 3 to 8) (size 9 to 14) (size 15 to 20)
#    0.000    1.500    6.250    1.875    0.000    1.500 
#    4.500    0.625    0.000    6.750    0.000    0.000 
#    0.000    0.000    0.000    0.000    0.000    0.000 
#
# Total GULP energy -396695.265746 kJ/mol
# GULP energy per Si atom -12396.727055 kJ/mol
# Density = 1.895628 g / cm^3
# Si number density = 18.999526 Si / 1000 Ang^3
#
#
#
# Elastic Constant Matrix: (Units=GPa)
#
#
# Indices 1 2 3 4 5 6 
#
# 1 138.4080 33.2387 45.4466 0.0000 -11.8608 0.0000
# 2 33.2387 54.7411 21.6692 0.0000 -12.2544 0.0000
# 3 45.4466 21.6692 67.7689 0.0000 -28.8275 0.0000
# 4 0.0000 0.0000 0.0000 21.9888 0.0000 -12.0099
# 5 -11.8608 -12.2544 -28.8275 0.0000 36.3320 0.0000
# 6 0.0000 0.0000 0.0000 -12.0099 0.0000 24.0449
#
#
#
# Elastic Compliance Matrix: (Units=1/GPa)
#
#
# Indices 1 2 3 4 5 6 
#
# 1 0.010259 -0.004250 -0.007104 0.000000 -0.003721 0.000000
# 2 -0.004250 0.022845 -0.002667 0.000000 0.004202 0.000000
# 3 -0.007104 -0.002667 0.028685 0.000000 0.019542 0.000000
# 4 0.000000 0.000000 0.000000 0.062538 0.000000 0.031236
# 5 -0.003721 0.004202 0.019542 0.000000 0.043232 0.000000
# 6 0.000000 0.000000 0.000000 0.031236 0.000000 0.057191
#
#
# Mechanical properties :
#
#
# Convention : Reuss Voigt Hill
#
# Bulk Modulus (GPa) = 29.63209 51.29190 40.46199
# Shear Modulus (GPa) = 18.93637 27.17739 23.05688
#
# Velocity S-wave (km/s) = 3.16044 3.78620 3.48738
# Velocity P-wave (km/s) = 5.38033 6.79476 6.12849
#
# Compressibility (1/GPa) = 0.03374720
#
# Stress axis : x y z
#
# Youngs Moduli (GPa) = 97.47112 43.77328 34.86106
#
# Poissons Ratio (x) = 0.18606 0.24765
# Poissons Ratio (y) = 0.41430 0.09298
# Poissons Ratio (z) = 0.69241 0.11674
#
# Static dielectric constant tensor:
#      x y z
#    x 3.371690 0.000000 -0.418580 
#    y 0.000000 3.380020 0.000000 
#    z -0.418580 0.000000 3.683630 
# 
# 
# High freq. dielectric constant tensor:
#      x y z
#    x 1.719170 0.000000 -0.030910 
#    y 0.000000 1.721610 0.000000 
#    z -0.030910 0.000000 1.734560 
# 
# From -- ./inp_files/180842.got.cif
#   From: 2010.06.25/outbox.cif.g09.slc.cpg/sg15_91_cif.got.tgz:180842.got - 2010.06.28 07:06:18.
