data_PCOD8133951
_publ_section_title
;
Structure prediction by ZEFSAII (Michael W. Deem and Ramdas Pophale) SiO2 
 PCOD8133951
Probable space group: C 2/C
;
_chemical_formula_sum "Si O2"
_cell_formula_units_Z 40
_cell_length_a 9.752402
_cell_length_b 28.930064
_cell_length_c 10.998181
_cell_angle_alpha 90.000000
_cell_angle_beta 42.281356
_cell_angle_gamma 90.000000
_cell_volume 2087.611270
_symmetry_space_group_name_H-M "C 2/C"
_symmetry_group_IT_number 15
_symmetry_cell_setting 'monoclinic'
loop_
_space_group_symop_operation_xyz
x,y,z
-x,y,1/2-z
-x,-y,-z
x,-y,1/2+z
1/2+x,1/2+y,z
1/2-x,1/2+y,1/2-z
1/2-x,1/2-y,-z
1/2+x,1/2-y,1/2+z
loop_
_atom_site_type_symbol
_atom_site_label
_atom_site_fract_x
_atom_site_fract_y
_atom_site_fract_z
Si Si1 0.609543 0.003432 0.557611
Si Si2 0.805785 0.200302 0.119154
Si Si3 0.500000 0.909231 0.250000
Si Si4 0.000000 0.945025 0.250000
Si Si5 0.656694 0.632830 0.820784
Si Si6 0.404225 0.798259 0.999600
O O1 0.500000 0.981035 0.750000
O O2 0.825662 0.978892 0.411194
O O3 0.500000 0.000000 0.500000
O O4 0.619908 0.058684 0.573461
O O5 0.688338 0.207946 0.071674
O O6 0.641986 0.186781 0.331204
O O7 0.901023 0.251146 0.081754
O O8 0.974711 0.160507 0.004670
O O9 0.672436 0.877014 0.192394
O O10 0.926754 0.914084 0.184812
O O11 0.763559 0.662559 0.647629
#
# Coordination Sequence:
#
# PCOD8133951 Si02
#       6
#     8   8   4   4   8   8
#     4  10  23  45  68  96 131 168 212 278 343 389
#     4  10  19  34  62  93 125 165 209 265 323 366
#     4  10  26  46  62  90 138 162 212 282 328 394
#     4  12  22  40  74  92 122 170 224 266 332 396
#     4  12  22  40  61  97 122 167 218 267 313 395
#     4  10  19  34  61  94 125 161 210 269 313 372
#
# _framework density 19.160654999999998
#
# number of rings (size 3 to 8) (size 9 to 14) (size 15 to 20)
#    0.600    0.800    6.000    0.000    0.000    4.800 
#    3.600    1.000    0.000    0.000    0.000    0.000 
#    0.000    0.000    0.000    0.000    0.000    0.000 
#
# Total GULP energy -247814.722535 kJ/mol
# GULP energy per Si atom -12390.736127 kJ/mol
# Density = 1.911704 g / cm^3
# Si number density = 19.160655 Si / 1000 Ang^3
#
#
#
# Elastic Constant Matrix: (Units=GPa)
#
#
# Indices 1 2 3 4 5 6 
#
# 1 73.9031 6.6538 25.0980 0.0000 -11.1711 0.0000
# 2 6.6538 69.2743 45.2467 0.0000 -19.5105 0.0000
# 3 25.0980 45.2467 153.2176 0.0000 -27.0523 0.0000
# 4 0.0000 0.0000 0.0000 -4.0062 0.0000 -34.3288
# 5 -11.1711 -19.5105 -27.0523 0.0000 30.3800 0.0000
# 6 0.0000 0.0000 0.0000 -34.3288 0.0000 12.9511
#
#
#
# Elastic Compliance Matrix: (Units=1/GPa)
#
#
# Indices 1 2 3 4 5 6 
#
# 1 0.014764 0.001103 -0.001970 0.000000 0.004383 0.000000
# 2 0.001103 0.019796 -0.004402 0.000000 0.009198 0.000000
# 3 -0.001970 -0.004402 0.008926 0.000000 0.004396 0.000000
# 4 0.000000 0.000000 0.000000 -0.010526 0.000000 -0.027902
# 5 0.004383 0.009198 0.004396 0.000000 0.044350 0.000000
# 6 0.000000 0.000000 0.000000 -0.027902 0.000000 0.003256
#
#
# Mechanical properties :
#
#
# Convention : Reuss Voigt Hill
#
# Bulk Modulus (GPa) = 30.35297 50.04357 40.19827
# Shear Modulus (GPa) = 48.97846 22.49139 35.73493
#
# Velocity S-wave (km/s) = 5.06137 3.42984 4.32327
# Velocity P-wave (km/s) = 7.07335 6.46990 6.77835
#
# Compressibility (1/GPa) = 0.03294570
#
# Stress axis : x y z
#
# Youngs Moduli (GPa) = 67.73443 50.51644 112.03589
#
# Poissons Ratio (x) = -0.05573 0.22075
# Poissons Ratio (y) = -0.07473 0.49323
# Poissons Ratio (z) = 0.13346 0.22240
#
# Static dielectric constant tensor:
#      x y z
#    x 3.229440 0.000000 -0.219470 
#    y 0.000000 3.804090 0.000000 
#    z -0.219470 0.000000 3.655520 
# 
# 
# High freq. dielectric constant tensor:
#      x y z
#    x 1.718910 0.000000 -0.012820 
#    y 0.000000 1.747890 0.000000 
#    z -0.012820 0.000000 1.754190 
# 
# From -- ./inp_files/82009.got.cif
#   From: 2010.06.25/outbox.cif.g09.slc.cpg/sg15_42_cif.got.tgz:82009.got - 2010.06.28 07:06:18.
