data_PCOD8133163
_publ_section_title
;
Structure prediction by ZEFSAII (Michael W. Deem and Ramdas Pophale) SiO2 
 PCOD8133163
Probable space group: C 2/C
;
_chemical_formula_sum "Si O2"
_cell_formula_units_Z 56
_cell_length_a 14.651550
_cell_length_b 17.050091
_cell_length_c 12.383483
_cell_angle_alpha 90.000000
_cell_angle_beta 113.981363
_cell_angle_gamma 90.000000
_cell_volume 2826.481295
_symmetry_space_group_name_H-M "C 2/C"
_symmetry_group_IT_number 15
_symmetry_cell_setting 'monoclinic'
loop_
_space_group_symop_operation_xyz
x,y,z
-x,y,1/2-z
-x,-y,-z
x,-y,1/2+z
1/2+x,1/2+y,z
1/2-x,1/2+y,1/2-z
1/2-x,1/2-y,-z
1/2+x,1/2-y,1/2+z
loop_
_atom_site_type_symbol
_atom_site_label
_atom_site_fract_x
_atom_site_fract_y
_atom_site_fract_z
Si Si1 0.266851 0.981323 0.762971
Si Si2 0.106521 0.268135 0.752053
Si Si3 0.186256 0.886184 0.354767
Si Si4 0.387296 0.101142 0.685952
Si Si5 0.111977 0.686556 0.605528
Si Si6 0.804088 0.844714 0.907996
Si Si7 0.900893 0.630471 0.451072
O O1 0.201758 0.909345 0.688186
O O2 0.362006 0.949919 0.877700
O O3 0.187714 0.028965 0.798900
O O4 0.310327 0.033472 0.685899
O O5 0.112815 0.173485 0.755815
O O6 0.194991 0.303136 0.870397
O O7 0.129407 0.296489 0.640676
O O8 0.000000 0.296287 0.750000
O O9 0.297941 0.854962 0.409594
O O10 0.156596 0.888862 0.466207
O O11 0.500000 0.066816 0.750000
O O12 0.379129 0.176286 0.760750
O O13 0.357594 0.132388 0.552328
O O14 0.111827 0.779586 0.581139
O O15 0.019761 0.637070 0.514849
#
# Coordination Sequence:
#
# PCOD8133163 Si02
#       7
#     8   8   8   8   8   8   8
#     4  10  21  32  49  77 106 136 167 200 252 312
#     4  10  19  32  54  78  97 130 179 215 243 291
#     4  10  19  33  50  74 106 136 167 207 255 299
#     4   9  19  32  48  74 106 134 162 207 258 300
#     4   9  18  33  52  74 102 134 170 210 253 297
#     4  10  19  33  52  74 103 135 167 211 258 294
#     4  10  19  33  53  77 102 133 171 209 249 299
#
# _framework density 19.812619000000002
#
# number of rings (size 3 to 8) (size 9 to 14) (size 15 to 20)
#    0.000    2.286    0.000    4.286    0.000    8.571 
#    0.000   12.857    0.000    6.000    0.000    0.000 
#    0.000    0.000    0.000    0.000    0.000    0.000 
#
# Total GULP energy -346941.142961 kJ/mol
# GULP energy per Si atom -12390.755106 kJ/mol
# Density = 1.976752 g / cm^3
# Si number density = 19.812619 Si / 1000 Ang^3
#
#
#
# Elastic Constant Matrix: (Units=GPa)
#
#
# Indices 1 2 3 4 5 6 
#
# 1 30.5961 21.4097 19.5742 0.0000 -10.0380 0.0000
# 2 21.4097 103.6684 36.2416 0.0000 -10.1329 0.0000
# 3 19.5742 36.2416 105.6562 0.0000 -17.9827 0.0000
# 4 0.0000 0.0000 0.0000 19.1950 0.0000 -1.3903
# 5 -10.0380 -10.1329 -17.9827 0.0000 20.5111 0.0000
# 6 0.0000 0.0000 0.0000 -1.3903 0.0000 28.3635
#
#
#
# Elastic Compliance Matrix: (Units=1/GPa)
#
#
# Indices 1 2 3 4 5 6 
#
# 1 0.044500 -0.006489 -0.003359 0.000000 0.015628 0.000000
# 2 -0.006489 0.012016 -0.002879 0.000000 0.000236 0.000000
# 3 -0.003359 -0.002879 0.012404 0.000000 0.007808 0.000000
# 4 0.000000 0.000000 0.000000 0.052283 0.000000 0.002563
# 5 0.015628 0.000236 0.007808 0.000000 0.063365 0.000000
# 6 0.000000 0.000000 0.000000 0.002563 0.000000 0.035382
#
#
# Mechanical properties :
#
#
# Convention : Reuss Voigt Hill
#
# Bulk Modulus (GPa) = 23.00618 43.81907 33.41262
# Shear Modulus (GPa) = 19.23879 24.46025 21.84952
#
# Velocity S-wave (km/s) = 3.11953 3.51747 3.32446
# Velocity P-wave (km/s) = 4.96108 6.21784 5.62467
#
# Compressibility (1/GPa) = 0.04346659
#
# Stress axis : x y z
#
# Youngs Moduli (GPa) = 22.47171 83.22353 80.62224
#
# Poissons Ratio (x) = 0.54000 0.27079
# Poissons Ratio (y) = 0.14581 0.23214
# Poissons Ratio (z) = 0.07548 0.23963
#
# Static dielectric constant tensor:
#      x y z
#    x 3.446640 0.000000 -0.128240 
#    y 0.000000 3.763170 0.000000 
#    z -0.128240 0.000000 3.770070 
# 
# 
# High freq. dielectric constant tensor:
#      x y z
#    x 1.737950 0.000000 -0.010040 
#    y 0.000000 1.758290 0.000000 
#    z -0.010040 0.000000 1.781550 
# 
# From -- ./inp_files/98393.got.cif
#   From: 2010.06.25/outbox.cif.g09.slc.cpg/sg15_50_cif.got.tgz:98393.got - 2010.06.28 07:06:18.
