data_PCOD8133709
_publ_section_title
;
Structure prediction by ZEFSAII (Michael W. Deem and Ramdas Pophale) SiO2 
 PCOD8133709
Probable space group: C 2/C
;
_chemical_formula_sum "Si O2"
_cell_formula_units_Z 40
_cell_length_a 26.023747
_cell_length_b 12.219358
_cell_length_c 10.635454
_cell_angle_alpha 90.000000
_cell_angle_beta 141.329997
_cell_angle_gamma 90.000000
_cell_volume 2113.191667
_symmetry_space_group_name_H-M "C 2/C"
_symmetry_group_IT_number 15
_symmetry_cell_setting 'monoclinic'
loop_
_space_group_symop_operation_xyz
x,y,z
-x,y,1/2-z
-x,-y,-z
x,-y,1/2+z
1/2+x,1/2+y,z
1/2-x,1/2+y,1/2-z
1/2-x,1/2-y,-z
1/2+x,1/2-y,1/2+z
loop_
_atom_site_type_symbol
_atom_site_label
_atom_site_fract_x
_atom_site_fract_y
_atom_site_fract_z
Si Si1 0.421765 0.321507 0.933850
Si Si2 0.360978 0.083391 0.798945
Si Si3 0.853268 0.436121 0.565234
Si Si4 0.395710 0.309925 0.174914
Si Si5 0.799192 0.995489 0.602414
O O1 0.383528 0.208010 0.812997
O O2 0.377718 0.421410 0.780476
O O3 0.408874 0.337721 0.055730
O O4 0.518457 0.323294 0.085832
O O5 0.261593 0.069931 0.608670
O O6 0.400801 0.008914 0.762993
O O7 0.391308 0.048254 0.997692
O O8 0.861998 0.311957 0.627055
O O9 0.756609 0.472002 0.382146
O O10 0.328163 0.391427 0.098427
#
# Coordination Sequence:
#
# PCOD8133709 Si02
#       5
#     8   8   8   8   8
#     4  10  20  35  54  79 112 144 176 221 275 320
#     4   9  20  35  57  82 108 142 181 222 266 317
#     4   9  20  35  57  82 108 142 181 222 266 317
#     4  10  20  35  54  79 112 144 176 221 275 320
#     4  10  19  34  55  80 102 144 182 220 259 316
#
# _framework density 18.928712999999998
#
# number of rings (size 3 to 8) (size 9 to 14) (size 15 to 20)
#    1.200    1.200    0.000    3.000    0.000    0.800 
#    0.000    2.000    0.000    4.800    0.000    0.000 
#    0.000    0.000    0.000    0.000    0.000    0.000 
#
# Total GULP energy -247784.379403 kJ/mol
# GULP energy per Si atom -12389.218970 kJ/mol
# Density = 1.888563 g / cm^3
# Si number density = 18.928713 Si / 1000 Ang^3
#
#
#
# Elastic Constant Matrix: (Units=GPa)
#
#
# Indices 1 2 3 4 5 6 
#
# 1 28.2212 8.7966 1.7100 0.0000 -7.9678 0.0000
# 2 8.7966 87.0599 27.6287 0.0000 -17.3877 0.0000
# 3 1.7100 27.6287 68.6617 0.0000 -4.8468 0.0000
# 4 0.0000 0.0000 0.0000 21.0329 0.0000 -10.4349
# 5 -7.9678 -17.3877 -4.8468 0.0000 20.8007 0.0000
# 6 0.0000 0.0000 0.0000 -10.4349 0.0000 17.3345
#
#
#
# Elastic Compliance Matrix: (Units=1/GPa)
#
#
# Indices 1 2 3 4 5 6 
#
# 1 0.039850 -0.001356 0.000560 0.000000 0.014262 0.000000
# 2 -0.001356 0.015600 -0.005449 0.000000 0.011251 0.000000
# 3 0.000560 -0.005449 0.016711 0.000000 -0.000447 0.000000
# 4 0.000000 0.000000 0.000000 0.067790 0.000000 0.040808
# 5 0.014262 0.011251 -0.000447 0.000000 0.062839 0.000000
# 6 0.000000 0.000000 0.000000 0.040808 0.000000 0.082254
#
#
# Mechanical properties :
#
#
# Convention : Reuss Voigt Hill
#
# Bulk Modulus (GPa) = 16.75871 28.91262 22.83567
# Shear Modulus (GPa) = 15.75180 21.55411 18.65296
#
# Velocity S-wave (km/s) = 2.88786 3.37812 3.14256
# Velocity P-wave (km/s) = 4.47129 5.52479 5.02572
#
# Compressibility (1/GPa) = 0.05967045
#
# Stress axis : x y z
#
# Youngs Moduli (GPa) = 25.09436 64.10381 59.83946
#
# Poissons Ratio (x) = 0.08691 -0.03350
# Poissons Ratio (y) = 0.03402 0.32608
# Poissons Ratio (z) = -0.01405 0.34931
#
# Static dielectric constant tensor:
#      x y z
#    x 3.218480 0.000000 0.046710 
#    y 0.000000 3.369680 0.000000 
#    z 0.046710 0.000000 3.451570 
# 
# 
# High freq. dielectric constant tensor:
#      x y z
#    x 1.716770 0.000000 0.004120 
#    y 0.000000 1.741380 0.000000 
#    z 0.004120 0.000000 1.729380 
# 
# From -- ./inp_files/102853.got.cif
#   From: 2010.06.25/outbox.cif.g09.slc.cpg/sg15_52_cif.got.tgz:102853.got - 2010.06.28 07:06:18.
