data_PCOD8133782
_publ_section_title
;
Structure prediction by ZEFSAII (Michael W. Deem and Ramdas Pophale) SiO2 
 PCOD8133782
Probable space group: C 2/C
;
_chemical_formula_sum "Si O2"
_cell_formula_units_Z 64
_cell_length_a 12.709774
_cell_length_b 16.839884
_cell_length_c 30.295037
_cell_angle_alpha 90.000000
_cell_angle_beta 32.695966
_cell_angle_gamma 90.000000
_cell_volume 3502.577655
_symmetry_space_group_name_H-M "C 2/C"
_symmetry_group_IT_number 15
_symmetry_cell_setting 'monoclinic'
loop_
_space_group_symop_operation_xyz
x,y,z
-x,y,1/2-z
-x,-y,-z
x,-y,1/2+z
1/2+x,1/2+y,z
1/2-x,1/2+y,1/2-z
1/2-x,1/2-y,-z
1/2+x,1/2-y,1/2+z
loop_
_atom_site_type_symbol
_atom_site_label
_atom_site_fract_x
_atom_site_fract_y
_atom_site_fract_z
Si Si1 0.299649 0.527276 0.592480
Si Si2 0.081834 0.468368 0.824886
Si Si3 0.719065 0.179752 0.675815
Si Si4 0.706650 0.623081 0.754625
Si Si5 0.786669 0.595039 0.307793
Si Si6 0.233694 0.763147 0.168669
Si Si7 0.808246 0.195789 0.910068
Si Si8 0.013956 0.318332 0.590468
O O1 0.500000 0.500000 0.500000
O O2 0.283677 0.620106 0.612931
O O3 0.305404 0.480390 0.636279
O O4 0.121325 0.502091 0.623526
O O5 0.221766 0.539621 0.790584
O O6 0.208938 0.419189 0.745449
O O7 0.055873 0.407417 0.874476
O O8 0.500000 0.210955 0.750000
O O9 0.715521 0.133831 0.723494
O O10 0.854183 0.257806 0.627237
O O11 0.800716 0.684823 0.686609
O O12 0.472940 0.630385 0.840726
O O13 0.670541 0.676472 0.357940
O O14 0.000000 0.609532 0.250000
O O15 0.311263 0.791742 0.093229
O O16 0.000000 0.762566 0.250000
O O17 0.901856 0.279431 0.894050
O O18 0.674835 0.164853 0.996544
#
# Coordination Sequence:
#
# PCOD8133782 Si02
#       8
#     8   8   8   8   8   8   8   8
#     4  11  22  31  56  86 118 145 184 244 305 339
#     4  11  20  35  51  85 114 152 191 239 281 356
#     4  11  20  39  55  85 122 161 187 239 305 365
#     4  10  19  34  57  78 114 151 194 234 295 343
#     4   9  16  30  51  75 105 133 179 229 277 333
#     4   9  17  32  55  80 103 146 191 235 281 345
#     4   9  19  36  57  87 110 147 190 252 285 341
#     4  10  22  33  61  87 119 148 196 243 298 350
#
# _framework density 18.272257
#
# number of rings (size 3 to 8) (size 9 to 14) (size 15 to 20)
#    0.000    2.000    2.500    4.125    7.000    0.000 
#    0.000    2.500    0.000    4.500    0.000    0.000 
#    0.000    0.000    0.000    0.000    0.000    0.000 
#
# Total GULP energy -396453.231698 kJ/mol
# GULP energy per Si atom -12389.163491 kJ/mol
# Density = 1.823067 g / cm^3
# Si number density = 18.272257 Si / 1000 Ang^3
#
#
#
# Elastic Constant Matrix: (Units=GPa)
#
#
# Indices 1 2 3 4 5 6 
#
# 1 46.8533 35.2939 30.1741 0.0013 2.8166 0.0063
# 2 35.2939 125.0437 47.0110 -0.0020 -3.4144 0.0016
# 3 30.1741 47.0110 92.7955 -0.0061 1.2995 0.0074
# 4 0.0013 -0.0020 -0.0061 14.7303 -0.0014 -18.9319
# 5 2.8166 -3.4144 1.2995 -0.0014 19.8957 -0.0074
# 6 0.0063 0.0016 0.0074 -18.9319 -0.0074 -10.0027
#
#
#
# Elastic Compliance Matrix: (Units=1/GPa)
#
#
# Indices 1 2 3 4 5 6 
#
# 1 0.030705 -0.006269 -0.006738 0.000004 -0.004983 0.000009
# 2 -0.006269 0.011241 -0.003699 -0.000002 0.003058 -0.000003
# 3 -0.006738 -0.003699 0.014851 0.000004 -0.000651 -0.000001
# 4 0.000004 -0.000002 0.000004 0.019778 -0.000014 -0.037433
# 5 -0.004983 0.003058 -0.000651 -0.000014 0.051535 -0.000015
# 6 0.000009 -0.000003 -0.000001 -0.037433 -0.000015 -0.029125
#
#
# Mechanical properties :
#
#
# Convention : Reuss Voigt Hill
#
# Bulk Modulus (GPa) = 42.76603 54.40562 48.58583
# Shear Modulus (GPa) = 35.66556 15.07223 25.36889
#
# Velocity S-wave (km/s) = 4.42282 2.87517 3.73014
# Velocity P-wave (km/s) = 7.03829 6.39232 6.72307
#
# Compressibility (1/GPa) = 0.02338304
#
# Stress axis : x y z
#
# Youngs Moduli (GPa) = 32.56809 88.96096 67.33758
#
# Poissons Ratio (x) = 0.55772 0.45375
# Poissons Ratio (y) = 0.20418 0.24908
# Poissons Ratio (z) = 0.21946 0.32907
#
# Static dielectric constant tensor:
#      x y z
#    x 3.172280 0.000080 0.056730 
#    y 0.000080 3.937300 -0.000060 
#    z 0.056730 -0.000060 3.223080 
# 
# 
# High freq. dielectric constant tensor:
#      x y z
#    x 1.675950 0.000000 0.022400 
#    y 0.000000 1.706880 0.000000 
#    z 0.022400 0.000000 1.703530 
# 
# From -- ./inp_files/314268.got.cif
#   From: 2010.06.25/outbox.cif.g09.slc.cpg/sg15_158_cif.got.tgz:314268.got - 2010.06.28 07:06:18.
