data_PCOD8133929
_publ_section_title
;
Structure prediction by ZEFSAII (Michael W. Deem and Ramdas Pophale) SiO2 
 PCOD8133929
Probable space group: C 2/C
;
_chemical_formula_sum "Si O2"
_cell_formula_units_Z 52
_cell_length_a 26.731854
_cell_length_b 13.705945
_cell_length_c 12.792071
_cell_angle_alpha 90.000000
_cell_angle_beta 34.611764
_cell_angle_gamma 90.000000
_cell_volume 2662.177466
_symmetry_space_group_name_H-M "C 2/C"
_symmetry_group_IT_number 15
_symmetry_cell_setting 'monoclinic'
loop_
_space_group_symop_operation_xyz
x,y,z
-x,y,1/2-z
-x,-y,-z
x,-y,1/2+z
1/2+x,1/2+y,z
1/2-x,1/2+y,1/2-z
1/2-x,1/2-y,-z
1/2+x,1/2-y,1/2+z
loop_
_atom_site_type_symbol
_atom_site_label
_atom_site_fract_x
_atom_site_fract_y
_atom_site_fract_z
Si Si1 0.677282 0.005764 0.515638
Si Si2 0.808658 0.119074 0.154567
Si Si3 0.778935 0.040723 0.535471
Si Si4 0.936943 0.908188 0.612241
Si Si5 0.542829 0.276988 0.571194
Si Si6 0.500000 0.911405 0.250000
Si Si7 0.243378 0.827394 0.238439
O O1 0.727178 0.093203 0.370186
O O2 0.694424 0.012065 0.610430
O O3 0.574156 0.017724 0.669419
O O4 0.713439 0.901838 0.416723
O O5 0.900713 0.110620 0.058155
O O6 0.797805 0.228682 0.133696
O O7 0.811050 0.048655 0.051108
O O8 0.857382 0.070704 0.326058
O O9 0.749340 0.132330 0.656328
O O10 0.988213 0.812270 0.564265
O O11 0.000000 0.000000 0.500000
O O12 0.500000 0.325361 0.750000
O O13 0.537511 0.158907 0.592410
O O14 0.641735 0.312887 0.383870
#
# Coordination Sequence:
#
# PCOD8133929 Si02
#       7
#     8   8   8   8   8   4   8
#     4  10  22  38  60  87 123 162 205 260 305 368
#     4  10  22  38  59  88 116 162 204 249 308 377
#     4  10  21  38  61  85 123 159 196 261 308 357
#     4  11  22  35  61  93 120 152 205 258 313 362
#     4  10  19  34  60  87 117 154 197 260 299 352
#     4  10  20  38  60  90 120 158 216 250 302 368
#     4  11  21  39  60  89 123 158 211 246 315 371
#
# _framework density 19.532883000000002
#
# number of rings (size 3 to 8) (size 9 to 14) (size 15 to 20)
#    0.462    1.231    3.077    2.769    2.154    1.846 
#    0.000    6.154    0.000    0.000    0.000    0.000 
#    0.000    0.000    0.000    0.000    0.000    0.000 
#
# Total GULP energy -322406.262479 kJ/mol
# GULP energy per Si atom -12400.240865 kJ/mol
# Density = 1.948842 g / cm^3
# Si number density = 19.532883 Si / 1000 Ang^3
#
#
#
# Elastic Constant Matrix: (Units=GPa)
#
#
# Indices 1 2 3 4 5 6 
#
# 1 165.5860 44.1538 45.4414 0.0000 -26.4378 0.0000
# 2 44.1538 102.8052 27.3473 0.0000 -13.9853 0.0000
# 3 45.4414 27.3473 40.0855 0.0000 -17.3802 0.0000
# 4 0.0000 0.0000 0.0000 25.8906 0.0000 -12.3834
# 5 -26.4378 -13.9853 -17.3802 0.0000 33.9425 0.0000
# 6 0.0000 0.0000 0.0000 -12.3834 0.0000 24.4698
#
#
#
# Elastic Compliance Matrix: (Units=1/GPa)
#
#
# Indices 1 2 3 4 5 6 
#
# 1 0.009053 -0.001359 -0.008381 0.000000 0.002200 0.000000
# 2 -0.001359 0.012112 -0.006449 0.000000 0.000629 0.000000
# 3 -0.008381 -0.006449 0.044815 0.000000 0.013762 0.000000
# 4 0.000000 0.000000 0.000000 0.050959 0.000000 0.025788
# 5 0.002200 0.000629 0.013762 0.000000 0.038481 0.000000
# 6 0.000000 0.000000 0.000000 0.025788 0.000000 0.053917
#
#
# Mechanical properties :
#
#
# Convention : Reuss Voigt Hill
#
# Bulk Modulus (GPa) = 29.76242 60.26240 45.01241
# Shear Modulus (GPa) = 19.76936 29.62952 24.69944
#
# Velocity S-wave (km/s) = 3.18481 3.89897 3.55985
# Velocity P-wave (km/s) = 5.36602 7.15458 6.32385
#
# Compressibility (1/GPa) = 0.03359942
#
# Stress axis : x y z
#
# Youngs Moduli (GPa) = 110.46169 82.56147 22.31414
#
# Poissons Ratio (x) = 0.11223 0.18702
# Poissons Ratio (y) = 0.15016 0.14391
# Poissons Ratio (z) = 0.92583 0.53247
#
# Static dielectric constant tensor:
#      x y z
#    x 3.856380 0.000000 -0.068060 
#    y 0.000000 3.431450 0.000000 
#    z -0.068060 0.000000 3.120820 
# 
# 
# High freq. dielectric constant tensor:
#      x y z
#    x 1.772350 0.000000 -0.010070 
#    y 0.000000 1.755070 0.000000 
#    z -0.010070 0.000000 1.737160 
# 
# From -- ./inp_files/118752.got.cif
#   From: 2010.06.25/outbox.cif.g09.slc.cpg/sg15_60_cif.got.tgz:118752.got - 2010.06.28 07:06:18.
