data_PCOD8133830
_publ_section_title
;
Structure prediction by ZEFSAII (Michael W. Deem and Ramdas Pophale) SiO2 
 PCOD8133830
Probable space group: C 2/C
;
_chemical_formula_sum "Si O2"
_cell_formula_units_Z 56
_cell_length_a 15.058118
_cell_length_b 12.166936
_cell_length_c 17.166884
_cell_angle_alpha 90.000000
_cell_angle_beta 114.278128
_cell_angle_gamma 90.000000
_cell_volume 2867.007278
_symmetry_space_group_name_H-M "C 2/C"
_symmetry_group_IT_number 15
_symmetry_cell_setting 'monoclinic'
loop_
_space_group_symop_operation_xyz
x,y,z
-x,y,1/2-z
-x,-y,-z
x,-y,1/2+z
1/2+x,1/2+y,z
1/2-x,1/2+y,1/2-z
1/2-x,1/2-y,-z
1/2+x,1/2-y,1/2+z
loop_
_atom_site_type_symbol
_atom_site_label
_atom_site_fract_x
_atom_site_fract_y
_atom_site_fract_z
Si Si1 0.279362 0.893200 0.152569
Si Si2 0.046298 0.742820 0.844869
Si Si3 0.083251 0.806090 0.020990
Si Si4 0.107750 0.550182 0.040928
Si Si5 0.362657 0.870047 0.342074
Si Si6 0.378206 0.724902 0.499439
Si Si7 0.696245 0.918157 0.940498
O O1 0.349303 0.809746 0.132784
O O2 0.168741 0.882884 0.082744
O O3 0.283172 0.860715 0.244882
O O4 0.311705 0.020727 0.146715
O O5 0.000000 0.798731 0.750000
O O6 0.971541 0.647619 0.846682
O O7 0.062657 0.828833 0.921384
O O8 0.110530 0.679974 0.046648
O O9 0.984274 0.830277 0.032647
O O10 0.152132 0.494952 0.134377
O O11 0.174831 0.516210 0.992731
O O12 0.000000 0.500000 0.000000
O O13 0.345591 0.783961 0.406434
O O14 0.377347 0.816133 0.569232
O O15 0.305032 0.627176 0.492833
#
# Coordination Sequence:
#
# PCOD8133830 Si02
#       7
#     8   8   8   8   8   8   8
#     4  11  21  31  54  84 114 137 185 232 276 328
#     4   9  17  31  50  78 109 137 175 230 272 317
#     4  11  20  33  56  83 110 142 182 229 281 327
#     4  11  17  34  59  80 105 140 186 232 278 321
#     4   9  19  34  53  79 116 139 177 235 279 317
#     4   9  20  37  57  75 108 151 184 219 273 335
#     4  10  19  34  58  79 103 146 190 215 274 340
#
# _framework density 19.532563
#
# number of rings (size 3 to 8) (size 9 to 14) (size 15 to 20)
#    0.000    2.000    5.714    0.429    0.000    1.714 
#    0.000    0.000    3.143    6.857    0.000    0.000 
#    0.000    0.000    0.000    0.000    0.000    0.000 
#
# Total GULP energy -346887.581057 kJ/mol
# GULP energy per Si atom -12388.842181 kJ/mol
# Density = 1.948811 g / cm^3
# Si number density = 19.532563 Si / 1000 Ang^3
#
#
#
# Elastic Constant Matrix: (Units=GPa)
#
#
# Indices 1 2 3 4 5 6 
#
# 1 105.6110 16.6757 35.0545 0.0000 5.3816 0.0000
# 2 16.6757 33.7618 15.5938 0.0000 -4.6522 0.0000
# 3 35.0545 15.5938 104.2728 0.0000 4.1514 0.0000
# 4 0.0000 0.0000 0.0000 18.4415 0.0000 -0.1516
# 5 5.3816 -4.6522 4.1514 0.0000 20.4452 0.0000
# 6 0.0000 0.0000 0.0000 -0.1516 0.0000 21.3303
#
#
#
# Elastic Compliance Matrix: (Units=1/GPa)
#
#
# Indices 1 2 3 4 5 6 
#
# 1 0.011380 -0.004721 -0.002982 0.000000 -0.003464 0.000000
# 2 -0.004721 0.035227 -0.004083 0.000000 0.010087 0.000000
# 3 -0.002982 -0.004083 0.011300 0.000000 -0.002439 0.000000
# 4 0.000000 0.000000 0.000000 0.054229 0.000000 0.000385
# 5 -0.003464 0.010087 -0.002439 0.000000 0.052614 0.000000
# 6 0.000000 0.000000 0.000000 0.000385 0.000000 0.046884
#
#
# Mechanical properties :
#
#
# Convention : Reuss Voigt Hill
#
# Bulk Modulus (GPa) = 29.12367 42.03261 35.57814
# Shear Modulus (GPa) = 20.27155 23.79816 22.03485
#
# Velocity S-wave (km/s) = 3.22504 3.49432 3.36238
# Velocity P-wave (km/s) = 5.36754 6.15194 5.77308
#
# Compressibility (1/GPa) = 0.03433633
#
# Stress axis : x y z
#
# Youngs Moduli (GPa) = 87.86982 28.38748 88.49309
#
# Poissons Ratio (x) = 0.13402 0.26388
# Poissons Ratio (y) = 0.41485 0.36128
# Poissons Ratio (z) = 0.26202 0.11589
#
# Static dielectric constant tensor:
#      x y z
#    x 3.807070 0.000000 -0.271850 
#    y 0.000000 3.499200 0.000000 
#    z -0.271850 0.000000 3.673760 
# 
# 
# High freq. dielectric constant tensor:
#      x y z
#    x 1.773570 0.000000 -0.013950 
#    y 0.000000 1.729420 0.000000 
#    z -0.013950 0.000000 1.737320 
# 
# From -- ./inp_files/204096.got.cif
#   From: 2010.06.25/outbox.cif.g09.slc.cpg/sg15_103_cif.got.tgz:204096.got - 2010.06.28 07:06:18.
