data_PCOD8133104
_publ_section_title
;
Structure prediction by ZEFSAII (Michael W. Deem and Ramdas Pophale) SiO2 
 PCOD8133104
Probable space group: C 2/C
;
_chemical_formula_sum "Si O2"
_cell_formula_units_Z 40
_cell_length_a 10.011828
_cell_length_b 13.482963
_cell_length_c 17.629151
_cell_angle_alpha 90.000000
_cell_angle_beta 65.626212
_cell_angle_gamma 90.000000
_cell_volume 2167.642898
_symmetry_space_group_name_H-M "C 2/C"
_symmetry_group_IT_number 15
_symmetry_cell_setting 'monoclinic'
loop_
_space_group_symop_operation_xyz
x,y,z
-x,y,1/2-z
-x,-y,-z
x,-y,1/2+z
1/2+x,1/2+y,z
1/2-x,1/2+y,1/2-z
1/2-x,1/2-y,-z
1/2+x,1/2-y,1/2+z
loop_
_atom_site_type_symbol
_atom_site_label
_atom_site_fract_x
_atom_site_fract_y
_atom_site_fract_z
Si Si1 0.858817 0.041281 0.491653
Si Si2 0.644297 0.627997 0.169303
Si Si3 0.825764 0.079526 0.786551
Si Si4 0.672838 0.338338 0.059717
Si Si5 0.675449 0.325937 0.368256
O O1 0.902473 0.102759 0.406174
O O2 0.770081 0.111532 0.570962
O O3 0.769968 0.942177 0.489777
O O4 0.000000 0.000000 0.500000
O O5 0.500000 0.659247 0.250000
O O6 0.728894 0.533245 0.186293
O O7 0.759976 0.716631 0.142663
O O8 0.778154 0.157023 0.863455
O O9 0.765528 0.119051 0.720937
O O10 0.000000 0.069679 0.750000
O O11 0.499702 0.321079 0.092153
O O12 0.750000 0.250000 0.000000
#
# Coordination Sequence:
#
# PCOD8133104 Si02
#       5
#     8   8   8   8   8
#     4   9  18  33  52  71  99 135 166 197 245 309
#     4  10  19  33  51  73  99 130 167 206 248 299
#     4   8  17  33  49  68  97 131 165 196 245 311
#     4   9  18  33  52  72  95 130 169 203 246 304
#     4  10  19  32  51  74  98 128 166 210 247 293
#
# _framework density 18.453223999999999
#
# number of rings (size 3 to 8) (size 9 to 14) (size 15 to 20)
#    0.000    2.800    0.000    4.200    0.000    4.800 
#    0.000    6.000    0.000    0.000    0.000    0.000 
#    0.000    0.000    0.000    0.000    0.000    0.000 
#
# Total GULP energy -247833.196785 kJ/mol
# GULP energy per Si atom -12391.659839 kJ/mol
# Density = 1.841122 g / cm^3
# Si number density = 18.453224 Si / 1000 Ang^3
#
#
#
# Elastic Constant Matrix: (Units=GPa)
#
#
# Indices 1 2 3 4 5 6 
#
# 1 33.6162 36.6846 36.7218 0.0000 12.8346 0.0000
# 2 36.6846 153.6171 92.3791 0.0000 7.9714 0.0000
# 3 36.7218 92.3791 155.8607 0.0000 29.8062 0.0000
# 4 0.0000 0.0000 0.0000 44.3511 0.0000 -5.1856
# 5 12.8346 7.9714 29.8062 0.0000 27.1730 0.0000
# 6 0.0000 0.0000 0.0000 -5.1856 0.0000 24.7975
#
#
#
# Elastic Compliance Matrix: (Units=1/GPa)
#
#
# Indices 1 2 3 4 5 6 
#
# 1 0.049668 -0.009222 -0.002869 0.000000 -0.017607 0.000000
# 2 -0.009222 0.012296 -0.006654 0.000000 0.008047 0.000000
# 3 -0.002869 -0.006654 0.013165 0.000000 -0.011134 0.000000
# 4 0.000000 0.000000 0.000000 0.023112 0.000000 0.004833
# 5 -0.017607 0.008047 -0.011134 0.000000 0.054969 0.000000
# 6 0.000000 0.000000 0.000000 0.004833 0.000000 0.041337
#
#
# Mechanical properties :
#
#
# Convention : Reuss Voigt Hill
#
# Bulk Modulus (GPa) = 26.56855 74.96279 50.76567
# Shear Modulus (GPa) = 20.44292 31.08490 25.76391
#
# Velocity S-wave (km/s) = 3.33201 4.10875 3.74059
# Velocity P-wave (km/s) = 5.40667 7.95113 6.79899
#
# Compressibility (1/GPa) = 0.03763849
#
# Stress axis : x y z
#
# Youngs Moduli (GPa) = 20.13377 81.32883 75.95949
#
# Poissons Ratio (x) = 0.75001 0.21794
# Poissons Ratio (y) = 0.18567 0.50543
# Poissons Ratio (z) = 0.05777 0.54116
#
# Static dielectric constant tensor:
#      x y z
#    x 2.936550 0.000000 0.381750 
#    y 0.000000 3.687970 0.000000 
#    z 0.381750 0.000000 3.904370 
# 
# 
# High freq. dielectric constant tensor:
#      x y z
#    x 1.662020 0.000000 0.029050 
#    y 0.000000 1.728910 0.000000 
#    z 0.029050 0.000000 1.731680 
# 
# From -- ./inp_files/141702.got.cif
#   From: 2010.06.25/outbox.cif.g09.slc.cpg/sg15_71_cif.got.tgz:141702.got - 2010.06.28 07:06:18.
