data_PCOD8133031
_publ_section_title
;
Structure prediction by ZEFSAII (Michael W. Deem and Ramdas Pophale) SiO2 
 PCOD8133031
Probable space group: C 2/C
;
_chemical_formula_sum "Si O2"
_cell_formula_units_Z 56
_cell_length_a 14.217919
_cell_length_b 16.929966
_cell_length_c 14.920162
_cell_angle_alpha 90.000000
_cell_angle_beta 124.977189
_cell_angle_gamma 90.000000
_cell_volume 2942.735289
_symmetry_space_group_name_H-M "C 2/C"
_symmetry_group_IT_number 15
_symmetry_cell_setting 'monoclinic'
loop_
_space_group_symop_operation_xyz
x,y,z
-x,y,1/2-z
-x,-y,-z
x,-y,1/2+z
1/2+x,1/2+y,z
1/2-x,1/2+y,1/2-z
1/2-x,1/2-y,-z
1/2+x,1/2-y,1/2+z
loop_
_atom_site_type_symbol
_atom_site_label
_atom_site_fract_x
_atom_site_fract_y
_atom_site_fract_z
Si Si1 0.299695 0.353813 0.268021
Si Si2 0.682555 0.639254 0.427879
Si Si3 0.862470 0.020231 0.663324
Si Si4 0.173367 0.863033 0.504469
Si Si5 0.018996 0.091981 0.492514
Si Si6 0.635249 0.189208 0.830717
Si Si7 0.125035 0.735065 0.335130
O O1 0.292928 0.429899 0.199549
O O2 0.404342 0.367459 0.390670
O O3 0.184525 0.340912 0.262751
O O4 0.319286 0.274874 0.221624
O O5 0.690214 0.568085 0.360198
O O6 0.569871 0.614879 0.424286
O O7 0.658161 0.718129 0.358824
O O8 0.798787 0.644730 0.551227
O O9 0.831614 0.052661 0.547627
O O10 0.000000 0.024930 0.750000
O O11 0.114764 0.798376 0.408651
O O12 0.303519 0.840975 0.596353
O O13 0.105442 0.867621 0.561718
O O14 0.000000 0.000000 0.500000
O O15 0.500000 0.170109 0.750000
O O16 0.000000 0.700661 0.250000
#
# Coordination Sequence:
#
# PCOD8133031 Si02
#       7
#     8   8   8   8   8   8   8
#     4  10  20  36  58  82 114 147 193 235 289 326
#     4  10  22  37  60  84 115 146 194 235 289 337
#     4  11  18  37  61  90 111 139 188 251 285 327
#     4  10  19  31  55  86 115 146 187 228 291 327
#     4  11  18  33  59  88 111 143 186 251 282 325
#     4  10  23  41  54  82 118 157 186 234 279 353
#     4  10  19  35  54  83 119 152 181 231 278 353
#
# _framework density 19.029914000000002
#
# number of rings (size 3 to 8) (size 9 to 14) (size 15 to 20)
#    0.000    1.714    4.286    1.286    2.000    0.000 
#    0.000    1.429    0.000    0.000    0.000    0.000 
#    0.000    0.000    0.000    0.000    0.000    0.000 
#
# Total GULP energy -347045.319491 kJ/mol
# GULP energy per Si atom -12394.475696 kJ/mol
# Density = 1.898660 g / cm^3
# Si number density = 19.029914 Si / 1000 Ang^3
#
#
#
# Elastic Constant Matrix: (Units=GPa)
#
#
# Indices 1 2 3 4 5 6 
#
# 1 118.8412 46.2225 44.9227 0.0000 5.8513 0.0000
# 2 46.2225 99.8655 36.0353 0.0000 3.2317 0.0000
# 3 44.9227 36.0353 74.7973 0.0000 12.0754 0.0000
# 4 0.0000 0.0000 0.0000 25.2372 0.0000 -3.3422
# 5 5.8513 3.2317 12.0754 0.0000 31.5302 0.0000
# 6 0.0000 0.0000 0.0000 -3.3422 0.0000 18.4442
#
#
#
# Elastic Compliance Matrix: (Units=1/GPa)
#
#
# Indices 1 2 3 4 5 6 
#
# 1 0.011831 -0.003517 -0.005452 0.000000 0.000253 0.000000
# 2 -0.003517 0.013199 -0.004406 0.000000 0.000987 0.000000
# 3 -0.005452 -0.004406 0.019752 0.000000 -0.006101 0.000000
# 4 0.000000 0.000000 0.000000 0.040598 0.000000 0.007357
# 5 0.000253 0.000987 -0.006101 0.000000 0.033904 0.000000
# 6 0.000000 0.000000 0.000000 0.007357 0.000000 0.055551
#
#
# Mechanical properties :
#
#
# Convention : Reuss Voigt Hill
#
# Bulk Modulus (GPa) = 55.45824 60.87389 58.16607
# Shear Modulus (GPa) = 24.08527 26.13053 25.10790
#
# Velocity S-wave (km/s) = 3.56146 3.70960 3.63628
# Velocity P-wave (km/s) = 6.79102 7.09973 6.94709
#
# Compressibility (1/GPa) = 0.01803159
#
# Stress axis : x y z
#
# Youngs Moduli (GPa) = 84.52451 75.76224 50.62839
#
# Poissons Ratio (x) = 0.26644 0.27603
# Poissons Ratio (y) = 0.29725 0.22308
# Poissons Ratio (z) = 0.46084 0.33383
#
# Static dielectric constant tensor:
#      x y z
#    x 3.558600 0.000000 -0.097970 
#    y 0.000000 3.498910 0.000000 
#    z -0.097970 0.000000 3.562290 
# 
# 
# High freq. dielectric constant tensor:
#      x y z
#    x 1.730960 0.000000 -0.009070 
#    y 0.000000 1.734320 0.000000 
#    z -0.009070 0.000000 1.737610 
# 
# From -- ./inp_files/155242.got.cif
#   From: 2010.06.25/outbox.cif.g09.slc.cpg/sg15_78_cif.got.tgz:155242.got - 2010.06.28 07:06:18.
