data_PCOD8133401
_publ_section_title
;
Structure prediction by ZEFSAII (Michael W. Deem and Ramdas Pophale) SiO2 
 PCOD8133401
Probable space group: C 2/C
;
_chemical_formula_sum "Si O2"
_cell_formula_units_Z 52
_cell_length_a 10.450945
_cell_length_b 28.689594
_cell_length_c 12.575067
_cell_angle_alpha 90.000000
_cell_angle_beta 45.778494
_cell_angle_gamma 90.000000
_cell_volume 2702.070625
_symmetry_space_group_name_H-M "C 2/C"
_symmetry_group_IT_number 15
_symmetry_cell_setting 'monoclinic'
loop_
_space_group_symop_operation_xyz
x,y,z
-x,y,1/2-z
-x,-y,-z
x,-y,1/2+z
1/2+x,1/2+y,z
1/2-x,1/2+y,1/2-z
1/2-x,1/2-y,-z
1/2+x,1/2-y,1/2+z
loop_
_atom_site_type_symbol
_atom_site_label
_atom_site_fract_x
_atom_site_fract_y
_atom_site_fract_z
Si Si1 0.499697 0.886310 0.488289
Si Si2 0.132669 0.472970 0.499902
Si Si3 0.216457 0.702467 0.381086
Si Si4 0.671642 0.938706 0.090235
Si Si5 0.500000 0.435636 0.250000
Si Si6 0.560746 0.702481 0.040264
Si Si7 0.860289 0.115808 0.645356
O O1 0.555440 0.920071 0.556053
O O2 0.419730 0.837984 0.576450
O O3 0.340616 0.913403 0.517111
O O4 0.674311 0.876078 0.315497
O O5 0.161802 0.504461 0.588184
O O6 0.328381 0.468539 0.334314
O O7 0.000000 0.500000 0.500000
O O8 0.366137 0.707442 0.204441
O O9 0.296323 0.690397 0.450817
O O10 0.107013 0.750033 0.452854
O O11 0.500000 0.919866 0.250000
O O12 0.841144 0.922091 0.060577
O O13 0.488401 0.403131 0.361834
O O14 0.566560 0.663206 0.947088
#
# Coordination Sequence:
#
# PCOD8133401 Si02
#       7
#     8   8   8   8   4   8   8
#     4   9  17  33  56  76 115 151 188 232 290 344
#     4   9  19  37  54  80 111 152 192 237 290 346
#     4  10  19  33  54  88 118 149 183 236 294 353
#     4   9  17  32  54  80 108 149 193 235 289 342
#     4  10  22  38  58  80 112 156 204 238 298 344
#     4  10  20  32  54  87 120 146 188 234 294 351
#     4  10  19  35  56  79 113 152 194 243 286 348
#
# _framework density 19.244501
#
# number of rings (size 3 to 8) (size 9 to 14) (size 15 to 20)
#    0.000    2.462    1.538    1.846    0.000    1.846 
#    8.308    0.000    0.000    8.308    0.000    0.000 
#    0.000    0.000    0.000    0.000    0.000    0.000 
#
# Total GULP energy -322118.591443 kJ/mol
# GULP energy per Si atom -12389.176594 kJ/mol
# Density = 1.920070 g / cm^3
# Si number density = 19.244501 Si / 1000 Ang^3
#
#
#
# Elastic Constant Matrix: (Units=GPa)
#
#
# Indices 1 2 3 4 5 6 
#
# 1 81.8401 54.1759 28.6246 0.0000 -5.0227 0.0000
# 2 54.1759 150.0734 53.3724 0.0000 -3.3646 0.0000
# 3 28.6246 53.3724 71.8285 0.0000 -10.8003 0.0000
# 4 0.0000 0.0000 0.0000 38.3554 0.0000 3.5021
# 5 -5.0227 -3.3646 -10.8003 0.0000 23.6294 0.0000
# 6 0.0000 0.0000 0.0000 3.5021 0.0000 33.6096
#
#
#
# Elastic Compliance Matrix: (Units=1/GPa)
#
#
# Indices 1 2 3 4 5 6 
#
# 1 0.016550 -0.005000 -0.002640 0.000000 0.001599 0.000000
# 2 -0.005000 0.010649 -0.006284 0.000000 -0.002419 0.000000
# 3 -0.002640 -0.006284 0.020858 0.000000 0.008078 0.000000
# 4 0.000000 0.000000 0.000000 0.026322 0.000000 -0.002743
# 5 0.001599 -0.002419 0.008078 0.000000 0.046008 0.000000
# 6 0.000000 0.000000 0.000000 -0.002743 0.000000 0.030039
#
#
# Mechanical properties :
#
#
# Convention : Reuss Voigt Hill
#
# Bulk Modulus (GPa) = 49.48075 64.00974 56.74524
# Shear Modulus (GPa) = 27.02557 30.29017 28.65787
#
# Velocity S-wave (km/s) = 3.75150 3.97163 3.86313
# Velocity P-wave (km/s) = 6.67326 7.37328 7.03199
#
# Compressibility (1/GPa) = 0.02020988
#
# Stress axis : x y z
#
# Youngs Moduli (GPa) = 60.42229 93.90618 47.94360
#
# Poissons Ratio (x) = 0.46952 0.12656
# Poissons Ratio (y) = 0.30210 0.30127
# Poissons Ratio (z) = 0.15950 0.59009
#
# Static dielectric constant tensor:
#      x y z
#    x 3.516350 0.000000 0.003560 
#    y 0.000000 3.671450 0.000000 
#    z 0.003560 0.000000 3.276270 
# 
# 
# High freq. dielectric constant tensor:
#      x y z
#    x 1.725740 0.000000 -0.008910 
#    y 0.000000 1.755330 0.000000 
#    z -0.008910 0.000000 1.723810 
# 
# From -- ./inp_files/148353.got.cif
#   From: 2010.06.25/outbox.cif.g09.slc.cpg/sg15_75_cif.got.tgz:148353.got - 2010.06.28 07:06:18.
