data_PCOD8133328
_publ_section_title
;
Structure prediction by ZEFSAII (Michael W. Deem and Ramdas Pophale) SiO2 
 PCOD8133328
Probable space group: C 2/C
;
_chemical_formula_sum "Si O2"
_cell_formula_units_Z 56
_cell_length_a 19.102494
_cell_length_b 18.045811
_cell_length_c 14.194687
_cell_angle_alpha 90.000000
_cell_angle_beta 41.827472
_cell_angle_gamma 90.000000
_cell_volume 3263.220292
_symmetry_space_group_name_H-M "C 2/C"
_symmetry_group_IT_number 15
_symmetry_cell_setting 'monoclinic'
loop_
_space_group_symop_operation_xyz
x,y,z
-x,y,1/2-z
-x,-y,-z
x,-y,1/2+z
1/2+x,1/2+y,z
1/2-x,1/2+y,1/2-z
1/2-x,1/2-y,-z
1/2+x,1/2-y,1/2+z
loop_
_atom_site_type_symbol
_atom_site_label
_atom_site_fract_x
_atom_site_fract_y
_atom_site_fract_z
Si Si1 0.751318 0.245226 0.656644
Si Si2 0.115379 0.820029 0.632914
Si Si3 0.313649 0.983525 0.038987
Si Si4 0.883083 0.006835 0.363635
Si Si5 0.189669 0.487059 0.666683
Si Si6 0.872234 0.381842 0.610300
Si Si7 0.382722 0.118802 0.630943
O O1 0.835684 0.194202 0.518709
O O2 0.680208 0.283475 0.650537
O O3 0.809170 0.305894 0.662307
O O4 0.680936 0.194862 0.795553
O O5 0.107926 0.906243 0.660771
O O6 0.000000 0.783914 0.750000
O O7 0.357550 0.915055 0.053977
O O8 0.185956 0.976412 0.155997
O O9 0.343673 0.061243 0.056202
O O10 0.363848 0.982489 0.883421
O O11 0.817247 0.989640 0.525764
O O12 0.000000 0.970890 0.250000
O O13 0.158275 0.415634 0.758107
O O14 0.149606 0.561753 0.755296
O O15 0.994887 0.363972 0.484158
#
# Coordination Sequence:
#
# PCOD8133328 Si02
#       7
#     8   8   8   8   8   8   8
#     4  11  20  36  49  82 112 140 183 224 261 330
#     4  10  19  33  53  76 111 146 170 216 281 325
#     4   9  19  38  57  81 110 139 183 227 262 321
#     4   9  17  35  57  80 107 139 176 218 271 322
#     4   9  19  38  57  81 110 139 183 227 262 321
#     4  11  22  35  56  84 110 141 182 225 271 321
#     4  11  22  35  56  84 110 141 182 225 271 321
#
# _framework density 17.160962000000001
#
# number of rings (size 3 to 8) (size 9 to 14) (size 15 to 20)
#    0.857    1.143    2.857    2.571    2.000    2.286 
#    0.000    6.429    0.000    0.000    0.000    0.000 
#    0.000    0.000    0.000    0.000    0.000    0.000 
#
# Total GULP energy -347019.301153 kJ/mol
# GULP energy per Si atom -12393.546470 kJ/mol
# Density = 1.712190 g / cm^3
# Si number density = 17.160962 Si / 1000 Ang^3
#
#
#
# Elastic Constant Matrix: (Units=GPa)
#
#
# Indices 1 2 3 4 5 6 
#
# 1 107.4580 44.2638 57.1087 0.0000 -1.8470 0.0000
# 2 44.2638 79.4302 41.9487 0.0000 -2.3024 0.0000
# 3 57.1087 41.9487 110.6047 0.0000 -13.3743 0.0000
# 4 0.0000 0.0000 0.0000 17.4832 0.0000 -0.4726
# 5 -1.8470 -2.3024 -13.3743 0.0000 43.3762 0.0000
# 6 0.0000 0.0000 0.0000 -0.4726 0.0000 2.6447
#
#
#
# Elastic Compliance Matrix: (Units=1/GPa)
#
#
# Indices 1 2 3 4 5 6 
#
# 1 0.014383 -0.005057 -0.005678 0.000000 -0.001407 0.000000
# 2 -0.005057 0.017567 -0.004118 0.000000 -0.000553 0.000000
# 3 -0.005678 -0.004118 0.014001 0.000000 0.003857 0.000000
# 4 0.000000 0.000000 0.000000 0.057475 0.000000 0.010270
# 5 -0.001407 -0.000553 0.003857 0.000000 0.024154 0.000000
# 6 0.000000 0.000000 0.000000 0.010270 0.000000 0.379954
#
#
# Mechanical properties :
#
#
# Convention : Reuss Voigt Hill
#
# Bulk Modulus (GPa) = 61.56269 64.90392 63.23330
# Shear Modulus (GPa) = 9.21395 22.97892 16.09643
#
# Velocity S-wave (km/s) = 2.31965 3.66324 3.06595
# Velocity P-wave (km/s) = 6.56704 7.46962 7.03282
#
# Compressibility (1/GPa) = 0.01624360
#
# Stress axis : x y z
#
# Youngs Moduli (GPa) = 69.52862 56.92626 71.42137
#
# Poissons Ratio (x) = 0.28787 0.40556
# Poissons Ratio (y) = 0.35159 0.29413
# Poissons Ratio (z) = 0.39481 0.23444
#
# Static dielectric constant tensor:
#      x y z
#    x 3.255780 0.000000 -0.162380 
#    y 0.000000 3.032390 0.000000 
#    z -0.162380 0.000000 3.366740 
# 
# 
# High freq. dielectric constant tensor:
#      x y z
#    x 1.659620 0.000000 -0.011340 
#    y 0.000000 1.644180 0.000000 
#    z -0.011340 0.000000 1.664590 
# 
# From -- ./inp_files/163057.got.cif
#   From: 2010.06.25/outbox.cif.g09.slc.cpg/sg15_82_cif.got.tgz:163057.got - 2010.06.28 07:06:18.
