data_PCOD8133315
_publ_section_title
;
Structure prediction by ZEFSAII (Michael W. Deem and Ramdas Pophale) SiO2 
 PCOD8133315
Probable space group: C 2/C
;
_chemical_formula_sum "Si O2"
_cell_formula_units_Z 64
_cell_length_a 35.165594
_cell_length_b 15.667644
_cell_length_c 13.833956
_cell_angle_alpha 90.000000
_cell_angle_beta 26.920479
_cell_angle_gamma 90.000000
_cell_volume 3450.879494
_symmetry_space_group_name_H-M "C 2/C"
_symmetry_group_IT_number 15
_symmetry_cell_setting 'monoclinic'
loop_
_space_group_symop_operation_xyz
x,y,z
-x,y,1/2-z
-x,-y,-z
x,-y,1/2+z
1/2+x,1/2+y,z
1/2-x,1/2+y,1/2-z
1/2-x,1/2-y,-z
1/2+x,1/2-y,1/2+z
loop_
_atom_site_type_symbol
_atom_site_label
_atom_site_fract_x
_atom_site_fract_y
_atom_site_fract_z
Si Si1 0.910106 0.958802 0.916764
Si Si2 0.736071 0.493001 0.611058
Si Si3 0.810390 0.050984 0.984367
Si Si4 0.399924 0.099021 0.224512
Si Si5 0.591935 0.729189 0.052552
Si Si6 0.344026 0.721939 0.801853
Si Si7 0.988251 0.509307 0.669665
Si Si8 0.678992 0.887383 0.934215
O O1 0.915741 0.859480 0.871670
O O2 0.000000 0.992636 0.750000
O O3 0.883905 0.009796 0.880618
O O4 0.844471 0.972146 0.151341
O O5 0.714754 0.485983 0.545504
O O6 0.808885 0.563475 0.459705
O O7 0.766348 0.402778 0.590935
O O8 0.848667 0.139238 0.858585
O O9 0.726847 0.067951 0.236642
O O10 0.397050 0.201240 0.229502
O O11 0.470663 0.072423 0.141895
O O12 0.429064 0.060483 0.054472
O O13 0.500000 0.774232 0.250000
O O14 0.619405 0.700319 0.884580
O O15 0.661111 0.788462 0.949181
O O16 0.250000 0.750000 0.000000
O O17 0.000000 0.473085 0.750000
O O18 0.910786 0.572872 0.842939
#
# Coordination Sequence:
#
# PCOD8133315 Si02
#       8
#     8   8   8   8   8   8   8   8
#     4  10  23  39  55  81 108 145 188 231 280 326
#     4  10  19  36  54  81 110 142 182 227 278 333
#     4  11  21  36  59  81 108 148 187 234 274 327
#     4  10  20  32  54  86 112 144 187 221 270 335
#     4  11  20  35  55  83 113 139 185 232 274 325
#     4  12  19  33  58  83 106 140 195 231 266 321
#     4  10  19  33  52  81 122 150 171 218 283 340
#     4  10  20  32  56  84 113 141 183 229 277 325
#
# _framework density 18.545997
#
# number of rings (size 3 to 8) (size 9 to 14) (size 15 to 20)
#    0.000    1.500    3.750    2.625    0.000    0.500 
#    0.000    1.250    0.000    0.000    0.000    0.000 
#    0.000    0.000    0.000    0.000    0.000    0.000 
#
# Total GULP energy -396689.368731 kJ/mol
# GULP energy per Si atom -12396.542773 kJ/mol
# Density = 1.850379 g / cm^3
# Si number density = 18.545997 Si / 1000 Ang^3
#
#
#
# Elastic Constant Matrix: (Units=GPa)
#
#
# Indices 1 2 3 4 5 6 
#
# 1 125.9641 58.3120 47.3211 0.0000 3.7596 0.0000
# 2 58.3120 95.5578 35.0132 0.0000 -1.8881 0.0000
# 3 47.3211 35.0132 103.2674 0.0000 -0.5512 0.0000
# 4 0.0000 0.0000 0.0000 24.7500 0.0000 -3.2107
# 5 3.7596 -1.8881 -0.5512 0.0000 29.7736 0.0000
# 6 0.0000 0.0000 0.0000 -3.2107 0.0000 35.0095
#
#
#
# Elastic Compliance Matrix: (Units=1/GPa)
#
#
# Indices 1 2 3 4 5 6 
#
# 1 0.012175 -0.006190 -0.003491 0.000000 -0.001995 0.000000
# 2 -0.006190 0.015110 -0.002278 0.000000 0.001698 0.000000
# 3 -0.003491 -0.002278 0.012058 0.000000 0.000520 0.000000
# 4 0.000000 0.000000 0.000000 0.040890 0.000000 0.003750
# 5 -0.001995 0.001698 0.000520 0.000000 0.033956 0.000000
# 6 0.000000 0.000000 0.000000 0.003750 0.000000 0.028908
#
#
# Mechanical properties :
#
#
# Convention : Reuss Voigt Hill
#
# Bulk Modulus (GPa) = 64.82351 67.34245 66.08298
# Shear Modulus (GPa) = 29.04317 30.18282 29.61300
#
# Velocity S-wave (km/s) = 3.96157 4.03855 4.00025
# Velocity P-wave (km/s) = 7.48025 7.62472 7.55283
#
# Compressibility (1/GPa) = 0.01542650
#
# Stress axis : x y z
#
# Youngs Moduli (GPa) = 82.13348 66.18028 82.92983
#
# Poissons Ratio (x) = 0.40965 0.28952
# Poissons Ratio (y) = 0.50840 0.18889
# Poissons Ratio (z) = 0.28674 0.15074
#
# Static dielectric constant tensor:
#      x y z
#    x 3.575800 0.000000 0.042940 
#    y 0.000000 3.588580 0.000000 
#    z 0.042940 0.000000 3.549890 
# 
# 
# High freq. dielectric constant tensor:
#      x y z
#    x 1.706120 0.000000 0.006170 
#    y 0.000000 1.698020 0.000000 
#    z 0.006170 0.000000 1.741050 
# 
# From -- ./inp_files/127291.got.cif
#   From: 2010.06.25/outbox.cif.g09.slc.cpg/sg15_64_cif.got.tgz:127291.got - 2010.06.28 07:06:18.
