data_PCOD8133198
_publ_section_title
;
Structure prediction by ZEFSAII (Michael W. Deem and Ramdas Pophale) SiO2 
 PCOD8133198
Probable space group: C 2/C
;
_chemical_formula_sum "Si O2"
_cell_formula_units_Z 60
_cell_length_a 8.301360
_cell_length_b 21.036147
_cell_length_c 28.285211
_cell_angle_alpha 90.000000
_cell_angle_beta 137.790472
_cell_angle_gamma 90.000000
_cell_volume 3318.510251
_symmetry_space_group_name_H-M "C 2/C"
_symmetry_group_IT_number 15
_symmetry_cell_setting 'monoclinic'
loop_
_space_group_symop_operation_xyz
x,y,z
-x,y,1/2-z
-x,-y,-z
x,-y,1/2+z
1/2+x,1/2+y,z
1/2-x,1/2+y,1/2-z
1/2-x,1/2-y,-z
1/2+x,1/2-y,1/2+z
loop_
_atom_site_type_symbol
_atom_site_label
_atom_site_fract_x
_atom_site_fract_y
_atom_site_fract_z
Si Si1 0.603494 0.086578 0.927641
Si Si2 0.276000 0.680602 0.291871
Si Si3 0.000000 0.116960 0.250000
Si Si4 0.221475 0.014905 0.360948
Si Si5 0.712032 0.025693 0.860193
Si Si6 0.277864 0.563250 0.772960
Si Si7 0.221754 0.676232 0.697918
Si Si8 0.448798 0.417004 0.585747
O O1 0.765552 0.070424 0.916989
O O2 0.419052 0.143984 0.876652
O O3 0.475837 0.019322 0.911562
O O4 0.767212 0.108554 0.006587
O O5 0.334487 0.656773 0.251129
O O6 0.372008 0.752852 0.313846
O O7 0.437759 0.643244 0.364270
O O8 0.000000 0.673518 0.250000
O O9 0.805287 0.074763 0.179604
O O10 0.192045 0.038360 0.408204
O O11 0.023646 0.961623 0.303749
O O12 0.806043 0.064691 0.835319
O O13 0.426093 0.013665 0.790093
O O14 0.841889 0.958114 0.893495
O O15 0.192347 0.632807 0.738046
O O16 0.500000 0.680705 0.750000
#
# Coordination Sequence:
#
# PCOD8133198 Si02
#       8
#     8   8   4   8   8   8   8   8
#     4  11  20  33  56  78 109 140 175 220 266 331
#     4  10  24  37  57  79 109 146 183 229 265 318
#     4  10  20  36  56  84 106 140 178 222 282 320
#     4  10  19  32  56  79 106 135 173 222 274 317
#     4   9  19  29  51  82 109 135 164 217 276 318
#     4   9  17  32  54  80 105 131 176 229 261 310
#     4  10  19  36  56  79 100 139 187 221 263 308
#     4  10  22  35  49  81 112 143 172 211 277 332
#
# _framework density 18.080401999999999
#
# number of rings (size 3 to 8) (size 9 to 14) (size 15 to 20)
#    0.000    2.133    1.333    2.400    7.467    2.667 
#    0.000    0.000    0.000    0.000    0.000    6.533 
#    0.000    0.000    0.000    0.000    0.000    0.000 
#
# Total GULP energy -371797.941065 kJ/mol
# GULP energy per Si atom -12393.264702 kJ/mol
# Density = 1.803925 g / cm^3
# Si number density = 18.080402 Si / 1000 Ang^3
#
#
#
# Elastic Constant Matrix: (Units=GPa)
#
#
# Indices 1 2 3 4 5 6 
#
# 1 76.6880 39.1033 39.1346 -0.0002 -7.8015 0.0005
# 2 39.1033 118.8709 55.5926 -0.0004 -3.8685 -0.0001
# 3 39.1346 55.5926 119.6758 -0.0005 -14.7429 -0.0003
# 4 -0.0002 -0.0004 -0.0005 14.7973 -0.0010 -0.4125
# 5 -7.8015 -3.8685 -14.7429 -0.0010 22.2727 -0.0001
# 6 0.0005 -0.0001 -0.0003 -0.4125 -0.0001 23.0010
#
#
#
# Elastic Compliance Matrix: (Units=1/GPa)
#
#
# Indices 1 2 3 4 5 6 
#
# 1 0.017085 -0.003940 -0.003379 0.000000 0.003063 0.000000
# 2 -0.003940 0.011706 -0.004430 0.000000 -0.002279 0.000000
# 3 -0.003379 -0.004430 0.012280 0.000001 0.006175 0.000000
# 4 0.000000 0.000000 0.000001 0.067614 0.000004 0.001213
# 5 0.003063 -0.002279 0.006175 0.000004 0.049662 0.000000
# 6 0.000000 0.000000 0.000000 0.001213 0.000000 0.043498
#
#
# Mechanical properties :
#
#
# Convention : Reuss Voigt Hill
#
# Bulk Modulus (GPa) = 56.90969 64.76619 60.83794
# Shear Modulus (GPa) = 21.62614 24.10782 22.86698
#
# Velocity S-wave (km/s) = 3.46223 3.65549 3.56017
# Velocity P-wave (km/s) = 6.89398 7.32911 7.11487
#
# Compressibility (1/GPa) = 0.01757170
#
# Stress axis : x y z
#
# Youngs Moduli (GPa) = 58.53084 85.42375 81.43586
#
# Poissons Ratio (x) = 0.33658 0.27519
# Poissons Ratio (y) = 0.23062 0.36078
# Poissons Ratio (z) = 0.19779 0.37845
#
# Static dielectric constant tensor:
#      x y z
#    x 3.568180 0.000000 -0.109250 
#    y 0.000000 3.452100 0.000000 
#    z -0.109250 0.000000 3.234800 
# 
# 
# High freq. dielectric constant tensor:
#      x y z
#    x 1.706970 0.000000 -0.010700 
#    y 0.000000 1.682990 0.000000 
#    z -0.010700 0.000000 1.690160 
# 
# From -- ./inp_files/290125.got.cif
#   From: 2010.06.25/outbox.cif.g09.slc.cpg/sg15_146_cif.got.tgz:290125.got - 2010.06.28 07:06:18.
