data_PCOD8133196
_publ_section_title
;
Structure prediction by ZEFSAII (Michael W. Deem and Ramdas Pophale) SiO2 
 PCOD8133196
Probable space group: C 2/C
;
_chemical_formula_sum "Si O2"
_cell_formula_units_Z 48
_cell_length_a 21.439877
_cell_length_b 20.233534
_cell_length_c 5.266265
_cell_angle_alpha 90.000000
_cell_angle_beta 99.230541
_cell_angle_gamma 90.000000
_cell_volume 2254.946756
_symmetry_space_group_name_H-M "C 2/C"
_symmetry_group_IT_number 15
_symmetry_cell_setting 'monoclinic'
loop_
_space_group_symop_operation_xyz
x,y,z
-x,y,1/2-z
-x,-y,-z
x,-y,1/2+z
1/2+x,1/2+y,z
1/2-x,1/2+y,1/2-z
1/2-x,1/2-y,-z
1/2+x,1/2-y,1/2+z
loop_
_atom_site_type_symbol
_atom_site_label
_atom_site_fract_x
_atom_site_fract_y
_atom_site_fract_z
Si Si1 0.331441 0.181105 0.928734
Si Si2 0.470434 0.645718 0.979012
Si Si3 0.475875 0.205947 0.986050
Si Si4 0.217011 0.459225 0.202094
Si Si5 0.729577 0.693301 0.235812
Si Si6 0.175977 0.868688 0.198312
O O1 0.303167 0.183718 0.199506
O O2 0.400925 0.211312 0.953258
O O3 0.326692 0.106651 0.824524
O O4 0.286963 0.229183 0.724352
O O5 0.500000 0.611210 0.750000
O O6 0.396531 0.631227 0.925125
O O7 0.500000 0.612289 0.250000
O O8 0.488303 0.723243 0.991237
O O9 0.500000 0.167799 0.750000
O O10 0.500000 0.166333 0.250000
O O11 0.199581 0.497902 0.445209
O O12 0.291798 0.440254 0.228645
O O13 0.714063 0.651567 0.470426
O O14 0.686705 0.674444 0.958726
#
# Coordination Sequence:
#
# PCOD8133196 Si02
#       6
#     8   8   8   8   8   8
#     4  10  22  38  61  91 126 155 199 254 307 368
#     4  10  19  32  55  86 121 155 185 228 299 372
#     4  10  20  33  54  85 121 155 185 228 299 372
#     4  11  25  42  62  86 117 167 212 250 294 345
#     4  10  21  34  60  94 121 149 188 260 336 361
#     4  11  21  39  62  91 126 155 199 254 307 368
#
# _framework density 21.286535000000001
#
# number of rings (size 3 to 8) (size 9 to 14) (size 15 to 20)
#    0.000    1.667    0.000    7.000    0.000   11.333 
#    0.000    0.000    0.000    6.000    0.000    0.000 
#    0.000    0.000    0.000    0.000    0.000    0.000 
#
# Total GULP energy -297314.300899 kJ/mol
# GULP energy per Si atom -12388.095871 kJ/mol
# Density = 2.123809 g / cm^3
# Si number density = 21.286535 Si / 1000 Ang^3
#
#
#
# Elastic Constant Matrix: (Units=GPa)
#
#
# Indices 1 2 3 4 5 6 
#
# 1 117.1239 -12.3893 29.0672 0.0000 -5.1527 0.0000
# 2 -12.3893 64.6263 16.2716 0.0000 -5.8618 0.0000
# 3 29.0672 16.2716 150.2258 0.0000 -23.1722 0.0000
# 4 0.0000 0.0000 0.0000 23.8314 0.0000 3.6621
# 5 -5.1527 -5.8618 -23.1722 0.0000 33.5943 0.0000
# 6 0.0000 0.0000 0.0000 3.6621 0.0000 23.2476
#
#
#
# Elastic Compliance Matrix: (Units=1/GPa)
#
#
# Indices 1 2 3 4 5 6 
#
# 1 0.009295 0.002322 -0.001978 0.000000 0.000466 0.000000
# 2 0.002322 0.016583 -0.001952 0.000000 0.001903 0.000000
# 3 -0.001978 -0.001952 0.008003 0.000000 0.004876 0.000000
# 4 0.000000 0.000000 0.000000 0.043002 0.000000 -0.006774
# 5 0.000466 0.001903 0.004876 0.000000 0.033534 0.000000
# 6 0.000000 0.000000 0.000000 -0.006774 0.000000 0.044082
#
#
# Mechanical properties :
#
#
# Convention : Reuss Voigt Hill
#
# Bulk Modulus (GPa) = 32.61000 44.20832 38.40916
# Shear Modulus (GPa) = 29.77308 36.06975 32.92141
#
# Velocity S-wave (km/s) = 3.74395 4.12088 3.93693
# Velocity P-wave (km/s) = 5.83458 6.59208 6.22486
#
# Compressibility (1/GPa) = 0.03066544
#
# Stress axis : x y z
#
# Youngs Moduli (GPa) = 107.58417 60.30321 124.95393
#
# Poissons Ratio (x) = -0.14004 0.24717
# Poissons Ratio (y) = -0.24984 0.24390
# Poissons Ratio (z) = 0.21281 0.11771
#
# Static dielectric constant tensor:
#      x y z
#    x 3.848770 0.000000 -0.296480 
#    y 0.000000 3.531400 0.000000 
#    z -0.296480 0.000000 5.286610 
# 
# 
# High freq. dielectric constant tensor:
#      x y z
#    x 1.825530 0.000000 -0.007950 
#    y 0.000000 1.784840 0.000000 
#    z -0.007950 0.000000 1.871350 
# 
# From -- ./inp_files/13231.got.cif
#   From: 2010.06.25/outbox.cif.g09.slc.cpg/sg15_7_cif.got.tgz:13231.got - 2010.06.28 07:06:18.
