data_PCOD8133921
_publ_section_title
;
Structure prediction by ZEFSAII (Michael W. Deem and Ramdas Pophale) SiO2 
 PCOD8133921
Probable space group: C 2/C
;
_chemical_formula_sum "Si O2"
_cell_formula_units_Z 48
_cell_length_a 26.758856
_cell_length_b 12.800537
_cell_length_c 12.496302
_cell_angle_alpha 90.000000
_cell_angle_beta 148.578515
_cell_angle_gamma 90.000000
_cell_volume 2231.462951
_symmetry_space_group_name_H-M "C 2/C"
_symmetry_group_IT_number 15
_symmetry_cell_setting 'monoclinic'
loop_
_space_group_symop_operation_xyz
x,y,z
-x,y,1/2-z
-x,-y,-z
x,-y,1/2+z
1/2+x,1/2+y,z
1/2-x,1/2+y,1/2-z
1/2-x,1/2-y,-z
1/2+x,1/2-y,1/2+z
loop_
_atom_site_type_symbol
_atom_site_label
_atom_site_fract_x
_atom_site_fract_y
_atom_site_fract_z
Si Si1 0.785375 0.392123 0.037920
Si Si2 0.794932 0.266942 0.732693
Si Si3 0.000000 0.288801 0.750000
Si Si4 0.857958 0.878673 0.918921
Si Si5 0.857264 0.195670 0.072520
Si Si6 0.500000 0.552337 0.250000
Si Si7 0.147126 0.378085 0.858968
O O1 0.697485 0.387297 0.793622
O O2 0.737474 0.370289 0.066054
O O3 0.862569 0.300928 0.153085
O O4 0.842555 0.499138 0.141777
O O5 0.716629 0.355671 0.621257
O O6 0.868593 0.319635 0.783336
O O7 0.744576 0.166435 0.587989
O O8 0.852296 0.226352 0.939117
O O9 0.932058 0.217651 0.551462
O O10 0.942155 0.362220 0.725525
O O11 0.915111 0.985331 0.042740
O O12 0.952494 0.124429 0.256573
#
# Coordination Sequence:
#
# PCOD8133921 Si02
#       7
#     8   8   4   8   8   4   8
#     4  10  21  38  58  80 115 160 193 227 287 354
#     4   9  19  37  57  81 112 152 193 232 285 353
#     4   9  20  35  56  92 124 145 186 247 288 324
#     4   9  19  36  58  84 117 150 189 240 285 332
#     4  10  22  36  54  82 118 150 191 240 286 339
#     4  11  20  33  58  88 114 147 194 241 282 326
#     4  10  19  34  60  84 111 152 196 235 286 344
#
# _framework density 21.510552000000001
#
# number of rings (size 3 to 8) (size 9 to 14) (size 15 to 20)
#    0.000    2.333    0.000    2.000    0.000    5.333 
#    0.000    0.000    0.000   21.000    0.000    0.000 
#    0.000    0.000    0.000    0.000    0.000    0.000 
#
# Total GULP energy -297551.414976 kJ/mol
# GULP energy per Si atom -12397.975624 kJ/mol
# Density = 2.146159 g / cm^3
# Si number density = 21.510552 Si / 1000 Ang^3
#
#
#
# Elastic Constant Matrix: (Units=GPa)
#
#
# Indices 1 2 3 4 5 6 
#
# 1 130.2256 64.8586 15.4388 0.0000 18.9294 0.0000
# 2 64.8586 150.1562 22.2506 0.0000 30.6813 0.0000
# 3 15.4388 22.2506 34.6951 0.0000 8.0664 0.0000
# 4 0.0000 0.0000 0.0000 17.4989 0.0000 5.9004
# 5 18.9294 30.6813 8.0664 0.0000 34.2097 0.0000
# 6 0.0000 0.0000 0.0000 5.9004 0.0000 23.2290
#
#
#
# Elastic Compliance Matrix: (Units=1/GPa)
#
#
# Indices 1 2 3 4 5 6 
#
# 1 0.009979 -0.003694 -0.001648 0.000000 -0.001820 0.000000
# 2 -0.003694 0.010006 -0.003345 0.000000 -0.006141 0.000000
# 3 -0.001648 -0.003345 0.032578 0.000000 -0.003769 0.000000
# 4 0.000000 0.000000 0.000000 0.062500 0.000000 -0.015875
# 5 -0.001820 -0.006141 -0.003769 0.000000 0.036635 0.000000
# 6 0.000000 0.000000 0.000000 -0.015875 0.000000 0.047082
#
#
# Mechanical properties :
#
#
# Convention : Reuss Voigt Hill
#
# Bulk Modulus (GPa) = 28.41960 57.79699 43.10829
# Shear Modulus (GPa) = 21.94104 29.15609 25.54857
#
# Velocity S-wave (km/s) = 3.19723 3.68561 3.45007
# Velocity P-wave (km/s) = 5.18366 6.71112 5.99623
#
# Compressibility (1/GPa) = 0.03518699
#
# Stress axis : x y z
#
# Youngs Moduli (GPa) = 100.21259 99.94101 30.69579
#
# Poissons Ratio (x) = 0.36920 0.05059
# Poissons Ratio (y) = 0.37020 0.10269
# Poissons Ratio (z) = 0.16517 0.33434
#
# Static dielectric constant tensor:
#      x y z
#    x 4.014460 0.000000 0.139280 
#    y 0.000000 3.971800 0.000000 
#    z 0.139280 0.000000 3.537830 
# 
# 
# High freq. dielectric constant tensor:
#      x y z
#    x 1.852180 0.000000 0.009850 
#    y 0.000000 1.852490 0.000000 
#    z 0.009850 0.000000 1.811690 
# 
# From -- ./inp_files/177919.got.cif
#   From: 2010.06.25/outbox.cif.g09.slc.cpg/sg15_89_cif.got.tgz:177919.got - 2010.06.28 07:06:18.
