data_PCOD8133640
_publ_section_title
;
Structure prediction by ZEFSAII (Michael W. Deem and Ramdas Pophale) SiO2 
 PCOD8133640
Probable space group: C 2/C
;
_chemical_formula_sum "Si O2"
_cell_formula_units_Z 36
_cell_length_a 7.879158
_cell_length_b 27.314799
_cell_length_c 10.575872
_cell_angle_alpha 90.000000
_cell_angle_beta 54.565876
_cell_angle_gamma 90.000000
_cell_volume 1854.538161
_symmetry_space_group_name_H-M "C 2/C"
_symmetry_group_IT_number 15
_symmetry_cell_setting 'monoclinic'
loop_
_space_group_symop_operation_xyz
x,y,z
-x,y,1/2-z
-x,-y,-z
x,-y,1/2+z
1/2+x,1/2+y,z
1/2-x,1/2+y,1/2-z
1/2-x,1/2-y,-z
1/2+x,1/2-y,1/2+z
loop_
_atom_site_type_symbol
_atom_site_label
_atom_site_fract_x
_atom_site_fract_y
_atom_site_fract_z
Si Si1 0.000000 0.242257 0.250000
Si Si2 0.500000 0.517627 0.250000
Si Si3 0.313377 0.064030 0.660524
Si Si4 0.738933 0.580430 0.975582
Si Si5 0.617471 0.312378 0.459488
Si Si6 0.000000 0.853455 0.250000
O O1 0.202109 0.275237 0.154273
O O2 0.025564 0.209934 0.366986
O O3 0.291690 0.484836 0.349271
O O4 0.470446 0.554712 0.380742
O O5 0.277006 0.057638 0.823895
O O6 0.558978 0.068757 0.523229
O O7 0.205076 0.112893 0.654253
O O8 0.714127 0.638422 0.975293
O O9 0.492510 0.321597 0.382338
#
# Coordination Sequence:
#
# PCOD8133640 Si02
#       6
#     4   4   8   8   8   4
#     4  10  21  36  57  80 106 136 181 220 271 328
#     4  11  19  30  52  80 104 138 186 222 247 305
#     4   9  19  33  51  76 107 143 175 215 263 314
#     4  10  19  34  53  73 108 144 177 214 268 319
#     4  10  20  36  56  79 105 142 177 222 270 318
#     4   9  18  34  57  78 106 140 181 218 266 317
#
# _framework density 19.411840999999999
#
# number of rings (size 3 to 8) (size 9 to 14) (size 15 to 20)
#    0.000    2.222    0.000    4.667    0.000    0.889 
#    0.000    0.000    0.000   18.667    0.000    0.000 
#    0.000    0.000    0.000    0.000    0.000    0.000 
#
# Total GULP energy -223054.573029 kJ/mol
# GULP energy per Si atom -12391.920724 kJ/mol
# Density = 1.936766 g / cm^3
# Si number density = 19.411841 Si / 1000 Ang^3
#
#
#
# Elastic Constant Matrix: (Units=GPa)
#
#
# Indices 1 2 3 4 5 6 
#
# 1 96.0651 41.0499 32.0224 0.0000 13.5010 0.0000
# 2 41.0499 96.4593 61.8549 0.0000 11.3900 0.0000
# 3 32.0224 61.8549 96.4632 0.0000 17.8786 0.0000
# 4 0.0000 0.0000 0.0000 28.3617 0.0000 0.4794
# 5 13.5010 11.3900 17.8786 0.0000 22.8349 0.0000
# 6 0.0000 0.0000 0.0000 0.4794 0.0000 2.1327
#
#
#
# Elastic Compliance Matrix: (Units=1/GPa)
#
#
# Indices 1 2 3 4 5 6 
#
# 1 0.013321 -0.004819 -0.000372 0.000000 -0.005181 0.000000
# 2 -0.004819 0.019350 -0.011168 0.000000 0.001941 0.000000
# 3 -0.000372 -0.011168 0.019392 0.000000 -0.009393 0.000000
# 4 0.000000 0.000000 0.000000 0.035393 0.000000 -0.007956
# 5 -0.005181 0.001941 -0.009393 0.000000 0.053242 0.000000
# 6 0.000000 0.000000 0.000000 -0.007956 0.000000 0.470681
#
#
# Mechanical properties :
#
#
# Convention : Reuss Voigt Hill
#
# Bulk Modulus (GPa) = 51.69026 62.09357 56.89191
# Shear Modulus (GPa) = 7.68587 20.93654 14.31121
#
# Velocity S-wave (km/s) = 1.99198 3.28768 2.71816
# Velocity P-wave (km/s) = 5.65479 6.81680 6.26280
#
# Compressibility (1/GPa) = 0.01934601
#
# Stress axis : x y z
#
# Youngs Moduli (GPa) = 75.07057 51.67966 51.56720
#
# Poissons Ratio (x) = 0.24902 0.01918
# Poissons Ratio (y) = 0.36173 0.57590
# Poissons Ratio (z) = 0.02792 0.57715
#
# Static dielectric constant tensor:
#      x y z
#    x 3.806130 0.000000 0.002350 
#    y 0.000000 3.645240 0.000000 
#    z 0.002350 0.000000 3.580970 
# 
# 
# High freq. dielectric constant tensor:
#      x y z
#    x 1.741380 0.000000 0.004270 
#    y 0.000000 1.768840 0.000000 
#    z 0.004270 0.000000 1.748700 
# 
# From -- ./inp_files/22577.got.cif
#   From: 2010.06.25/outbox.cif.g09.slc.cpg/sg15_12_cif.got.tgz:22577.got - 2010.06.28 07:06:18.
