data_PCOD8133139
_publ_section_title
;
Structure prediction by ZEFSAII (Michael W. Deem and Ramdas Pophale) SiO2 
 PCOD8133139
Probable space group: C 2/C
;
_chemical_formula_sum "Si O2"
_cell_formula_units_Z 60
_cell_length_a 19.443245
_cell_length_b 11.991494
_cell_length_c 15.034787
_cell_angle_alpha 90.000000
_cell_angle_beta 63.107836
_cell_angle_gamma 90.000000
_cell_volume 3126.336464
_symmetry_space_group_name_H-M "C 2/C"
_symmetry_group_IT_number 15
_symmetry_cell_setting 'monoclinic'
loop_
_space_group_symop_operation_xyz
x,y,z
-x,y,1/2-z
-x,-y,-z
x,-y,1/2+z
1/2+x,1/2+y,z
1/2-x,1/2+y,1/2-z
1/2-x,1/2-y,-z
1/2+x,1/2-y,1/2+z
loop_
_atom_site_type_symbol
_atom_site_label
_atom_site_fract_x
_atom_site_fract_y
_atom_site_fract_z
Si Si1 0.640324 0.421589 0.593583
Si Si2 0.990073 0.859264 0.579695
Si Si3 0.739736 0.582382 0.869075
Si Si4 0.759108 0.175035 0.130438
Si Si5 0.500000 0.340668 0.250000
Si Si6 0.646288 0.316064 0.092148
Si Si7 0.914852 0.085569 0.632646
Si Si8 0.349057 0.265274 0.746628
O O1 0.552188 0.398717 0.616214
O O2 0.700381 0.377196 0.484236
O O3 0.653140 0.551781 0.601568
O O4 0.654929 0.359325 0.676512
O O5 0.035139 0.830827 0.461146
O O6 0.935567 0.759757 0.651831
O O7 0.930244 0.958889 0.590997
O O8 0.763743 0.453874 0.864322
O O9 0.676708 0.604303 0.827402
O O10 0.820116 0.647381 0.803689
O O11 0.686353 0.250690 0.149043
O O12 0.784772 0.200569 0.213957
O O13 0.825008 0.214665 0.022465
O O14 0.556959 0.274192 0.151146
O O15 0.559483 0.408412 0.279349
#
# Coordination Sequence:
#
# PCOD8133139 Si02
#       8
#     8   8   8   8   4   8   8   8
#     4  10  21  36  57  83 112 144 185 237 285 329
#     4  10  19  33  53  82 110 141 180 237 282 320
#     4  10  22  38  52  81 119 150 183 224 285 342
#     4  10  22  37  54  81 118 149 181 230 276 345
#     4  12  18  28  56  84 106 140 180 234 274 320
#     4  10  21  36  56  84 113 144 184 232 288 324
#     4  10  19  32  52  81 113 139 178 236 282 318
#     4  12  21  32  56  84 112 147 185 228 284 339
#
# _framework density 19.191793000000001
#
# number of rings (size 3 to 8) (size 9 to 14) (size 15 to 20)
#    0.000    1.600    2.667    3.200    1.867    0.000 
#    0.000    0.000    2.933    0.000    0.000    3.733 
#    0.000    0.000    0.000    0.000    0.000    0.000 
#
# Total GULP energy -371689.928556 kJ/mol
# GULP energy per Si atom -12389.664285 kJ/mol
# Density = 1.914811 g / cm^3
# Si number density = 19.191793 Si / 1000 Ang^3
#
#
#
# Elastic Constant Matrix: (Units=GPa)
#
#
# Indices 1 2 3 4 5 6 
#
# 1 84.9644 43.4123 34.9496 0.0000 0.9595 0.0000
# 2 43.4123 56.9871 26.9234 0.0000 -9.9382 0.0000
# 3 34.9496 26.9234 65.1337 0.0000 8.1850 0.0000
# 4 0.0000 0.0000 0.0000 19.2504 0.0000 -0.0286
# 5 0.9595 -9.9382 8.1850 0.0000 45.6045 0.0000
# 6 0.0000 0.0000 0.0000 -0.0286 0.0000 27.3451
#
#
#
# Elastic Compliance Matrix: (Units=1/GPa)
#
#
# Indices 1 2 3 4 5 6 
#
# 1 0.021139 -0.014104 -0.005188 0.000000 -0.002587 0.000000
# 2 -0.014104 0.033289 -0.007306 0.000000 0.008862 0.000000
# 3 -0.005188 -0.007306 0.021836 0.000000 -0.005402 0.000000
# 4 0.000000 0.000000 0.000000 0.051947 0.000000 0.000054
# 5 -0.002587 0.008862 -0.005402 0.000000 0.024883 0.000000
# 6 0.000000 0.000000 0.000000 0.000054 0.000000 0.036570
#
#
# Mechanical properties :
#
#
# Convention : Reuss Voigt Hill
#
# Bulk Modulus (GPa) = 43.34937 46.40620 44.87779
# Shear Modulus (GPa) = 19.95618 25.22667 22.59142
#
# Velocity S-wave (km/s) = 3.22814 3.62947 3.43467
# Velocity P-wave (km/s) = 6.04409 6.46504 6.25810
#
# Compressibility (1/GPa) = 0.02306839
#
# Stress axis : x y z
#
# Youngs Moduli (GPa) = 47.30551 30.03967 45.79660
#
# Poissons Ratio (x) = 0.42367 0.23759
# Poissons Ratio (y) = 0.66719 0.33460
# Poissons Ratio (z) = 0.24542 0.21947
#
# Static dielectric constant tensor:
#      x y z
#    x 3.600840 0.000000 -0.138120 
#    y 0.000000 3.172300 0.000000 
#    z -0.138120 0.000000 3.999930 
# 
# 
# High freq. dielectric constant tensor:
#      x y z
#    x 1.745490 0.000000 0.004460 
#    y 0.000000 1.688490 0.000000 
#    z 0.004460 0.000000 1.775900 
# 
# From -- ./inp_files/161321.got.cif
#   From: 2010.06.25/outbox.cif.g09.slc.cpg/sg15_81_cif.got.tgz:161321.got - 2010.06.28 07:06:18.
