data_PCOD8133297
_publ_section_title
;
Structure prediction by ZEFSAII (Michael W. Deem and Ramdas Pophale) SiO2 
 PCOD8133297
Probable space group: C 2/C
;
_chemical_formula_sum "Si O2"
_cell_formula_units_Z 56
_cell_length_a 13.909115
_cell_length_b 28.828145
_cell_length_c 14.358246
_cell_angle_alpha 90.000000
_cell_angle_beta 31.935488
_cell_angle_gamma 90.000000
_cell_volume 3045.395911
_symmetry_space_group_name_H-M "C 2/C"
_symmetry_group_IT_number 15
_symmetry_cell_setting 'monoclinic'
loop_
_space_group_symop_operation_xyz
x,y,z
-x,y,1/2-z
-x,-y,-z
x,-y,1/2+z
1/2+x,1/2+y,z
1/2-x,1/2+y,1/2-z
1/2-x,1/2-y,-z
1/2+x,1/2-y,1/2+z
loop_
_atom_site_type_symbol
_atom_site_label
_atom_site_fract_x
_atom_site_fract_y
_atom_site_fract_z
Si Si1 0.378426 0.981767 0.265425
Si Si2 0.589649 0.605594 0.407733
Si Si3 0.528581 0.915784 0.833301
Si Si4 0.735900 0.569788 0.713730
Si Si5 0.087236 0.278672 0.089554
Si Si6 0.601455 0.311896 0.762301
Si Si7 0.017910 0.019179 0.340071
O O1 0.500000 0.960917 0.250000
O O2 0.365239 0.943461 0.195130
O O3 0.177618 0.996847 0.462674
O O4 0.467668 0.028794 0.154915
O O5 0.787884 0.610442 0.289410
O O6 0.431361 0.601903 0.615254
O O7 0.546610 0.651562 0.385136
O O8 0.594550 0.560683 0.338471
O O9 0.500000 0.901941 0.750000
O O10 0.357035 0.901286 0.039692
O O11 0.655296 0.523636 0.732548
O O12 0.000000 0.306376 0.250000
O O13 0.950237 0.240130 0.159155
O O14 0.250000 0.250000 0.000000
O O15 0.177805 0.312774 0.938410
O O16 0.500000 0.325264 0.750000
O O17 0.000000 0.037214 0.250000
#
# Coordination Sequence:
#
# PCOD8133297 Si02
#       7
#     8   8   8   8   8   8   8
#     4  10  19  33  52  73  98 139 192 228 270 324
#     4  11  22  36  50  82 112 138 182 235 272 317
#     4  11  22  36  54  71  99 142 192 236 269 311
#     4  11  22  37  51  74 107 147 193 228 274 321
#     4   7  13  29  55  77 103 143 172 194 251 333
#     4   9  17  34  55  81 116 142 172 213 261 333
#     4  11  20  33  53  72 107 154 187 229 276 310
#
# _framework density 18.388414000000001
#
# number of rings (size 3 to 8) (size 9 to 14) (size 15 to 20)
#    0.000    2.286    2.857    3.429    2.000    0.000 
#    7.714    0.000    0.000    0.000    0.000    1.000 
#    0.000    0.000    0.000    0.000    0.000    0.000 
#
# Total GULP energy -347020.667525 kJ/mol
# GULP energy per Si atom -12393.595269 kJ/mol
# Density = 1.834656 g / cm^3
# Si number density = 18.388414 Si / 1000 Ang^3
#
#
#
# Elastic Constant Matrix: (Units=GPa)
#
#
# Indices 1 2 3 4 5 6 
#
# 1 96.8032 15.0174 44.7919 0.0011 -1.4467 0.0013
# 2 15.0174 42.9006 30.8045 0.0000 2.9509 -0.0001
# 3 44.7919 30.8045 137.7265 0.0009 10.1815 0.0011
# 4 0.0011 0.0000 0.0009 1.3423 -0.0006 -1.9997
# 5 -1.4467 2.9509 10.1815 -0.0006 27.1301 -0.0009
# 6 0.0013 -0.0001 0.0011 -1.9997 -0.0009 10.3549
#
#
#
# Elastic Compliance Matrix: (Units=1/GPa)
#
#
# Indices 1 2 3 4 5 6 
#
# 1 0.012399 -0.001764 -0.003807 -0.000012 0.002282 -0.000003
# 2 -0.001764 0.028034 -0.005620 0.000009 -0.001034 0.000003
# 3 -0.003807 -0.005620 0.010003 -0.000009 -0.003346 -0.000003
# 4 -0.000012 0.000009 -0.000009 1.045923 0.000033 0.201986
# 5 0.002282 -0.001034 -0.003346 0.000033 0.038349 0.000010
# 6 -0.000003 0.000003 -0.000003 0.201986 0.000010 0.135580
#
#
# Mechanical properties :
#
#
# Convention : Reuss Voigt Hill
#
# Bulk Modulus (GPa) = 35.64449 50.96201 43.30325
# Shear Modulus (GPa) = 3.84018 20.21990 12.03004
#
# Velocity S-wave (km/s) = 1.44669 3.31962 2.56054
# Velocity P-wave (km/s) = 4.71347 6.51671 5.68702
#
# Compressibility (1/GPa) = 0.02805483
#
# Stress axis : x y z
#
# Youngs Moduli (GPa) = 80.64911 35.67134 99.96872
#
# Poissons Ratio (x) = 0.06292 0.38055
# Poissons Ratio (y) = 0.14226 0.56182
# Poissons Ratio (z) = 0.30701 0.20047
#
# Static dielectric constant tensor:
#      x y z
#    x 3.393040 0.000000 -0.035930 
#    y 0.000000 3.048100 0.000000 
#    z -0.035930 0.000000 4.178700 
# 
# 
# High freq. dielectric constant tensor:
#      x y z
#    x 1.696850 0.000000 -0.005250 
#    y 0.000000 1.649440 0.000000 
#    z -0.005250 0.000000 1.740360 
# 
# From -- ./inp_files/157453.got.cif
#   From: 2010.06.25/outbox.cif.g09.slc.cpg/sg15_79_cif.got.tgz:157453.got - 2010.06.28 07:06:18.
