data_PCOD8133652
_publ_section_title
;
Structure prediction by ZEFSAII (Michael W. Deem and Ramdas Pophale) SiO2 
 PCOD8133652
Probable space group: C 2/C
;
_chemical_formula_sum "Si O2"
_cell_formula_units_Z 60
_cell_length_a 19.129448
_cell_length_b 26.294107
_cell_length_c 5.615882
_cell_angle_alpha 90.000000
_cell_angle_beta 78.670784
_cell_angle_gamma 90.000000
_cell_volume 2769.701138
_symmetry_space_group_name_H-M "C 2/C"
_symmetry_group_IT_number 15
_symmetry_cell_setting 'monoclinic'
loop_
_space_group_symop_operation_xyz
x,y,z
-x,y,1/2-z
-x,-y,-z
x,-y,1/2+z
1/2+x,1/2+y,z
1/2-x,1/2+y,1/2-z
1/2-x,1/2-y,-z
1/2+x,1/2-y,1/2+z
loop_
_atom_site_type_symbol
_atom_site_label
_atom_site_fract_x
_atom_site_fract_y
_atom_site_fract_z
Si Si1 0.389850 0.688135 0.169319
Si Si2 0.000000 0.777427 0.250000
Si Si3 0.425472 0.215325 0.921686
Si Si4 0.714302 0.478756 0.279790
Si Si5 0.197972 0.126177 0.972093
Si Si6 0.332755 0.128413 0.178228
Si Si7 0.875061 0.483159 0.694539
Si Si8 0.256414 0.308275 0.446397
O O1 0.382131 0.744423 0.289025
O O2 0.380098 0.642838 0.372150
O O3 0.464739 0.686469 0.976648
O O4 0.325527 0.673777 0.041917
O O5 0.060027 0.741810 0.331106
O O6 0.500000 0.200718 0.750000
O O7 0.380543 0.163625 0.973650
O O8 0.681207 0.499614 0.553771
O O9 0.692695 0.419181 0.284805
O O10 0.798792 0.488527 0.226595
O O11 0.258055 0.108652 0.119458
O O12 0.230188 0.177964 0.836287
O O13 0.374361 0.077722 0.223493
O O14 0.314568 0.162165 0.421559
O O15 0.913640 0.496740 0.413619
O O16 0.250000 0.250000 0.500000
#
# Coordination Sequence:
#
# PCOD8133652 Si02
#       8
#     8   4   8   8   8   8   8   8
#     4  10  21  35  54  80 112 147 188 236 279 351
#     4  10  20  40  58  74 110 152 196 238 282 338
#     4  10  22  40  56  79 109 151 199 238 284 345
#     4  10  19  34  53  81 120 155 191 237 286 350
#     4  11  21  32  55  85 117 148 190 231 296 349
#     4  11  21  33  57  81 113 153 189 240 294 349
#     4  10  19  35  54  83 113 154 194 240 293 350
#     4  11  21  32  50  84 119 146 180 232 294 352
#
# _framework density 21.662987000000001
#
# number of rings (size 3 to 8) (size 9 to 14) (size 15 to 20)
#    0.000    1.600    2.667    4.800    1.867    3.200 
#    0.000    0.000    0.000    0.800    0.000    0.933 
#    0.000    0.000    0.000    0.000    0.000    0.000 
#
# Total GULP energy -371658.178309 kJ/mol
# GULP energy per Si atom -12388.605944 kJ/mol
# Density = 2.161368 g / cm^3
# Si number density = 21.662987 Si / 1000 Ang^3
#
#
#
# Elastic Constant Matrix: (Units=GPa)
#
#
# Indices 1 2 3 4 5 6 
#
# 1 31.4520 4.0647 8.1860 0.0000 -11.5854 0.0000
# 2 4.0647 74.5938 28.8899 0.0000 -19.0199 0.0000
# 3 8.1860 28.8899 128.4819 0.0000 -5.1615 0.0000
# 4 0.0000 0.0000 0.0000 35.6226 0.0000 -1.5806
# 5 -11.5854 -19.0199 -5.1615 0.0000 26.1165 0.0000
# 6 0.0000 0.0000 0.0000 -1.5806 0.0000 15.4603
#
#
#
# Elastic Compliance Matrix: (Units=1/GPa)
#
#
# Indices 1 2 3 4 5 6 
#
# 1 0.039230 0.003892 -0.002582 0.000000 0.019727 0.000000
# 2 0.003892 0.018311 -0.003790 0.000000 0.014313 0.000000
# 3 -0.002582 -0.003790 0.008712 0.000000 -0.002184 0.000000
# 4 0.000000 0.000000 0.000000 0.028200 0.000000 0.002883
# 5 0.019727 0.014313 -0.002184 0.000000 0.057033 0.000000
# 6 0.000000 0.000000 0.000000 0.002883 0.000000 0.064977
#
#
# Mechanical properties :
#
#
# Convention : Reuss Voigt Hill
#
# Bulk Modulus (GPa) = 16.31507 35.20098 25.75803
# Shear Modulus (GPa) = 20.67356 28.33236 24.50296
#
# Velocity S-wave (km/s) = 3.09257 3.62037 3.36683
# Velocity P-wave (km/s) = 4.50551 5.81040 5.19906
#
# Compressibility (1/GPa) = 0.06129302
#
# Stress axis : x y z
#
# Youngs Moduli (GPa) = 25.49077 54.61069 114.78063
#
# Poissons Ratio (x) = -0.21256 0.29639
# Poissons Ratio (y) = -0.09922 0.43507
# Poissons Ratio (z) = 0.06582 0.20700
#
# Static dielectric constant tensor:
#      x y z
#    x 3.569820 0.000000 0.103400 
#    y 0.000000 3.788520 0.000000 
#    z 0.103400 0.000000 4.641760 
# 
# 
# High freq. dielectric constant tensor:
#      x y z
#    x 1.788900 0.000000 -0.000530 
#    y 0.000000 1.842620 0.000000 
#    z -0.000530 0.000000 1.876240 
# 
# From -- ./inp_files/14270.got.cif
#   From: 2010.06.25/outbox.cif.g09.slc.cpg/sg15_8_cif.got.tgz:14270.got - 2010.06.28 07:06:18.
