data_PCOD8133824
_publ_section_title
;
Structure prediction by ZEFSAII (Michael W. Deem and Ramdas Pophale) SiO2 
 PCOD8133824
Probable space group: C 2/C
;
_chemical_formula_sum "Si O2"
_cell_formula_units_Z 48
_cell_length_a 21.671606
_cell_length_b 9.073081
_cell_length_c 22.480545
_cell_angle_alpha 90.000000
_cell_angle_beta 29.141572
_cell_angle_gamma 90.000000
_cell_volume 2152.554936
_symmetry_space_group_name_H-M "C 2/C"
_symmetry_group_IT_number 15
_symmetry_cell_setting 'monoclinic'
loop_
_space_group_symop_operation_xyz
x,y,z
-x,y,1/2-z
-x,-y,-z
x,-y,1/2+z
1/2+x,1/2+y,z
1/2-x,1/2+y,1/2-z
1/2-x,1/2-y,-z
1/2+x,1/2-y,1/2+z
loop_
_atom_site_type_symbol
_atom_site_label
_atom_site_fract_x
_atom_site_fract_y
_atom_site_fract_z
Si Si1 0.906618 0.798130 0.994965
Si Si2 0.113065 0.672437 0.898782
Si Si3 0.946193 0.963719 0.177061
Si Si4 0.601989 0.222583 0.110849
Si Si5 0.694656 0.495791 0.826459
Si Si6 0.318296 0.006809 0.545979
O O1 0.976848 0.718568 0.990398
O O2 0.835362 0.936786 0.083885
O O3 0.817670 0.670998 0.043619
O O4 0.994206 0.870367 0.869439
O O5 0.167895 0.556580 0.805123
O O6 0.100987 0.585149 0.970265
O O7 0.200797 0.819355 0.828445
O O8 0.902094 0.950011 0.144799
O O9 0.829314 0.947876 0.321413
O O10 0.051892 0.843875 0.105706
O O11 0.500000 0.214234 0.250000
O O12 0.750000 0.250000 0.000000
O O13 0.612659 0.062342 0.071597
#
# Coordination Sequence:
#
# PCOD8133824 Si02
#       6
#     8   8   8   8   8   8
#     4  11  20  36  59  93 136 170 211 251 320 390
#     4  10  20  34  58  92 135 172 212 250 310 389
#     4  10  22  41  63  94 132 168 214 270 323 381
#     4  12  25  49  73  93 121 164 224 282 336 390
#     4  10  19  34  57  92 134 175 207 256 314 383
#     4  11  23  40  64  97 129 171 218 268 323 385
#
# _framework density 22.299081999999999
#
# number of rings (size 3 to 8) (size 9 to 14) (size 15 to 20)
#    0.000    1.333    1.667    7.500    0.000    2.667 
#    6.000    1.667    0.000    0.000    0.000    0.000 
#    0.000    0.000    0.000    0.000    0.000    0.000 
#
# Total GULP energy -297319.853656 kJ/mol
# GULP energy per Si atom -12388.327236 kJ/mol
# Density = 2.224833 g / cm^3
# Si number density = 22.299082 Si / 1000 Ang^3
#
#
#
# Elastic Constant Matrix: (Units=GPa)
#
#
# Indices 1 2 3 4 5 6 
#
# 1 24.5002 14.5121 34.0126 0.0000 5.3235 0.0000
# 2 14.5121 134.2123 41.6657 -0.0001 12.0239 -0.0001
# 3 34.0126 41.6657 108.3406 0.0000 12.9406 -0.0001
# 4 0.0000 -0.0001 0.0000 47.3344 0.0000 -3.5473
# 5 5.3235 12.0239 12.9406 0.0000 29.7704 0.0001
# 6 0.0000 -0.0001 -0.0001 -3.5473 0.0001 14.5057
#
#
#
# Elastic Compliance Matrix: (Units=1/GPa)
#
#
# Indices 1 2 3 4 5 6 
#
# 1 0.072700 -0.000697 -0.022188 0.000000 -0.003074 0.000000
# 2 -0.000697 0.008596 -0.002834 0.000000 -0.002115 0.000000
# 3 -0.022188 -0.002834 0.017588 0.000000 -0.002533 0.000000
# 4 0.000000 0.000000 0.000000 0.021521 0.000000 0.005263
# 5 -0.003074 -0.002115 -0.002533 0.000000 0.036095 0.000000
# 6 0.000000 0.000000 0.000000 0.005263 0.000000 0.070226
#
#
# Mechanical properties :
#
#
# Convention : Reuss Voigt Hill
#
# Bulk Modulus (GPa) = 21.07724 49.71488 35.39606
# Shear Modulus (GPa) = 17.00800 30.11294 23.56047
#
# Velocity S-wave (km/s) = 2.76474 3.67878 3.25401
# Velocity P-wave (km/s) = 4.43444 6.35512 5.47959
#
# Compressibility (1/GPa) = 0.04744454
#
# Stress axis : x y z
#
# Youngs Moduli (GPa) = 13.75522 116.33840 56.85544
#
# Poissons Ratio (x) = 0.08112 1.26152
# Poissons Ratio (y) = 0.00959 0.16114
# Poissons Ratio (z) = 0.30520 0.32973
#
# Static dielectric constant tensor:
#      x y z
#    x 3.731970 0.000000 -0.010280 
#    y 0.000000 4.410340 0.000000 
#    z -0.010280 0.000000 4.121750 
# 
# 
# High freq. dielectric constant tensor:
#      x y z
#    x 1.832100 0.000000 -0.003750 
#    y 0.000000 1.892140 0.000000 
#    z -0.003750 0.000000 1.885550 
# 
# From -- ./inp_files/281594.got.cif
#   From: 2010.06.25/outbox.cif.g09.slc.cpg/sg15_141_cif.got.tgz:281594.got - 2010.06.28 07:06:18.
