data_PCOD8133656
_publ_section_title
;
Structure prediction by ZEFSAII (Michael W. Deem and Ramdas Pophale) SiO2 
 PCOD8133656
Probable space group: C 2/C
;
_chemical_formula_sum "Si O2"
_cell_formula_units_Z 52
_cell_length_a 27.651651
_cell_length_b 5.557451
_cell_length_c 22.271261
_cell_angle_alpha 90.000000
_cell_angle_beta 128.827801
_cell_angle_gamma 90.000000
_cell_volume 2666.231383
_symmetry_space_group_name_H-M "C 2/C"
_symmetry_group_IT_number 15
_symmetry_cell_setting 'monoclinic'
loop_
_space_group_symop_operation_xyz
x,y,z
-x,y,1/2-z
-x,-y,-z
x,-y,1/2+z
1/2+x,1/2+y,z
1/2-x,1/2+y,1/2-z
1/2-x,1/2-y,-z
1/2+x,1/2-y,1/2+z
loop_
_atom_site_type_symbol
_atom_site_label
_atom_site_fract_x
_atom_site_fract_y
_atom_site_fract_z
Si Si1 0.895375 0.893340 0.137086
Si Si2 0.500000 0.068685 0.250000
Si Si3 0.901095 0.733585 0.734904
Si Si4 0.171326 0.751127 0.705032
Si Si5 0.688583 0.750903 0.651841
Si Si6 0.200569 0.514670 0.423130
Si Si7 0.325035 0.326610 0.493155
O O1 0.951112 0.708124 0.169132
O O2 0.827040 0.780923 0.093531
O O3 0.914971 0.009977 0.215685
O O4 0.887885 0.072122 0.074196
O O5 0.537372 0.921231 0.228829
O O6 0.886132 0.754628 0.793401
O O7 0.840701 0.635358 0.654739
O O8 0.236798 0.752263 0.790727
O O9 0.164579 0.500385 0.662994
O O10 0.164845 0.000598 0.662963
O O11 0.660541 0.753571 0.563086
O O12 0.270101 0.527582 0.450740
O O13 0.199839 0.401568 0.489174
#
# Coordination Sequence:
#
# PCOD8133656 Si02
#       7
#     8   4   8   8   8   8   8
#     4  10  21  34  60  86 112 157 192 256 307 357
#     4  10  22  38  58  86 112 148 206 260 314 346
#     4  10  20  37  57  85 117 150 206 251 303 350
#     4  10  22  37  57  86 121 169 200 244 284 363
#     4  10  22  36  57  86 125 166 203 231 295 363
#     4   9  19  32  54  87 119 154 186 245 307 360
#     4  10  19  34  53  88 124 153 195 239 302 368
#
# _framework density 19.503184999999998
#
# number of rings (size 3 to 8) (size 9 to 14) (size 15 to 20)
#    0.000    2.154    1.538    0.923    6.462    1.231 
#    0.000    0.000    0.000    1.846    0.000    0.000 
#    0.000    0.000    0.000    0.000    0.000    0.000 
#
# Total GULP energy -322186.820783 kJ/mol
# GULP energy per Si atom -12391.800799 kJ/mol
# Density = 1.945879 g / cm^3
# Si number density = 19.503185 Si / 1000 Ang^3
#
#
#
# Elastic Constant Matrix: (Units=GPa)
#
#
# Indices 1 2 3 4 5 6 
#
# 1 106.2612 40.0871 41.1120 0.0176 -15.1722 -0.0140
# 2 40.0871 115.6960 33.6166 0.0482 -11.6204 -0.0647
# 3 41.1120 33.6166 67.9700 0.0024 -21.4659 -0.0095
# 4 0.0176 0.0482 0.0024 23.0976 -0.0006 1.9847
# 5 -15.1722 -11.6204 -21.4659 -0.0006 33.0799 0.0038
# 6 -0.0140 -0.0647 -0.0095 1.9847 0.0038 7.5124
#
#
#
# Elastic Compliance Matrix: (Units=1/GPa)
#
#
# Indices 1 2 3 4 5 6 
#
# 1 0.012936 -0.002569 -0.006245 -0.000003 0.000978 -0.000005
# 2 -0.002569 0.010608 -0.003632 -0.000027 0.000191 0.000089
# 3 -0.006245 -0.003632 0.023870 0.000012 0.011350 -0.000022
# 4 -0.000003 -0.000027 0.000012 0.044300 -0.000001 -0.011704
# 5 0.000978 0.000191 0.011350 -0.000001 0.038111 -0.000001
# 6 -0.000005 0.000089 -0.000022 -0.011704 -0.000001 0.136205
#
#
# Mechanical properties :
#
#
# Convention : Reuss Voigt Hill
#
# Bulk Modulus (GPa) = 44.40096 57.72871 51.06484
# Shear Modulus (GPa) = 16.75438 24.41209 20.58324
#
# Velocity S-wave (km/s) = 2.93415 3.54177 3.25218
# Velocity P-wave (km/s) = 5.85614 6.81098 6.35153
#
# Compressibility (1/GPa) = 0.02252203
#
# Stress axis : x y z
#
# Youngs Moduli (GPa) = 77.30517 94.26666 41.89330
#
# Poissons Ratio (x) = 0.24221 0.26160
# Poissons Ratio (y) = 0.19863 0.15216
# Poissons Ratio (z) = 0.48273 0.34239
#
# Static dielectric constant tensor:
#      x y z
#    x 3.385390 0.000020 0.013080 
#    y 0.000020 3.829800 0.000000 
#    z 0.013080 0.000000 3.404190 
# 
# 
# High freq. dielectric constant tensor:
#      x y z
#    x 1.731610 0.000000 -0.000560 
#    y 0.000000 1.773750 0.000000 
#    z -0.000560 0.000000 1.742060 
# 
# From -- ./inp_files/254278.got.cif
#   From: 2010.06.25/outbox.cif.g09.slc.cpg/sg15_128_cif.got.tgz:254278.got - 2010.06.28 07:06:18.
