data_PCOD8133823
_publ_section_title
;
Structure prediction by ZEFSAII (Michael W. Deem and Ramdas Pophale) SiO2 
 PCOD8133823
Probable space group: C 2/C
;
_chemical_formula_sum "Si O2"
_cell_formula_units_Z 56
_cell_length_a 14.925558
_cell_length_b 17.680699
_cell_length_c 19.101635
_cell_angle_alpha 90.000000
_cell_angle_beta 150.305154
_cell_angle_gamma 90.000000
_cell_volume 2497.120397
_symmetry_space_group_name_H-M "C 2/C"
_symmetry_group_IT_number 15
_symmetry_cell_setting 'monoclinic'
loop_
_space_group_symop_operation_xyz
x,y,z
-x,y,1/2-z
-x,-y,-z
x,-y,1/2+z
1/2+x,1/2+y,z
1/2-x,1/2+y,1/2-z
1/2-x,1/2-y,-z
1/2+x,1/2-y,1/2+z
loop_
_atom_site_type_symbol
_atom_site_label
_atom_site_fract_x
_atom_site_fract_y
_atom_site_fract_z
Si Si1 0.850070 0.739809 0.196400
Si Si2 0.793596 0.092036 0.619478
Si Si3 0.128901 0.141117 0.398161
Si Si4 0.088875 0.486437 0.385173
Si Si5 0.569604 0.238833 0.964656
Si Si6 0.034626 0.805933 0.081190
Si Si7 0.324818 0.093978 0.811026
O O1 0.789481 0.817616 0.117196
O O2 0.934334 0.755146 0.329213
O O3 0.000000 0.699454 0.250000
O O4 0.677410 0.684694 0.081538
O O5 0.694846 0.060823 0.623529
O O6 0.000000 0.062772 0.750000
O O7 0.676218 0.063094 0.474128
O O8 0.253514 0.075872 0.516037
O O9 0.253573 0.201929 0.445928
O O10 0.017535 0.186844 0.382421
O O11 0.000000 0.106271 0.250000
O O12 0.000000 0.501772 0.250000
O O13 0.934108 0.461271 0.335108
O O14 0.406206 0.179564 0.863657
O O15 0.632953 0.265522 0.083627
O O16 0.117693 0.890575 0.145782
#
# Coordination Sequence:
#
# PCOD8133823 Si02
#       7
#     8   8   8   8   8   8   8
#     4  10  22  37  61  90 124 162 206 255 320 374
#     4  10  21  42  65  85 123 176 222 259 311 381
#     4  10  21  34  59  90 126 166 208 254 318 385
#     4  11  23  41  63  92 126 167 222 271 319 375
#     4  10  19  34  57  92 129 160 200 253 319 387
#     4  11  18  36  59  88 125 156 200 251 315 379
#     4  10  21  38  65  92 128 168 204 265 327 383
#
# _framework density 22.425830999999999
#
# number of rings (size 3 to 8) (size 9 to 14) (size 15 to 20)
#    0.000    1.714    2.857    3.000    0.000    4.000 
#    0.000    5.714    0.000    0.000    0.000    0.000 
#    0.000    0.000    0.000    0.000    0.000    0.000 
#
# Total GULP energy -347033.009689 kJ/mol
# GULP energy per Si atom -12394.036060 kJ/mol
# Density = 2.237479 g / cm^3
# Si number density = 22.425831 Si / 1000 Ang^3
#
#
#
# Elastic Constant Matrix: (Units=GPa)
#
#
# Indices 1 2 3 4 5 6 
#
# 1 120.1906 27.7784 41.9721 0.0042 -15.3477 0.0135
# 2 27.7784 41.6317 21.7937 -0.0144 -11.8373 -0.0069
# 3 41.9721 21.7937 115.7820 -0.0186 -21.0477 0.0002
# 4 0.0042 -0.0144 -0.0186 24.2875 -0.0020 -5.4759
# 5 -15.3477 -11.8373 -21.0477 -0.0020 38.4138 0.0027
# 6 0.0135 -0.0069 0.0002 -5.4759 0.0027 15.9445
#
#
#
# Elastic Compliance Matrix: (Units=1/GPa)
#
#
# Indices 1 2 3 4 5 6 
#
# 1 0.010631 -0.005391 -0.002631 -0.000010 0.001145 -0.000015
# 2 -0.005391 0.030716 -0.002775 0.000023 0.005791 0.000025
# 3 -0.002631 -0.002775 0.010847 0.000008 0.004037 0.000003
# 4 -0.000010 0.000023 0.000008 0.044629 0.000009 0.015327
# 5 0.001145 0.005791 0.004037 0.000009 0.030486 -0.000001
# 6 -0.000015 0.000025 0.000003 0.015327 -0.000001 0.067981
#
#
# Mechanical properties :
#
#
# Convention : Reuss Voigt Hill
#
# Bulk Modulus (GPa) = 32.67856 51.18808 41.93332
# Shear Modulus (GPa) = 22.01827 28.13317 25.07572
#
# Velocity S-wave (km/s) = 3.13681 3.54573 3.34752
# Velocity P-wave (km/s) = 5.26525 6.29587 5.80349
#
# Compressibility (1/GPa) = 0.03060111
#
# Stress axis : x y z
#
# Youngs Moduli (GPa) = 94.06470 32.55604 92.19250
#
# Poissons Ratio (x) = 0.17550 0.24256
# Poissons Ratio (y) = 0.50707 0.25582
# Poissons Ratio (z) = 0.24749 0.09034
#
# Static dielectric constant tensor:
#      x y z
#    x 4.537290 -0.000010 0.133520 
#    y -0.000010 3.598420 -0.000010 
#    z 0.133520 -0.000010 4.148470 
# 
# 
# High freq. dielectric constant tensor:
#      x y z
#    x 1.904830 0.000000 0.001730 
#    y 0.000000 1.841380 0.000000 
#    z 0.001730 0.000000 1.884990 
# 
# From -- ./inp_files/207008.got.cif
#   From: 2010.06.25/outbox.cif.g09.slc.cpg/sg15_104_cif.got.tgz:207008.got - 2010.06.28 07:06:18.
