data_PCOD8133646
_publ_section_title
;
Structure prediction by ZEFSAII (Michael W. Deem and Ramdas Pophale) SiO2 
 PCOD8133646
Probable space group: C 2/C
;
_chemical_formula_sum "Si O2"
_cell_formula_units_Z 64
_cell_length_a 14.255786
_cell_length_b 27.206591
_cell_length_c 13.638185
_cell_angle_alpha 90.000000
_cell_angle_beta 134.525647
_cell_angle_gamma 90.000000
_cell_volume 3771.141286
_symmetry_space_group_name_H-M "C 2/C"
_symmetry_group_IT_number 15
_symmetry_cell_setting 'monoclinic'
loop_
_space_group_symop_operation_xyz
x,y,z
-x,y,1/2-z
-x,-y,-z
x,-y,1/2+z
1/2+x,1/2+y,z
1/2-x,1/2+y,1/2-z
1/2-x,1/2-y,-z
1/2+x,1/2-y,1/2+z
loop_
_atom_site_type_symbol
_atom_site_label
_atom_site_fract_x
_atom_site_fract_y
_atom_site_fract_z
Si Si1 0.064142 0.113109 0.600258
Si Si2 0.393587 0.528742 0.562044
Si Si3 0.511658 0.904894 0.875745
Si Si4 0.001500 0.920568 0.642859
Si Si5 0.756550 0.541735 0.234795
Si Si6 0.898270 0.695568 0.087212
Si Si7 0.905048 0.804030 0.086670
Si Si8 0.241791 0.943722 0.345720
O O1 0.205047 0.107502 0.759486
O O2 0.006446 0.059958 0.590830
O O3 0.078261 0.114055 0.492543
O O4 0.970109 0.158316 0.558436
O O5 0.431363 0.472491 0.595674
O O6 0.267165 0.534318 0.398831
O O7 0.372649 0.545930 0.658366
O O8 0.500000 0.905481 0.750000
O O9 0.385879 0.925254 0.839922
O O10 0.543606 0.848879 0.935302
O O11 0.629024 0.939203 0.995359
O O12 0.148712 0.925459 0.710720
O O13 0.000000 0.896130 0.750000
O O14 0.768297 0.488569 0.292104
O O15 0.899448 0.749024 0.035334
O O16 0.000000 0.701918 0.250000
O O17 0.746983 0.680722 0.004842
O O18 0.000000 0.806383 0.250000
#
# Coordination Sequence:
#
# PCOD8133646 Si02
#       8
#     8   8   8   8   8   8   8   8
#     4  11  20  29  54  79  96 134 175 207 266 308
#     4  11  18  33  49  72 101 136 168 219 253 296
#     4  11  22  34  49  72 107 143 172 202 257 323
#     4  11  20  34  51  72 104 132 172 223 255 296
#     4  11  21  33  49  72 101 143 177 203 257 307
#     4   9  20  34  50  74 113 138 164 214 267 317
#     4  10  19  34  53  79 107 136 172 213 264 320
#     4  12  20  33  52  71 106 138 175 214 250 304
#
# _framework density 16.970988999999999
#
# number of rings (size 3 to 8) (size 9 to 14) (size 15 to 20)
#    0.000    1.250    5.000    3.750    5.250    0.000 
#    0.000    0.000    0.000    0.000    0.000    0.875 
#    3.750    0.000    0.000    0.000    0.000    0.000 
#
# Total GULP energy -396456.497323 kJ/mol
# GULP energy per Si atom -12389.265541 kJ/mol
# Density = 1.693236 g / cm^3
# Si number density = 16.970989 Si / 1000 Ang^3
#
#
#
# Elastic Constant Matrix: (Units=GPa)
#
#
# Indices 1 2 3 4 5 6 
#
# 1 79.1467 31.4824 42.8861 0.0000 -6.5421 0.0000
# 2 31.4824 58.5771 27.8777 0.0000 -4.7326 0.0000
# 3 42.8861 27.8777 90.7025 0.0000 0.1763 0.0000
# 4 0.0000 0.0000 0.0000 18.6802 0.0000 8.0714
# 5 -6.5421 -4.7326 0.1763 0.0000 36.4341 0.0000
# 6 0.0000 0.0000 0.0000 8.0714 0.0000 29.3560
#
#
#
# Elastic Compliance Matrix: (Units=1/GPa)
#
#
# Indices 1 2 3 4 5 6 
#
# 1 0.019413 -0.006853 -0.007078 0.000000 0.002630 0.000000
# 2 -0.006853 0.022670 -0.003731 0.000000 0.001732 0.000000
# 3 -0.007078 -0.003731 0.015522 0.000000 -0.001831 0.000000
# 4 0.000000 0.000000 0.000000 0.060750 0.000000 -0.016703
# 5 0.002630 0.001732 -0.001831 0.000000 0.028153 0.000000
# 6 0.000000 0.000000 0.000000 -0.016703 0.000000 0.038657
#
#
# Mechanical properties :
#
#
# Convention : Reuss Voigt Hill
#
# Bulk Modulus (GPa) = 44.87916 48.10207 46.49061
# Shear Modulus (GPa) = 21.93796 25.30606 23.62201
#
# Velocity S-wave (km/s) = 3.59928 3.86571 3.73487
# Velocity P-wave (km/s) = 6.61628 6.95199 6.78621
#
# Compressibility (1/GPa) = 0.02228206
#
# Stress axis : x y z
#
# Youngs Moduli (GPa) = 51.51149 44.11092 64.42503
#
# Poissons Ratio (x) = 0.30228 0.45599
# Poissons Ratio (y) = 0.35299 0.24037
# Poissons Ratio (z) = 0.36459 0.16458
#
# Static dielectric constant tensor:
#      x y z
#    x 3.148700 0.000000 -0.067470 
#    y 0.000000 3.289860 0.000000 
#    z -0.067470 0.000000 3.668730 
# 
# 
# High freq. dielectric constant tensor:
#      x y z
#    x 1.616780 0.000000 0.008630 
#    y 0.000000 1.637760 0.000000 
#    z 0.008630 0.000000 1.678960 
# 
# From -- ./inp_files/157103.got.cif
#   From: 2010.06.25/outbox.cif.g09.slc.cpg/sg15_79_cif.got.tgz:157103.got - 2010.06.28 07:06:18.
