data_PCOD8133697
_publ_section_title
;
Structure prediction by ZEFSAII (Michael W. Deem and Ramdas Pophale) SiO2 
 PCOD8133697
Probable space group: C 2/C
;
_chemical_formula_sum "Si O2"
_cell_formula_units_Z 40
_cell_length_a 12.039024
_cell_length_b 20.895080
_cell_length_c 9.451968
_cell_angle_alpha 90.000000
_cell_angle_beta 73.668121
_cell_angle_gamma 90.000000
_cell_volume 2281.760030
_symmetry_space_group_name_H-M "C 2/C"
_symmetry_group_IT_number 15
_symmetry_cell_setting 'monoclinic'
loop_
_space_group_symop_operation_xyz
x,y,z
-x,y,1/2-z
-x,-y,-z
x,-y,1/2+z
1/2+x,1/2+y,z
1/2-x,1/2+y,1/2-z
1/2-x,1/2-y,-z
1/2+x,1/2-y,1/2+z
loop_
_atom_site_type_symbol
_atom_site_label
_atom_site_fract_x
_atom_site_fract_y
_atom_site_fract_z
Si Si1 0.815409 0.330328 0.619335
Si Si2 0.177415 0.331127 0.549054
Si Si3 0.419459 0.286872 0.905920
Si Si4 0.995064 0.564668 0.087208
Si Si5 0.924590 0.801638 0.417052
O O1 0.821954 0.317097 0.783670
O O2 0.682636 0.332696 0.615445
O O3 0.875678 0.273992 0.510243
O O4 0.880222 0.398028 0.574681
O O5 0.114119 0.268440 0.511340
O O6 0.306522 0.342020 0.440620
O O7 0.107645 0.392084 0.518977
O O8 0.500000 0.262077 0.750000
O O9 0.495775 0.330338 0.985930
O O10 0.000000 0.547364 0.250000
O O11 0.000000 0.500000 0.000000
O O12 0.000000 0.800365 0.250000
#
# Coordination Sequence:
#
# PCOD8133697 Si02
#       5
#     8   8   8   8   8
#     4  10  20  34  53  78 112 143 174 218 268 319
#     4  10  19  34  55  76 112 146 173 213 275 318
#     4  11  20  32  53  84 113 138 175 216 270 327
#     4  10  21  40  57  76 105 142 185 222 262 309
#     4  11  19  33  53  82 112 141 170 215 275 328
#
# _framework density 17.530327
#
# number of rings (size 3 to 8) (size 9 to 14) (size 15 to 20)
#    0.000    1.600    6.000    0.600    0.000    0.800 
#    3.600    0.000    0.000    2.400    0.000    0.000 
#    0.000    0.000    0.000    0.000    0.000    0.000 
#
# Total GULP energy -247844.469161 kJ/mol
# GULP energy per Si atom -12392.223458 kJ/mol
# Density = 1.749043 g / cm^3
# Si number density = 17.530327 Si / 1000 Ang^3
#
#
#
# Elastic Constant Matrix: (Units=GPa)
#
#
# Indices 1 2 3 4 5 6 
#
# 1 156.2208 55.4277 55.1896 0.0000 -1.6057 0.0000
# 2 55.4277 91.4628 26.2258 0.0000 0.4579 0.0000
# 3 55.1896 26.2258 67.1105 0.0000 -8.9371 0.0000
# 4 0.0000 0.0000 0.0000 25.0426 0.0000 4.3081
# 5 -1.6057 0.4579 -8.9371 0.0000 37.1516 0.0000
# 6 0.0000 0.0000 0.0000 4.3081 0.0000 19.5492
#
#
#
# Elastic Compliance Matrix: (Units=1/GPa)
#
#
# Indices 1 2 3 4 5 6 
#
# 1 0.010390 -0.004274 -0.007033 0.000000 -0.001190 0.000000
# 2 -0.004274 0.014137 -0.002126 0.000000 -0.000870 0.000000
# 3 -0.007033 -0.002126 0.022189 0.000000 0.005060 0.000000
# 4 0.000000 0.000000 0.000000 0.041506 0.000000 -0.009147
# 5 -0.001190 -0.000870 0.005060 0.000000 0.028093 0.000000
# 6 0.000000 0.000000 0.000000 -0.009147 0.000000 0.053169
#
#
# Mechanical properties :
#
#
# Convention : Reuss Voigt Hill
#
# Bulk Modulus (GPa) = 50.37454 65.38669 57.88061
# Shear Modulus (GPa) = 24.63477 28.21207 26.42342
#
# Velocity S-wave (km/s) = 3.75275 4.01600 3.88660
# Velocity P-wave (km/s) = 6.89751 7.67362 7.29589
#
# Compressibility (1/GPa) = 0.01985130
#
# Stress axis : x y z
#
# Youngs Moduli (GPa) = 96.24796 70.73447 45.06790
#
# Poissons Ratio (x) = 0.30231 0.31694
# Poissons Ratio (y) = 0.41136 0.09581
# Poissons Ratio (z) = 0.67687 0.15037
#
# Static dielectric constant tensor:
#      x y z
#    x 3.912810 0.000000 0.005410 
#    y 0.000000 2.790650 0.000000 
#    z 0.005410 0.000000 3.316520 
# 
# 
# High freq. dielectric constant tensor:
#      x y z
#    x 1.707060 0.000000 0.001160 
#    y 0.000000 1.616510 0.000000 
#    z 0.001160 0.000000 1.685720 
# 
# From -- ./inp_files/30271.got.cif
#   From: 2010.06.25/outbox.cif.g09.slc.cpg/sg15_16_cif.got.tgz:30271.got - 2010.06.28 07:06:18.
