data_PCOD8133175
_publ_section_title
;
Structure prediction by ZEFSAII (Michael W. Deem and Ramdas Pophale) SiO2 
 PCOD8133175
Probable space group: C 2/C
;
_chemical_formula_sum "Si O2"
_cell_formula_units_Z 48
_cell_length_a 10.458382
_cell_length_b 19.440453
_cell_length_c 20.445248
_cell_angle_alpha 90.000000
_cell_angle_beta 144.560601
_cell_angle_gamma 90.000000
_cell_volume 2410.308310
_symmetry_space_group_name_H-M "C 2/C"
_symmetry_group_IT_number 15
_symmetry_cell_setting 'monoclinic'
loop_
_space_group_symop_operation_xyz
x,y,z
-x,y,1/2-z
-x,-y,-z
x,-y,1/2+z
1/2+x,1/2+y,z
1/2-x,1/2+y,1/2-z
1/2-x,1/2-y,-z
1/2+x,1/2-y,1/2+z
loop_
_atom_site_type_symbol
_atom_site_label
_atom_site_fract_x
_atom_site_fract_y
_atom_site_fract_z
Si Si1 0.014053 0.614668 0.832284
Si Si2 0.886708 0.531415 0.273062
Si Si3 0.711857 0.142706 0.446471
Si Si4 0.677324 0.710079 0.878941
Si Si5 0.475928 0.385104 0.930671
Si Si6 0.494398 0.239020 0.906337
O O1 0.901352 0.682822 0.816276
O O2 0.000000 0.625863 0.750000
O O3 0.889383 0.545437 0.804189
O O4 0.263153 0.606326 0.961421
O O5 0.632554 0.553175 0.156048
O O6 0.000000 0.529663 0.250000
O O7 0.016267 0.586604 0.371610
O O8 0.610932 0.215433 0.380442
O O9 0.822396 0.153051 0.563732
O O10 0.896444 0.115139 0.473002
O O11 0.500000 0.689258 0.750000
O O12 0.923774 0.712326 0.949309
O O13 0.392186 0.315556 0.858635
O O14 0.750000 0.250000 0.000000
#
# Coordination Sequence:
#
# PCOD8133175 Si02
#       6
#     8   8   8   8   8   8
#     4  10  21  33  55  86 110 146 187 232 283 342
#     4   9  18  34  54  81 111 147 182 231 278 339
#     4   9  18  32  54  79 108 149 185 223 287 333
#     4  10  19  32  54  83 110 144 192 238 274 332
#     4   9  18  36  56  78 115 146 181 234 288 330
#     4   9  19  37  53  78 116 146 182 238 278 329
#
# _framework density 19.914465
#
# number of rings (size 3 to 8) (size 9 to 14) (size 15 to 20)
#    0.000    2.667    0.000    2.500    2.333    6.000 
#    6.000    0.833    0.000    0.000    0.000    0.000 
#    0.000    0.000    0.000    0.000    0.000    0.000 
#
# Total GULP energy -297348.533239 kJ/mol
# GULP energy per Si atom -12389.522218 kJ/mol
# Density = 1.986914 g / cm^3
# Si number density = 19.914465 Si / 1000 Ang^3
#
#
#
# Elastic Constant Matrix: (Units=GPa)
#
#
# Indices 1 2 3 4 5 6 
#
# 1 64.2068 35.6623 28.6128 0.0000 -2.5120 0.0001
# 2 35.6623 138.0172 56.1285 0.0005 -19.4849 0.0006
# 3 28.6128 56.1285 103.1794 -0.0014 -14.1260 -0.0014
# 4 0.0000 0.0005 -0.0014 28.8493 0.0003 -1.8252
# 5 -2.5120 -19.4849 -14.1260 0.0003 24.2060 0.0002
# 6 0.0001 0.0006 -0.0014 -1.8252 0.0002 17.4611
#
#
#
# Elastic Compliance Matrix: (Units=1/GPa)
#
#
# Indices 1 2 3 4 5 6 
#
# 1 0.019271 -0.003967 -0.003640 0.000000 -0.003318 0.000000
# 2 -0.003967 0.010695 -0.003908 0.000000 0.005917 -0.000001
# 3 -0.003640 -0.003908 0.013417 0.000001 0.004306 0.000001
# 4 0.000000 0.000000 0.000001 0.034894 0.000000 0.003647
# 5 -0.003318 0.005917 0.004306 0.000000 0.048244 0.000000
# 6 0.000000 -0.000001 0.000001 0.003647 0.000000 0.057651
#
#
# Mechanical properties :
#
#
# Convention : Reuss Voigt Hill
#
# Bulk Modulus (GPa) = 49.13520 60.69006 54.91263
# Shear Modulus (GPa) = 23.36607 26.43660 24.90134
#
# Velocity S-wave (km/s) = 3.42909 3.64745 3.53996
# Velocity P-wave (km/s) = 6.35649 6.94838 6.65902
#
# Compressibility (1/GPa) = 0.02035201
#
# Stress axis : x y z
#
# Youngs Moduli (GPa) = 51.89259 93.50003 74.53464
#
# Poissons Ratio (x) = 0.37096 0.27130
# Poissons Ratio (y) = 0.20588 0.29126
# Poissons Ratio (z) = 0.18889 0.36538
#
# Static dielectric constant tensor:
#      x y z
#    x 3.551460 0.000000 -0.002930 
#    y 0.000000 4.200560 0.000000 
#    z -0.002930 0.000000 3.484670 
# 
# 
# High freq. dielectric constant tensor:
#      x y z
#    x 1.745560 0.000000 0.011400 
#    y 0.000000 1.782430 0.000000 
#    z 0.011400 0.000000 1.761310 
# 
# From -- ./inp_files/240457.got.cif
#   From: 2010.06.25/outbox.cif.g09.slc.cpg/sg15_121_cif.got.tgz:240457.got - 2010.06.28 07:06:18.
