data_PCOD8133905
_publ_section_title
;
Structure prediction by ZEFSAII (Michael W. Deem and Ramdas Pophale) SiO2 
 PCOD8133905
Probable space group: C 2/C
;
_chemical_formula_sum "Si O2"
_cell_formula_units_Z 60
_cell_length_a 17.286007
_cell_length_b 9.054634
_cell_length_c 23.701311
_cell_angle_alpha 90.000000
_cell_angle_beta 120.827563
_cell_angle_gamma 90.000000
_cell_volume 3185.563231
_symmetry_space_group_name_H-M "C 2/C"
_symmetry_group_IT_number 15
_symmetry_cell_setting 'monoclinic'
loop_
_space_group_symop_operation_xyz
x,y,z
-x,y,1/2-z
-x,-y,-z
x,-y,1/2+z
1/2+x,1/2+y,z
1/2-x,1/2+y,1/2-z
1/2-x,1/2-y,-z
1/2+x,1/2-y,1/2+z
loop_
_atom_site_type_symbol
_atom_site_label
_atom_site_fract_x
_atom_site_fract_y
_atom_site_fract_z
Si Si1 0.500000 0.542712 0.250000
Si Si2 0.940227 0.002988 0.922755
Si Si3 0.450186 0.262767 0.834270
Si Si4 0.446400 0.229594 0.342663
Si Si5 0.188477 0.481815 0.205179
Si Si6 0.658396 0.361197 0.301836
Si Si7 0.056967 0.506787 0.829283
Si Si8 0.263325 0.941948 0.651791
O O1 0.549644 0.638584 0.221609
O O2 0.579654 0.442504 0.308708
O O3 0.963780 0.154647 0.899049
O O4 0.966781 0.862519 0.894987
O O5 0.836256 0.988764 0.904405
O O6 0.000000 0.000000 0.000000
O O7 0.353588 0.182169 0.803078
O O8 0.528689 0.140556 0.859426
O O9 0.392690 0.309602 0.273412
O O10 0.385438 0.096813 0.344317
O O11 0.537415 0.151499 0.352338
O O12 0.265758 0.479019 0.187138
O O13 0.232026 0.531553 0.280018
O O14 0.707944 0.227001 0.352048
O O15 0.161782 0.535008 0.854436
O O16 0.000000 0.510304 0.750000
#
# Coordination Sequence:
#
# PCOD8133905 Si02
#       8
#     4   8   8   8   8   8   8   8
#     4  12  20  28  58  94 124 138 182 250 318 350
#     4  12  26  43  59  79 121 175 211 233 269 351
#     4  11  21  37  58  94 122 149 191 248 302 360
#     4  10  21  35  57  86 121 150 191 242 297 359
#     4  10  19  34  59  91 119 144 186 253 318 348
#     4  11  19  30  56  95 121 144 180 253 316 356
#     4  11  19  35  62  97 125 146 175 249 334 357
#     4  11  20  35  61  87 123 150 195 242 309 357
#
# _framework density 18.834975
#
# number of rings (size 3 to 8) (size 9 to 14) (size 15 to 20)
#    0.000    1.067    8.667    0.800    1.867    1.067 
#    0.000    4.000    0.000    0.000    0.000    0.000 
#    0.000    0.000    0.000    0.000    0.000    0.000 
#
# Total GULP energy -371852.521748 kJ/mol
# GULP energy per Si atom -12395.084058 kJ/mol
# Density = 1.879211 g / cm^3
# Si number density = 18.834975 Si / 1000 Ang^3
#
#
#
# Elastic Constant Matrix: (Units=GPa)
#
#
# Indices 1 2 3 4 5 6 
#
# 1 122.8662 34.7197 25.8079 0.0000 12.2720 0.0000
# 2 34.7197 103.4391 33.6288 0.0000 2.4761 0.0000
# 3 25.8079 33.6288 78.6356 0.0000 11.4073 0.0000
# 4 0.0000 0.0000 0.0000 13.8452 0.0000 -5.1073
# 5 12.2720 2.4761 11.4073 0.0000 14.6582 0.0000
# 6 0.0000 0.0000 0.0000 -5.1073 0.0000 29.7624
#
#
#
# Elastic Compliance Matrix: (Units=1/GPa)
#
#
# Indices 1 2 3 4 5 6 
#
# 1 0.009842 -0.002805 -0.001019 0.000000 -0.006973 0.000000
# 2 -0.002805 0.012085 -0.004838 0.000000 0.004072 0.000000
# 3 -0.001019 -0.004838 0.016771 0.000000 -0.011382 0.000000
# 4 0.000000 0.000000 0.000000 0.077108 0.000000 0.013232
# 5 -0.006973 0.004072 -0.011382 0.000000 0.082229 0.000000
# 6 0.000000 0.000000 0.000000 0.013232 0.000000 0.035870
#
#
# Mechanical properties :
#
#
# Convention : Reuss Voigt Hill
#
# Bulk Modulus (GPa) = 46.78695 54.80597 50.79646
# Shear Modulus (GPa) = 19.35325 25.70546 22.52935
#
# Velocity S-wave (km/s) = 3.20897 3.69829 3.46228
# Velocity P-wave (km/s) = 6.21485 6.88459 6.55828
#
# Compressibility (1/GPa) = 0.02137348
#
# Stress axis : x y z
#
# Youngs Moduli (GPa) = 101.60347 82.75019 59.62545
#
# Poissons Ratio (x) = 0.23215 0.06075
# Poissons Ratio (y) = 0.28504 0.28847
# Poissons Ratio (z) = 0.10352 0.40035
#
# Static dielectric constant tensor:
#      x y z
#    x 3.900570 0.000000 -0.012410 
#    y 0.000000 3.994250 0.000000 
#    z -0.012410 0.000000 2.744610 
# 
# 
# High freq. dielectric constant tensor:
#      x y z
#    x 1.759010 0.000000 -0.002230 
#    y 0.000000 1.754140 0.000000 
#    z -0.002230 0.000000 1.642940 
# 
# From -- ./inp_files/247408.got.cif
#   From: 2010.06.25/outbox.cif.g09.slc.cpg/sg15_124_cif.got.tgz:247408.got - 2010.06.28 07:06:18.
