data_PCOD8133261
_publ_section_title
;
Structure prediction by ZEFSAII (Michael W. Deem and Ramdas Pophale) SiO2 
 PCOD8133261
Probable space group: C 2/C
;
_chemical_formula_sum "Si O2"
_cell_formula_units_Z 48
_cell_length_a 20.333806
_cell_length_b 14.752016
_cell_length_c 8.988423
_cell_angle_alpha 90.000000
_cell_angle_beta 77.575727
_cell_angle_gamma 90.000000
_cell_volume 2633.067066
_symmetry_space_group_name_H-M "C 2/C"
_symmetry_group_IT_number 15
_symmetry_cell_setting 'monoclinic'
loop_
_space_group_symop_operation_xyz
x,y,z
-x,y,1/2-z
-x,-y,-z
x,-y,1/2+z
1/2+x,1/2+y,z
1/2-x,1/2+y,1/2-z
1/2-x,1/2-y,-z
1/2+x,1/2-y,1/2+z
loop_
_atom_site_type_symbol
_atom_site_label
_atom_site_fract_x
_atom_site_fract_y
_atom_site_fract_z
Si Si1 0.794657 0.438711 0.377093
Si Si2 0.662873 0.282650 0.142696
Si Si3 0.424108 0.444190 0.244401
Si Si4 0.677659 0.229151 0.470245
Si Si5 0.699955 0.117804 0.956785
Si Si6 0.361661 0.415106 0.974709
O O1 0.838485 0.371650 0.462521
O O2 0.813288 0.540207 0.414811
O O3 0.817841 0.419975 0.197196
O O4 0.714334 0.425458 0.428267
O O5 0.596670 0.345670 0.180416
O O6 0.677985 0.232821 0.291434
O O7 0.723092 0.350004 0.069748
O O8 0.653291 0.204390 0.022957
O O9 0.500000 0.465890 0.250000
O O10 0.415188 0.446800 0.072146
O O11 0.375317 0.524992 0.324027
O O12 0.750000 0.250000 0.500000
O O13 0.627549 0.307081 0.560260
#
# Coordination Sequence:
#
# PCOD8133261 Si02
#       6
#     8   8   8   8   8   8
#     4  11  18  33  50  78 102 140 158 209 262 312
#     4  10  20  33  46  76 101 137 171 210 247 310
#     4  11  21  35  51  71 103 143 177 208 245 289
#     4   9  17  31  48  69 102 129 167 201 257 301
#     4  11  20  30  51  73 107 130 169 204 266 306
#     4  10  19  33  47  74 101 135 175 205 242 303
#
# _framework density 18.229690999999999
#
# number of rings (size 3 to 8) (size 9 to 14) (size 15 to 20)
#    0.000    1.667    6.667    1.500    0.000    2.667 
#    0.000    0.000    0.000    0.000    0.000   11.667 
#    0.000    0.000    0.000    0.000    0.000    0.000 
#
# Total GULP energy -297450.550479 kJ/mol
# GULP energy per Si atom -12393.772937 kJ/mol
# Density = 1.818820 g / cm^3
# Si number density = 18.229691 Si / 1000 Ang^3
#
#
#
# Elastic Constant Matrix: (Units=GPa)
#
#
# Indices 1 2 3 4 5 6 
#
# 1 31.0312 10.2189 13.1080 0.0000 4.9441 0.0000
# 2 10.2189 129.4398 56.9903 0.0000 -0.4800 0.0000
# 3 13.1080 56.9903 85.7134 0.0000 2.7384 0.0000
# 4 0.0000 0.0000 0.0000 37.8158 0.0000 2.9739
# 5 4.9441 -0.4800 2.7384 0.0000 14.8762 0.0000
# 6 0.0000 0.0000 0.0000 2.9739 0.0000 14.7330
#
#
#
# Elastic Compliance Matrix: (Units=1/GPa)
#
#
# Indices 1 2 3 4 5 6 
#
# 1 0.036247 -0.000877 -0.004601 0.000000 -0.011228 0.000000
# 2 -0.000877 0.010987 -0.007234 0.000000 0.001978 0.000000
# 3 -0.004601 -0.007234 0.017241 0.000000 -0.001878 0.000000
# 4 0.000000 0.000000 0.000000 0.026871 0.000000 -0.005424
# 5 -0.011228 0.001978 -0.001878 0.000000 0.071362 0.000000
# 6 0.000000 0.000000 0.000000 -0.005424 0.000000 0.068970
#
#
# Mechanical properties :
#
#
# Convention : Reuss Voigt Hill
#
# Bulk Modulus (GPa) = 25.60881 45.20211 35.40546
# Shear Modulus (GPa) = 18.51029 24.54281 21.52655
#
# Velocity S-wave (km/s) = 3.18998 3.67319 3.44008
# Velocity P-wave (km/s) = 5.25798 6.54519 5.93657
#
# Compressibility (1/GPa) = 0.03904906
#
# Stress axis : x y z
#
# Youngs Moduli (GPa) = 27.58842 91.01298 58.00265
#
# Poissons Ratio (x) = 0.07986 0.26688
# Poissons Ratio (y) = 0.02421 0.41962
# Poissons Ratio (z) = 0.12694 0.65843
#
# Static dielectric constant tensor:
#      x y z
#    x 2.843270 0.000000 0.127010 
#    y 0.000000 3.602950 0.000000 
#    z 0.127010 0.000000 3.485770 
# 
# 
# High freq. dielectric constant tensor:
#      x y z
#    x 1.634850 0.000000 0.011880 
#    y 0.000000 1.727900 0.000000 
#    z 0.011880 0.000000 1.710840 
# 
# From -- ./inp_files/54969.got.cif
#   From: 2010.06.25/outbox.cif.g09.slc.cpg/sg15_28_cif.got.tgz:54969.got - 2010.06.28 07:06:18.
