data_PCOD8133455
_publ_section_title
;
Structure prediction by ZEFSAII (Michael W. Deem and Ramdas Pophale) SiO2 
 PCOD8133455
Probable space group: C 2/C
;
_chemical_formula_sum "Si O2"
_cell_formula_units_Z 56
_cell_length_a 15.228622
_cell_length_b 15.140076
_cell_length_c 12.446549
_cell_angle_alpha 90.000000
_cell_angle_beta 84.967538
_cell_angle_gamma 90.000000
_cell_volume 2858.645118
_symmetry_space_group_name_H-M "C 2/C"
_symmetry_group_IT_number 15
_symmetry_cell_setting 'monoclinic'
loop_
_space_group_symop_operation_xyz
x,y,z
-x,y,1/2-z
-x,-y,-z
x,-y,1/2+z
1/2+x,1/2+y,z
1/2-x,1/2+y,1/2-z
1/2-x,1/2-y,-z
1/2+x,1/2-y,1/2+z
loop_
_atom_site_type_symbol
_atom_site_label
_atom_site_fract_x
_atom_site_fract_y
_atom_site_fract_z
Si Si1 0.910976 0.457351 0.547377
Si Si2 0.182825 0.395491 0.552755
Si Si3 0.950374 0.750523 0.362555
Si Si4 0.221698 0.221463 0.161422
Si Si5 0.221743 0.848614 0.165657
Si Si6 0.723142 0.960937 0.773194
Si Si7 0.608077 0.243526 0.485676
O O1 0.835976 0.507534 0.489822
O O2 0.880013 0.468902 0.676253
O O3 0.916310 0.357922 0.513115
O O4 0.000000 0.500000 0.500000
O O5 0.096957 0.336335 0.585205
O O6 0.242054 0.344818 0.459508
O O7 0.234535 0.418655 0.655118
O O8 0.881313 0.825472 0.334362
O O9 0.000000 0.718205 0.250000
O O10 0.021277 0.789920 0.442087
O O11 0.222997 0.273035 0.275517
O O12 0.231669 0.115476 0.160277
O O13 0.304579 0.266596 0.091466
O O14 0.128969 0.234134 0.108035
O O15 0.229127 0.944417 0.221457
#
# Coordination Sequence:
#
# PCOD8133455 Si02
#       7
#     8   8   8   8   8   8   8
#     4  10  19  33  55  92 120 145 192 255 318 373
#     4  11  22  37  64  88 128 160 203 259 318 379
#     4  12  21  38  63  94 119 163 211 258 301 369
#     4  10  20  39  62  86 121 163 203 255 312 370
#     4  11  23  40  64  92 123 167 210 253 314 374
#     4  10  22  38  58  88 116 163 204 248 308 372
#     4  10  20  36  62  90 123 158 202 254 315 366
#
# _framework density 19.589701000000002
#
# number of rings (size 3 to 8) (size 9 to 14) (size 15 to 20)
#    0.000    1.429    4.286    2.143    0.000    1.143 
#    0.000    1.429    0.000    0.000    0.000    0.000 
#    0.000    0.000    0.000    0.000    0.000    0.000 
#
# Total GULP energy -346866.189963 kJ/mol
# GULP energy per Si atom -12388.078213 kJ/mol
# Density = 1.954511 g / cm^3
# Si number density = 19.589701 Si / 1000 Ang^3
#
#
#
# Elastic Constant Matrix: (Units=GPa)
#
#
# Indices 1 2 3 4 5 6 
#
# 1 92.8698 30.4186 53.8537 0.0000 18.6850 0.0000
# 2 30.4186 88.5158 30.1777 0.0000 1.6406 0.0000
# 3 53.8537 30.1777 117.2799 0.0000 4.6427 0.0000
# 4 0.0000 0.0000 0.0000 27.3625 0.0000 0.4152
# 5 18.6850 1.6406 4.6427 0.0000 38.3070 0.0000
# 6 0.0000 0.0000 0.0000 0.4152 0.0000 22.5663
#
#
#
# Elastic Compliance Matrix: (Units=1/GPa)
#
#
# Indices 1 2 3 4 5 6 
#
# 1 0.017350 -0.003517 -0.006766 0.000000 -0.007492 0.000000
# 2 -0.003517 0.013098 -0.001810 0.000000 0.001374 0.000000
# 3 -0.006766 -0.001810 0.012023 0.000000 0.001920 0.000000
# 4 0.000000 0.000000 0.000000 0.036557 0.000000 -0.000673
# 5 -0.007492 0.001374 0.001920 0.000000 0.029468 0.000000
# 6 0.000000 0.000000 0.000000 -0.000673 0.000000 0.044326
#
#
# Mechanical properties :
#
#
# Convention : Reuss Voigt Hill
#
# Bulk Modulus (GPa) = 54.68517 58.61840 56.65178
# Shear Modulus (GPa) = 27.30728 29.92819 28.61774
#
# Velocity S-wave (km/s) = 3.73763 3.91289 3.82626
# Velocity P-wave (km/s) = 6.82659 7.09946 6.96436
#
# Compressibility (1/GPa) = 0.01828649
#
# Stress axis : x y z
#
# Youngs Moduli (GPa) = 57.63555 76.35030 83.17479
#
# Poissons Ratio (x) = 0.26853 0.56272
# Poissons Ratio (y) = 0.20271 0.15051
# Poissons Ratio (z) = 0.38994 0.13816
#
# Static dielectric constant tensor:
#      x y z
#    x 3.770040 0.000000 0.003000 
#    y 0.000000 3.886580 0.000000 
#    z 0.003000 0.000000 3.850150 
# 
# 
# High freq. dielectric constant tensor:
#      x y z
#    x 1.740310 0.000000 0.004560 
#    y 0.000000 1.760370 0.000000 
#    z 0.004560 0.000000 1.771730 
# 
# From -- ./inp_files/97018.got.cif
#   From: 2010.06.25/outbox.cif.g09.slc.cpg/sg15_49_cif.got.tgz:97018.got - 2010.06.28 07:06:18.
