data_PCOD8133981
_publ_section_title
;
Structure prediction by ZEFSAII (Michael W. Deem and Ramdas Pophale) SiO2 
 PCOD8133981
Probable space group: C 2/C
;
_chemical_formula_sum "Si O2"
_cell_formula_units_Z 52
_cell_length_a 20.590115
_cell_length_b 9.712926
_cell_length_c 13.764912
_cell_angle_alpha 90.000000
_cell_angle_beta 78.461513
_cell_angle_gamma 90.000000
_cell_volume 2697.214860
_symmetry_space_group_name_H-M "C 2/C"
_symmetry_group_IT_number 15
_symmetry_cell_setting 'monoclinic'
loop_
_space_group_symop_operation_xyz
x,y,z
-x,y,1/2-z
-x,-y,-z
x,-y,1/2+z
1/2+x,1/2+y,z
1/2-x,1/2+y,1/2-z
1/2-x,1/2-y,-z
1/2+x,1/2-y,1/2+z
loop_
_atom_site_type_symbol
_atom_site_label
_atom_site_fract_x
_atom_site_fract_y
_atom_site_fract_z
Si Si1 0.394936 0.637453 0.912787
Si Si2 0.643243 0.966791 0.348445
Si Si3 0.750548 0.904061 0.462150
Si Si4 0.500000 0.483161 0.750000
Si Si5 0.943671 0.401629 0.478020
Si Si6 0.357589 0.053182 0.366255
Si Si7 0.550144 0.293891 0.900234
O O1 0.326811 0.547914 0.926301
O O2 0.450248 0.577873 0.825524
O O3 0.381040 0.793780 0.886100
O O4 0.418154 0.628486 0.017613
O O5 0.713331 0.915056 0.369859
O O6 0.593313 0.838303 0.356577
O O7 0.614797 0.089972 0.424753
O O8 0.656646 0.036247 0.241934
O O9 0.750000 0.750000 0.500000
O O10 0.709679 0.989024 0.555894
O O11 0.544757 0.393010 0.809417
O O12 0.916606 0.452231 0.381793
O O13 0.000000 0.500000 0.500000
O O14 0.975167 0.250932 0.453735
#
# Coordination Sequence:
#
# PCOD8133981 Si02
#       7
#     8   8   8   4   8   8   8
#     4  11  23  41  59  80 122 163 193 234 288 355
#     4  10  19  34  67  91 106 148 197 249 298 339
#     4   9  18  40  58  81 118 151 186 240 298 336
#     4  12  28  36  58  86 114 174 198 220 280 378
#     4   9  17  33  57  88 116 144 178 254 301 324
#     4  10  19  34  63  92 109 146 201 245 295 342
#     4  11  21  41  56  84 127 153 192 240 301 339
#
# _framework density 19.279146999999998
#
# number of rings (size 3 to 8) (size 9 to 14) (size 15 to 20)
#    0.000    1.846    6.154    1.385    2.154    3.077 
#    0.000    0.000    0.000    2.769    0.000    0.000 
#    0.000    0.000    0.000    0.000    0.000    0.000 
#
# Total GULP energy -322245.532102 kJ/mol
# GULP energy per Si atom -12394.058927 kJ/mol
# Density = 1.923527 g / cm^3
# Si number density = 19.279147 Si / 1000 Ang^3
#
#
#
# Elastic Constant Matrix: (Units=GPa)
#
#
# Indices 1 2 3 4 5 6 
#
# 1 125.7058 31.7646 54.8641 0.0000 8.2059 0.0000
# 2 31.7646 31.9884 26.6634 0.0000 3.5973 0.0000
# 3 54.8641 26.6634 129.7483 0.0000 23.6669 0.0000
# 4 0.0000 0.0000 0.0000 27.6133 0.0000 1.7085
# 5 8.2059 3.5973 23.6669 0.0000 40.2237 0.0000
# 6 0.0000 0.0000 0.0000 1.7085 0.0000 22.9749
#
#
#
# Elastic Compliance Matrix: (Units=1/GPa)
#
#
# Indices 1 2 3 4 5 6 
#
# 1 0.011541 -0.008908 -0.003098 0.000000 0.000265 0.000000
# 2 -0.008908 0.044662 -0.005617 0.000000 0.001128 0.000000
# 3 -0.003098 -0.005617 0.011163 0.000000 -0.005434 0.000000
# 4 0.000000 0.000000 0.000000 0.036382 0.000000 -0.002705
# 5 0.000265 0.001128 -0.005434 0.000000 0.027903 0.000000
# 6 0.000000 0.000000 0.000000 -0.002705 0.000000 0.043727
#
#
# Mechanical properties :
#
#
# Convention : Reuss Voigt Hill
#
# Bulk Modulus (GPa) = 31.13337 57.11409 44.12373
# Shear Modulus (GPa) = 22.59080 29.77239 26.18160
#
# Velocity S-wave (km/s) = 3.42683 3.93400 3.68914
# Velocity P-wave (km/s) = 5.64281 7.09396 6.40958
#
# Compressibility (1/GPa) = 0.03211988
#
# Stress axis : x y z
#
# Youngs Moduli (GPa) = 86.65006 22.39043 89.58498
#
# Poissons Ratio (x) = 0.19945 0.27751
# Poissons Ratio (y) = 0.77185 0.50322
# Poissons Ratio (z) = 0.26842 0.12577
#
# Static dielectric constant tensor:
#      x y z
#    x 4.797140 0.000000 -0.668950 
#    y 0.000000 3.494810 0.000000 
#    z -0.668950 0.000000 3.996660 
# 
# 
# High freq. dielectric constant tensor:
#      x y z
#    x 1.762740 0.000000 0.006680 
#    y 0.000000 1.714540 0.000000 
#    z 0.006680 0.000000 1.754880 
# 
# From -- ./inp_files/110947.got.cif
#   From: 2010.06.25/outbox.cif.g09.slc.cpg/sg15_56_cif.got.tgz:110947.got - 2010.06.28 07:06:18.
