data_PCOD8133426
_publ_section_title
;
Structure prediction by ZEFSAII (Michael W. Deem and Ramdas Pophale) SiO2 
 PCOD8133426
Probable space group: C 2/C
;
_chemical_formula_sum "Si O2"
_cell_formula_units_Z 64
_cell_length_a 9.050998
_cell_length_b 19.893507
_cell_length_c 26.728965
_cell_angle_alpha 90.000000
_cell_angle_beta 47.370887
_cell_angle_gamma 90.000000
_cell_volume 3540.968301
_symmetry_space_group_name_H-M "C 2/C"
_symmetry_group_IT_number 15
_symmetry_cell_setting 'monoclinic'
loop_
_space_group_symop_operation_xyz
x,y,z
-x,y,1/2-z
-x,-y,-z
x,-y,1/2+z
1/2+x,1/2+y,z
1/2-x,1/2+y,1/2-z
1/2-x,1/2-y,-z
1/2+x,1/2-y,1/2+z
loop_
_atom_site_type_symbol
_atom_site_label
_atom_site_fract_x
_atom_site_fract_y
_atom_site_fract_z
Si Si1 0.827056 0.409678 0.671358
Si Si2 0.487518 0.409678 0.671358
Si Si3 0.947352 0.834855 0.439727
Si Si4 0.318031 0.528845 0.927389
Si Si5 0.357480 0.202564 0.407740
Si Si6 0.793734 0.334855 0.439728
Si Si7 0.972409 0.471155 0.427389
Si Si8 0.511560 0.297438 0.907740
O O1 0.689640 0.391489 0.655181
O O2 0.695596 0.425646 0.750000
O O3 0.968775 0.346866 0.650521
O O4 0.957313 0.475646 0.630112
O O5 0.522241 0.475647 0.630113
O O6 0.429144 0.346867 0.650521
O O7 0.940711 0.903896 0.410789
O O8 0.748162 0.829373 0.519359
O O9 0.955471 0.773939 0.398646
O O10 0.146948 0.832354 0.426525
O O11 0.146084 0.546082 0.926957
O O12 0.222703 0.500000 0.999999
O O13 0.201874 0.214063 0.399063
O O14 0.916129 0.403896 0.410788
O O15 0.674400 0.329377 0.519359
O O16 0.949936 0.273937 0.398649
#
# Coordination Sequence:
#
# PCOD8133426 Si02
#       8
#     8   8   8   8   8   8   8   8
#     4  10  21  37  56  79 110 146 181 221 274 331
#     4  10  21  37  56  79 110 146 181 221 274 331
#     4  10  20  33  54  82 110 139 179 229 275 318
#     4  10  19  33  55  81 109 143 183 226 272 325
#     4  10  20  34  54  80 109 141 180 225 272 324
#     4  10  20  33  54  82 110 139 179 229 275 318
#     4  10  19  33  55  81 109 143 183 226 272 325
#     4  10  20  34  54  80 109 141 180 225 272 324
#
# _framework density 18.074152000000002
#
# number of rings (size 3 to 8) (size 9 to 14) (size 15 to 20)
#    0.000    2.000    2.500    1.500    0.000    4.000 
#    0.000    1.250    0.000    4.500    0.000    0.000 
#    0.000    0.000    0.000    0.000    0.000    0.000 
#
# Total GULP energy -396987.760350 kJ/mol
# GULP energy per Si atom -12405.867511 kJ/mol
# Density = 1.803301 g / cm^3
# Si number density = 18.074152 Si / 1000 Ang^3
#
#
#
# Elastic Constant Matrix: (Units=GPa)
#
#
# Indices 1 2 3 4 5 6 
#
# 1 80.2714 69.9848 36.9649 0.0001 0.0910 0.0031
# 2 69.9848 162.5507 59.9021 0.0001 0.6873 0.0016
# 3 36.9649 59.9021 89.5338 0.0063 -0.7129 -0.0021
# 4 0.0001 0.0001 0.0063 27.2814 -0.0015 0.9099
# 5 0.0910 0.6873 -0.7129 -0.0015 21.0561 -0.0003
# 6 0.0031 0.0016 -0.0021 0.9099 -0.0003 40.6305
#
#
#
# Elastic Compliance Matrix: (Units=1/GPa)
#
#
# Indices 1 2 3 4 5 6 
#
# 1 0.020709 -0.007652 -0.003430 0.000001 0.000044 -0.000001
# 2 -0.007652 0.010997 -0.004202 0.000001 -0.000468 0.000000
# 3 -0.003430 -0.004202 0.015402 -0.000004 0.000673 0.000001
# 4 0.000001 0.000001 -0.000004 0.036682 0.000002 -0.000821
# 5 0.000044 -0.000468 0.000673 0.000002 0.047530 0.000000
# 6 -0.000001 0.000000 0.000001 -0.000821 0.000000 0.024630
#
#
# Mechanical properties :
#
#
# Convention : Reuss Voigt Hill
#
# Bulk Modulus (GPa) = 60.46132 74.00662 67.23397
# Shear Modulus (GPa) = 26.03745 28.82721 27.43233
#
# Velocity S-wave (km/s) = 3.79963 3.99800 3.90008
# Velocity P-wave (km/s) = 7.26457 7.89601 7.58687
#
# Compressibility (1/GPa) = 0.01653950
#
# Stress axis : x y z
#
# Youngs Moduli (GPa) = 48.28883 90.93421 64.92836
#
# Poissons Ratio (x) = 0.69585 0.22269
# Poissons Ratio (y) = 0.36952 0.27282
# Poissons Ratio (z) = 0.16562 0.38209
#
# Static dielectric constant tensor:
#      x y z
#    x 3.275560 0.000000 0.010990 
#    y 0.000000 3.363780 0.000000 
#    z 0.010990 0.000000 3.114550 
# 
# 
# High freq. dielectric constant tensor:
#      x y z
#    x 1.703250 0.000000 0.002080 
#    y 0.000000 1.710500 0.000000 
#    z 0.002080 0.000000 1.672780 
# 
# From -- ./inp_files/266079.got.cif
#   From: 2010.06.25/outbox.cif.g09.slc.cpg/sg15_134_cif.got.tgz:266079.got - 2010.06.28 07:06:18.
