data_PCOD8133984
_publ_section_title
;
Structure prediction by ZEFSAII (Michael W. Deem and Ramdas Pophale) SiO2 
 PCOD8133984
Probable space group: C 2/C
;
_chemical_formula_sum "Si O2"
_cell_formula_units_Z 64
_cell_length_a 11.450041
_cell_length_b 14.996181
_cell_length_c 30.220340
_cell_angle_alpha 90.000000
_cell_angle_beta 141.764496
_cell_angle_gamma 90.000000
_cell_volume 3211.472485
_symmetry_space_group_name_H-M "C 2/C"
_symmetry_group_IT_number 15
_symmetry_cell_setting 'monoclinic'
loop_
_space_group_symop_operation_xyz
x,y,z
-x,y,1/2-z
-x,-y,-z
x,-y,1/2+z
1/2+x,1/2+y,z
1/2-x,1/2+y,1/2-z
1/2-x,1/2-y,-z
1/2+x,1/2-y,1/2+z
loop_
_atom_site_type_symbol
_atom_site_label
_atom_site_fract_x
_atom_site_fract_y
_atom_site_fract_z
Si Si1 0.711483 0.291874 0.794281
Si Si2 0.342786 0.123302 0.562996
Si Si3 0.244675 0.894091 0.645879
Si Si4 0.503987 0.756315 0.042063
Si Si5 0.455051 0.730307 0.543344
Si Si6 0.572342 0.879961 0.220274
Si Si7 0.064357 0.980210 0.470510
Si Si8 0.872449 0.570958 0.276577
O O1 0.500000 0.309032 0.750000
O O2 0.700392 0.208929 0.756584
O O3 0.782841 0.381656 0.792198
O O4 0.866538 0.267295 0.876766
O O5 0.492915 0.156709 0.570645
O O6 0.171283 0.190461 0.506376
O O7 0.412132 0.129511 0.634609
O O8 0.276135 0.022761 0.529413
O O9 0.398429 0.931664 0.656365
O O10 0.317747 0.875195 0.716682
O O11 0.187590 0.798257 0.610744
O O12 0.078681 0.966330 0.603603
O O13 0.528172 0.782127 0.998161
O O14 0.250000 0.750000 0.500000
O O15 0.457886 0.623687 0.543840
O O16 0.500000 0.890186 0.250000
O O17 0.694872 0.967539 0.244561
O O18 0.000000 0.000000 0.500000
#
# Coordination Sequence:
#
# PCOD8133984 Si02
#       8
#     8   8   8   8   8   8   8   8
#     4  11  26  41  63  93 132 170 211 261 327 396
#     4  10  21  35  63  91 126 157 212 259 323 375
#     4  10  19  34  63  94 120 150 217 263 324 360
#     4  10  20  37  58  91 125 165 199 267 317 385
#     4  12  25  41  65  95 133 170 218 267 326 384
#     4  11  21  37  66  94 120 159 214 264 315 383
#     4  11  21  36  64  95 123 160 215 274 311 381
#     4  11  22  37  64  92 124 163 209 273 319 379
#
# _framework density 19.928552
#
# number of rings (size 3 to 8) (size 9 to 14) (size 15 to 20)
#    0.000    1.250    3.750    4.500    3.500    2.000 
#    0.000    0.625   11.000    0.000    0.000    0.000 
#    0.000    0.000    0.000    0.000    0.000    0.000 
#
# Total GULP energy -396438.594116 kJ/mol
# GULP energy per Si atom -12388.706066 kJ/mol
# Density = 1.988319 g / cm^3
# Si number density = 19.928552 Si / 1000 Ang^3
#
#
#
# Elastic Constant Matrix: (Units=GPa)
#
#
# Indices 1 2 3 4 5 6 
#
# 1 90.1440 48.1353 33.4593 0.0000 -5.8737 0.0000
# 2 48.1353 101.2287 29.6308 0.0000 -11.0730 0.0000
# 3 33.4593 29.6308 99.6720 0.0000 -4.3589 0.0000
# 4 0.0000 0.0000 0.0000 23.3650 0.0000 -3.4722
# 5 -5.8737 -11.0730 -4.3589 0.0000 25.5959 0.0000
# 6 0.0000 0.0000 0.0000 -3.4722 0.0000 35.6211
#
#
#
# Elastic Compliance Matrix: (Units=1/GPa)
#
#
# Indices 1 2 3 4 5 6 
#
# 1 0.015841 -0.006520 -0.003369 0.000000 0.000241 0.000000
# 2 -0.006520 0.013963 -0.001777 0.000000 0.004242 0.000000
# 3 -0.003369 -0.001777 0.011712 0.000000 0.000453 0.000000
# 4 0.000000 0.000000 0.000000 0.043428 0.000000 0.004233
# 5 0.000241 0.004242 0.000453 0.000000 0.041036 0.000000
# 6 0.000000 0.000000 0.000000 0.004233 0.000000 0.028486
#
#
# Mechanical properties :
#
#
# Convention : Reuss Voigt Hill
#
# Bulk Modulus (GPa) = 54.99195 57.05504 56.02350
# Shear Modulus (GPa) = 27.19470 28.90435 28.04953
#
# Velocity S-wave (km/s) = 3.69807 3.81254 3.75574
# Velocity P-wave (km/s) = 6.77412 6.93344 6.85424
#
# Compressibility (1/GPa) = 0.01818448
#
# Stress axis : x y z
#
# Youngs Moduli (GPa) = 63.12659 71.61741 85.38384
#
# Poissons Ratio (x) = 0.46696 0.28765
# Poissons Ratio (y) = 0.41160 0.15170
# Poissons Ratio (z) = 0.21267 0.12724
#
# Static dielectric constant tensor:
#      x y z
#    x 3.612190 0.000000 0.137350 
#    y 0.000000 3.690700 0.000000 
#    z 0.137350 0.000000 4.343910 
# 
# 
# High freq. dielectric constant tensor:
#      x y z
#    x 1.744980 0.000000 -0.006310 
#    y 0.000000 1.773260 0.000000 
#    z -0.006310 0.000000 1.797870 
# 
# From -- ./inp_files/311220.got.cif
#   From: 2010.06.25/outbox.cif.g09.slc.cpg/sg15_156_cif.got.tgz:311220.got - 2010.06.28 07:06:18.
