data_PCOD8133832
_publ_section_title
;
Structure prediction by ZEFSAII (Michael W. Deem and Ramdas Pophale) SiO2 
 PCOD8133832
Probable space group: C 2/C
;
_chemical_formula_sum "Si O2"
_cell_formula_units_Z 64
_cell_length_a 15.204178
_cell_length_b 9.222250
_cell_length_c 25.806418
_cell_angle_alpha 90.000000
_cell_angle_beta 65.151152
_cell_angle_gamma 90.000000
_cell_volume 3283.489951
_symmetry_space_group_name_H-M "C 2/C"
_symmetry_group_IT_number 15
_symmetry_cell_setting 'monoclinic'
loop_
_space_group_symop_operation_xyz
x,y,z
-x,y,1/2-z
-x,-y,-z
x,-y,1/2+z
1/2+x,1/2+y,z
1/2-x,1/2+y,1/2-z
1/2-x,1/2-y,-z
1/2+x,1/2-y,1/2+z
loop_
_atom_site_type_symbol
_atom_site_label
_atom_site_fract_x
_atom_site_fract_y
_atom_site_fract_z
Si Si1 0.401748 0.658850 0.691455
Si Si2 0.156407 0.207070 0.910583
Si Si3 0.777257 0.726010 0.694132
Si Si4 0.893378 0.195953 0.890628
Si Si5 0.908315 0.146515 0.240199
Si Si6 0.777006 0.894160 0.595194
Si Si7 0.226619 0.970126 0.642307
Si Si8 0.956158 0.852721 0.489605
O O1 0.353584 0.666838 0.647252
O O2 0.327922 0.725325 0.751706
O O3 0.505867 0.741350 0.662931
O O4 0.430252 0.496044 0.701152
O O5 0.215349 0.354213 0.906628
O O6 0.052399 0.246964 0.962514
O O7 0.210381 0.065156 0.921484
O O8 0.867602 0.731544 0.711129
O O9 0.774102 0.866846 0.657676
O O10 0.796332 0.583608 0.654760
O O11 0.821327 0.334022 0.906950
O O12 0.910539 0.137690 0.943912
O O13 0.848636 0.057235 0.873428
O O14 0.823915 0.123605 0.301591
O O15 0.000000 0.203906 0.250000
O O16 0.869717 0.803737 0.549331
O O17 0.000000 0.000000 0.500000
#
# Coordination Sequence:
#
# PCOD8133832 Si02
#       8
#     8   8   8   8   8   8   8   8
#     4  10  19  34  58  80 113 156 189 230 290 351
#     4  10  19  37  59  80 116 150 190 240 291 344
#     4  10  21  34  58  83 116 154 195 234 287 360
#     4  10  20  37  61  86 115 149 203 243 283 357
#     4  11  19  33  56  83 115 150 191 231 284 355
#     4  10  20  36  60  88 112 154 200 243 286 340
#     4  10  21  35  57  86 117 151 191 237 302 337
#     4   9  20  37  62  84 110 158 204 235 293 351
#
# _framework density 19.491455999999999
#
# number of rings (size 3 to 8) (size 9 to 14) (size 15 to 20)
#    0.000    2.000    3.750    0.375    0.000    0.000 
#    0.000    7.500    0.000    0.000    0.000    0.000 
#    0.000    0.000    0.000    0.000    0.000    0.000 
#
# Total GULP energy -396459.078149 kJ/mol
# GULP energy per Si atom -12389.346192 kJ/mol
# Density = 1.944709 g / cm^3
# Si number density = 19.491456 Si / 1000 Ang^3
#
#
#
# Elastic Constant Matrix: (Units=GPa)
#
#
# Indices 1 2 3 4 5 6 
#
# 1 118.5692 43.5187 26.2745 0.0000 7.2342 0.0000
# 2 43.5187 65.5807 21.1452 0.0000 -13.2078 0.0000
# 3 26.2745 21.1452 83.2307 0.0000 -15.2572 0.0000
# 4 0.0000 0.0000 0.0000 24.3972 0.0000 -4.8401
# 5 7.2342 -13.2078 -15.2572 0.0000 31.9805 0.0000
# 6 0.0000 0.0000 0.0000 -4.8401 0.0000 31.0530
#
#
#
# Elastic Compliance Matrix: (Units=1/GPa)
#
#
# Indices 1 2 3 4 5 6 
#
# 1 0.013096 -0.009314 -0.003305 0.000000 -0.008386 0.000000
# 2 -0.009314 0.024099 -0.001065 0.000000 0.011552 0.000000
# 3 -0.003305 -0.001065 0.014668 0.000000 0.007306 0.000000
# 4 0.000000 0.000000 0.000000 0.042296 0.000000 0.006593
# 5 -0.008386 0.011552 0.007306 0.000000 0.041422 0.000000
# 6 0.000000 0.000000 0.000000 0.006593 0.000000 0.033231
#
#
# Mechanical properties :
#
#
# Convention : Reuss Voigt Hill
#
# Bulk Modulus (GPa) = 40.82393 49.91748 45.37071
# Shear Modulus (GPa) = 24.46843 29.24895 26.85869
#
# Velocity S-wave (km/s) = 3.54692 3.87797 3.71613
# Velocity P-wave (km/s) = 6.14526 6.76144 6.46070
#
# Compressibility (1/GPa) = 0.02449543
#
# Stress axis : x y z
#
# Youngs Moduli (GPa) = 76.35637 41.49600 68.17586
#
# Poissons Ratio (x) = 0.38649 0.22535
# Poissons Ratio (y) = 0.71117 0.07258
# Poissons Ratio (z) = 0.25238 0.04418
#
# Static dielectric constant tensor:
#      x y z
#    x 3.688830 0.000000 -0.242680 
#    y 0.000000 3.287190 0.000000 
#    z -0.242680 0.000000 4.045640 
# 
# 
# High freq. dielectric constant tensor:
#      x y z
#    x 1.760940 0.000000 -0.006330 
#    y 0.000000 1.723810 0.000000 
#    z -0.006330 0.000000 1.767630 
# 
# From -- ./inp_files/295205.got.cif
#   From: 2010.06.25/outbox.cif.g09.slc.cpg/sg15_148_cif.got.tgz:295205.got - 2010.06.28 07:06:18.
