data_PCOD8133475
_publ_section_title
;
Structure prediction by ZEFSAII (Michael W. Deem and Ramdas Pophale) SiO2 
 PCOD8133475
Probable space group: C 2/C
;
_chemical_formula_sum "Si O2"
_cell_formula_units_Z 64
_cell_length_a 23.241902
_cell_length_b 22.067903
_cell_length_c 9.444201
_cell_angle_alpha 90.000000
_cell_angle_beta 139.195166
_cell_angle_gamma 90.000000
_cell_volume 3165.433715
_symmetry_space_group_name_H-M "C 2/C"
_symmetry_group_IT_number 15
_symmetry_cell_setting 'monoclinic'
loop_
_space_group_symop_operation_xyz
x,y,z
-x,y,1/2-z
-x,-y,-z
x,-y,1/2+z
1/2+x,1/2+y,z
1/2-x,1/2+y,1/2-z
1/2-x,1/2-y,-z
1/2+x,1/2-y,1/2+z
loop_
_atom_site_type_symbol
_atom_site_label
_atom_site_fract_x
_atom_site_fract_y
_atom_site_fract_z
Si Si1 0.178576 0.241374 0.744394
Si Si2 0.987104 0.628002 0.894246
Si Si3 0.900662 0.964202 0.536547
Si Si4 0.805684 0.419131 0.053965
Si Si5 0.674412 0.879311 0.719900
Si Si6 0.801578 0.965374 0.070873
Si Si7 0.986774 0.762225 0.892085
Si Si8 0.167970 0.157931 0.462696
O O1 0.168481 0.309130 0.664386
O O2 0.206850 0.198734 0.664758
O O3 0.084057 0.218147 0.633193
O O4 0.250000 0.250000 0.000000
O O5 0.906535 0.586516 0.797256
O O6 0.964323 0.695561 0.908116
O O7 0.000000 0.628640 0.750000
O O8 0.081895 0.604116 0.127202
O O9 0.878553 0.962781 0.329589
O O10 0.882500 0.899491 0.570040
O O11 0.000000 0.982174 0.750000
O O12 0.843933 0.017793 0.499923
O O13 0.807589 0.416370 0.888739
O O14 0.772325 0.484914 0.033559
O O15 0.747258 0.364575 0.011090
O O16 0.753353 0.899570 0.972736
O O17 0.904247 0.806745 0.770424
O O18 0.000000 0.762395 0.750000
#
# Coordination Sequence:
#
# PCOD8133475 Si02
#       8
#     8   8   8   8   8   8   8   8
#     4  10  19  33  56  83 113 151 188 230 294 349
#     4   8  16  31  54  80 109 146 184 235 283 341
#     4  11  22  38  59  82 112 152 191 241 288 346
#     4  10  20  35  56  85 111 149 199 235 288 340
#     4  10  20  36  57  80 116 150 191 243 286 347
#     4  11  22  38  58  82 115 149 196 241 288 343
#     4   8  15  30  51  80 107 143 189 222 276 350
#     4  10  20  33  58  85 114 147 193 236 279 355
#
# _framework density 20.218398000000001
#
# number of rings (size 3 to 8) (size 9 to 14) (size 15 to 20)
#    0.000    2.250    1.250    4.500    0.000    2.500 
#    0.000    0.000    0.000   12.000    0.000    0.000 
#    0.000    0.000    0.000    0.000    0.000    0.000 
#
# Total GULP energy -396476.807392 kJ/mol
# GULP energy per Si atom -12389.900231 kJ/mol
# Density = 2.017238 g / cm^3
# Si number density = 20.218398 Si / 1000 Ang^3
#
#
#
# Elastic Constant Matrix: (Units=GPa)
#
#
# Indices 1 2 3 4 5 6 
#
# 1 70.0086 26.5553 22.2951 0.0000 20.7578 0.0000
# 2 26.5553 64.7284 16.9441 0.0000 17.3735 0.0000
# 3 22.2951 16.9441 106.8803 0.0000 22.4649 0.0000
# 4 0.0000 0.0000 0.0000 28.3237 0.0000 5.4707
# 5 20.7578 17.3735 22.4649 0.0000 26.6801 0.0000
# 6 0.0000 0.0000 0.0000 5.4707 0.0000 12.2669
#
#
#
# Elastic Compliance Matrix: (Units=1/GPa)
#
#
# Indices 1 2 3 4 5 6 
#
# 1 0.019814 -0.004795 -0.000959 0.000000 -0.011486 0.000000
# 2 -0.004795 0.019903 -0.000261 0.000000 -0.009010 0.000000
# 3 -0.000959 -0.000261 0.011428 0.000000 -0.008706 0.000000
# 4 0.000000 0.000000 0.000000 0.038634 0.000000 -0.017230
# 5 -0.011486 -0.009010 -0.008706 0.000000 0.059615 0.000000
# 6 0.000000 0.000000 0.000000 -0.017230 0.000000 0.089204
#
#
# Mechanical properties :
#
#
# Convention : Reuss Voigt Hill
#
# Bulk Modulus (GPa) = 25.56600 41.46737 33.51668
# Shear Modulus (GPa) = 18.96342 25.17565 22.06954
#
# Velocity S-wave (km/s) = 3.06589 3.53255 3.30746
# Velocity P-wave (km/s) = 5.02048 6.09859 5.58561
#
# Compressibility (1/GPa) = 0.03911445
#
# Stress axis : x y z
#
# Youngs Moduli (GPa) = 50.47015 50.24369 87.50754
#
# Poissons Ratio (x) = 0.24091 0.08390
# Poissons Ratio (y) = 0.24200 0.02287
# Poissons Ratio (z) = 0.04839 0.01313
#
# Static dielectric constant tensor:
#      x y z
#    x 3.618310 0.000000 0.497280 
#    y 0.000000 3.720400 0.000000 
#    z 0.497280 0.000000 3.975860 
# 
# 
# High freq. dielectric constant tensor:
#      x y z
#    x 1.765900 0.000000 0.031250 
#    y 0.000000 1.788710 0.000000 
#    z 0.031250 0.000000 1.785850 
# 
# From -- ./inp_files/58649.got.cif
#   From: 2010.06.25/outbox.cif.g09.slc.cpg/sg15_30_cif.got.tgz:58649.got - 2010.06.28 07:06:18.
