data_PCOD8133629
_publ_section_title
;
Structure prediction by ZEFSAII (Michael W. Deem and Ramdas Pophale) SiO2 
 PCOD8133629
Probable space group: C 2/C
;
_chemical_formula_sum "Si O2"
_cell_formula_units_Z 48
_cell_length_a 24.385367
_cell_length_b 21.012943
_cell_length_c 12.864628
_cell_angle_alpha 90.000000
_cell_angle_beta 22.467454
_cell_angle_gamma 90.000000
_cell_volume 2519.167355
_symmetry_space_group_name_H-M "C 2/C"
_symmetry_group_IT_number 15
_symmetry_cell_setting 'monoclinic'
loop_
_space_group_symop_operation_xyz
x,y,z
-x,y,1/2-z
-x,-y,-z
x,-y,1/2+z
1/2+x,1/2+y,z
1/2-x,1/2+y,1/2-z
1/2-x,1/2-y,-z
1/2+x,1/2-y,1/2+z
loop_
_atom_site_type_symbol
_atom_site_label
_atom_site_fract_x
_atom_site_fract_y
_atom_site_fract_z
Si Si1 0.131745 0.702964 0.747319
Si Si2 0.141475 0.244326 0.448854
Si Si3 0.827875 0.431271 0.246450
Si Si4 0.898532 0.345378 0.520244
Si Si5 0.844495 0.560191 0.298043
Si Si6 0.170120 0.623108 0.968578
O O1 0.250000 0.750000 0.500000
O O2 0.082006 0.724010 0.947844
O O3 0.191891 0.630413 0.645290
O O4 0.992798 0.706258 0.917583
O O5 0.259097 0.190293 0.219089
O O6 0.213446 0.302054 0.388834
O O7 0.000000 0.213980 0.750000
O O8 0.760208 0.493871 0.420772
O O9 0.761335 0.416955 0.248415
O O10 0.994638 0.450382 0.943115
O O11 0.842805 0.400099 0.694218
O O12 0.000000 0.373260 0.250000
O O13 0.769648 0.595793 0.527249
O O14 0.000000 0.620390 0.250000
#
# Coordination Sequence:
#
# PCOD8133629 Si02
#       6
#     8   8   8   8   8   8
#     4  10  19  34  52  77 113 141 175 225 278 325
#     4  10  20  35  53  77 108 144 180 223 271 324
#     4   8  16  28  46  71 106 138 168 215 275 317
#     4  11  21  32  52  83 109 138 183 225 274 322
#     4   9  17  28  46  76 104 131 173 224 264 316
#     4   8  15  29  46  67  99 135 172 208 261 319
#
# _framework density 19.053913999999999
#
# number of rings (size 3 to 8) (size 9 to 14) (size 15 to 20)
#    0.000    2.667    1.667    3.000    0.000    7.333 
#    0.000    0.000    0.000    0.000    8.667    2.333 
#    0.000    0.000    0.000    0.000    0.000    0.000 
#
# Total GULP energy -297351.937377 kJ/mol
# GULP energy per Si atom -12389.664057 kJ/mol
# Density = 1.901055 g / cm^3
# Si number density = 19.053914 Si / 1000 Ang^3
#
#
#
# Elastic Constant Matrix: (Units=GPa)
#
#
# Indices 1 2 3 4 5 6 
#
# 1 73.5771 27.1738 18.9653 0.0006 20.2448 0.0011
# 2 27.1738 91.8764 32.5132 0.0009 9.2714 0.0008
# 3 18.9653 32.5132 48.5853 0.0066 11.8580 -0.0004
# 4 0.0006 0.0009 0.0066 22.5720 0.0003 6.7663
# 5 20.2448 9.2714 11.8580 0.0003 25.7186 -0.0023
# 6 0.0011 0.0008 -0.0004 6.7663 -0.0023 23.1795
#
#
#
# Elastic Compliance Matrix: (Units=1/GPa)
#
#
# Indices 1 2 3 4 5 6 
#
# 1 0.018917 -0.003665 -0.001825 0.000001 -0.012728 -0.000002
# 2 -0.003665 0.014987 -0.008997 0.000002 0.001630 -0.000001
# 3 -0.001825 -0.008997 0.029492 -0.000009 -0.008918 0.000003
# 4 0.000001 0.000002 -0.000009 0.048551 0.000001 -0.014173
# 5 -0.012728 0.001630 -0.008918 0.000001 0.052426 0.000005
# 6 -0.000002 -0.000001 0.000003 -0.014173 0.000005 0.047279
#
#
# Mechanical properties :
#
#
# Convention : Reuss Voigt Hill
#
# Bulk Modulus (GPa) = 29.05040 41.26038 35.15539
# Shear Modulus (GPa) = 19.83334 23.31979 21.57656
#
# Velocity S-wave (km/s) = 3.22981 3.50220 3.36876
# Velocity P-wave (km/s) = 5.40263 6.16891 5.79844
#
# Compressibility (1/GPa) = 0.03442294
#
# Stress axis : x y z
#
# Youngs Moduli (GPa) = 52.86138 66.72279 33.90739
#
# Poissons Ratio (x) = 0.24452 0.06190
# Poissons Ratio (y) = 0.19372 0.30506
# Poissons Ratio (z) = 0.09650 0.60029
#
# Static dielectric constant tensor:
#      x y z
#    x 3.800570 -0.000010 0.602700 
#    y -0.000010 3.643430 0.000000 
#    z 0.602700 0.000000 3.232830 
# 
# 
# High freq. dielectric constant tensor:
#      x y z
#    x 1.732160 0.000000 0.043650 
#    y 0.000000 1.737880 0.000000 
#    z 0.043650 0.000000 1.688890 
# 
# From -- ./inp_files/119665.got.cif
#   From: 2010.06.25/outbox.cif.g09.slc.cpg/sg15_60_cif.got.tgz:119665.got - 2010.06.28 07:06:18.
