data_PCOD8133156
_publ_section_title
;
Structure prediction by ZEFSAII (Michael W. Deem and Ramdas Pophale) SiO2 
 PCOD8133156
Probable space group: C 2/C
;
_chemical_formula_sum "Si O2"
_cell_formula_units_Z 32
_cell_length_a 15.231927
_cell_length_b 17.797528
_cell_length_c 14.015219
_cell_angle_alpha 90.000000
_cell_angle_beta 152.841460
_cell_angle_gamma 90.000000
_cell_volume 1734.249762
_symmetry_space_group_name_H-M "C 2/C"
_symmetry_group_IT_number 15
_symmetry_cell_setting 'monoclinic'
loop_
_space_group_symop_operation_xyz
x,y,z
-x,y,1/2-z
-x,-y,-z
x,-y,1/2+z
1/2+x,1/2+y,z
1/2-x,1/2+y,1/2-z
1/2-x,1/2-y,-z
1/2+x,1/2-y,1/2+z
loop_
_atom_site_type_symbol
_atom_site_label
_atom_site_fract_x
_atom_site_fract_y
_atom_site_fract_z
Si Si1 0.637244 0.678185 0.010384
Si Si2 0.210704 0.339644 0.041870
Si Si3 0.466863 0.002761 0.109626
Si Si4 0.798564 0.042460 0.302177
O O1 0.799779 0.669254 0.083964
O O2 0.432414 0.646355 0.780580
O O3 0.625814 0.767823 0.017929
O O4 0.692651 0.629469 0.156255
O O5 0.087568 0.410234 0.953286
O O6 0.500000 0.975602 0.250000
O O7 0.664879 0.992848 0.243493
O O8 0.294563 0.955233 0.893960
O O9 0.000000 0.000000 0.500000
#
# Coordination Sequence:
#
# PCOD8133156 Si02
#       4
#     8   8   8   8
#     4  10  19  32  53  84 119 149 185 231 293 346
#     4  10  19  32  55  83 116 151 184 236 289 345
#     4  11  22  36  56  82 118 155 193 235 287 345
#     4  11  22  36  53  83 120 156 192 235 287 347
#
# _framework density 18.451782000000001
#
# number of rings (size 3 to 8) (size 9 to 14) (size 15 to 20)
#    0.000    1.500    5.000    1.500    3.500    1.000 
#    0.000    0.000    0.000    0.000    0.000   15.750 
#    0.000    0.250    0.000    0.000    0.000    0.000 
#
# Total GULP energy -198363.338746 kJ/mol
# GULP energy per Si atom -12397.708672 kJ/mol
# Density = 1.840978 g / cm^3
# Si number density = 18.451782 Si / 1000 Ang^3
#
#
#
# Elastic Constant Matrix: (Units=GPa)
#
#
# Indices 1 2 3 4 5 6 
#
# 1 82.0530 35.5229 59.3381 0.0000 -16.2822 0.0000
# 2 35.5229 96.8030 41.4033 0.0000 -21.1954 0.0000
# 3 59.3381 41.4033 106.7256 -0.0001 -17.0543 0.0000
# 4 0.0000 0.0000 -0.0001 30.8681 0.0000 -4.4067
# 5 -16.2822 -21.1954 -17.0543 0.0000 42.8044 0.0000
# 6 0.0000 0.0000 0.0000 -4.4067 0.0000 31.6780
#
#
#
# Elastic Compliance Matrix: (Units=1/GPa)
#
#
# Indices 1 2 3 4 5 6 
#
# 1 0.021471 -0.002855 -0.010414 0.000000 0.002605 0.000000
# 2 -0.002855 0.013636 -0.002987 0.000000 0.004476 0.000000
# 3 -0.010414 -0.002987 0.016500 0.000000 0.001133 0.000000
# 4 0.000000 0.000000 0.000000 0.033052 0.000000 0.004598
# 5 0.002605 0.004476 0.001133 0.000000 0.027021 0.000000
# 6 0.000000 0.000000 0.000000 0.004598 0.000000 0.032207
#
#
# Mechanical properties :
#
#
# Convention : Reuss Voigt Hill
#
# Bulk Modulus (GPa) = 52.37148 62.01224 57.19186
# Shear Modulus (GPa) = 27.35777 31.02458 29.19117
#
# Velocity S-wave (km/s) = 3.85471 4.10492 3.98178
# Velocity P-wave (km/s) = 6.94667 7.49319 7.22510
#
# Compressibility (1/GPa) = 0.01909436
#
# Stress axis : x y z
#
# Youngs Moduli (GPa) = 46.57459 73.33776 60.60631
#
# Poissons Ratio (x) = 0.20935 0.63115
# Poissons Ratio (y) = 0.13295 0.18106
# Poissons Ratio (z) = 0.48503 0.21909
#
# Static dielectric constant tensor:
#      x y z
#    x 3.310400 0.000000 0.004480 
#    y 0.000000 3.303280 0.000000 
#    z 0.004480 0.000000 3.735990 
# 
# 
# High freq. dielectric constant tensor:
#      x y z
#    x 1.683920 0.000000 0.018000 
#    y 0.000000 1.688700 0.000000 
#    z 0.018000 0.000000 1.747530 
# 
# From -- ./inp_files/38258.got.cif
#   From: 2010.06.25/outbox.cif.g09.slc.cpg/sg15_20_cif.got.tgz:38258.got - 2010.06.28 07:06:18.
