data_PCOD8133100
_publ_section_title
;
Structure prediction by ZEFSAII (Michael W. Deem and Ramdas Pophale) SiO2 
 PCOD8133100
Probable space group: C 2/C
;
_chemical_formula_sum "Si O2"
_cell_formula_units_Z 56
_cell_length_a 14.642800
_cell_length_b 12.389812
_cell_length_c 30.171102
_cell_angle_alpha 90.000000
_cell_angle_beta 143.366719
_cell_angle_gamma 90.000000
_cell_volume 3266.100780
_symmetry_space_group_name_H-M "C 2/C"
_symmetry_group_IT_number 15
_symmetry_cell_setting 'monoclinic'
loop_
_space_group_symop_operation_xyz
x,y,z
-x,y,1/2-z
-x,-y,-z
x,-y,1/2+z
1/2+x,1/2+y,z
1/2-x,1/2+y,1/2-z
1/2-x,1/2-y,-z
1/2+x,1/2-y,1/2+z
loop_
_atom_site_type_symbol
_atom_site_label
_atom_site_fract_x
_atom_site_fract_y
_atom_site_fract_z
Si Si1 0.087744 0.076929 0.716789
Si Si2 0.724505 0.046776 0.923806
Si Si3 0.751433 0.564520 0.156411
Si Si4 0.945243 0.055423 0.087400
Si Si5 0.388662 0.732894 0.134905
Si Si6 0.000000 0.744866 0.250000
Si Si7 0.500000 0.405518 0.750000
Si Si8 0.392685 0.914390 0.284055
O O1 0.015492 0.181951 0.711919
O O2 0.261778 0.093279 0.769710
O O3 0.982138 0.045809 0.633705
O O4 0.097494 0.977157 0.754175
O O5 0.743232 0.176103 0.921148
O O6 0.791140 0.981877 0.908189
O O7 0.543233 0.020799 0.860782
O O8 0.817897 0.013439 0.003614
O O9 0.596285 0.595914 0.120846
O O10 0.842519 0.473040 0.219255
O O11 0.849160 0.672525 0.187829
O O12 0.879669 0.156932 0.088563
O O13 0.373091 0.663768 0.173788
O O14 0.555576 0.791103 0.204893
#
# Coordination Sequence:
#
# PCOD8133100 Si02
#       8
#     8   8   8   8   8   4   4   8
#     4   9  20  32  51  72  97 129 160 200 238 287
#     4  10  19  32  51  73 101 125 159 200 241 286
#     4  11  19  33  54  73  95 129 164 204 233 278
#     4  10  20  33  50  73 102 129 155 193 251 290
#     4   9  17  30  52  73  96 123 161 197 238 283
#     4  11  18  35  54  72  94 125 172 199 234 278
#     4   9  16  31  50  72  98 121 160 205 238 274
#     4   9  18  32  51  75  94 124 167 198 237 278
#
# _framework density 17.145828000000002
#
# number of rings (size 3 to 8) (size 9 to 14) (size 15 to 20)
#    0.857    1.429    1.429    2.571    0.000    0.000 
#    0.000    0.714    3.143    2.571    0.000    0.000 
#    0.000    0.000    0.000    0.000    0.000    0.000 
#
# Total GULP energy -347027.837621 kJ/mol
# GULP energy per Si atom -12393.851344 kJ/mol
# Density = 1.710680 g / cm^3
# Si number density = 17.145828 Si / 1000 Ang^3
#
#
#
# Elastic Constant Matrix: (Units=GPa)
#
#
# Indices 1 2 3 4 5 6 
#
# 1 82.2670 34.5808 41.1327 0.0000 -19.3707 0.0000
# 2 34.5808 73.8339 30.8702 0.0000 -17.4180 0.0000
# 3 41.1327 30.8702 107.9276 0.0000 -20.9451 0.0000
# 4 0.0000 0.0000 0.0000 14.2822 0.0000 -0.4816
# 5 -19.3707 -17.4180 -20.9451 0.0000 23.8476 0.0000
# 6 0.0000 0.0000 0.0000 -0.4816 0.0000 22.0149
#
#
#
# Elastic Compliance Matrix: (Units=1/GPa)
#
#
# Indices 1 2 3 4 5 6 
#
# 1 0.018011 -0.005008 -0.003981 0.000000 0.007476 0.000000
# 2 -0.005008 0.018514 -0.001871 0.000000 0.007812 0.000000
# 3 -0.003981 -0.001871 0.012567 0.000000 0.006437 0.000000
# 4 0.000000 0.000000 0.000000 0.070069 0.000000 0.001533
# 5 0.007476 0.007812 0.006437 0.000000 0.059365 0.000000
# 6 0.000000 0.000000 0.000000 0.001533 0.000000 0.045457
#
#
# Mechanical properties :
#
#
# Convention : Reuss Voigt Hill
#
# Bulk Modulus (GPa) = 36.53227 53.02175 44.77701
# Shear Modulus (GPa) = 19.62105 22.52526 21.07315
#
# Velocity S-wave (km/s) = 3.38651 3.62850 3.50959
# Velocity P-wave (km/s) = 6.05346 6.96748 6.52649
#
# Compressibility (1/GPa) = 0.02737306
#
# Stress axis : x y z
#
# Youngs Moduli (GPa) = 55.52054 54.01179 79.57206
#
# Poissons Ratio (x) = 0.27047 0.31680
# Poissons Ratio (y) = 0.27802 0.14889
# Poissons Ratio (z) = 0.22104 0.10106
#
# Static dielectric constant tensor:
#      x y z
#    x 3.193650 0.000000 -0.123160 
#    y 0.000000 3.179960 0.000000 
#    z -0.123160 0.000000 3.024630 
# 
# 
# High freq. dielectric constant tensor:
#      x y z
#    x 1.661490 0.000000 -0.014810 
#    y 0.000000 1.657710 0.000000 
#    z -0.014810 0.000000 1.646020 
# 
# From -- ./inp_files/243352.got.cif
#   From: 2010.06.25/outbox.cif.g09.slc.cpg/sg15_122_cif.got.tgz:243352.got - 2010.06.28 07:06:18.
