data_PCOD8133855
_publ_section_title
;
Structure prediction by ZEFSAII (Michael W. Deem and Ramdas Pophale) SiO2 
 PCOD8133855
Probable space group: C 2/C
;
_chemical_formula_sum "Si O2"
_cell_formula_units_Z 48
_cell_length_a 12.767040
_cell_length_b 14.951327
_cell_length_c 20.328916
_cell_angle_alpha 90.000000
_cell_angle_beta 141.292929
_cell_angle_gamma 90.000000
_cell_volume 2426.608261
_symmetry_space_group_name_H-M "C 2/C"
_symmetry_group_IT_number 15
_symmetry_cell_setting 'monoclinic'
loop_
_space_group_symop_operation_xyz
x,y,z
-x,y,1/2-z
-x,-y,-z
x,-y,1/2+z
1/2+x,1/2+y,z
1/2-x,1/2+y,1/2-z
1/2-x,1/2-y,-z
1/2+x,1/2-y,1/2+z
loop_
_atom_site_type_symbol
_atom_site_label
_atom_site_fract_x
_atom_site_fract_y
_atom_site_fract_z
Si Si1 0.184976 0.149287 0.782701
Si Si2 0.366786 0.744405 0.618964
Si Si3 0.534085 0.225420 0.947431
Si Si4 0.881242 0.154748 0.128700
Si Si5 0.143567 0.120012 0.068846
Si Si6 0.528783 0.497725 0.122564
O O1 0.173094 0.154653 0.856907
O O2 0.374626 0.163882 0.854611
O O3 0.062133 0.230714 0.695438
O O4 0.136579 0.052933 0.730506
O O5 0.250000 0.750000 0.500000
O O6 0.323378 0.832369 0.642383
O O7 0.576685 0.260925 0.896025
O O8 0.491932 0.303729 0.978824
O O9 0.685323 0.165987 0.052041
O O10 0.903783 0.064192 0.098445
O O11 0.000000 0.155348 0.250000
O O12 0.155766 0.050213 0.135434
O O13 0.082539 0.072014 0.972748
#
# Coordination Sequence:
#
# PCOD8133855 Si02
#       6
#     8   8   8   8   8   8
#     4  10  21  35  62  86 119 153 194 242 294 348
#     4  10  19  34  58  88 112 154 196 236 284 352
#     4   9  21  41  56  87 111 158 201 228 286 362
#     4  10  22  37  61  83 116 150 196 244 290 340
#     4   9  19  37  61  83 119 159 194 236 290 347
#     4  10  20  36  59  88 120 153 189 249 296 336
#
# _framework density 19.780695999999999
#
# number of rings (size 3 to 8) (size 9 to 14) (size 15 to 20)
#    0.000    2.333    1.667    0.000    4.667    0.000 
#    0.000    9.167    0.000    0.000    0.000    0.000 
#    0.000    0.000    0.000    0.000    0.000    0.000 
#
# Total GULP energy -297342.421218 kJ/mol
# GULP energy per Si atom -12389.267551 kJ/mol
# Density = 1.973567 g / cm^3
# Si number density = 19.780696 Si / 1000 Ang^3
#
#
#
# Elastic Constant Matrix: (Units=GPa)
#
#
# Indices 1 2 3 4 5 6 
#
# 1 68.5080 37.7129 61.2613 0.0000 4.5366 0.0000
# 2 37.7129 94.8626 49.9402 0.0000 4.2216 0.0000
# 3 61.2613 49.9402 141.0181 0.0001 5.8994 0.0000
# 4 0.0000 0.0000 0.0001 36.8016 0.0000 -4.0651
# 5 4.5366 4.2216 5.8994 0.0000 46.7622 0.0000
# 6 0.0000 0.0000 0.0000 -4.0651 0.0000 27.0951
#
#
#
# Elastic Compliance Matrix: (Units=1/GPa)
#
#
# Indices 1 2 3 4 5 6 
#
# 1 0.025961 -0.005364 -0.009342 0.000000 -0.000856 0.000000
# 2 -0.005364 0.014082 -0.002639 0.000000 -0.000418 0.000000
# 3 -0.009342 -0.002639 0.012100 0.000000 -0.000382 0.000000
# 4 0.000000 0.000000 0.000000 0.027631 0.000000 0.004145
# 5 -0.000856 -0.000418 -0.000382 0.000000 0.021554 0.000000
# 6 0.000000 0.000000 0.000000 0.004145 0.000000 0.037529
#
#
# Mechanical properties :
#
#
# Convention : Reuss Voigt Hill
#
# Bulk Modulus (GPa) = 57.30183 66.91306 62.10744
# Shear Modulus (GPa) = 27.87602 32.49673 30.18638
#
# Velocity S-wave (km/s) = 3.75808 4.05761 3.91071
# Velocity P-wave (km/s) = 6.91826 7.47349 7.20123
#
# Compressibility (1/GPa) = 0.01745145
#
# Stress axis : x y z
#
# Youngs Moduli (GPa) = 38.51982 71.01169 82.64186
#
# Poissons Ratio (x) = 0.38094 0.77207
# Poissons Ratio (y) = 0.20664 0.21811
# Poissons Ratio (z) = 0.35986 0.18741
#
# Static dielectric constant tensor:
#      x y z
#    x 3.859080 0.000000 0.037800 
#    y 0.000000 3.661180 0.000000 
#    z 0.037800 0.000000 3.641340 
# 
# 
# High freq. dielectric constant tensor:
#      x y z
#    x 1.775680 0.000000 -0.008520 
#    y 0.000000 1.758480 0.000000 
#    z -0.008520 0.000000 1.763720 
# 
# From -- ./inp_files/274386.got.cif
#   From: 2010.06.25/outbox.cif.g09.slc.cpg/sg15_138_cif.got.tgz:274386.got - 2010.06.28 07:06:18.
