data_PCOD8133928
_publ_section_title
;
Structure prediction by ZEFSAII (Michael W. Deem and Ramdas Pophale) SiO2 
 PCOD8133928
Probable space group: C 2/C
;
_chemical_formula_sum "Si O2"
_cell_formula_units_Z 56
_cell_length_a 7.904581
_cell_length_b 21.511583
_cell_length_c 19.300565
_cell_angle_alpha 90.000000
_cell_angle_beta 128.308843
_cell_angle_gamma 90.000000
_cell_volume 2575.219314
_symmetry_space_group_name_H-M "C 2/C"
_symmetry_group_IT_number 15
_symmetry_cell_setting 'monoclinic'
loop_
_space_group_symop_operation_xyz
x,y,z
-x,y,1/2-z
-x,-y,-z
x,-y,1/2+z
1/2+x,1/2+y,z
1/2-x,1/2+y,1/2-z
1/2-x,1/2-y,-z
1/2+x,1/2-y,1/2+z
loop_
_atom_site_type_symbol
_atom_site_label
_atom_site_fract_x
_atom_site_fract_y
_atom_site_fract_z
Si Si1 0.584329 0.806380 0.966062
Si Si2 0.700786 0.452146 0.956007
Si Si3 0.776400 0.726900 0.661685
Si Si4 0.187160 0.123756 0.745658
Si Si5 0.161608 0.980444 0.729934
Si Si6 0.411480 0.838444 0.068057
Si Si7 0.965304 0.557262 0.084372
O O1 0.374313 0.786604 0.869169
O O2 0.643563 0.873937 0.949117
O O3 0.750000 0.750000 0.000000
O O4 0.538834 0.810524 0.035895
O O5 0.448605 0.453941 0.868529
O O6 0.860697 0.454290 0.931297
O O7 0.726470 0.386753 0.000605
O O8 0.767949 0.508739 0.024605
O O9 0.677596 0.667119 0.675515
O O10 0.000000 0.748613 0.750000
O O11 0.797937 0.714617 0.584804
O O12 0.417806 0.126538 0.840212
O O13 0.000000 0.145941 0.750000
O O14 0.157562 0.053650 0.714680
O O15 0.402687 0.954361 0.809347
O O16 0.000000 0.962356 0.750000
#
# Coordination Sequence:
#
# PCOD8133928 Si02
#       7
#     8   8   8   8   8   8   8
#     4  11  23  36  60  86 121 161 207 251 298 361
#     4   9  17  30  55  86 112 153 196 248 305 352
#     4  10  23  39  57  86 116 165 202 242 303 372
#     4  10  19  34  60  87 115 146 202 255 299 361
#     4   9  17  29  55  87 117 149 195 258 311 357
#     4  10  20  38  58  83 120 156 201 253 299 366
#     4   9  18  32  52  87 120 146 197 250 301 357
#
# _framework density 21.745719999999999
#
# number of rings (size 3 to 8) (size 9 to 14) (size 15 to 20)
#    0.000    2.286    1.429    1.286    8.000    2.857 
#    0.000    0.714    0.000    0.000    0.000    0.000 
#    0.000    0.000    0.000    0.000    0.000    0.000 
#
# Total GULP energy -347031.977424 kJ/mol
# GULP energy per Si atom -12393.999194 kJ/mol
# Density = 2.169623 g / cm^3
# Si number density = 21.745720 Si / 1000 Ang^3
#
#
#
# Elastic Constant Matrix: (Units=GPa)
#
#
# Indices 1 2 3 4 5 6 
#
# 1 28.2938 19.3914 6.1873 0.0000 -4.8658 0.0000
# 2 19.3914 99.0107 45.8507 0.0000 3.7196 0.0000
# 3 6.1873 45.8507 115.8387 0.0000 6.8159 0.0000
# 4 0.0000 0.0000 0.0000 17.1623 0.0000 13.2615
# 5 -4.8658 3.7196 6.8159 0.0000 28.0619 0.0000
# 6 0.0000 0.0000 0.0000 13.2615 0.0000 17.2539
#
#
#
# Elastic Compliance Matrix: (Units=1/GPa)
#
#
# Indices 1 2 3 4 5 6 
#
# 1 0.042842 -0.009083 0.000810 0.000000 0.008436 0.000000
# 2 -0.009083 0.014298 -0.005042 0.000000 -0.002245 0.000000
# 3 0.000810 -0.005042 0.010690 0.000000 -0.001788 0.000000
# 4 0.000000 0.000000 0.000000 0.143486 0.000000 -0.110285
# 5 0.008436 -0.002245 -0.001788 0.000000 0.037830 0.000000
# 6 0.000000 0.000000 0.000000 -0.110285 0.000000 0.142724
#
#
# Mechanical properties :
#
#
# Convention : Reuss Voigt Hill
#
# Bulk Modulus (GPa) = 24.27107 42.88910 33.58008
# Shear Modulus (GPa) = 11.56783 23.94321 17.75552
#
# Velocity S-wave (km/s) = 2.30893 3.32181 2.86056
# Velocity P-wave (km/s) = 4.27712 5.87183 5.13674
#
# Compressibility (1/GPa) = 0.04120132
#
# Stress axis : x y z
#
# Youngs Moduli (GPa) = 23.34161 69.93921 93.54232
#
# Poissons Ratio (x) = 0.63525 -0.07581
# Poissons Ratio (y) = 0.21201 0.47165
# Poissons Ratio (z) = -0.01892 0.35264
#
# Static dielectric constant tensor:
#      x y z
#    x 3.687460 0.000000 0.055570 
#    y 0.000000 3.843290 0.000000 
#    z 0.055570 0.000000 4.261930 
# 
# 
# High freq. dielectric constant tensor:
#      x y z
#    x 1.816450 0.000000 0.009860 
#    y 0.000000 1.849060 0.000000 
#    z 0.009860 0.000000 1.870820 
# 
# From -- ./inp_files/233931.got.cif
#   From: 2010.06.25/outbox.cif.g09.slc.cpg/sg15_117_cif.got.tgz:233931.got - 2010.06.28 07:06:18.
