data_PCOD8133457
_publ_section_title
;
Structure prediction by ZEFSAII (Michael W. Deem and Ramdas Pophale) SiO2 
 PCOD8133457
Probable space group: C 2/C
;
_chemical_formula_sum "Si O2"
_cell_formula_units_Z 40
_cell_length_a 10.152871
_cell_length_b 18.123374
_cell_length_c 19.261853
_cell_angle_alpha 90.000000
_cell_angle_beta 145.180500
_cell_angle_gamma 90.000000
_cell_volume 2023.749583
_symmetry_space_group_name_H-M "C 2/C"
_symmetry_group_IT_number 15
_symmetry_cell_setting 'monoclinic'
loop_
_space_group_symop_operation_xyz
x,y,z
-x,y,1/2-z
-x,-y,-z
x,-y,1/2+z
1/2+x,1/2+y,z
1/2-x,1/2+y,1/2-z
1/2-x,1/2-y,-z
1/2+x,1/2-y,1/2+z
loop_
_atom_site_type_symbol
_atom_site_label
_atom_site_fract_x
_atom_site_fract_y
_atom_site_fract_z
Si Si1 0.000000 0.499523 0.750000
Si Si2 0.706964 0.128647 0.649651
Si Si3 0.350501 0.619485 0.430481
Si Si4 0.224171 0.584657 0.969035
Si Si5 0.500000 0.240864 0.250000
Si Si6 0.092695 0.061144 0.893370
O O1 0.777943 0.446973 0.665757
O O2 0.949502 0.549247 0.661862
O O3 0.439546 0.136677 0.554837
O O4 0.727465 0.108289 0.576521
O O5 0.840730 0.204919 0.727936
O O6 0.839188 0.063458 0.748806
O O7 0.578507 0.634159 0.482525
O O8 0.429041 0.596002 0.540182
O O9 0.184366 0.689822 0.369801
O O10 0.327572 0.523202 0.065177
#
# Coordination Sequence:
#
# PCOD8133457 Si02
#       6
#     4   8   8   8   4   8
#     4   9  18  32  52  82 104 121 160 210 256 289
#     4  10  21  34  51  73 107 134 160 203 247 304
#     4  10  19  33  56  73  99 134 168 205 239 296
#     4  11  18  31  55  81  98 125 169 210 246 287
#     4   9  22  38  48  70 102 139 170 198 250 293
#     4   9  19  34  52  76 102 132 158 202 262 296
#
# _framework density 19.765291999999999
#
# number of rings (size 3 to 8) (size 9 to 14) (size 15 to 20)
#    0.000    2.400    0.000    5.400    0.000    4.000 
#    0.000    0.000    0.000    4.800    0.000    0.000 
#    0.000    0.000    0.000    0.000    0.000    0.000 
#
# Total GULP energy -247778.097872 kJ/mol
# GULP energy per Si atom -12388.904894 kJ/mol
# Density = 1.972031 g / cm^3
# Si number density = 19.765292 Si / 1000 Ang^3
#
#
#
# Elastic Constant Matrix: (Units=GPa)
#
#
# Indices 1 2 3 4 5 6 
#
# 1 142.3014 28.2823 32.1615 0.0005 38.9266 0.0006
# 2 28.2823 70.7226 14.4341 -0.0002 9.8562 0.0002
# 3 32.1615 14.4341 55.0169 0.0003 4.1103 0.0017
# 4 0.0005 -0.0002 0.0003 13.2710 0.0001 4.3609
# 5 38.9266 9.8562 4.1103 0.0001 33.5799 0.0005
# 6 0.0006 0.0002 0.0017 4.3609 0.0005 16.1282
#
#
#
# Elastic Compliance Matrix: (Units=1/GPa)
#
#
# Indices 1 2 3 4 5 6 
#
# 1 0.012226 -0.001931 -0.005676 -0.000001 -0.012911 0.000001
# 2 -0.001931 0.015780 -0.002858 0.000000 -0.002043 0.000000
# 3 -0.005676 -0.002858 0.021890 0.000000 0.004739 -0.000002
# 4 -0.000001 0.000000 0.000000 0.082700 0.000001 -0.022361
# 5 -0.012911 -0.002043 0.004739 0.000001 0.044766 -0.000002
# 6 0.000001 0.000000 -0.000002 -0.022361 -0.000002 0.068049
#
#
# Mechanical properties :
#
#
# Convention : Reuss Voigt Hill
#
# Bulk Modulus (GPa) = 34.52436 46.42187 40.47312
# Shear Modulus (GPa) = 18.11618 25.47337 21.79478
#
# Velocity S-wave (km/s) = 3.03077 3.59387 3.32426
# Velocity P-wave (km/s) = 5.45458 6.38426 5.93764
#
# Compressibility (1/GPa) = 0.02896505
#
# Stress axis : x y z
#
# Youngs Moduli (GPa) = 81.79529 63.37042 45.68316
#
# Poissons Ratio (x) = 0.12240 0.25928
# Poissons Ratio (y) = 0.15798 0.13058
# Poissons Ratio (z) = 0.46423 0.18114
#
# Static dielectric constant tensor:
#      x y z
#    x 3.584090 0.000000 0.141270 
#    y 0.000000 3.493170 0.000000 
#    z 0.141270 0.000000 3.629320 
# 
# 
# High freq. dielectric constant tensor:
#      x y z
#    x 1.769390 0.000000 0.015370 
#    y 0.000000 1.741140 0.000000 
#    z 0.015370 0.000000 1.767970 
# 
# From -- ./inp_files/113754.got.cif
#   From: 2010.06.25/outbox.cif.g09.slc.cpg/sg15_57_cif.got.tgz:113754.got - 2010.06.28 07:06:18.
