data_PCOD8133248
_publ_section_title
;
Structure prediction by ZEFSAII (Michael W. Deem and Ramdas Pophale) SiO2 
 PCOD8133248
Probable space group: C 2/C
;
_chemical_formula_sum "Si O2"
_cell_formula_units_Z 48
_cell_length_a 14.803835
_cell_length_b 13.625527
_cell_length_c 22.664895
_cell_angle_alpha 90.000000
_cell_angle_beta 152.510894
_cell_angle_gamma 90.000000
_cell_volume 2110.222230
_symmetry_space_group_name_H-M "C 2/C"
_symmetry_group_IT_number 15
_symmetry_cell_setting 'monoclinic'
loop_
_space_group_symop_operation_xyz
x,y,z
-x,y,1/2-z
-x,-y,-z
x,-y,1/2+z
1/2+x,1/2+y,z
1/2-x,1/2+y,1/2-z
1/2-x,1/2-y,-z
1/2+x,1/2-y,1/2+z
loop_
_atom_site_type_symbol
_atom_site_label
_atom_site_fract_x
_atom_site_fract_y
_atom_site_fract_z
Si Si1 0.829644 0.494482 0.531847
Si Si2 0.045843 0.077964 0.137044
Si Si3 0.038775 0.782670 0.007596
Si Si4 0.730531 0.040442 0.819365
Si Si5 0.204136 0.642002 0.387879
Si Si6 0.282723 0.407612 0.643200
O O1 0.671959 0.572203 0.464667
O O2 0.795585 0.385469 0.541192
O O3 0.791310 0.497896 0.438381
O O4 0.039531 0.539535 0.668068
O O5 0.209347 0.067749 0.282770
O O6 0.082514 0.989646 0.112140
O O7 0.070891 0.179975 0.115505
O O8 0.225559 0.852110 0.129756
O O9 0.118703 0.675579 0.040913
O O10 0.882644 0.787484 0.971543
O O11 0.706798 0.965004 0.859029
O O12 0.000000 0.694134 0.250000
O O13 0.500000 0.372078 0.750000
#
# Coordination Sequence:
#
# PCOD8133248 Si02
#       6
#     8   8   8   8   8   8
#     4  10  19  35  54  83 113 145 191 237 290 342
#     4  10  20  38  52  79 120 149 193 237 285 348
#     4  11  20  34  56  84 114 152 195 237 286 342
#     4  10  19  32  61  81 105 154 197 238 279 341
#     4   9  17  34  59  84 106 146 205 242 270 336
#     4  10  25  34  53  86 126 152 175 242 310 341
#
# _framework density 22.746418999999999
#
# number of rings (size 3 to 8) (size 9 to 14) (size 15 to 20)
#    0.000    2.000    3.333    1.000    4.667    2.000 
#    0.000    0.000    0.000   11.000    0.000    0.000 
#    0.000    0.000    0.000    0.000    0.000    0.000 
#
# Total GULP energy -297413.325883 kJ/mol
# GULP energy per Si atom -12392.221912 kJ/mol
# Density = 2.269465 g / cm^3
# Si number density = 22.746419 Si / 1000 Ang^3
#
#
#
# Elastic Constant Matrix: (Units=GPa)
#
#
# Indices 1 2 3 4 5 6 
#
# 1 71.6711 15.7971 33.1472 0.0003 -23.3368 -0.0002
# 2 15.7971 29.9657 7.3493 0.0046 -3.5690 0.0002
# 3 33.1472 7.3493 107.9217 0.0116 -9.6393 0.0002
# 4 0.0003 0.0046 0.0116 19.4279 0.0019 0.2251
# 5 -23.3368 -3.5690 -9.6393 0.0019 49.9262 -0.0001
# 6 -0.0002 0.0002 0.0002 0.2251 -0.0001 18.1068
#
#
#
# Elastic Compliance Matrix: (Units=1/GPa)
#
#
# Indices 1 2 3 4 5 6 
#
# 1 0.020904 -0.008799 -0.005093 0.000004 0.008159 0.000000
# 2 -0.008799 0.037842 0.000000 -0.000009 -0.001408 0.000000
# 3 -0.005093 0.000000 0.010804 -0.000006 -0.000294 0.000000
# 4 0.000004 -0.000009 -0.000006 0.051480 -0.000002 -0.000640
# 5 0.008159 -0.001408 -0.000294 -0.000002 0.023686 0.000000
# 6 0.000000 0.000000 0.000000 -0.000640 0.000000 0.055236
#
#
# Mechanical properties :
#
#
# Convention : Reuss Voigt Hill
#
# Bulk Modulus (GPa) = 23.94268 35.79397 29.86832
# Shear Modulus (GPa) = 20.69045 27.70984 24.20014
#
# Velocity S-wave (km/s) = 3.01925 3.49407 3.26530
# Velocity P-wave (km/s) = 4.76479 5.66112 5.23219
#
# Compressibility (1/GPa) = 0.04176643
#
# Stress axis : x y z
#
# Youngs Moduli (GPa) = 47.83799 26.42532 92.56000
#
# Poissons Ratio (x) = 0.23252 0.47136
# Poissons Ratio (y) = 0.42094 0.00001
# Poissons Ratio (z) = 0.24362 0.00000
#
# Static dielectric constant tensor:
#      x y z
#    x 4.464060 0.000000 -0.121750 
#    y 0.000000 3.325290 0.000000 
#    z -0.121750 0.000000 4.410310 
# 
# 
# High freq. dielectric constant tensor:
#      x y z
#    x 1.909940 0.000000 0.002710 
#    y 0.000000 1.824900 0.000000 
#    z 0.002710 0.000000 1.913310 
# 
# From -- ./inp_files/274367.got.cif
#   From: 2010.06.25/outbox.cif.g09.slc.cpg/sg15_138_cif.got.tgz:274367.got - 2010.06.28 07:06:18.
