data_PCOD8133626
_publ_section_title
;
Structure prediction by ZEFSAII (Michael W. Deem and Ramdas Pophale) SiO2 
 PCOD8133626
Probable space group: C 2/C
;
_chemical_formula_sum "Si O2"
_cell_formula_units_Z 56
_cell_length_a 29.512470
_cell_length_b 19.049334
_cell_length_c 17.692213
_cell_angle_alpha 90.000000
_cell_angle_beta 162.879826
_cell_angle_gamma 90.000000
_cell_volume 2928.000590
_symmetry_space_group_name_H-M "C 2/C"
_symmetry_group_IT_number 15
_symmetry_cell_setting 'monoclinic'
loop_
_space_group_symop_operation_xyz
x,y,z
-x,y,1/2-z
-x,-y,-z
x,-y,1/2+z
1/2+x,1/2+y,z
1/2-x,1/2+y,1/2-z
1/2-x,1/2-y,-z
1/2+x,1/2-y,1/2+z
loop_
_atom_site_type_symbol
_atom_site_label
_atom_site_fract_x
_atom_site_fract_y
_atom_site_fract_z
Si Si1 0.051397 0.250011 0.102792
Si Si2 0.250727 0.981640 0.137991
Si Si3 0.607001 0.735364 0.357020
Si Si4 0.457861 0.598992 0.447669
Si Si5 0.023812 0.981636 0.911084
Si Si6 0.021796 0.400990 0.511657
Si Si7 0.892103 0.599366 0.642077
O O1 0.216459 0.286782 0.349490
O O2 0.049362 0.213332 0.182283
O O3 0.015422 0.182703 0.992661
O O4 0.938996 0.317288 0.916088
O O5 0.316580 0.058925 0.221395
O O6 0.393805 0.927074 0.367874
O O7 0.175267 0.983317 0.100532
O O8 0.124497 0.959366 0.874495
O O9 0.500000 0.698139 0.250000
O O10 0.595720 0.817848 0.346001
O O11 0.506925 0.558920 0.602084
O O12 0.554335 0.572953 0.528392
O O13 0.282591 0.576926 0.149853
O O14 0.952050 0.422943 0.319366
O O15 0.000000 0.564090 0.750000
#
# Coordination Sequence:
#
# PCOD8133626 Si02
#       7
#     8   8   8   8   8   8   8
#     4   9  18  30  47  76 102 132 165 209 258 300
#     4  10  21  36  53  73 101 139 176 210 251 303
#     4   8  15  25  42  71 107 132 153 193 254 310
#     4  10  19  34  52  76 105 133 170 213 256 306
#     4  10  21  36  53  73 101 139 176 210 251 303
#     4  10  19  34  52  76 105 133 170 213 256 306
#     4   9  15  27  48  76 103 132 161 199 250 305
#
# _framework density 19.125679000000002
#
# number of rings (size 3 to 8) (size 9 to 14) (size 15 to 20)
#    0.000    2.571    1.429    1.714    0.000    2.286 
#    0.000    0.714    0.000    0.000    0.000    0.000 
#    0.000    0.000    0.000    0.000    0.000    0.000 
#
# Total GULP energy -347004.700800 kJ/mol
# GULP energy per Si atom -12393.025029 kJ/mol
# Density = 1.908215 g / cm^3
# Si number density = 19.125679 Si / 1000 Ang^3
#
#
#
# Elastic Constant Matrix: (Units=GPa)
#
#
# Indices 1 2 3 4 5 6 
#
# 1 115.0510 12.3391 17.8402 0.0000 24.6285 0.0000
# 2 12.3391 84.8246 1.7983 0.0000 4.7444 0.0000
# 3 17.8402 1.7983 31.8625 0.0000 13.0164 0.0000
# 4 0.0000 0.0000 0.0000 23.5115 0.0000 -1.5160
# 5 24.6285 4.7444 13.0164 0.0000 26.6266 0.0000
# 6 0.0000 0.0000 0.0000 -1.5160 0.0000 20.1912
#
#
#
# Elastic Compliance Matrix: (Units=1/GPa)
#
#
# Indices 1 2 3 4 5 6 
#
# 1 0.011089 -0.001066 -0.002544 0.000000 -0.008824 0.000000
# 2 -0.001066 0.012012 0.000488 0.000000 -0.001393 0.000000
# 3 -0.002544 0.000488 0.039805 0.000000 -0.017192 0.000000
# 4 0.000000 0.000000 0.000000 0.042739 0.000000 0.003209
# 5 -0.008824 -0.001393 -0.017192 0.000000 0.054371 0.000000
# 6 0.000000 0.000000 0.000000 0.003209 0.000000 0.049767
#
#
# Mechanical properties :
#
#
# Convention : Reuss Voigt Hill
#
# Bulk Modulus (GPa) = 17.64856 32.85481 25.25168
# Shear Modulus (GPa) = 21.28427 27.38323 24.33375
#
# Velocity S-wave (km/s) = 3.33958 3.78796 3.57081
# Velocity P-wave (km/s) = 4.91102 6.02886 5.49842
#
# Compressibility (1/GPa) = 0.05666186
#
# Stress axis : x y z
#
# Youngs Moduli (GPa) = 90.17567 83.25269 25.12231
#
# Poissons Ratio (x) = 0.08872 0.06392
# Poissons Ratio (y) = 0.09610 -0.01226
# Poissons Ratio (z) = 0.22944 -0.04061
#
# Static dielectric constant tensor:
#      x y z
#    x 3.943290 0.000000 0.306860 
#    y 0.000000 3.345580 0.000000 
#    z 0.306860 0.000000 3.272390 
# 
# 
# High freq. dielectric constant tensor:
#      x y z
#    x 1.750470 0.000000 0.023840 
#    y 0.000000 1.737670 0.000000 
#    z 0.023840 0.000000 1.697890 
# 
# From -- ./inp_files/225840.got.cif
#   From: 2010.06.25/outbox.cif.g09.slc.cpg/sg15_113_cif.got.tgz:225840.got - 2010.06.28 07:06:18.
