data_PCOD8133903
_publ_section_title
;
Structure prediction by ZEFSAII (Michael W. Deem and Ramdas Pophale) SiO2 
 PCOD8133903
Probable space group: C 2/C
;
_chemical_formula_sum "Si O2"
_cell_formula_units_Z 48
_cell_length_a 23.626690
_cell_length_b 20.808620
_cell_length_c 9.432498
_cell_angle_alpha 90.000000
_cell_angle_beta 151.497957
_cell_angle_gamma 90.000000
_cell_volume 2212.912824
_symmetry_space_group_name_H-M "C 2/C"
_symmetry_group_IT_number 15
_symmetry_cell_setting 'monoclinic'
loop_
_space_group_symop_operation_xyz
x,y,z
-x,y,1/2-z
-x,-y,-z
x,-y,1/2+z
1/2+x,1/2+y,z
1/2-x,1/2+y,1/2-z
1/2-x,1/2-y,-z
1/2+x,1/2-y,1/2+z
loop_
_atom_site_type_symbol
_atom_site_label
_atom_site_fract_x
_atom_site_fract_y
_atom_site_fract_z
Si Si1 0.000000 0.457291 0.250000
Si Si2 0.718446 0.965516 0.319947
Si Si3 0.195858 0.929179 0.299057
Si Si4 0.371753 0.184008 0.206448
Si Si5 0.881447 0.363164 0.210414
Si Si6 0.182041 0.251507 0.623159
Si Si7 0.000000 0.850816 0.750000
O O1 0.922430 0.413790 0.182929
O O2 0.088081 0.502818 0.531827
O O3 0.771762 0.955293 0.283995
O O4 0.706176 0.896803 0.371121
O O5 0.808797 0.011397 0.603630
O O6 0.294374 0.879015 0.569023
O O7 0.066695 0.895496 0.012599
O O8 0.504465 0.164452 0.454300
O O9 0.381894 0.223003 0.375255
O O10 0.313875 0.226471 0.953192
O O11 0.808009 0.305377 0.975547
O O12 0.100105 0.192067 0.390843
#
# Coordination Sequence:
#
# PCOD8133903 Si02
#       7
#     4   8   8   8   8   8   4
#     4  12  19  36  56  94 122 159 190 250 312 360
#     4  12  24  38  60  93 128 154 203 247 316 357
#     4  11  24  40  62  92 120 165 197 258 297 367
#     4  10  19  34  59  90 114 152 205 241 299 348
#     4  12  19  35  62  91 122 155 200 254 298 360
#     4  10  19  35  62  90 112 161 209 244 287 366
#     4  10  21  42  64  84 124 159 216 240 300 360
#
# _framework density 21.690868999999999
#
# number of rings (size 3 to 8) (size 9 to 14) (size 15 to 20)
#    0.000    1.000    6.667    1.500    0.000    0.667 
#    0.000    3.333    3.667    0.000    0.000    0.000 
#    0.000    0.000    0.000    0.000    0.000    0.000 
#
# Total GULP energy -297666.460028 kJ/mol
# GULP energy per Si atom -12402.769168 kJ/mol
# Density = 2.164150 g / cm^3
# Si number density = 21.690869 Si / 1000 Ang^3
#
#
#
# Elastic Constant Matrix: (Units=GPa)
#
#
# Indices 1 2 3 4 5 6 
#
# 1 43.2324 19.4630 13.8525 0.0000 -10.6381 0.0000
# 2 19.4630 115.1397 68.2208 0.0000 -1.5803 0.0000
# 3 13.8525 68.2208 122.8118 0.0000 -9.2196 0.0000
# 4 0.0000 0.0000 0.0000 53.8749 0.0000 -5.5666
# 5 -10.6381 -1.5803 -9.2196 0.0000 10.0336 0.0000
# 6 0.0000 0.0000 0.0000 -5.5666 0.0000 25.9156
#
#
#
# Elastic Compliance Matrix: (Units=1/GPa)
#
#
# Indices 1 2 3 4 5 6 
#
# 1 0.034866 -0.007077 0.002889 0.000000 0.038507 0.000000
# 2 -0.007077 0.014612 -0.008280 0.000000 -0.012810 0.000000
# 3 0.002889 -0.008280 0.013478 0.000000 0.014144 0.000000
# 4 0.000000 0.000000 0.000000 0.018983 0.000000 0.004077
# 5 0.038507 -0.012810 0.014144 0.000000 0.151470 0.000000
# 6 0.000000 0.000000 0.000000 0.004077 0.000000 0.039463
#
#
# Mechanical properties :
#
#
# Convention : Reuss Voigt Hill
#
# Bulk Modulus (GPa) = 26.30187 53.80628 40.05408
# Shear Modulus (GPa) = 16.10409 29.94133 23.02271
#
# Velocity S-wave (km/s) = 2.72772 3.71936 3.26145
# Velocity P-wave (km/s) = 4.69816 6.58063 5.71740
#
# Compressibility (1/GPa) = 0.03802010
#
# Stress axis : x y z
#
# Youngs Moduli (GPa) = 28.68091 68.43921 74.19578
#
# Poissons Ratio (x) = 0.48435 -0.21437
# Poissons Ratio (y) = 0.20298 0.61434
# Poissons Ratio (z) = -0.08287 0.56667
#
# Static dielectric constant tensor:
#      x y z
#    x 3.287020 0.000000 -0.131720 
#    y 0.000000 4.327580 0.000000 
#    z -0.131720 0.000000 4.139620 
# 
# 
# High freq. dielectric constant tensor:
#      x y z
#    x 1.796110 0.000000 -0.013700 
#    y 0.000000 1.873430 0.000000 
#    z -0.013700 0.000000 1.861900 
# 
# From -- ./inp_files/63965.got.cif
#   From: 2010.06.25/outbox.cif.g09.slc.cpg/sg15_32_cif.got.tgz:63965.got - 2010.06.28 07:06:18.
