data_PCOD8133360
_publ_section_title
;
Structure prediction by ZEFSAII (Michael W. Deem and Ramdas Pophale) SiO2 
 PCOD8133360
Probable space group: C 2/C
;
_chemical_formula_sum "Si O2"
_cell_formula_units_Z 56
_cell_length_a 30.498767
_cell_length_b 8.970464
_cell_length_c 11.265619
_cell_angle_alpha 90.000000
_cell_angle_beta 111.401624
_cell_angle_gamma 90.000000
_cell_volume 2869.611751
_symmetry_space_group_name_H-M "C 2/C"
_symmetry_group_IT_number 15
_symmetry_cell_setting 'monoclinic'
loop_
_space_group_symop_operation_xyz
x,y,z
-x,y,1/2-z
-x,-y,-z
x,-y,1/2+z
1/2+x,1/2+y,z
1/2-x,1/2+y,1/2-z
1/2-x,1/2-y,-z
1/2+x,1/2-y,1/2+z
loop_
_atom_site_type_symbol
_atom_site_label
_atom_site_fract_x
_atom_site_fract_y
_atom_site_fract_z
Si Si1 0.357211 0.016587 0.856695
Si Si2 0.991766 0.105717 0.606919
Si Si3 0.650453 0.516287 0.651278
Si Si4 0.585234 0.247092 0.169695
Si Si5 0.711044 0.232228 0.129253
Si Si6 0.815990 0.233736 0.166100
Si Si7 0.110801 0.220958 0.956289
O O1 0.344179 0.118487 0.731379
O O2 0.402112 0.913091 0.871579
O O3 0.311397 0.918563 0.842067
O O4 0.372940 0.118203 0.981551
O O5 0.029373 0.240687 0.632462
O O6 0.000000 0.033769 0.750000
O O7 0.940891 0.179725 0.545824
O O8 0.000000 0.000000 0.500000
O O9 0.603365 0.617842 0.604408
O O10 0.695852 0.623659 0.690300
O O11 0.653914 0.413500 0.772310
O O12 0.647257 0.405833 0.535293
O O13 0.613954 0.269670 0.319185
O O14 0.767038 0.220851 0.189773
O O15 0.691198 0.260345 0.979391
#
# Coordination Sequence:
#
# PCOD8133360 Si02
#       7
#     8   8   8   8   8   8   8
#     4  10  21  35  52  78 108 140 178 217 273 322
#     4  10  20  37  58  84 112 144 182 227 276 328
#     4  10  19  33  54  76 102 136 180 217 269 318
#     4  10  20  35  55  78 108 140 177 223 271 325
#     4  10  20  34  52  75 104 138 177 221 267 318
#     4  10  20  34  52  75 104 138 177 221 267 318
#     4  10  20  35  55  78 108 140 177 223 271 325
#
# _framework density 19.514835000000001
#
# number of rings (size 3 to 8) (size 9 to 14) (size 15 to 20)
#    0.000    2.000    1.429    2.571    0.000    0.571 
#    0.000    1.429    0.000   13.714    0.000    0.000 
#    0.000    0.000    0.000    0.000    0.000    0.000 
#
# Total GULP energy -347117.995395 kJ/mol
# GULP energy per Si atom -12397.071264 kJ/mol
# Density = 1.947042 g / cm^3
# Si number density = 19.514835 Si / 1000 Ang^3
#
#
#
# Elastic Constant Matrix: (Units=GPa)
#
#
# Indices 1 2 3 4 5 6 
#
# 1 51.2846 20.1004 -12.3942 0.0000 -0.9997 0.0000
# 2 20.1004 126.2465 22.2911 0.0000 -1.4067 0.0000
# 3 -12.3942 22.2911 57.5557 0.0000 -3.7238 0.0000
# 4 0.0000 0.0000 0.0000 18.5242 0.0000 -10.6752
# 5 -0.9997 -1.4067 -3.7238 0.0000 27.8834 0.0000
# 6 0.0000 0.0000 0.0000 -10.6752 0.0000 -82.6903
#
#
#
# Elastic Compliance Matrix: (Units=1/GPa)
#
#
# Indices 1 2 3 4 5 6 
#
# 1 0.023135 -0.004898 0.006977 0.000000 0.001514 0.000000
# 2 -0.004898 0.009540 -0.004771 0.000000 -0.000332 0.000000
# 3 0.006977 -0.004771 0.020906 0.000000 0.002801 0.000000
# 4 0.000000 0.000000 0.000000 0.050245 0.000000 -0.006487
# 5 0.001514 -0.000332 0.002801 0.000000 0.036275 0.000000
# 6 0.000000 0.000000 0.000000 -0.006487 0.000000 -0.011256
#
#
# Mechanical properties :
#
#
# Convention : Reuss Voigt Hill
#
# Bulk Modulus (GPa) = 20.74891 32.78683 26.76787
# Shear Modulus (GPa) = 33.26796 6.41610 19.84203
#
# Velocity S-wave (km/s) = 4.13334 1.81520 3.19214
# Velocity P-wave (km/s) = 5.78229 4.60768 5.22808
#
# Compressibility (1/GPa) = 0.04819531
#
# Stress axis : x y z
#
# Youngs Moduli (GPa) = 43.22531 104.82596 47.83334
#
# Poissons Ratio (x) = 0.51348 -0.33373
# Poissons Ratio (y) = 0.21174 0.22821
# Poissons Ratio (z) = -0.30158 0.50012
#
# Static dielectric constant tensor:
#      x y z
#    x 3.527220 0.000000 -0.001350 
#    y 0.000000 3.480290 0.000000 
#    z -0.001350 0.000000 3.526540 
# 
# 
# High freq. dielectric constant tensor:
#      x y z
#    x 1.756090 0.000000 0.000520 
#    y 0.000000 1.762070 0.000000 
#    z 0.000520 0.000000 1.759470 
# 
# From -- ./inp_files/125532.got.cif
#   From: 2010.06.25/outbox.cif.g09.slc.cpg/sg15_63_cif.got.tgz:125532.got - 2010.06.28 07:06:18.
