data_PCOD8133439
_publ_section_title
;
Structure prediction by ZEFSAII (Michael W. Deem and Ramdas Pophale) SiO2 
 PCOD8133439
Probable space group: C 2/C
;
_chemical_formula_sum "Si O2"
_cell_formula_units_Z 64
_cell_length_a 9.062291
_cell_length_b 21.711564
_cell_length_c 16.648243
_cell_angle_alpha 90.000000
_cell_angle_beta 81.327799
_cell_angle_gamma 90.000000
_cell_volume 3238.200222
_symmetry_space_group_name_H-M "C 2/C"
_symmetry_group_IT_number 15
_symmetry_cell_setting 'monoclinic'
loop_
_space_group_symop_operation_xyz
x,y,z
-x,y,1/2-z
-x,-y,-z
x,-y,1/2+z
1/2+x,1/2+y,z
1/2-x,1/2+y,1/2-z
1/2-x,1/2-y,-z
1/2+x,1/2-y,1/2+z
loop_
_atom_site_type_symbol
_atom_site_label
_atom_site_fract_x
_atom_site_fract_y
_atom_site_fract_z
Si Si1 0.205765 0.575025 0.639451
Si Si2 0.171084 0.824572 0.261964
Si Si3 0.720155 0.036576 0.465421
Si Si4 0.152616 0.439553 0.697155
Si Si5 0.896274 0.414452 0.971131
Si Si6 0.141412 0.101394 0.186679
Si Si7 0.939674 0.658534 0.618462
Si Si8 0.380713 0.739203 0.329303
O O1 0.318471 0.615283 0.682956
O O2 0.261613 0.574130 0.542476
O O3 0.220359 0.506315 0.672217
O O4 0.035755 0.603129 0.652741
O O5 0.283518 0.832366 0.177482
O O6 0.222462 0.765990 0.311352
O O7 0.000000 0.814733 0.250000
O O8 0.557506 0.054877 0.446952
O O9 0.838607 0.051744 0.385776
O O10 0.720029 0.963420 0.481069
O O11 0.151690 0.397875 0.615965
O O12 0.231703 0.398087 0.756999
O O13 0.000000 0.456602 0.750000
O O14 0.900289 0.355460 0.028763
O O15 0.136624 0.168262 0.144023
O O16 0.000000 0.082534 0.250000
O O17 0.046969 0.719009 0.605972
O O18 0.500000 0.745887 0.250000
#
# Coordination Sequence:
#
# PCOD8133439 Si02
#       8
#     8   8   8   8   8   8   8   8
#     4   9  19  34  56  83 109 149 190 227 274 351
#     4  10  19  33  55  84 110 140 189 245 289 322
#     4   9  18  35  56  81 115 146 187 232 276 344
#     4  11  20  34  57  84 115 148 191 227 281 343
#     4   9  18  34  57  87 111 142 192 241 270 331
#     4  11  23  38  57  82 118 155 186 227 294 348
#     4   9  17  35  61  79 108 151 194 234 279 334
#     4   8  18  38  59  75 105 156 197 228 271 346
#
# _framework density 19.764064999999999
#
# number of rings (size 3 to 8) (size 9 to 14) (size 15 to 20)
#    0.000    2.500    1.250    2.625    1.750    1.000 
#    2.250    6.875    0.000    2.250    0.000    0.000 
#    0.000    0.000    0.000    0.000    0.000    0.000 
#
# Total GULP energy -396536.418902 kJ/mol
# GULP energy per Si atom -12391.763091 kJ/mol
# Density = 1.971908 g / cm^3
# Si number density = 19.764065 Si / 1000 Ang^3
#
#
#
# Elastic Constant Matrix: (Units=GPa)
#
#
# Indices 1 2 3 4 5 6 
#
# 1 84.9460 28.2035 35.6296 0.0000 0.5972 0.0000
# 2 28.2035 72.4615 46.2725 0.0000 -0.5038 0.0000
# 3 35.6296 46.2725 122.4104 0.0000 1.6827 0.0000
# 4 0.0000 0.0000 0.0000 22.0086 0.0000 1.3338
# 5 0.5972 -0.5038 1.6827 0.0000 24.3330 0.0000
# 6 0.0000 0.0000 0.0000 1.3338 0.0000 17.6844
#
#
#
# Elastic Compliance Matrix: (Units=1/GPa)
#
#
# Indices 1 2 3 4 5 6 
#
# 1 0.014161 -0.003801 -0.002682 0.000000 -0.000241 0.000000
# 2 -0.003801 0.019230 -0.006175 0.000000 0.000918 0.000000
# 3 -0.002682 -0.006175 0.011296 0.000000 -0.000843 0.000000
# 4 0.000000 0.000000 0.000000 0.045645 0.000000 -0.003443
# 5 -0.000241 0.000918 -0.000843 0.000000 0.041180 0.000000
# 6 0.000000 0.000000 0.000000 -0.003443 0.000000 0.056807
#
#
# Mechanical properties :
#
#
# Convention : Reuss Voigt Hill
#
# Bulk Modulus (GPa) = 51.62531 55.55879 53.59205
# Shear Modulus (GPa) = 22.71794 24.11933 23.41864
#
# Velocity S-wave (km/s) = 3.39404 3.49716 3.44599
# Velocity P-wave (km/s) = 6.44491 6.66925 6.55804
#
# Compressibility (1/GPa) = 0.01937034
#
# Stress axis : x y z
#
# Youngs Moduli (GPa) = 70.61846 52.00302 88.52918
#
# Poissons Ratio (x) = 0.19766 0.23740
# Poissons Ratio (y) = 0.26841 0.54670
# Poissons Ratio (z) = 0.18937 0.32114
#
# Static dielectric constant tensor:
#      x y z
#    x 3.340100 0.000000 0.095210 
#    y 0.000000 3.739600 0.000000 
#    z 0.095210 0.000000 3.620060 
# 
# 
# High freq. dielectric constant tensor:
#      x y z
#    x 1.746520 0.000000 0.005840 
#    y 0.000000 1.753710 0.000000 
#    z 0.005840 0.000000 1.771240 
# 
# From -- ./inp_files/192942.got.cif
#   From: 2010.06.25/outbox.cif.g09.slc.cpg/sg15_97_cif.got.tgz:192942.got - 2010.06.28 07:06:18.
