data_PCOD8133333
_publ_section_title
;
Structure prediction by ZEFSAII (Michael W. Deem and Ramdas Pophale) SiO2 
 PCOD8133333
Probable space group: C 2/C
;
_chemical_formula_sum "Si O2"
_cell_formula_units_Z 64
_cell_length_a 9.036522
_cell_length_b 22.810174
_cell_length_c 17.200355
_cell_angle_alpha 90.000000
_cell_angle_beta 118.567322
_cell_angle_gamma 90.000000
_cell_volume 3113.783190
_symmetry_space_group_name_H-M "C 2/C"
_symmetry_group_IT_number 15
_symmetry_cell_setting 'monoclinic'
loop_
_space_group_symop_operation_xyz
x,y,z
-x,y,1/2-z
-x,-y,-z
x,-y,1/2+z
1/2+x,1/2+y,z
1/2-x,1/2+y,1/2-z
1/2-x,1/2-y,-z
1/2+x,1/2-y,1/2+z
loop_
_atom_site_type_symbol
_atom_site_label
_atom_site_fract_x
_atom_site_fract_y
_atom_site_fract_z
Si Si1 0.934881 0.658895 0.435670
Si Si2 0.645725 0.191691 0.347877
Si Si3 0.201653 0.257664 0.398003
Si Si4 0.167765 0.978099 0.238831
Si Si5 0.377740 0.205876 0.872669
Si Si6 0.464029 0.028554 0.409876
Si Si7 0.315926 0.935649 0.665147
Si Si8 0.197761 0.637825 0.787127
O O1 0.081625 0.680750 0.417575
O O2 0.008052 0.666469 0.541108
O O3 0.774631 0.699957 0.375035
O O4 0.881095 0.592516 0.403716
O O5 0.500000 0.206953 0.250000
O O6 0.767941 0.246569 0.389390
O O7 0.744310 0.131973 0.349574
O O8 0.250000 0.250000 0.500000
O O9 0.267192 0.317921 0.371971
O O10 0.999511 0.259064 0.342793
O O11 0.188934 0.920656 0.189449
O O12 0.000000 0.977465 0.250000
O O13 0.331296 0.986166 0.334084
O O14 0.170046 0.030782 0.176109
O O15 0.267181 0.164848 0.789652
O O16 0.643787 0.036047 0.409635
O O17 0.500000 0.000000 0.500000
O O18 0.500000 0.938555 0.750000
O O19 0.000000 0.622137 0.750000
#
# Coordination Sequence:
#
# PCOD8133333 Si02
#       8
#     8   8   8   8   8   8   8   8
#     4  10  20  35  55  82 112 146 189 236 286 345
#     4  10  19  33  53  78 108 146 186 232 288 345
#     4   9  20  36  54  82 114 148 187 231 286 344
#     4  11  23  38  58  87 114 148 201 257 301 347
#     4  10  20  34  55  82 112 147 187 231 288 348
#     4  10  20  38  62  83 113 158 200 235 290 365
#     4   8  18  36  55  76 109 152 193 234 291 358
#     4  10  20  36  57  80 112 153 189 228 287 360
#
# _framework density 20.553774000000001
#
# number of rings (size 3 to 8) (size 9 to 14) (size 15 to 20)
#    0.000    2.250    0.000    3.750    0.000    4.500 
#    0.000    6.875    0.000    0.000    0.000    0.000 
#    0.000    0.000    0.000    0.000    0.000    0.000 
#
# Total GULP energy -396451.759929 kJ/mol
# GULP energy per Si atom -12389.117498 kJ/mol
# Density = 2.050699 g / cm^3
# Si number density = 20.553774 Si / 1000 Ang^3
#
#
#
# Elastic Constant Matrix: (Units=GPa)
#
#
# Indices 1 2 3 4 5 6 
#
# 1 78.7403 37.6285 0.7155 0.0000 -12.8595 0.0000
# 2 37.6285 85.9145 9.0039 0.0000 -7.8331 0.0000
# 3 0.7155 9.0039 53.8728 0.0000 -16.1409 0.0000
# 4 0.0000 0.0000 0.0000 32.9679 0.0000 -7.9406
# 5 -12.8595 -7.8331 -16.1409 0.0000 23.7343 0.0000
# 6 0.0000 0.0000 0.0000 -7.9406 0.0000 37.9509
#
#
#
# Elastic Compliance Matrix: (Units=1/GPa)
#
#
# Indices 1 2 3 4 5 6 
#
# 1 0.017767 -0.007292 0.003951 0.000000 0.009906 0.000000
# 2 -0.007292 0.015039 -0.002654 0.000000 -0.000793 0.000000
# 3 0.003951 -0.002654 0.024279 0.000000 0.017776 0.000000
# 4 0.000000 0.000000 0.000000 0.031942 0.000000 0.006683
# 5 0.009906 -0.000793 0.017776 0.000000 0.059328 0.000000
# 6 0.000000 0.000000 0.000000 0.006683 0.000000 0.027748
#
#
# Mechanical properties :
#
#
# Convention : Reuss Voigt Hill
#
# Bulk Modulus (GPa) = 22.17579 34.80261 28.48920
# Shear Modulus (GPa) = 24.61519 30.34259 27.47889
#
# Velocity S-wave (km/s) = 3.46439 3.84637 3.66037
# Velocity P-wave (km/s) = 5.17834 6.05767 5.63518
#
# Compressibility (1/GPa) = 0.04509422
#
# Stress axis : x y z
#
# Youngs Moduli (GPa) = 56.28474 66.49277 41.18725
#
# Poissons Ratio (x) = 0.48489 -0.16273
# Poissons Ratio (y) = 0.41045 0.10932
# Poissons Ratio (z) = -0.22238 0.17648
#
# Static dielectric constant tensor:
#      x y z
#    x 3.877150 0.000000 -0.388960 
#    y 0.000000 4.207140 0.000000 
#    z -0.388960 0.000000 3.555340 
# 
# 
# High freq. dielectric constant tensor:
#      x y z
#    x 1.794270 0.000000 -0.037260 
#    y 0.000000 1.812940 0.000000 
#    z -0.037260 0.000000 1.781480 
# 
# From -- ./inp_files/233892.got.cif
#   From: 2010.06.25/outbox.cif.g09.slc.cpg/sg15_117_cif.got.tgz:233892.got - 2010.06.28 07:06:18.
