data_PCOD8133088
_publ_section_title
;
Structure prediction by ZEFSAII (Michael W. Deem and Ramdas Pophale) SiO2 
 PCOD8133088
Probable space group: C 2/C
;
_chemical_formula_sum "Si O2"
_cell_formula_units_Z 56
_cell_length_a 28.896090
_cell_length_b 12.188186
_cell_length_c 9.830350
_cell_angle_alpha 90.000000
_cell_angle_beta 80.014755
_cell_angle_gamma 90.000000
_cell_volume 3409.716726
_symmetry_space_group_name_H-M "C 2/C"
_symmetry_group_IT_number 15
_symmetry_cell_setting 'monoclinic'
loop_
_space_group_symop_operation_xyz
x,y,z
-x,y,1/2-z
-x,-y,-z
x,-y,1/2+z
1/2+x,1/2+y,z
1/2-x,1/2+y,1/2-z
1/2-x,1/2-y,-z
1/2+x,1/2-y,1/2+z
loop_
_atom_site_type_symbol
_atom_site_label
_atom_site_fract_x
_atom_site_fract_y
_atom_site_fract_z
Si Si1 0.784131 0.633412 0.843546
Si Si2 0.813088 0.755698 0.572426
Si Si3 0.999203 0.099424 0.599450
Si Si4 0.278260 0.118480 0.346747
Si Si5 0.896949 0.888416 0.145052
Si Si6 0.398845 0.606978 0.962185
Si Si7 0.188883 0.250088 0.908626
O O1 0.807129 0.660756 0.687075
O O2 0.789827 0.506261 0.876717
O O3 0.728462 0.657032 0.868804
O O4 0.811977 0.708947 0.936175
O O5 0.777406 0.856996 0.616215
O O6 0.805208 0.701274 0.431118
O O7 0.865187 0.803539 0.546640
O O8 0.048837 0.162430 0.551810
O O9 0.000000 0.048984 0.750000
O O10 0.949887 0.164708 0.604364
O O11 0.000000 0.000000 0.500000
O O12 0.297484 0.143627 0.186826
O O13 0.886102 0.916875 0.309486
O O14 0.861356 0.797826 0.107075
O O15 0.893762 0.996012 0.052411
#
# Coordination Sequence:
#
# PCOD8133088 Si02
#       7
#     8   8   8   8   8   8   8
#     4  10  21  33  49  71  98 131 163 201 238 281
#     4  10  20  32  51  72  98 128 166 197 239 292
#     4   8  16  30  48  71  98 126 157 194 245 294
#     4  10  19  35  49  69  98 131 162 202 238 280
#     4  10  19  32  51  74 102 130 159 200 244 293
#     4  10  19  32  50  75 102 130 160 199 243 293
#     4  10  20  34  49  72  98 126 167 196 239 292
#
# _framework density 16.423652000000001
#
# number of rings (size 3 to 8) (size 9 to 14) (size 15 to 20)
#    0.000    2.286    1.429    1.714    2.000    0.000 
#    5.143    0.000    0.000    0.000    0.000    6.000 
#    0.000    0.000    0.000    0.000    0.000    0.000 
#
# Total GULP energy -346975.858325 kJ/mol
# GULP energy per Si atom -12391.994940 kJ/mol
# Density = 1.638627 g / cm^3
# Si number density = 16.423652 Si / 1000 Ang^3
#
#
#
# Elastic Constant Matrix: (Units=GPa)
#
#
# Indices 1 2 3 4 5 6 
#
# 1 130.3005 41.0778 31.5990 0.0000 -8.2652 0.0000
# 2 41.0778 64.4530 15.8866 0.0000 -9.0861 0.0000
# 3 31.5990 15.8866 56.8962 0.0000 2.4500 0.0000
# 4 0.0000 0.0000 0.0000 7.9035 0.0000 2.1680
# 5 -8.2652 -9.0861 2.4500 0.0000 23.0217 0.0000
# 6 0.0000 0.0000 0.0000 2.1680 0.0000 20.2877
#
#
#
# Elastic Compliance Matrix: (Units=1/GPa)
#
#
# Indices 1 2 3 4 5 6 
#
# 1 0.010580 -0.005333 -0.004480 0.000000 0.002171 0.000000
# 2 -0.005333 0.020592 -0.003070 0.000000 0.006539 0.000000
# 3 -0.004480 -0.003070 0.021140 0.000000 -0.005070 0.000000
# 4 0.000000 0.000000 0.000000 0.130346 0.000000 -0.013929
# 5 0.002171 0.006539 -0.005070 0.000000 0.047337 0.000000
# 6 0.000000 0.000000 0.000000 -0.013929 0.000000 0.050779
#
#
# Mechanical properties :
#
#
# Convention : Reuss Voigt Hill
#
# Bulk Modulus (GPa) = 37.66991 47.64182 42.65587
# Shear Modulus (GPa) = 15.85344 21.11502 18.48423
#
# Velocity S-wave (km/s) = 3.11027 3.58948 3.35843
# Velocity P-wave (km/s) = 5.99037 6.80075 6.40838
#
# Compressibility (1/GPa) = 0.02654639
#
# Stress axis : x y z
#
# Youngs Moduli (GPa) = 94.51903 48.56182 47.30451
#
# Poissons Ratio (x) = 0.25896 0.21194
# Poissons Ratio (y) = 0.50403 0.14522
# Poissons Ratio (z) = 0.42348 0.14908
#
# Static dielectric constant tensor:
#      x y z
#    x 3.504780 0.000000 -0.049350 
#    y 0.000000 2.689610 0.000000 
#    z -0.049350 0.000000 3.311210 
# 
# 
# High freq. dielectric constant tensor:
#      x y z
#    x 1.634530 0.000000 0.005330 
#    y 0.000000 1.590980 0.000000 
#    z 0.005330 0.000000 1.653450 
# 
# From -- ./inp_files/69053.got.cif
#   From: 2010.06.25/outbox.cif.g09.slc.cpg/sg15_35_cif.got.tgz:69053.got - 2010.06.28 07:06:18.
