data_PCOD8133972
_publ_section_title
;
Structure prediction by ZEFSAII (Michael W. Deem and Ramdas Pophale) SiO2 
 PCOD8133972
Probable space group: C 2/C
;
_chemical_formula_sum "Si O2"
_cell_formula_units_Z 48
_cell_length_a 13.369899
_cell_length_b 18.712525
_cell_length_c 10.844729
_cell_angle_alpha 90.000000
_cell_angle_beta 57.094620
_cell_angle_gamma 90.000000
_cell_volume 2277.904668
_symmetry_space_group_name_H-M "C 2/C"
_symmetry_group_IT_number 15
_symmetry_cell_setting 'monoclinic'
loop_
_space_group_symop_operation_xyz
x,y,z
-x,y,1/2-z
-x,-y,-z
x,-y,1/2+z
1/2+x,1/2+y,z
1/2-x,1/2+y,1/2-z
1/2-x,1/2-y,-z
1/2+x,1/2-y,1/2+z
loop_
_atom_site_type_symbol
_atom_site_label
_atom_site_fract_x
_atom_site_fract_y
_atom_site_fract_z
Si Si1 0.000000 0.830005 0.750000
Si Si2 0.500000 0.717465 0.750000
Si Si3 0.430507 0.005029 0.415627
Si Si4 0.899450 0.717146 0.993210
Si Si5 0.594333 0.161822 0.028941
Si Si6 0.268030 0.396198 0.989280
Si Si7 0.187122 0.165207 0.796018
O O1 0.014116 0.777406 0.623702
O O2 0.118074 0.880665 0.676225
O O3 0.595887 0.770261 0.619623
O O4 0.562084 0.664761 0.805880
O O5 0.500000 0.971424 0.250000
O O6 0.407530 0.087479 0.395912
O O7 0.500000 0.000000 0.500000
O O8 0.301073 0.966475 0.510809
O O9 0.824073 0.670640 0.948073
O O10 0.978437 0.663010 0.019501
O O11 0.804308 0.757811 0.142890
O O12 0.709606 0.159104 0.869494
O O13 0.309889 0.399449 0.105052
#
# Coordination Sequence:
#
# PCOD8133972 Si02
#       7
#     4   4   8   8   8   8   8
#     4  10  20  36  60  98 134 164 212 268 332 396
#     4  10  22  38  58  88 126 168 216 272 338 396
#     4  12  25  43  65  95 135 178 228 275 323 402
#     4  10  19  34  62  96 127 164 211 275 338 392
#     4  11  20  38  60  90 125 166 220 272 330 391
#     4  11  22  38  63  95 133 175 218 273 335 392
#     4  10  21  36  59  90 124 166 214 273 338 389
#
# _framework density 21.071997
#
# number of rings (size 3 to 8) (size 9 to 14) (size 15 to 20)
#    0.000    1.333    2.500    5.500    1.167    0.000 
#    0.000    4.167    0.000    6.000    0.000    0.000 
#    0.000    0.000    0.000    0.000    0.000    0.000 
#
# Total GULP energy -297428.943288 kJ/mol
# GULP energy per Si atom -12392.872637 kJ/mol
# Density = 2.102404 g / cm^3
# Si number density = 21.071997 Si / 1000 Ang^3
#
#
#
# Elastic Constant Matrix: (Units=GPa)
#
#
# Indices 1 2 3 4 5 6 
#
# 1 110.0611 59.5283 33.9196 0.0000 12.6522 0.0000
# 2 59.5283 72.6442 24.5532 0.0000 -9.6165 0.0000
# 3 33.9196 24.5532 115.5815 0.0000 -7.6568 0.0000
# 4 0.0000 0.0000 0.0000 30.2488 0.0000 -13.4442
# 5 12.6522 -9.6165 -7.6568 0.0000 40.2131 0.0000
# 6 0.0000 0.0000 0.0000 -13.4442 0.0000 51.3146
#
#
#
# Elastic Compliance Matrix: (Units=1/GPa)
#
#
# Indices 1 2 3 4 5 6 
#
# 1 0.020825 -0.017503 -0.003144 0.000000 -0.011336 0.000000
# 2 -0.017503 0.029904 -0.000382 0.000000 0.012585 0.000000
# 3 -0.003144 -0.000382 0.009839 0.000000 0.002771 0.000000
# 4 0.000000 0.000000 0.000000 0.037416 0.000000 0.009803
# 5 -0.011336 0.012585 0.002771 0.000000 0.031971 0.000000
# 6 0.000000 0.000000 0.000000 0.009803 0.000000 0.022056
#
#
# Mechanical properties :
#
#
# Convention : Reuss Voigt Hill
#
# Bulk Modulus (GPa) = 54.02714 59.36543 56.69629
# Shear Modulus (GPa) = 24.97012 36.37436 30.67224
#
# Velocity S-wave (km/s) = 3.44610 4.15926 3.81936
# Velocity P-wave (km/s) = 6.44431 7.16238 6.81281
#
# Compressibility (1/GPa) = 0.01850921
#
# Stress axis : x y z
#
# Youngs Moduli (GPa) = 48.01993 33.44089 101.63189
#
# Poissons Ratio (x) = 0.58531 0.31956
# Poissons Ratio (y) = 0.84048 0.03885
# Poissons Ratio (z) = 0.15099 0.01278
#
# Static dielectric constant tensor:
#      x y z
#    x 3.963680 0.000000 0.065780 
#    y 0.000000 3.745650 0.000000 
#    z 0.065780 0.000000 3.981100 
# 
# 
# High freq. dielectric constant tensor:
#      x y z
#    x 1.821000 0.000000 0.003330 
#    y 0.000000 1.798970 0.000000 
#    z 0.003330 0.000000 1.833660 
# 
# From -- ./inp_files/99038.got.cif
#   From: 2010.06.25/outbox.cif.g09.slc.cpg/sg15_50_cif.got.tgz:99038.got - 2010.06.28 07:06:18.
