data_PCOD8133109
_publ_section_title
;
Structure prediction by ZEFSAII (Michael W. Deem and Ramdas Pophale) SiO2 
 PCOD8133109
Probable space group: C 2/C
;
_chemical_formula_sum "Si O2"
_cell_formula_units_Z 64
_cell_length_a 23.318381
_cell_length_b 12.293941
_cell_length_c 12.979979
_cell_angle_alpha 90.000000
_cell_angle_beta 74.333714
_cell_angle_gamma 90.000000
_cell_volume 3582.799516
_symmetry_space_group_name_H-M "C 2/C"
_symmetry_group_IT_number 15
_symmetry_cell_setting 'monoclinic'
loop_
_space_group_symop_operation_xyz
x,y,z
-x,y,1/2-z
-x,-y,-z
x,-y,1/2+z
1/2+x,1/2+y,z
1/2-x,1/2+y,1/2-z
1/2-x,1/2-y,-z
1/2+x,1/2-y,1/2+z
loop_
_atom_site_type_symbol
_atom_site_label
_atom_site_fract_x
_atom_site_fract_y
_atom_site_fract_z
Si Si1 0.172523 0.771934 0.755574
Si Si2 0.690728 0.095972 0.916365
Si Si3 0.435910 0.175914 0.798321
Si Si4 0.721467 0.502745 0.279140
Si Si5 0.185875 0.633130 0.145749
Si Si6 0.800634 0.225836 0.669314
Si Si7 0.560751 0.939466 0.772851
Si Si8 0.607656 0.890634 0.962683
O O1 0.165890 0.691656 0.855927
O O2 0.116264 0.758582 0.707693
O O3 0.175584 0.897934 0.789010
O O4 0.232785 0.744039 0.663043
O O5 0.749563 0.037601 0.842497
O O6 0.640439 0.005235 0.959226
O O7 0.706322 0.151210 0.018535
O O8 0.500000 0.234168 0.750000
O O9 0.434862 0.069745 0.726602
O O10 0.430063 0.137728 0.918930
O O11 0.777523 0.531735 0.324727
O O12 0.684126 0.402297 0.345839
O O13 0.199533 0.738440 0.209482
O O14 0.115917 0.607883 0.182172
O O15 0.844836 0.294612 0.578538
O O16 0.500000 0.897770 0.750000
O O17 0.562240 0.895967 0.889083
#
# Coordination Sequence:
#
# PCOD8133109 Si02
#       8
#     8   8   8   8   8   8   8   8
#     4  10  20  36  53  78 110 142 176 222 270 317
#     4  11  19  32  55  78 110 142 167 220 279 315
#     4  11  23  34  52  79 111 142 178 222 264 323
#     4  10  20  36  54  78 109 138 182 219 265 324
#     4  10  19  34  50  78 110 137 174 222 266 320
#     4   9  20  35  55  80 107 141 177 223 265 322
#     4  10  19  32  51  76 107 142 173 210 261 323
#     4  11  20  36  54  82 112 141 175 221 271 320
#
# _framework density 17.863126000000001
#
# number of rings (size 3 to 8) (size 9 to 14) (size 15 to 20)
#    0.000    1.750    6.250    0.750    0.000    9.000 
#    0.000    0.000    0.000    3.750    0.000    0.000 
#    0.000    0.000    0.000    0.000    0.000    0.000 
#
# Total GULP energy -396711.178668 kJ/mol
# GULP energy per Si atom -12397.224333 kJ/mol
# Density = 1.782247 g / cm^3
# Si number density = 17.863126 Si / 1000 Ang^3
#
#
#
# Elastic Constant Matrix: (Units=GPa)
#
#
# Indices 1 2 3 4 5 6 
#
# 1 121.2639 38.5560 34.1799 0.0000 6.5620 0.0000
# 2 38.5560 112.4480 23.3912 0.0000 1.1289 0.0000
# 3 34.1799 23.3912 88.4569 0.0000 -1.0666 0.0000
# 4 0.0000 0.0000 0.0000 11.8098 0.0000 0.1915
# 5 6.5620 1.1289 -1.0666 0.0000 17.3149 0.0000
# 6 0.0000 0.0000 0.0000 0.1915 0.0000 18.4618
#
#
#
# Elastic Compliance Matrix: (Units=1/GPa)
#
#
# Indices 1 2 3 4 5 6 
#
# 1 0.010272 -0.002801 -0.003276 0.000000 -0.003912 0.000000
# 2 -0.002801 0.010185 -0.001607 0.000000 0.000299 0.000000
# 3 -0.003276 -0.001607 0.013022 0.000000 0.002148 0.000000
# 4 0.000000 0.000000 0.000000 0.084689 0.000000 -0.000879
# 5 -0.003912 0.000299 0.002148 0.000000 0.059349 0.000000
# 6 0.000000 0.000000 0.000000 -0.000879 0.000000 0.054175
#
#
# Mechanical properties :
#
#
# Convention : Reuss Voigt Hill
#
# Bulk Modulus (GPa) = 55.21742 57.15810 56.18776
# Shear Modulus (GPa) = 19.75525 24.58676 22.17100
#
# Velocity S-wave (km/s) = 3.32915 3.71401 3.52683
# Velocity P-wave (km/s) = 6.76433 7.10346 6.93597
#
# Compressibility (1/GPa) = 0.01811023
#
# Stress axis : x y z
#
# Youngs Moduli (GPa) = 97.35062 98.18475 76.79600
#
# Poissons Ratio (x) = 0.27506 0.25155
# Poissons Ratio (y) = 0.27272 0.12342
# Poissons Ratio (z) = 0.31888 0.15780
#
# Static dielectric constant tensor:
#      x y z
#    x 3.356430 0.000000 0.079550 
#    y 0.000000 3.295100 0.000000 
#    z 0.079550 0.000000 3.262660 
# 
# 
# High freq. dielectric constant tensor:
#      x y z
#    x 1.676150 0.000000 0.005550 
#    y 0.000000 1.677320 0.000000 
#    z 0.005550 0.000000 1.687320 
# 
# From -- ./inp_files/122435.got.cif
#   From: 2010.06.25/outbox.cif.g09.slc.cpg/sg15_62_cif.got.tgz:122435.got - 2010.06.28 07:06:18.
