data_PCOD8133362
_publ_section_title
;
Structure prediction by ZEFSAII (Michael W. Deem and Ramdas Pophale) SiO2 
 PCOD8133362
Probable space group: C 2/C
;
_chemical_formula_sum "Si O2"
_cell_formula_units_Z 56
_cell_length_a 14.272970
_cell_length_b 28.151846
_cell_length_c 14.341734
_cell_angle_alpha 90.000000
_cell_angle_beta 32.649378
_cell_angle_gamma 90.000000
_cell_volume 3108.934845
_symmetry_space_group_name_H-M "C 2/C"
_symmetry_group_IT_number 15
_symmetry_cell_setting 'monoclinic'
loop_
_space_group_symop_operation_xyz
x,y,z
-x,y,1/2-z
-x,-y,-z
x,-y,1/2+z
1/2+x,1/2+y,z
1/2-x,1/2+y,1/2-z
1/2-x,1/2-y,-z
1/2+x,1/2-y,1/2+z
loop_
_atom_site_type_symbol
_atom_site_label
_atom_site_fract_x
_atom_site_fract_y
_atom_site_fract_z
Si Si1 0.838278 0.800296 0.515167
Si Si2 0.955572 0.454808 0.179353
Si Si3 0.153476 0.394214 0.699264
Si Si4 0.775226 0.986712 0.357340
Si Si5 0.643924 0.485623 0.998625
Si Si6 0.726915 0.299692 0.147523
Si Si7 0.104827 0.395307 0.434216
O O1 0.732852 0.842613 0.649204
O O2 0.795244 0.753271 0.611704
O O3 0.774898 0.800632 0.462117
O O4 0.042626 0.808480 0.349301
O O5 0.776976 0.484937 0.322431
O O6 0.918387 0.405274 0.157116
O O7 0.000000 0.445212 0.250000
O O8 0.099839 0.481970 0.994939
O O9 0.312039 0.429790 0.546555
O O10 0.000000 0.397066 0.750000
O O11 0.075170 0.407406 0.864512
O O12 0.827905 0.997729 0.417835
O O13 0.744809 0.930937 0.362999
O O14 0.940290 0.999313 0.150215
O O15 0.849603 0.340386 0.086149
#
# Coordination Sequence:
#
# PCOD8133362 Si02
#       7
#     8   8   8   8   8   8   8
#     4  10  20  33  51  76 113 140 172 210 265 323
#     4  10  22  40  52  72 106 145 185 236 266 304
#     4  12  19  31  51  79 111 145 173 218 266 318
#     4  10  19  33  54  77 102 143 182 220 266 325
#     4  10  19  34  53  75 110 143 179 219 272 315
#     4  10  20  33  51  78 106 146 175 209 262 330
#     4  12  21  33  53  78 107 142 185 216 268 323
#
# _framework density 18.012599999999999
#
# number of rings (size 3 to 8) (size 9 to 14) (size 15 to 20)
#    0.000    1.429    4.286    2.571    2.000    2.857 
#    2.571    0.000    0.000    0.000    0.000    4.000 
#    0.000    0.000    0.000    0.000    0.000    0.000 
#
# Total GULP energy -346882.570794 kJ/mol
# GULP energy per Si atom -12388.663243 kJ/mol
# Density = 1.797160 g / cm^3
# Si number density = 18.012600 Si / 1000 Ang^3
#
#
#
# Elastic Constant Matrix: (Units=GPa)
#
#
# Indices 1 2 3 4 5 6 
#
# 1 47.8349 28.5058 33.4825 0.0022 -3.6475 -0.0007
# 2 28.5058 87.4046 50.2859 0.0004 -1.9709 0.0001
# 3 33.4825 50.2859 138.5614 -0.0003 -11.8301 -0.0006
# 4 0.0022 0.0004 -0.0003 21.5915 -0.0007 2.4063
# 5 -3.6475 -1.9709 -11.8301 -0.0007 12.6549 0.0005
# 6 -0.0007 0.0001 -0.0006 2.4063 0.0005 23.3860
#
#
#
# Elastic Compliance Matrix: (Units=1/GPa)
#
#
# Indices 1 2 3 4 5 6 
#
# 1 0.027994 -0.006729 -0.004046 -0.000003 0.003238 0.000001
# 2 -0.006729 0.016175 -0.004559 0.000000 -0.003682 0.000000
# 3 -0.004046 -0.004559 0.010529 0.000001 0.007967 0.000000
# 4 -0.000003 0.000000 0.000001 0.046852 0.000003 -0.004821
# 5 0.003238 -0.003682 0.007967 0.000003 0.086828 -0.000002
# 6 0.000001 0.000000 0.000000 -0.004821 -0.000002 0.043257
#
#
# Mechanical properties :
#
#
# Convention : Reuss Voigt Hill
#
# Bulk Modulus (GPa) = 41.61223 55.37214 48.49218
# Shear Modulus (GPa) = 18.49705 22.29493 20.39599
#
# Velocity S-wave (km/s) = 3.20800 3.52197 3.36864
# Velocity P-wave (km/s) = 6.07236 6.88088 6.48923
#
# Compressibility (1/GPa) = 0.02403140
#
# Stress axis : x y z
#
# Youngs Moduli (GPa) = 35.72155 61.82278 94.97331
#
# Poissons Ratio (x) = 0.41601 0.38427
# Poissons Ratio (y) = 0.24038 0.43294
# Poissons Ratio (z) = 0.14453 0.28182
#
# Static dielectric constant tensor:
#      x y z
#    x 3.009090 0.000000 -0.217400 
#    y 0.000000 3.280580 0.000000 
#    z -0.217400 0.000000 3.933040 
# 
# 
# High freq. dielectric constant tensor:
#      x y z
#    x 1.656460 0.000000 -0.009610 
#    y 0.000000 1.680410 0.000000 
#    z -0.009610 0.000000 1.723880 
# 
# From -- ./inp_files/157189.got.cif
#   From: 2010.06.25/outbox.cif.g09.slc.cpg/sg15_79_cif.got.tgz:157189.got - 2010.06.28 07:06:18.
