data_PCOD8133241
_publ_section_title
;
Structure prediction by ZEFSAII (Michael W. Deem and Ramdas Pophale) SiO2 
 PCOD8133241
Probable space group: C 2/C
;
_chemical_formula_sum "Si O2"
_cell_formula_units_Z 52
_cell_length_a 11.827903
_cell_length_b 15.769073
_cell_length_c 15.286829
_cell_angle_alpha 90.000000
_cell_angle_beta 41.909832
_cell_angle_gamma 90.000000
_cell_volume 1904.504298
_symmetry_space_group_name_H-M "C 2/C"
_symmetry_group_IT_number 15
_symmetry_cell_setting 'monoclinic'
loop_
_space_group_symop_operation_xyz
x,y,z
-x,y,1/2-z
-x,-y,-z
x,-y,1/2+z
1/2+x,1/2+y,z
1/2-x,1/2+y,1/2-z
1/2-x,1/2-y,-z
1/2+x,1/2-y,1/2+z
loop_
_atom_site_type_symbol
_atom_site_label
_atom_site_fract_x
_atom_site_fract_y
_atom_site_fract_z
Si Si1 0.185712 0.697879 0.196555
Si Si2 0.648487 0.488924 0.096659
Si Si3 0.000000 0.199775 0.250000
Si Si4 0.037847 0.585301 0.529282
Si Si5 0.008388 0.897257 0.928180
Si Si6 0.774934 0.326008 0.292608
Si Si7 0.631713 0.178037 0.020578
O O1 0.293451 0.614513 0.162050
O O2 0.226054 0.779158 0.232068
O O3 0.260899 0.734255 0.060154
O O4 0.983277 0.680762 0.324107
O O5 0.500000 0.477511 0.250000
O O6 0.554856 0.506328 0.056266
O O7 0.749738 0.402602 0.034340
O O8 0.768683 0.571413 0.050204
O O9 0.025054 0.146444 0.147271
O O10 0.159518 0.262172 0.170911
O O11 0.915123 0.602504 0.683748
O O12 0.008090 0.662753 0.477003
O O13 0.000000 0.500000 0.500000
O O14 0.896660 0.864254 0.071744
#
# Coordination Sequence:
#
# PCOD8133241 Si02
#       7
#     8   8   4   8   8   8   8
#     4  10  20  38  64  97 125 172 219 276 325 397
#     4  11  22  38  61  89 129 180 213 262 335 404
#     4  10  20  28  50  94 140 168 202 262 338 396
#     4   9  20  37  60  86 128 172 216 264 341 392
#     4  11  20  33  60  95 137 167 219 265 339 397
#     4  10  19  32  58  94 130 167 215 274 322 396
#     4  10  21  39  65  90 128 172 224 269 329 397
#
# _framework density 27.303692999999999
#
# number of rings (size 3 to 8) (size 9 to 14) (size 15 to 20)
#    0.000    1.846    2.308    2.308    2.154    0.000 
#    0.000    0.769   10.154    6.462    0.000    0.000 
#    0.000    0.000    0.000    0.000    0.000    0.000 
#
# Total GULP energy -322261.296421 kJ/mol
# GULP energy per Si atom -12394.665247 kJ/mol
# Density = 2.724155 g / cm^3
# Si number density = 27.303693 Si / 1000 Ang^3
#
#
#
# Elastic Constant Matrix: (Units=GPa)
#
#
# Indices 1 2 3 4 5 6 
#
# 1 86.8570 20.2711 64.0262 0.0008 -21.9940 -0.0001
# 2 20.2711 91.7835 53.7923 -0.0002 -28.7809 0.0000
# 3 64.0262 53.7923 220.9800 -0.0020 -26.2710 0.0003
# 4 0.0008 -0.0002 -0.0020 38.6183 0.0005 -21.4769
# 5 -21.9940 -28.7809 -26.2710 0.0005 56.0403 0.0000
# 6 -0.0001 0.0000 0.0003 -21.4769 0.0000 35.1550
#
#
#
# Elastic Compliance Matrix: (Units=1/GPa)
#
#
# Indices 1 2 3 4 5 6 
#
# 1 0.015535 0.000314 -0.004060 -0.000001 0.004355 0.000000
# 2 0.000314 0.014453 -0.002872 0.000000 0.006200 0.000000
# 3 -0.004060 -0.002872 0.006392 0.000001 -0.000072 0.000000
# 4 -0.000001 0.000000 0.000001 0.039219 -0.000001 0.023960
# 5 0.004355 0.006200 -0.000072 -0.000001 0.022704 0.000000
# 6 0.000000 0.000000 0.000000 0.023960 0.000000 0.043083
#
#
# Mechanical properties :
#
#
# Convention : Reuss Voigt Hill
#
# Bulk Modulus (GPa) = 43.20659 75.08886 59.14772
# Shear Modulus (GPa) = 30.79987 43.39811 37.09899
#
# Velocity S-wave (km/s) = 3.36229 3.99113 3.69013
# Velocity P-wave (km/s) = 5.56166 6.98569 6.31395
#
# Compressibility (1/GPa) = 0.02314462
#
# Stress axis : x y z
#
# Youngs Moduli (GPa) = 64.36895 69.18866 156.44008
#
# Poissons Ratio (x) = -0.02172 0.63513
# Poissons Ratio (y) = -0.02021 0.44933
# Poissons Ratio (z) = 0.26133 0.19873
#
# Static dielectric constant tensor:
#      x y z
#    x 6.246050 0.000000 -0.069430 
#    y 0.000000 5.093590 0.000000 
#    z -0.069430 0.000000 5.420950 
# 
# 
# High freq. dielectric constant tensor:
#      x y z
#    x 2.147420 0.000000 0.001600 
#    y 0.000000 2.086910 0.000000 
#    z 0.001600 0.000000 2.123010 
# 
# From -- ./inp_files/245000.got.cif
#   From: 2010.06.25/outbox.cif.g09.slc.cpg/sg15_123_cif.got.tgz:245000.got - 2010.06.28 07:06:18.
