data_PCOD8133650
_publ_section_title
;
Structure prediction by ZEFSAII (Michael W. Deem and Ramdas Pophale) SiO2 
 PCOD8133650
Probable space group: C 2/C
;
_chemical_formula_sum "Si O2"
_cell_formula_units_Z 56
_cell_length_a 19.860124
_cell_length_b 8.453060
_cell_length_c 28.368117
_cell_angle_alpha 90.000000
_cell_angle_beta 41.271519
_cell_angle_gamma 90.000000
_cell_volume 3141.417025
_symmetry_space_group_name_H-M "C 2/C"
_symmetry_group_IT_number 15
_symmetry_cell_setting 'monoclinic'
loop_
_space_group_symop_operation_xyz
x,y,z
-x,y,1/2-z
-x,-y,-z
x,-y,1/2+z
1/2+x,1/2+y,z
1/2-x,1/2+y,1/2-z
1/2-x,1/2-y,-z
1/2+x,1/2-y,1/2+z
loop_
_atom_site_type_symbol
_atom_site_label
_atom_site_fract_x
_atom_site_fract_y
_atom_site_fract_z
Si Si1 0.726908 0.267853 0.797551
Si Si2 0.757675 0.372173 0.308343
Si Si3 0.513407 0.068192 0.812140
Si Si4 0.525898 0.085833 0.914799
Si Si5 0.500000 0.315032 0.750000
Si Si6 0.640784 0.872431 0.924352
Si Si7 0.663664 0.435844 0.186598
Si Si8 0.000000 0.296342 0.750000
O O1 0.728394 0.449841 0.811025
O O2 0.753884 0.251173 0.728607
O O3 0.611906 0.218888 0.869802
O O4 0.809639 0.153565 0.778805
O O5 0.874125 0.375887 0.262133
O O6 0.688086 0.298651 0.386312
O O7 0.493187 0.050531 0.878240
O O8 0.448090 0.203179 0.818532
O O9 0.497346 0.895553 0.799260
O O10 0.569501 0.930727 0.918363
O O11 0.426624 0.151745 0.993648
O O12 0.414209 0.417744 0.767787
O O13 0.729448 0.999925 0.890797
O O14 0.603160 0.306259 0.187709
#
# Coordination Sequence:
#
# PCOD8133650 Si02
#       8
#     8   8   8   8   4   8   8   4
#     4  10  20  32  56  82 105 135 180 228 276 313
#     4  11  19  33  56  82 106 136 181 232 269 321
#     4  10  19  35  54  83 105 140 181 232 259 319
#     4   9  21  37  55  79 111 144 174 223 278 324
#     4  10  20  32  56  78 108 136 180 226 266 302
#     4  10  20  37  56  78 113 144 175 220 280 321
#     4  10  19  34  53  81 107 139 179 223 266 319
#     4  10  20  32  56  80 108 138 186 226 262 306
#
# _framework density 17.826350000000001
#
# number of rings (size 3 to 8) (size 9 to 14) (size 15 to 20)
#    0.000    2.000    2.857    2.571    2.000    0.571 
#    0.000    1.429    0.000    0.000    0.000    0.000 
#    0.000    0.000    0.000    0.000    0.000    0.000 
#
# Total GULP energy -346879.479689 kJ/mol
# GULP energy per Si atom -12388.552846 kJ/mol
# Density = 1.778578 g / cm^3
# Si number density = 17.826350 Si / 1000 Ang^3
#
#
#
# Elastic Constant Matrix: (Units=GPa)
#
#
# Indices 1 2 3 4 5 6 
#
# 1 93.3676 42.3814 42.0656 0.0014 9.2026 0.0095
# 2 42.3814 113.3127 38.7085 -0.0004 9.1576 0.0033
# 3 42.0656 38.7085 99.7222 -0.0003 7.6260 -0.0001
# 4 0.0014 -0.0004 -0.0003 16.1745 -0.0004 0.6348
# 5 9.2026 9.1576 7.6260 -0.0004 23.4733 0.0000
# 6 0.0095 0.0033 -0.0001 0.6348 0.0000 28.1568
#
#
#
# Elastic Compliance Matrix: (Units=1/GPa)
#
#
# Indices 1 2 3 4 5 6 
#
# 1 0.014732 -0.003726 -0.004551 -0.000001 -0.002844 -0.000005
# 2 -0.003726 0.011293 -0.002653 0.000000 -0.002083 0.000000
# 3 -0.004551 -0.002653 0.013087 0.000001 -0.001433 0.000002
# 4 -0.000001 0.000000 0.000001 0.061880 0.000001 -0.001395
# 5 -0.002844 -0.002083 -0.001433 0.000001 0.044995 0.000001
# 6 -0.000005 0.000000 0.000002 -0.001395 0.000001 0.035547
#
#
# Mechanical properties :
#
#
# Convention : Reuss Voigt Hill
#
# Bulk Modulus (GPa) = 57.95856 61.41260 59.68558
# Shear Modulus (GPa) = 23.90705 25.77740 24.84222
#
# Velocity S-wave (km/s) = 3.66609 3.80679 3.73710
# Velocity P-wave (km/s) = 7.10660 7.33808 7.22327
#
# Compressibility (1/GPa) = 0.01725371
#
# Stress axis : x y z
#
# Youngs Moduli (GPa) = 67.87900 88.54902 76.41335
#
# Poissons Ratio (x) = 0.32991 0.34774
# Poissons Ratio (y) = 0.25290 0.20270
# Poissons Ratio (z) = 0.30890 0.23489
#
# Static dielectric constant tensor:
#      x y z
#    x 3.525990 0.000000 -0.151800 
#    y 0.000000 3.397210 0.000000 
#    z -0.151800 0.000000 3.073260 
# 
# 
# High freq. dielectric constant tensor:
#      x y z
#    x 1.702140 0.000000 -0.009070 
#    y 0.000000 1.703140 0.000000 
#    z -0.009070 0.000000 1.651130 
# 
# From -- ./inp_files/213395.got.cif
#   From: 2010.06.25/outbox.cif.g09.slc.cpg/sg15_107_cif.got.tgz:213395.got - 2010.06.28 07:06:18.
