data_PCOD8133997
_publ_section_title
;
Structure prediction by ZEFSAII (Michael W. Deem and Ramdas Pophale) SiO2 
 PCOD8133997
Probable space group: C 2/C
;
_chemical_formula_sum "Si O2"
_cell_formula_units_Z 52
_cell_length_a 9.674485
_cell_length_b 30.691797
_cell_length_c 10.739951
_cell_angle_alpha 90.000000
_cell_angle_beta 49.107838
_cell_angle_gamma 90.000000
_cell_volume 2410.690962
_symmetry_space_group_name_H-M "C 2/C"
_symmetry_group_IT_number 15
_symmetry_cell_setting 'monoclinic'
loop_
_space_group_symop_operation_xyz
x,y,z
-x,y,1/2-z
-x,-y,-z
x,-y,1/2+z
1/2+x,1/2+y,z
1/2-x,1/2+y,1/2-z
1/2-x,1/2-y,-z
1/2+x,1/2-y,1/2+z
loop_
_atom_site_type_symbol
_atom_site_label
_atom_site_fract_x
_atom_site_fract_y
_atom_site_fract_z
Si Si1 0.714377 0.031270 0.608042
Si Si2 0.132176 0.697296 0.984837
Si Si3 0.805710 0.476950 0.106865
Si Si4 0.026002 0.395087 0.595724
Si Si5 0.349421 0.203876 0.942683
Si Si6 0.795504 0.885318 0.912517
Si Si7 0.000000 0.232921 0.750000
O O1 0.500000 0.022658 0.750000
O O2 0.798766 0.020236 0.696585
O O3 0.745530 0.081423 0.552419
O O4 0.799634 0.000738 0.446607
O O5 0.330627 0.702999 0.800017
O O6 0.957223 0.697680 0.003862
O O7 0.128945 0.650956 0.055974
O O8 0.095936 0.738218 0.091823
O O9 0.834699 0.426100 0.060217
O O10 0.000000 0.500000 0.000000
O O11 0.000000 0.414661 0.750000
O O12 0.837425 0.391521 0.628628
O O13 0.500000 0.200902 0.750000
O O14 0.250000 0.250000 0.000000
O O15 0.210994 0.162960 0.021070
O O16 0.000000 0.894721 0.750000
#
# Coordination Sequence:
#
# PCOD8133997 Si02
#       7
#     8   8   8   8   8   8   4
#     4  10  19  38  64  95 117 171 214 263 319 392
#     4  10  22  38  63  86 122 160 204 255 311 372
#     4  10  19  34  69  91 122 160 224 258 320 391
#     4  11  21  39  63  93 125 165 216 255 319 386
#     4  11  23  40  63  93 123 166 218 261 316 381
#     4  11  24  40  62  92 132 168 212 270 324 378
#     4  10  20  42  60  86 120 162 202 252 314 366
#
# _framework density 21.57058
#
# number of rings (size 3 to 8) (size 9 to 14) (size 15 to 20)
#    0.000    1.538    3.846    3.231    2.154    1.231 
#    2.769    0.769    1.692    0.000    0.000    0.000 
#    0.000    0.000    0.000    0.000    0.000    0.000 
#
# Total GULP energy -322105.229869 kJ/mol
# GULP energy per Si atom -12388.662687 kJ/mol
# Density = 2.152148 g / cm^3
# Si number density = 21.570580 Si / 1000 Ang^3
#
#
#
# Elastic Constant Matrix: (Units=GPa)
#
#
# Indices 1 2 3 4 5 6 
#
# 1 56.3258 34.3602 53.1633 0.0000 14.2196 0.0000
# 2 34.3602 100.9897 45.9743 0.0000 12.4221 0.0000
# 3 53.1633 45.9743 105.0005 0.0000 29.7188 0.0000
# 4 0.0000 0.0000 0.0000 47.9660 0.0000 -10.5233
# 5 14.2196 12.4221 29.7188 0.0000 41.6020 0.0000
# 6 0.0000 0.0000 0.0000 -10.5233 0.0000 45.4047
#
#
#
# Elastic Compliance Matrix: (Units=1/GPa)
#
#
# Indices 1 2 3 4 5 6 
#
# 1 0.035877 -0.004911 -0.016243 0.000000 0.000807 0.000000
# 2 -0.004911 0.013041 -0.003254 0.000000 0.000109 0.000000
# 3 -0.016243 -0.003254 0.021717 0.000000 -0.008990 0.000000
# 4 0.000000 0.000000 0.000000 0.021965 0.000000 0.005091
# 5 0.000807 0.000109 -0.008990 0.000000 0.030151 0.000000
# 6 0.000000 0.000000 0.000000 0.005091 0.000000 0.023204
#
#
# Mechanical properties :
#
#
# Convention : Reuss Voigt Hill
#
# Bulk Modulus (GPa) = 45.83371 58.81242 52.32306
# Shear Modulus (GPa) = 24.74677 35.58242 30.16459
#
# Velocity S-wave (km/s) = 3.39078 4.06591 3.74359
# Velocity P-wave (km/s) = 6.05179 7.02613 6.55708
#
# Compressibility (1/GPa) = 0.02181800
#
# Stress axis : x y z
#
# Youngs Moduli (GPa) = 27.87267 76.68105 46.04607
#
# Poissons Ratio (x) = 0.37662 0.74794
# Poissons Ratio (y) = 0.13690 0.14984
# Poissons Ratio (z) = 0.45274 0.24954
#
# Static dielectric constant tensor:
#      x y z
#    x 4.083940 0.000000 0.437160 
#    y 0.000000 4.707850 0.000000 
#    z 0.437160 0.000000 3.992180 
# 
# 
# High freq. dielectric constant tensor:
#      x y z
#    x 1.828480 0.000000 0.017620 
#    y 0.000000 1.862870 0.000000 
#    z 0.017620 0.000000 1.841930 
# 
# From -- ./inp_files/33512.got.cif
#   From: 2010.06.25/outbox.cif.g09.slc.cpg/sg15_17_cif.got.tgz:33512.got - 2010.06.28 07:06:18.
