data_PCOD8133190
_publ_section_title
;
Structure prediction by ZEFSAII (Michael W. Deem and Ramdas Pophale) SiO2 
 PCOD8133190
Probable space group: C 2/C
;
_chemical_formula_sum "Si O2"
_cell_formula_units_Z 64
_cell_length_a 13.943242
_cell_length_b 11.186903
_cell_length_c 29.280155
_cell_angle_alpha 90.000000
_cell_angle_beta 135.727103
_cell_angle_gamma 90.000000
_cell_volume 3188.233536
_symmetry_space_group_name_H-M "C 2/C"
_symmetry_group_IT_number 15
_symmetry_cell_setting 'monoclinic'
loop_
_space_group_symop_operation_xyz
x,y,z
-x,y,1/2-z
-x,-y,-z
x,-y,1/2+z
1/2+x,1/2+y,z
1/2-x,1/2+y,1/2-z
1/2-x,1/2-y,-z
1/2+x,1/2-y,1/2+z
loop_
_atom_site_type_symbol
_atom_site_label
_atom_site_fract_x
_atom_site_fract_y
_atom_site_fract_z
Si Si1 0.366135 0.150701 0.039223
Si Si2 0.881729 0.308777 0.241336
Si Si3 0.204735 0.300227 0.795772
Si Si4 0.836325 0.636773 0.376406
Si Si5 0.064980 0.908829 0.680279
Si Si6 0.418374 0.219755 0.153193
Si Si7 0.292897 0.521530 0.586393
Si Si8 0.275704 0.940952 0.289201
O O1 0.509581 0.189507 0.063012
O O2 0.392840 0.130059 0.102200
O O3 0.250000 0.250000 0.000000
O O4 0.310398 0.036913 0.991700
O O5 0.761258 0.247872 0.169995
O O6 0.955879 0.210420 0.297867
O O7 0.829399 0.414445 0.256127
O O8 0.000000 0.365356 0.250000
O O9 0.315033 0.396866 0.816610
O O10 0.152822 0.341114 0.827315
O O11 0.283950 0.173467 0.824920
O O12 0.082347 0.276812 0.717501
O O13 0.779059 0.557993 0.398923
O O14 0.859893 0.548056 0.341350
O O15 0.117055 0.014340 0.731761
O O16 0.920233 0.946074 0.609379
O O17 0.350368 0.351000 0.123661
#
# Coordination Sequence:
#
# PCOD8133190 Si02
#       8
#     8   8   8   8   8   8   8   8
#     4  10  23  38  58  84 113 154 203 246 276 335
#     4  10  20  34  55  86 120 144 181 242 298 344
#     4  10  19  33  59  83 120 142 185 238 301 351
#     4  11  21  37  58  87 113 151 198 237 288 351
#     4  10  20  33  53  86 109 151 184 234 287 349
#     4  10  19  36  56  84 112 153 188 240 295 347
#     4  11  20  35  61  79 113 151 200 237 286 336
#     4  10  19  32  55  83 120 144 178 239 291 345
#
# _framework density 20.073812
#
# number of rings (size 3 to 8) (size 9 to 14) (size 15 to 20)
#    0.000    1.750    3.750    2.625    1.750    0.000 
#    4.500    0.625    0.000    6.000    0.000    0.000 
#    0.000    0.000    0.000    0.000    0.000    0.000 
#
# Total GULP energy -396427.891695 kJ/mol
# GULP energy per Si atom -12388.371615 kJ/mol
# Density = 2.002812 g / cm^3
# Si number density = 20.073812 Si / 1000 Ang^3
#
#
#
# Elastic Constant Matrix: (Units=GPa)
#
#
# Indices 1 2 3 4 5 6 
#
# 1 129.0157 28.8895 46.1796 0.0000 8.0843 0.0000
# 2 28.8895 45.5153 16.3561 0.0000 2.4051 0.0000
# 3 46.1796 16.3561 85.3920 0.0000 9.0878 0.0000
# 4 0.0000 0.0000 0.0000 14.9993 0.0000 1.6976
# 5 8.0843 2.4051 9.0878 0.0000 37.1341 0.0000
# 6 0.0000 0.0000 0.0000 1.6976 0.0000 29.5545
#
#
#
# Elastic Compliance Matrix: (Units=1/GPa)
#
#
# Indices 1 2 3 4 5 6 
#
# 1 0.010600 -0.005000 -0.004686 0.000000 -0.000837 0.000000
# 2 -0.005000 0.025960 -0.002264 0.000000 -0.000039 0.000000
# 3 -0.004686 -0.002264 0.014943 0.000000 -0.002490 0.000000
# 4 0.000000 0.000000 0.000000 0.067106 0.000000 -0.003855
# 5 -0.000837 -0.000039 -0.002490 0.000000 0.027724 0.000000
# 6 0.000000 0.000000 0.000000 -0.003855 0.000000 0.034057
#
#
# Mechanical properties :
#
#
# Convention : Reuss Voigt Hill
#
# Bulk Modulus (GPa) = 36.22733 49.19706 42.71219
# Shear Modulus (GPa) = 23.42006 27.57076 25.49541
#
# Velocity S-wave (km/s) = 3.41940 3.71005 3.56769
# Velocity P-wave (km/s) = 5.80310 6.55087 6.18829
#
# Compressibility (1/GPa) = 0.02760347
#
# Stress axis : x y z
#
# Youngs Moduli (GPa) = 94.33680 38.52074 66.91891
#
# Poissons Ratio (x) = 0.19261 0.31357
# Poissons Ratio (y) = 0.47170 0.15152
# Poissons Ratio (z) = 0.44204 0.08722
#
# Static dielectric constant tensor:
#      x y z
#    x 3.757090 0.000000 0.015150 
#    y 0.000000 3.464070 0.000000 
#    z 0.015150 0.000000 3.823650 
# 
# 
# High freq. dielectric constant tensor:
#      x y z
#    x 1.794570 0.000000 0.010050 
#    y 0.000000 1.765550 0.000000 
#    z 0.010050 0.000000 1.762660 
# 
# From -- ./inp_files/313600.got.cif
#   From: 2010.06.25/outbox.cif.g09.slc.cpg/sg15_157_cif.got.tgz:313600.got - 2010.06.28 07:06:18.
