data_PCOD8133655
_publ_section_title
;
Structure prediction by ZEFSAII (Michael W. Deem and Ramdas Pophale) SiO2 
 PCOD8133655
Probable space group: C 2/C
;
_chemical_formula_sum "Si O2"
_cell_formula_units_Z 64
_cell_length_a 18.841833
_cell_length_b 17.118234
_cell_length_c 9.397847
_cell_angle_alpha 90.000000
_cell_angle_beta 89.244258
_cell_angle_gamma 90.000000
_cell_volume 3030.907613
_symmetry_space_group_name_H-M "C 2/C"
_symmetry_group_IT_number 15
_symmetry_cell_setting 'monoclinic'
loop_
_space_group_symop_operation_xyz
x,y,z
-x,y,1/2-z
-x,-y,-z
x,-y,1/2+z
1/2+x,1/2+y,z
1/2-x,1/2+y,1/2-z
1/2-x,1/2-y,-z
1/2+x,1/2-y,1/2+z
loop_
_atom_site_type_symbol
_atom_site_label
_atom_site_fract_x
_atom_site_fract_y
_atom_site_fract_z
Si Si1 0.661382 0.404546 0.797245
Si Si2 0.450648 0.108887 0.865201
Si Si3 0.959901 0.674657 0.396159
Si Si4 0.605038 0.239414 0.835236
Si Si5 0.193935 0.409471 0.027652
Si Si6 0.809035 0.976237 0.433537
Si Si7 0.254605 0.324739 0.280726
Si Si8 0.683930 0.159748 0.230021
O O1 0.613789 0.327954 0.779732
O O2 0.650420 0.458821 0.660455
O O3 0.744382 0.383147 0.822189
O O4 0.639459 0.454539 0.936534
O O5 0.500000 0.061926 0.750000
O O6 0.434493 0.193022 0.790053
O O7 0.489872 0.115350 0.017021
O O8 0.376944 0.063094 0.886717
O O9 0.939058 0.740812 0.514699
O O10 0.885863 0.632700 0.354946
O O11 0.000000 0.705094 0.250000
O O12 0.682132 0.200166 0.863289
O O13 0.235334 0.487908 0.991034
O O14 0.169446 0.360103 0.893621
O O15 0.240083 0.349087 0.118833
O O16 0.792114 0.897830 0.351069
O O17 0.309422 0.253322 0.283477
#
# Coordination Sequence:
#
# PCOD8133655 Si02
#       8
#     8   8   8   8   8   8   8   8
#     4  10  21  37  55  86 116 150 184 233 296 334
#     4   9  19  36  58  81 111 151 193 231 271 328
#     4  11  19  33  54  88 111 141 189 243 272 320
#     4   9  20  37  59  82 113 145 188 242 281 329
#     4  10  19  34  53  84 119 146 177 232 284 338
#     4  11  20  34  54  83 119 148 179 221 292 352
#     4  10  19  35  57  84 110 148 186 227 295 341
#     4  10  20  33  58  84 115 140 187 246 278 327
#
# _framework density 21.115788999999999
#
# number of rings (size 3 to 8) (size 9 to 14) (size 15 to 20)
#    0.000    2.000    2.500    1.875    0.000    3.000 
#    0.000    0.000    0.000   15.000    0.000   28.000 
#    0.000    0.000    0.000    0.000    0.000    0.000 
#
# Total GULP energy -396547.788513 kJ/mol
# GULP energy per Si atom -12392.118391 kJ/mol
# Density = 2.106773 g / cm^3
# Si number density = 21.115789 Si / 1000 Ang^3
#
#
#
# Elastic Constant Matrix: (Units=GPa)
#
#
# Indices 1 2 3 4 5 6 
#
# 1 23.1308 -22.2133 2.1837 0.0000 3.3173 0.0000
# 2 -22.2133 49.1857 4.5698 0.0000 -10.8685 0.0000
# 3 2.1837 4.5698 103.4279 0.0000 -1.0057 0.0000
# 4 0.0000 0.0000 0.0000 27.4478 0.0000 2.4655
# 5 3.3173 -10.8685 -1.0057 0.0000 30.4189 0.0000
# 6 0.0000 0.0000 0.0000 2.4655 0.0000 10.1390
#
#
#
# Elastic Compliance Matrix: (Units=1/GPa)
#
#
# Indices 1 2 3 4 5 6 
#
# 1 0.077923 0.036468 -0.003213 0.000000 0.004426 0.000000
# 2 0.036468 0.039225 -0.002406 0.000000 0.009958 0.000000
# 3 -0.003213 -0.002406 0.009841 0.000000 -0.000184 0.000000
# 4 0.000000 0.000000 0.000000 0.037246 0.000000 -0.009057
# 5 0.004426 0.009958 -0.000184 0.000000 0.035944 0.000000
# 6 0.000000 0.000000 0.000000 -0.009057 0.000000 0.100832
#
#
# Mechanical properties :
#
#
# Convention : Reuss Voigt Hill
#
# Bulk Modulus (GPa) = 5.29983 16.09162 10.69573
# Shear Modulus (GPa) = 16.54488 26.34808 21.44648
#
# Velocity S-wave (km/s) = 2.80220 3.53624 3.19040
# Velocity P-wave (km/s) = 3.60348 4.93057 4.31831
#
# Compressibility (1/GPa) = 0.18868522
#
# Stress axis : x y z
#
# Youngs Moduli (GPa) = 12.83326 25.49401 101.61626
#
# Poissons Ratio (x) = -0.92972 0.32653
# Poissons Ratio (y) = -0.46800 0.24451
# Poissons Ratio (z) = 0.04124 0.06134
#
# Static dielectric constant tensor:
#      x y z
#    x 3.807030 0.000000 -0.145530 
#    y 0.000000 3.516900 0.000000 
#    z -0.145530 0.000000 4.160690 
# 
# 
# High freq. dielectric constant tensor:
#      x y z
#    x 1.802210 0.000000 -0.002390 
#    y 0.000000 1.800550 0.000000 
#    z -0.002390 0.000000 1.849060 
# 
# From -- ./inp_files/62480.got.cif
#   From: 2010.06.25/outbox.cif.g09.slc.cpg/sg15_32_cif.got.tgz:62480.got - 2010.06.28 07:06:18.
