data_PCOD8133878
_publ_section_title
;
Structure prediction by ZEFSAII (Michael W. Deem and Ramdas Pophale) SiO2 
 PCOD8133878
Probable space group: C 2/C
;
_chemical_formula_sum "Si O2"
_cell_formula_units_Z 48
_cell_length_a 9.036364
_cell_length_b 32.029353
_cell_length_c 13.252345
_cell_angle_alpha 90.000000
_cell_angle_beta 42.307208
_cell_angle_gamma 90.000000
_cell_volume 2581.771436
_symmetry_space_group_name_H-M "C 2/C"
_symmetry_group_IT_number 15
_symmetry_cell_setting 'monoclinic'
loop_
_space_group_symop_operation_xyz
x,y,z
-x,y,1/2-z
-x,-y,-z
x,-y,1/2+z
1/2+x,1/2+y,z
1/2-x,1/2+y,1/2-z
1/2-x,1/2-y,-z
1/2+x,1/2-y,1/2+z
loop_
_atom_site_type_symbol
_atom_site_label
_atom_site_fract_x
_atom_site_fract_y
_atom_site_fract_z
Si Si1 0.500000 0.631128 0.750000
Si Si2 0.500000 0.495770 0.750000
Si Si3 0.240242 0.784620 0.888718
Si Si4 0.818245 0.839721 0.762981
Si Si5 0.281072 0.436089 0.496379
Si Si6 0.657053 0.806343 0.447321
Si Si7 0.736952 0.932124 0.751625
O O1 0.582544 0.603251 0.614600
O O2 0.700243 0.660523 0.689047
O O3 0.636377 0.522529 0.600715
O O4 0.322940 0.468622 0.779501
O O5 0.500000 0.780980 0.750000
O O6 0.133955 0.818396 0.868390
O O7 0.134022 0.739890 0.911872
O O8 0.196987 0.800019 0.024066
O O9 0.837681 0.889003 0.739358
O O10 0.000000 0.824314 0.750000
O O11 0.581002 0.825899 0.920808
O O12 0.319147 0.440644 0.596524
O O13 0.024431 0.429334 0.605754
#
# Coordination Sequence:
#
# PCOD8133878 Si02
#       7
#     4   4   8   8   8   8   8
#     4  11  18  34  58  90 114 140 204 250 280 323
#     4  11  22  40  62  88 116 146 188 242 300 345
#     4   9  19  34  57  85 108 147 206 244 279 336
#     4  11  22  36  56  83 117 160 192 232 298 348
#     4  10  23  36  62  89 112 152 192 240 289 345
#     4  10  19  34  59  83 111 151 196 250 282 328
#     4  11  21  40  59  86 118 152 193 235 288 358
#
# _framework density 18.591885999999999
#
# number of rings (size 3 to 8) (size 9 to 14) (size 15 to 20)
#    0.000    1.667    3.333    2.000    4.667    0.667 
#    0.000    0.000    0.000    6.000    0.000    0.000 
#    0.000    0.000    0.000    0.000    0.000    0.000 
#
# Total GULP energy -297552.733175 kJ/mol
# GULP energy per Si atom -12398.030549 kJ/mol
# Density = 1.854957 g / cm^3
# Si number density = 18.591886 Si / 1000 Ang^3
#
#
#
# Elastic Constant Matrix: (Units=GPa)
#
#
# Indices 1 2 3 4 5 6 
#
# 1 86.0241 39.1349 32.2493 0.0000 -5.4504 0.0000
# 2 39.1349 129.7624 47.7237 0.0000 0.0593 0.0000
# 3 32.2493 47.7237 82.6959 0.0000 4.1754 0.0000
# 4 0.0000 0.0000 0.0000 30.2672 0.0000 -2.0965
# 5 -5.4504 0.0593 4.1754 0.0000 11.2075 0.0000
# 6 0.0000 0.0000 0.0000 -2.0965 0.0000 19.7057
#
#
#
# Elastic Compliance Matrix: (Units=1/GPa)
#
#
# Indices 1 2 3 4 5 6 
#
# 1 0.015305 -0.002860 -0.004784 0.000000 0.009241 0.000000
# 2 -0.002860 0.010366 -0.004885 0.000000 0.000374 0.000000
# 3 -0.004784 -0.004885 0.017218 0.000000 -0.008715 0.000000
# 4 0.000000 0.000000 0.000000 0.033284 0.000000 0.003541
# 5 0.009241 0.000374 -0.008715 0.000000 0.096965 0.000000
# 6 0.000000 0.000000 0.000000 0.003541 0.000000 0.051123
#
#
# Mechanical properties :
#
#
# Convention : Reuss Voigt Hill
#
# Bulk Modulus (GPa) = 56.09181 59.63313 57.86247
# Shear Modulus (GPa) = 19.58754 24.19438 21.89096
#
# Velocity S-wave (km/s) = 3.24937 3.61132 3.43512
# Velocity P-wave (km/s) = 6.65683 7.03799 6.85006
#
# Compressibility (1/GPa) = 0.01782792
#
# Stress axis : x y z
#
# Youngs Moduli (GPa) = 65.33800 96.47263 58.07986
#
# Poissons Ratio (x) = 0.27596 0.27788
# Poissons Ratio (y) = 0.18690 0.28374
# Poissons Ratio (z) = 0.31260 0.47130
#
# Static dielectric constant tensor:
#      x y z
#    x 3.248410 0.000000 0.192350 
#    y 0.000000 3.644390 0.000000 
#    z 0.192350 0.000000 3.574830 
# 
# 
# High freq. dielectric constant tensor:
#      x y z
#    x 1.692100 0.000000 0.002760 
#    y 0.000000 1.743670 0.000000 
#    z 0.002760 0.000000 1.729010 
# 
# From -- ./inp_files/139410.got.cif
#   From: 2010.06.25/outbox.cif.g09.slc.cpg/sg15_70_cif.got.tgz:139410.got - 2010.06.28 07:06:18.
