data_PCOD8133506
_publ_section_title
;
Structure prediction by ZEFSAII (Michael W. Deem and Ramdas Pophale) SiO2 
 PCOD8133506
Probable space group: C 2/C
;
_chemical_formula_sum "Si O2"
_cell_formula_units_Z 56
_cell_length_a 15.596542
_cell_length_b 14.740844
_cell_length_c 12.881472
_cell_angle_alpha 90.000000
_cell_angle_beta 79.298409
_cell_angle_gamma 90.000000
_cell_volume 2910.022185
_symmetry_space_group_name_H-M "C 2/C"
_symmetry_group_IT_number 15
_symmetry_cell_setting 'monoclinic'
loop_
_space_group_symop_operation_xyz
x,y,z
-x,y,1/2-z
-x,-y,-z
x,-y,1/2+z
1/2+x,1/2+y,z
1/2-x,1/2+y,1/2-z
1/2-x,1/2-y,-z
1/2+x,1/2-y,1/2+z
loop_
_atom_site_type_symbol
_atom_site_label
_atom_site_fract_x
_atom_site_fract_y
_atom_site_fract_z
Si Si1 0.215224 0.060343 0.627316
Si Si2 0.456228 0.218338 0.525317
Si Si3 0.806974 0.296897 0.229321
Si Si4 0.571807 0.578557 0.492778
Si Si5 0.219049 0.903566 0.788928
Si Si6 0.638053 0.926348 0.576053
Si Si7 0.928544 0.384233 0.354866
O O1 0.225333 0.148242 0.699235
O O2 0.124273 0.065369 0.587541
O O3 0.296448 0.055524 0.532346
O O4 0.216899 0.970443 0.693864
O O5 0.381889 0.210521 0.627527
O O6 0.473748 0.322735 0.490582
O O7 0.424296 0.159913 0.433037
O O8 0.545348 0.178454 0.553210
O O9 0.780400 0.195240 0.263610
O O10 0.837745 0.348214 0.326995
O O11 0.500000 0.500000 0.500000
O O12 0.636197 0.575256 0.380185
O O13 0.309161 0.909725 0.830766
O O14 0.577618 0.013775 0.602937
O O15 0.000000 0.379389 0.250000
#
# Coordination Sequence:
#
# PCOD8133506 Si02
#       7
#     8   8   8   8   8   8   8
#     4  10  20  36  58  80 107 144 180 224 268 318
#     4   9  19  34  55  80 109 145 179 222 264 321
#     4   9  18  34  56  82 104 142 191 215 260 328
#     4  10  22  37  56  81 109 143 186 221 268 325
#     4  10  20  36  59  79 108 145 180 227 267 315
#     4  10  19  36  58  82 109 141 182 221 271 324
#     4  10  19  33  57  83 110 140 179 225 271 319
#
# _framework density 19.243839999999999
#
# number of rings (size 3 to 8) (size 9 to 14) (size 15 to 20)
#    0.000    2.286    1.429    1.286    2.000    4.000 
#    0.000    2.143    3.143    0.000    0.000    0.000 
#    0.000    0.000    0.000    0.000    0.000    0.000 
#
# Total GULP energy -347173.729718 kJ/mol
# GULP energy per Si atom -12399.061776 kJ/mol
# Density = 1.920004 g / cm^3
# Si number density = 19.243840 Si / 1000 Ang^3
#
#
#
# Elastic Constant Matrix: (Units=GPa)
#
#
# Indices 1 2 3 4 5 6 
#
# 1 84.7024 52.6070 33.3690 0.0000 37.7511 0.0000
# 2 52.6070 175.6042 44.3685 0.0000 31.6487 0.0000
# 3 33.3690 44.3685 54.4944 0.0000 32.3073 0.0000
# 4 0.0000 0.0000 0.0000 23.0979 0.0000 -2.4660
# 5 37.7511 31.6487 32.3073 0.0000 26.2697 0.0000
# 6 0.0000 0.0000 0.0000 -2.4660 0.0000 31.6870
#
#
#
# Elastic Compliance Matrix: (Units=1/GPa)
#
#
# Indices 1 2 3 4 5 6 
#
# 1 0.056031 -0.004940 0.051388 0.000000 -0.137768 0.000000
# 2 -0.004940 0.007817 -0.007254 0.000000 0.006602 0.000000
# 3 0.051388 -0.007254 0.115877 0.000000 -0.207618 0.000000
# 4 0.000000 0.000000 0.000000 0.043657 0.000000 0.003398
# 5 -0.137768 0.006602 -0.207618 0.000000 0.483427 0.000000
# 6 0.000000 0.000000 0.000000 0.003398 0.000000 0.031823
#
#
# Mechanical properties :
#
#
# Convention : Reuss Voigt Hill
#
# Bulk Modulus (GPa) = 3.87425 63.94336 33.90880
# Shear Modulus (GPa) = 6.69987 28.50803 17.60395
#
# Velocity S-wave (km/s) = 1.86792 3.85309 3.02782
# Velocity P-wave (km/s) = 2.58259 7.28664 5.46648
#
# Compressibility (1/GPa) = 0.25811439
#
# Stress axis : x y z
#
# Youngs Moduli (GPa) = 17.84719 127.91849 8.62981
#
# Poissons Ratio (x) = 0.63193 -0.44347
# Poissons Ratio (y) = 0.08817 0.06260
# Poissons Ratio (z) = -0.91714 0.92794
#
# Static dielectric constant tensor:
#      x y z
#    x 3.477300 0.000000 0.385020 
#    y 0.000000 3.814870 0.000000 
#    z 0.385020 0.000000 3.437680 
# 
# 
# High freq. dielectric constant tensor:
#      x y z
#    x 1.733210 0.000000 0.032540 
#    y 0.000000 1.764650 0.000000 
#    z 0.032540 0.000000 1.734810 
# 
# From -- ./inp_files/97015.got.cif
#   From: 2010.06.25/outbox.cif.g09.slc.cpg/sg15_49_cif.got.tgz:97015.got - 2010.06.28 07:06:18.
