data_PCOD8133933
_publ_section_title
;
Structure prediction by ZEFSAII (Michael W. Deem and Ramdas Pophale) SiO2 
 PCOD8133933
Probable space group: C 2/C
;
_chemical_formula_sum "Si O2"
_cell_formula_units_Z 64
_cell_length_a 18.675620
_cell_length_b 19.521885
_cell_length_c 9.094587
_cell_angle_alpha 90.000000
_cell_angle_beta 93.080844
_cell_angle_gamma 90.000000
_cell_volume 3310.942347
_symmetry_space_group_name_H-M "C 2/C"
_symmetry_group_IT_number 15
_symmetry_cell_setting 'monoclinic'
loop_
_space_group_symop_operation_xyz
x,y,z
-x,y,1/2-z
-x,-y,-z
x,-y,1/2+z
1/2+x,1/2+y,z
1/2-x,1/2+y,1/2-z
1/2-x,1/2-y,-z
1/2+x,1/2-y,1/2+z
loop_
_atom_site_type_symbol
_atom_site_label
_atom_site_fract_x
_atom_site_fract_y
_atom_site_fract_z
Si Si1 0.424547 0.960086 0.180806
Si Si2 0.510136 0.397784 0.409339
Si Si3 0.040957 0.608935 0.105626
Si Si4 0.159929 0.598360 0.312316
Si Si5 0.678462 0.417902 0.745020
Si Si6 0.409735 0.844844 0.415680
Si Si7 0.613339 0.513960 0.493862
Si Si8 0.930119 0.804217 0.838732
O O1 0.500000 0.987094 0.250000
O O2 0.404227 0.891119 0.268307
O O3 0.365104 0.018879 0.198846
O O4 0.432834 0.950315 0.005078
O O5 0.500000 0.363577 0.250000
O O6 0.561045 0.464177 0.396208
O O7 0.433230 0.420969 0.461393
O O8 0.546695 0.339588 0.508640
O O9 0.114323 0.641200 0.182578
O O10 0.000000 0.582806 0.250000
O O11 0.989150 0.656634 0.001205
O O12 0.242609 0.606683 0.284843
O O13 0.148200 0.628574 0.473544
O O14 0.649753 0.473180 0.627839
O O15 0.677267 0.456284 0.900971
O O16 0.627135 0.352000 0.749257
O O17 0.391635 0.767749 0.367464
O O18 0.000000 0.791352 0.750000
#
# Coordination Sequence:
#
# PCOD8133933 Si02
#       8
#     8   8   8   8   8   8   8   8
#     4  10  19  36  60  87 115 148 198 255 302 347
#     4  10  19  34  60  89 117 151 203 260 296 341
#     4   9  19  35  56  82 111 147 192 249 292 347
#     4  11  23  36  58  88 120 159 194 245 303 353
#     4  11  24  37  61  89 127 163 198 245 298 366
#     4  10  22  39  62  89 118 155 205 252 296 368
#     4  10  20  36  56  88 122 155 202 251 297 349
#     4  11  22  40  63  88 118 163 202 244 309 355
#
# _framework density 19.329844000000001
#
# number of rings (size 3 to 8) (size 9 to 14) (size 15 to 20)
#    0.000    1.750    2.500    3.000    3.500    5.500 
#    0.000    0.625    0.000    3.000    0.000    0.000 
#    0.000    0.000    0.000    0.000    0.000    0.000 
#
# Total GULP energy -396512.845189 kJ/mol
# GULP energy per Si atom -12391.026412 kJ/mol
# Density = 1.928585 g / cm^3
# Si number density = 19.329844 Si / 1000 Ang^3
#
#
#
# Elastic Constant Matrix: (Units=GPa)
#
#
# Indices 1 2 3 4 5 6 
#
# 1 98.3632 22.5170 19.8236 0.0000 -18.5383 0.0000
# 2 22.5170 102.7009 35.7352 0.0000 -10.8758 0.0000
# 3 19.8236 35.7352 96.3722 0.0000 -15.9249 0.0000
# 4 0.0000 0.0000 0.0000 13.0746 0.0000 -6.4392
# 5 -18.5383 -10.8758 -15.9249 0.0000 25.0462 0.0000
# 6 0.0000 0.0000 0.0000 -6.4392 0.0000 12.4746
#
#
#
# Elastic Compliance Matrix: (Units=1/GPa)
#
#
# Indices 1 2 3 4 5 6 
#
# 1 0.012147 -0.001620 -0.000591 0.000000 0.007912 0.000000
# 2 -0.001620 0.011535 -0.003704 0.000000 0.001455 0.000000
# 3 -0.000591 -0.003704 0.012887 0.000000 0.006149 0.000000
# 4 0.000000 0.000000 0.000000 0.102556 0.000000 0.052938
# 5 0.007912 0.001455 0.006149 0.000000 0.050324 0.000000
# 6 0.000000 0.000000 0.000000 0.052938 0.000000 0.107488
#
#
# Mechanical properties :
#
#
# Convention : Reuss Voigt Hill
#
# Bulk Modulus (GPa) = 40.41801 50.39867 45.40834
# Shear Modulus (GPa) = 15.77220 24.74311 20.25766
#
# Velocity S-wave (km/s) = 2.85958 3.58166 3.24079
# Velocity P-wave (km/s) = 5.64429 6.57525 6.12748
#
# Compressibility (1/GPa) = 0.02474144
#
# Stress axis : x y z
#
# Youngs Moduli (GPa) = 82.32181 86.69318 77.59616
#
# Poissons Ratio (x) = 0.14044 0.04583
# Poissons Ratio (y) = 0.13335 0.28738
# Poissons Ratio (z) = 0.04862 0.32107
#
# Static dielectric constant tensor:
#      x y z
#    x 3.500780 0.000000 0.042140 
#    y 0.000000 3.256070 0.000000 
#    z 0.042140 0.000000 3.785250 
# 
# 
# High freq. dielectric constant tensor:
#      x y z
#    x 1.730360 0.000000 -0.008300 
#    y 0.000000 1.730970 0.000000 
#    z -0.008300 0.000000 1.769930 
# 
# From -- ./inp_files/50256.got.cif
#   From: 2010.06.25/outbox.cif.g09.slc.cpg/sg15_26_cif.got.tgz:50256.got - 2010.06.28 07:06:18.
