data_PCOD8133510
_publ_section_title
;
Structure prediction by ZEFSAII (Michael W. Deem and Ramdas Pophale) SiO2 
 PCOD8133510
Probable space group: C 2/C
;
_chemical_formula_sum "Si O2"
_cell_formula_units_Z 44
_cell_length_a 7.817920
_cell_length_b 21.994458
_cell_length_c 12.217410
_cell_angle_alpha 90.000000
_cell_angle_beta 62.681085
_cell_angle_gamma 90.000000
_cell_volume 1866.484276
_symmetry_space_group_name_H-M "C 2/C"
_symmetry_group_IT_number 15
_symmetry_cell_setting 'monoclinic'
loop_
_space_group_symop_operation_xyz
x,y,z
-x,y,1/2-z
-x,-y,-z
x,-y,1/2+z
1/2+x,1/2+y,z
1/2-x,1/2+y,1/2-z
1/2-x,1/2-y,-z
1/2+x,1/2-y,1/2+z
loop_
_atom_site_type_symbol
_atom_site_label
_atom_site_fract_x
_atom_site_fract_y
_atom_site_fract_z
Si Si1 0.472798 0.073107 0.881449
Si Si2 0.371155 0.679153 0.184995
Si Si3 0.275377 0.967351 0.003449
Si Si4 0.200454 0.318627 0.325157
Si Si5 0.500000 0.101808 0.250000
Si Si6 0.982541 0.138365 0.922411
O O1 0.500000 0.053937 0.750000
O O2 0.493775 0.146221 0.895652
O O3 0.271586 0.040862 0.980856
O O4 0.646755 0.041744 0.897205
O O5 0.500000 0.659387 0.250000
O O6 0.327739 0.750506 0.203056
O O7 0.169909 0.644123 0.247245
O O8 0.492649 0.666115 0.039970
O O9 0.423350 0.937779 0.872940
O O10 0.069385 0.933818 0.056378
O O11 0.311138 0.354946 0.195024
O O12 0.319766 0.324032 0.402802
#
# Coordination Sequence:
#
# PCOD8133510 Si02
#       6
#     8   8   8   8   4   8
#     4  10  19  33  57  84 113 152 205 254 299 368
#     4  11  23  37  61  94 125 162 207 250 308 374
#     4   9  19  36  59  81 114 161 209 245 310 369
#     4  10  20  36  59  88 123 161 201 255 312 359
#     4  10  20  40  64  82 126 166 198 258 306 366
#     4   9  20  38  59  84 124 162 205 251 307 369
#
# _framework density 23.573730999999999
#
# number of rings (size 3 to 8) (size 9 to 14) (size 15 to 20)
#    0.000    2.182    0.909    2.182    0.000    5.091 
#    0.000    0.909   12.000    0.000    0.000    0.000 
#    0.000    0.000    0.000    0.000    0.000    0.000 
#
# Total GULP energy -272610.680756 kJ/mol
# GULP energy per Si atom -12391.394580 kJ/mol
# Density = 2.352008 g / cm^3
# Si number density = 23.573731 Si / 1000 Ang^3
#
#
#
# Elastic Constant Matrix: (Units=GPa)
#
#
# Indices 1 2 3 4 5 6 
#
# 1 109.5351 41.3866 47.5180 0.0000 16.2200 0.0000
# 2 41.3866 104.0749 25.6049 0.0000 -9.9441 0.0000
# 3 47.5180 25.6049 119.9979 0.0000 32.3411 0.0000
# 4 0.0000 0.0000 0.0000 13.9799 0.0000 -11.7840
# 5 16.2200 -9.9441 32.3411 0.0000 30.6103 0.0000
# 6 0.0000 0.0000 0.0000 -11.7840 0.0000 -2.0033
#
#
#
# Elastic Compliance Matrix: (Units=1/GPa)
#
#
# Indices 1 2 3 4 5 6 
#
# 1 0.013023 -0.005150 -0.002443 0.000000 -0.005993 0.000000
# 2 -0.005150 0.013712 -0.003946 0.000000 0.011353 0.000000
# 3 -0.002443 -0.003946 0.014176 0.000000 -0.014965 0.000000
# 4 0.000000 0.000000 0.000000 0.012005 0.000000 -0.070618
# 5 -0.005993 0.011353 -0.014965 0.000000 0.055344 0.000000
# 6 0.000000 0.000000 0.000000 -0.070618 0.000000 -0.083778
#
#
# Mechanical properties :
#
#
# Convention : Reuss Voigt Hill
#
# Bulk Modulus (GPa) = 56.07717 62.51412 59.29564
# Shear Modulus (GPa) = 93.45020 23.12393 58.28706
#
# Velocity S-wave (km/s) = 6.30299 3.13536 4.97786
# Velocity P-wave (km/s) = 8.76413 6.29948 7.63195
#
# Compressibility (1/GPa) = 0.01783257
#
# Stress axis : x y z
#
# Youngs Moduli (GPa) = 76.78991 72.92828 70.54084
#
# Poissons Ratio (x) = 0.37559 0.17231
# Poissons Ratio (y) = 0.39548 0.27837
# Poissons Ratio (z) = 0.18758 0.28779
#
# Static dielectric constant tensor:
#      x y z
#    x 4.123830 0.000000 0.213510 
#    y 0.000000 4.429660 0.000000 
#    z 0.213510 0.000000 4.344420 
# 
# 
# High freq. dielectric constant tensor:
#      x y z
#    x 1.921750 0.000000 0.027760 
#    y 0.000000 1.935860 0.000000 
#    z 0.027760 0.000000 1.936790 
# 
# From -- ./inp_files/79033.got.cif
#   From: 2010.06.25/outbox.cif.g09.slc.cpg/sg15_40_cif.got.tgz:79033.got - 2010.06.28 07:06:18.
