data_PCOD8133462
_publ_section_title
;
Structure prediction by ZEFSAII (Michael W. Deem and Ramdas Pophale) SiO2 
 PCOD8133462
Probable space group: C 2/C
;
_chemical_formula_sum "Si O2"
_cell_formula_units_Z 64
_cell_length_a 23.866563
_cell_length_b 11.749420
_cell_length_c 12.184502
_cell_angle_alpha 90.000000
_cell_angle_beta 103.055880
_cell_angle_gamma 90.000000
_cell_volume 3328.434549
_symmetry_space_group_name_H-M "C 2/C"
_symmetry_group_IT_number 15
_symmetry_cell_setting 'monoclinic'
loop_
_space_group_symop_operation_xyz
x,y,z
-x,y,1/2-z
-x,-y,-z
x,-y,1/2+z
1/2+x,1/2+y,z
1/2-x,1/2+y,1/2-z
1/2-x,1/2-y,-z
1/2+x,1/2-y,1/2+z
loop_
_atom_site_type_symbol
_atom_site_label
_atom_site_fract_x
_atom_site_fract_y
_atom_site_fract_z
Si Si1 0.530441 0.876590 0.647919
Si Si2 0.152624 0.689922 0.138269
Si Si3 0.056252 0.385361 0.061086
Si Si4 0.232253 0.082988 0.997185
Si Si5 0.254363 0.755079 0.325121
Si Si6 0.645414 0.996513 0.453634
Si Si7 0.808123 0.827610 0.526448
Si Si8 0.857483 0.314461 0.229781
O O1 0.500000 0.850847 0.750000
O O2 0.593298 0.818846 0.679180
O O3 0.496633 0.823744 0.525915
O O4 0.534255 0.011605 0.627554
O O5 0.207183 0.682312 0.240480
O O6 0.161837 0.587188 0.058788
O O7 0.156006 0.806229 0.069144
O O8 0.091239 0.300534 0.157790
O O9 0.092627 0.427970 0.971444
O O10 0.220047 0.151166 0.880340
O O11 0.203339 0.960810 0.976416
O O12 0.209635 0.162178 0.087253
O O13 0.300754 0.076680 0.046027
O O14 0.297362 0.826780 0.267372
O O15 0.629960 0.928218 0.335447
O O16 0.750000 0.750000 0.500000
O O17 0.849640 0.794920 0.647258
#
# Coordination Sequence:
#
# PCOD8133462 Si02
#       8
#     8   8   8   8   8   8   8   8
#     4  10  22  36  56  83 119 160 193 243 299 353
#     4  10  21  36  54  82 114 154 198 231 293 358
#     4  10  21  35  55  87 116 156 202 236 301 357
#     4  11  22  34  52  85 124 151 193 240 290 363
#     4  11  23  33  54  89 116 158 195 239 305 354
#     4  10  19  33  56  78 118 157 184 237 292 353
#     4  11  20  37  55  82 116 163 197 230 297 361
#     4  11  20  34  56  85 117 157 199 235 295 363
#
# _framework density 19.228258
#
# number of rings (size 3 to 8) (size 9 to 14) (size 15 to 20)
#    0.000    1.500    5.000    0.750    5.250    4.000 
#    0.000    0.000    0.000    0.000    0.000    9.625 
#    0.000    0.000    0.000    0.000    0.000    0.000 
#
# Total GULP energy -396570.489593 kJ/mol
# GULP energy per Si atom -12392.827800 kJ/mol
# Density = 1.918449 g / cm^3
# Si number density = 19.228258 Si / 1000 Ang^3
#
#
#
# Elastic Constant Matrix: (Units=GPa)
#
#
# Indices 1 2 3 4 5 6 
#
# 1 55.8329 0.8609 28.9664 0.0000 -2.8033 0.0000
# 2 0.8609 71.3393 22.9978 0.0000 -3.6336 0.0000
# 3 28.9664 22.9978 113.4954 0.0000 2.1773 0.0000
# 4 0.0000 0.0000 0.0000 14.1763 0.0000 3.7721
# 5 -2.8033 -3.6336 2.1773 0.0000 41.9218 0.0000
# 6 0.0000 0.0000 0.0000 3.7721 0.0000 21.1175
#
#
#
# Elastic Compliance Matrix: (Units=1/GPa)
#
#
# Indices 1 2 3 4 5 6 
#
# 1 0.020946 0.001686 -0.005723 0.000000 0.001844 0.000000
# 2 0.001686 0.015223 -0.003546 0.000000 0.001616 0.000000
# 3 -0.005723 -0.003546 0.011014 0.000000 -0.001262 0.000000
# 4 0.000000 0.000000 0.000000 0.074060 0.000000 -0.013229
# 5 0.001844 0.001616 -0.001262 0.000000 0.024183 0.000000
# 6 0.000000 0.000000 0.000000 -0.013229 0.000000 0.049717
#
#
# Mechanical properties :
#
#
# Convention : Reuss Voigt Hill
#
# Bulk Modulus (GPa) = 31.23285 38.47975 34.85630
# Shear Modulus (GPa) = 22.62635 27.96597 25.29616
#
# Velocity S-wave (km/s) = 3.43406 3.81782 3.63102
# Velocity P-wave (km/s) = 5.65705 6.28410 5.97880
#
# Compressibility (1/GPa) = 0.03201757
#
# Stress axis : x y z
#
# Youngs Moduli (GPa) = 47.74119 65.69179 90.79133
#
# Poissons Ratio (x) = -0.11076 0.51959
# Poissons Ratio (y) = -0.08050 0.32194
# Poissons Ratio (z) = 0.27322 0.23294
#
# Static dielectric constant tensor:
#      x y z
#    x 3.718840 0.000000 -0.111850 
#    y 0.000000 3.313480 0.000000 
#    z -0.111850 0.000000 3.839160 
# 
# 
# High freq. dielectric constant tensor:
#      x y z
#    x 1.729230 0.000000 -0.007020 
#    y 0.000000 1.702990 0.000000 
#    z -0.007020 0.000000 1.776010 
# 
# From -- ./inp_files/117616.got.cif
#   From: 2010.06.25/outbox.cif.g09.slc.cpg/sg15_59_cif.got.tgz:117616.got - 2010.06.28 07:06:18.
