data_PCOD8133521
_publ_section_title
;
Structure prediction by ZEFSAII (Michael W. Deem and Ramdas Pophale) SiO2 
 PCOD8133521
Probable space group: C 2/C
;
_chemical_formula_sum "Si O2"
_cell_formula_units_Z 60
_cell_length_a 8.962596
_cell_length_b 15.982233
_cell_length_c 23.440631
_cell_angle_alpha 90.000000
_cell_angle_beta 120.031940
_cell_angle_gamma 90.000000
_cell_volume 2906.908362
_symmetry_space_group_name_H-M "C 2/C"
_symmetry_group_IT_number 15
_symmetry_cell_setting 'monoclinic'
loop_
_space_group_symop_operation_xyz
x,y,z
-x,y,1/2-z
-x,-y,-z
x,-y,1/2+z
1/2+x,1/2+y,z
1/2-x,1/2+y,1/2-z
1/2-x,1/2-y,-z
1/2+x,1/2-y,1/2+z
loop_
_atom_site_type_symbol
_atom_site_label
_atom_site_fract_x
_atom_site_fract_y
_atom_site_fract_z
Si Si1 0.206549 0.344244 0.928137
Si Si2 0.411003 0.040139 0.341880
Si Si3 0.167741 0.324092 0.352434
Si Si4 0.355415 0.405762 0.175353
Si Si5 0.500000 0.035531 0.750000
Si Si6 0.951084 0.831121 0.077778
Si Si7 0.319045 0.678062 0.226861
Si Si8 0.646864 0.258885 0.649402
O O1 0.078259 0.265545 0.910719
O O2 0.343268 0.315913 0.905331
O O3 0.107546 0.433167 0.896583
O O4 0.311131 0.361901 0.005593
O O5 0.320618 0.128362 0.335334
O O6 0.309268 0.969674 0.358847
O O7 0.382756 0.021396 0.268682
O O8 0.358893 0.336711 0.414135
O O9 0.176772 0.272640 0.295440
O O10 0.097766 0.413572 0.318554
O O11 0.046143 0.278023 0.375964
O O12 0.500000 0.432271 0.250000
O O13 0.440352 0.395791 0.129070
O O14 0.281297 0.316022 0.176480
O O15 0.500000 0.632153 0.250000
O O16 0.287763 0.680611 0.288183
#
# Coordination Sequence:
#
# PCOD8133521 Si02
#       8
#     8   8   8   8   4   8   8   8
#     4  10  23  39  60  90 120 169 212 255 296 367
#     4  12  22  36  58  93 128 154 200 268 313 362
#     4  11  19  39  63  87 120 162 199 260 309 376
#     4  11  22  37  63  92 122 162 205 252 327 381
#     4  12  22  36  60  94 124 154 194 256 328 358
#     4  10  22  41  63  85 122 167 217 245 299 384
#     4  10  19  33  57  89 118 151 200 255 311 355
#     4  10  20  37  61  87 122 163 207 250 315 379
#
# _framework density 20.640487
#
# number of rings (size 3 to 8) (size 9 to 14) (size 15 to 20)
#    0.000    1.333    4.667    2.800    1.867    1.067 
#    0.000    0.667    0.000    0.000    0.000    0.000 
#    0.000    0.000    0.000    0.000    0.000    0.000 
#
# Total GULP energy -371647.653163 kJ/mol
# GULP energy per Si atom -12388.255105 kJ/mol
# Density = 2.059351 g / cm^3
# Si number density = 20.640487 Si / 1000 Ang^3
#
#
#
# Elastic Constant Matrix: (Units=GPa)
#
#
# Indices 1 2 3 4 5 6 
#
# 1 109.2320 31.7906 40.0325 0.0000 5.4104 0.0000
# 2 31.7906 67.5133 41.1063 0.0000 2.7928 0.0000
# 3 40.0325 41.1063 87.8110 0.0000 0.4144 0.0000
# 4 0.0000 0.0000 0.0000 17.2911 0.0000 0.9624
# 5 5.4104 2.7928 0.4144 0.0000 29.4009 0.0000
# 6 0.0000 0.0000 0.0000 0.9624 0.0000 12.9962
#
#
#
# Elastic Compliance Matrix: (Units=1/GPa)
#
#
# Indices 1 2 3 4 5 6 
#
# 1 0.011527 -0.003021 -0.003833 0.000000 -0.001780 0.000000
# 2 -0.003021 0.021607 -0.008731 0.000000 -0.001374 0.000000
# 3 -0.003833 -0.008731 0.017217 0.000000 0.001292 0.000000
# 4 0.000000 0.000000 0.000000 0.058073 0.000000 -0.004301
# 5 -0.001780 -0.001374 0.001292 0.000000 0.034452 0.000000
# 6 0.000000 0.000000 0.000000 -0.004301 0.000000 0.077264
#
#
# Mechanical properties :
#
#
# Convention : Reuss Voigt Hill
#
# Bulk Modulus (GPa) = 52.13316 54.49058 53.31187
# Shear Modulus (GPa) = 19.40223 22.04609 20.72416
#
# Velocity S-wave (km/s) = 3.06928 3.27172 3.17212
# Velocity P-wave (km/s) = 6.15412 6.38196 6.26908
#
# Compressibility (1/GPa) = 0.01918165
#
# Stress axis : x y z
#
# Youngs Moduli (GPa) = 86.75520 46.28097 58.08366
#
# Poissons Ratio (x) = 0.13979 0.22261
# Poissons Ratio (y) = 0.26205 0.50714
# Poissons Ratio (z) = 0.33249 0.40409
#
# Static dielectric constant tensor:
#      x y z
#    x 4.126320 0.000000 0.121120 
#    y 0.000000 3.636320 0.000000 
#    z 0.121120 0.000000 3.576270 
# 
# 
# High freq. dielectric constant tensor:
#      x y z
#    x 1.819020 0.000000 0.003870 
#    y 0.000000 1.802370 0.000000 
#    z 0.003870 0.000000 1.777020 
# 
# From -- ./inp_files/265568.got.cif
#   From: 2010.06.25/outbox.cif.g09.slc.cpg/sg15_133_cif.got.tgz:265568.got - 2010.06.28 07:06:18.
