data_PCOD8133673
_publ_section_title
;
Structure prediction by ZEFSAII (Michael W. Deem and Ramdas Pophale) SiO2 
 PCOD8133673
Probable space group: C 2/C
;
_chemical_formula_sum "Si O2"
_cell_formula_units_Z 56
_cell_length_a 11.797407
_cell_length_b 19.273288
_cell_length_c 15.722655
_cell_angle_alpha 90.000000
_cell_angle_beta 122.364024
_cell_angle_gamma 90.000000
_cell_volume 3019.620383
_symmetry_space_group_name_H-M "C 2/C"
_symmetry_group_IT_number 15
_symmetry_cell_setting 'monoclinic'
loop_
_space_group_symop_operation_xyz
x,y,z
-x,y,1/2-z
-x,-y,-z
x,-y,1/2+z
1/2+x,1/2+y,z
1/2-x,1/2+y,1/2-z
1/2-x,1/2-y,-z
1/2+x,1/2-y,1/2+z
loop_
_atom_site_type_symbol
_atom_site_label
_atom_site_fract_x
_atom_site_fract_y
_atom_site_fract_z
Si Si1 0.350099 0.797996 0.090901
Si Si2 0.591531 0.606449 0.136819
Si Si3 0.855872 0.255866 0.286677
Si Si4 0.635971 0.542466 0.683730
Si Si5 0.335896 0.417229 0.020522
Si Si6 0.342495 0.340003 0.183240
Si Si7 0.709777 0.566708 0.527849
O O1 0.323129 0.783791 0.179867
O O2 0.502090 0.784802 0.124104
O O3 0.323781 0.877413 0.052396
O O4 0.250000 0.750000 0.000000
O O5 0.631396 0.672456 0.209421
O O6 0.645454 0.539316 0.209871
O O7 0.666899 0.612109 0.076149
O O8 0.432373 0.598527 0.059197
O O9 0.740932 0.278194 0.307032
O O10 0.484458 0.562937 0.606330
O O11 0.691443 0.587782 0.783074
O O12 0.718127 0.558184 0.632385
O O13 0.289199 0.355777 0.065803
O O14 0.255625 0.490638 0.997202
O O15 0.500000 0.319572 0.250000
#
# Coordination Sequence:
#
# PCOD8133673 Si02
#       7
#     8   8   8   8   8   8   8
#     4  11  22  36  54  78 113 148 175 226 272 323
#     4   9  17  32  53  82 107 134 184 226 262 321
#     4  11  23  35  54  83 110 147 184 212 286 336
#     4   8  15  30  53  74 105 139 174 226 262 303
#     4   8  17  29  54  79  98 141 180 219 269 309
#     4  10  19  34  54  81 110 140 181 229 270 323
#     4   9  15  33  54  74 105 140 177 222 270 308
#
# _framework density 18.545376999999998
#
# number of rings (size 3 to 8) (size 9 to 14) (size 15 to 20)
#    0.000    2.571    2.857    1.714    0.000    1.714 
#    5.143    0.714    0.000    3.429    0.000    0.000 
#    0.000    0.000    0.000    0.000    0.000    0.000 
#
# Total GULP energy -346968.969855 kJ/mol
# GULP energy per Si atom -12391.748923 kJ/mol
# Density = 1.850317 g / cm^3
# Si number density = 18.545377 Si / 1000 Ang^3
#
#
#
# Elastic Constant Matrix: (Units=GPa)
#
#
# Indices 1 2 3 4 5 6 
#
# 1 66.8178 21.5100 10.5210 0.0000 6.2419 0.0000
# 2 21.5100 81.9655 4.0154 0.0000 14.4169 0.0000
# 3 10.5210 4.0154 44.9761 0.0000 5.6129 0.0000
# 4 0.0000 0.0000 0.0000 25.8056 0.0000 -0.1918
# 5 6.2419 14.4169 5.6129 0.0000 16.6771 0.0000
# 6 0.0000 0.0000 0.0000 -0.1918 0.0000 26.4584
#
#
#
# Elastic Compliance Matrix: (Units=1/GPa)
#
#
# Indices 1 2 3 4 5 6 
#
# 1 0.016943 -0.003969 -0.003388 0.000000 -0.001770 0.000000
# 2 -0.003969 0.015321 0.001073 0.000000 -0.012120 0.000000
# 3 -0.003388 0.001073 0.023892 0.000000 -0.007701 0.000000
# 4 0.000000 0.000000 0.000000 0.038753 0.000000 0.000281
# 5 -0.001770 -0.012120 -0.007701 0.000000 0.073695 0.000000
# 6 0.000000 0.000000 0.000000 0.000281 0.000000 0.037797
#
#
# Mechanical properties :
#
#
# Convention : Reuss Voigt Hill
#
# Bulk Modulus (GPa) = 22.94218 29.53914 26.24066
# Shear Modulus (GPa) = 21.41351 24.30241 22.85796
#
# Velocity S-wave (km/s) = 3.40171 3.62391 3.51457
# Velocity P-wave (km/s) = 5.27508 5.78558 5.53622
#
# Compressibility (1/GPa) = 0.04358783
#
# Stress axis : x y z
#
# Youngs Moduli (GPa) = 59.02298 65.26956 41.85538
#
# Poissons Ratio (x) = 0.25905 0.14181
# Poissons Ratio (y) = 0.23426 -0.04492
# Poissons Ratio (z) = 0.19997 -0.07005
#
# Static dielectric constant tensor:
#      x y z
#    x 3.457450 0.000000 -0.541280 
#    y 0.000000 3.689210 0.000000 
#    z -0.541280 0.000000 3.900050 
# 
# 
# High freq. dielectric constant tensor:
#      x y z
#    x 1.686690 0.000000 -0.022050 
#    y 0.000000 1.726540 0.000000 
#    z -0.022050 0.000000 1.700530 
# 
# From -- ./inp_files/119797.got.cif
#   From: 2010.06.25/outbox.cif.g09.slc.cpg/sg15_60_cif.got.tgz:119797.got - 2010.06.28 07:06:18.
