data_PCOD8133730
_publ_section_title
;
Structure prediction by ZEFSAII (Michael W. Deem and Ramdas Pophale) SiO2 
 PCOD8133730
Probable space group: C 2/C
;
_chemical_formula_sum "Si O2"
_cell_formula_units_Z 52
_cell_length_a 21.532008
_cell_length_b 10.047628
_cell_length_c 25.757219
_cell_angle_alpha 90.000000
_cell_angle_beta 149.430978
_cell_angle_gamma 90.000000
_cell_volume 2834.019818
_symmetry_space_group_name_H-M "C 2/C"
_symmetry_group_IT_number 15
_symmetry_cell_setting 'monoclinic'
loop_
_space_group_symop_operation_xyz
x,y,z
-x,y,1/2-z
-x,-y,-z
x,-y,1/2+z
1/2+x,1/2+y,z
1/2-x,1/2+y,1/2-z
1/2-x,1/2-y,-z
1/2+x,1/2-y,1/2+z
loop_
_atom_site_type_symbol
_atom_site_label
_atom_site_fract_x
_atom_site_fract_y
_atom_site_fract_z
Si Si1 0.816221 0.988359 0.896771
Si Si2 0.993217 0.380766 0.630167
Si Si3 0.323992 0.643362 0.751344
Si Si4 0.000000 0.680294 0.250000
Si Si5 0.248113 0.728358 0.590894
Si Si6 0.874118 0.373359 0.302900
Si Si7 0.057069 0.905023 0.614051
O O1 0.782633 0.880224 0.915707
O O2 0.850079 0.908264 0.868129
O O3 0.704082 0.088750 0.804667
O O4 0.922733 0.083496 0.993524
O O5 0.008736 0.405623 0.703326
O O6 0.857195 0.329625 0.521309
O O7 0.098199 0.278960 0.686537
O O8 0.017476 0.517110 0.615981
O O9 0.261645 0.633200 0.650395
O O10 0.214256 0.626852 0.711861
O O11 0.418870 0.524154 0.828575
O O12 0.120827 0.772299 0.343680
O O13 0.934432 0.228035 0.345220
#
# Coordination Sequence:
#
# PCOD8133730 Si02
#       7
#     8   8   8   4   8   8   8
#     4  10  19  35  55  81 124 156 185 233 306 350
#     4  11  22  37  62  87 119 152 207 242 289 350
#     4  10  19  34  55  87 122 154 187 238 293 356
#     4  10  22  40  60  86 108 158 206 260 286 332
#     4  11  20  38  60  89 109 156 202 255 289 338
#     4  11  20  34  55  89 121 155 188 235 294 366
#     4  10  20  33  55  85 124 157 183 228 302 366
#
# _framework density 18.348495
#
# number of rings (size 3 to 8) (size 9 to 14) (size 15 to 20)
#    0.000    1.538    6.154    1.385    0.000    1.846 
#    0.000    0.000    0.000    4.615    0.000    0.000 
#    0.000    0.000    0.000    0.000    0.000    0.000 
#
# Total GULP energy -322253.064681 kJ/mol
# GULP energy per Si atom -12394.348642 kJ/mol
# Density = 1.830673 g / cm^3
# Si number density = 18.348495 Si / 1000 Ang^3
#
#
#
# Elastic Constant Matrix: (Units=GPa)
#
#
# Indices 1 2 3 4 5 6 
#
# 1 73.5934 33.5390 24.1555 0.0000 8.8198 0.0000
# 2 33.5390 117.8575 35.3151 -0.0004 -5.5437 -0.0001
# 3 24.1555 35.3151 104.0380 -0.0011 7.1453 0.0000
# 4 0.0000 -0.0004 -0.0011 32.6732 -0.0002 1.0201
# 5 8.8198 -5.5437 7.1453 -0.0002 28.8105 0.0000
# 6 0.0000 -0.0001 0.0000 1.0201 0.0000 9.6521
#
#
#
# Elastic Compliance Matrix: (Units=1/GPa)
#
#
# Indices 1 2 3 4 5 6 
#
# 1 0.016963 -0.004478 -0.002037 0.000000 -0.005549 0.000000
# 2 -0.004478 0.010832 -0.002924 0.000000 0.004180 0.000000
# 3 -0.002037 -0.002924 0.011265 0.000000 -0.002733 0.000000
# 4 0.000000 0.000000 0.000000 0.030707 0.000000 -0.003245
# 5 -0.005549 0.004180 -0.002733 0.000000 0.037890 0.000000
# 6 0.000000 0.000000 0.000000 -0.003245 0.000000 0.103947
#
#
# Mechanical properties :
#
#
# Convention : Reuss Voigt Hill
#
# Bulk Modulus (GPa) = 49.55126 53.50090 51.52608
# Shear Modulus (GPa) = 21.07834 27.72579 24.40206
#
# Velocity S-wave (km/s) = 3.39304 3.89146 3.65077
# Velocity P-wave (km/s) = 6.51264 7.02942 6.77596
#
# Compressibility (1/GPa) = 0.02018112
#
# Stress axis : x y z
#
# Youngs Moduli (GPa) = 58.95355 92.31990 88.76862
#
# Poissons Ratio (x) = 0.41337 0.18085
# Poissons Ratio (y) = 0.26397 0.25959
# Poissons Ratio (z) = 0.12011 0.26997
#
# Static dielectric constant tensor:
#      x y z
#    x 3.258190 0.000000 0.055990 
#    y 0.000000 3.366630 0.000000 
#    z 0.055990 0.000000 3.648120 
# 
# 
# High freq. dielectric constant tensor:
#      x y z
#    x 1.689230 0.000000 0.010020 
#    y 0.000000 1.688760 0.000000 
#    z 0.010020 0.000000 1.729610 
# 
# From -- ./inp_files/171385.got.cif
#   From: 2010.06.25/outbox.cif.g09.slc.cpg/sg15_86_cif.got.tgz:171385.got - 2010.06.28 07:06:18.
