data_PCOD8133786
_publ_section_title
;
Structure prediction by ZEFSAII (Michael W. Deem and Ramdas Pophale) SiO2 
 PCOD8133786
Probable space group: C 2/C
;
_chemical_formula_sum "Si O2"
_cell_formula_units_Z 56
_cell_length_a 13.749264
_cell_length_b 23.506305
_cell_length_c 8.842971
_cell_angle_alpha 90.000000
_cell_angle_beta 106.335552
_cell_angle_gamma 90.000000
_cell_volume 2742.623966
_symmetry_space_group_name_H-M "C 2/C"
_symmetry_group_IT_number 15
_symmetry_cell_setting 'monoclinic'
loop_
_space_group_symop_operation_xyz
x,y,z
-x,y,1/2-z
-x,-y,-z
x,-y,1/2+z
1/2+x,1/2+y,z
1/2-x,1/2+y,1/2-z
1/2-x,1/2-y,-z
1/2+x,1/2-y,1/2+z
loop_
_atom_site_type_symbol
_atom_site_label
_atom_site_fract_x
_atom_site_fract_y
_atom_site_fract_z
Si Si1 0.633871 0.759881 0.918333
Si Si2 0.472646 0.161324 0.904924
Si Si3 0.815253 0.073410 0.333937
Si Si4 0.294747 0.925694 0.303666
Si Si5 0.101534 0.866548 0.365255
Si Si6 0.398580 0.869163 0.783950
Si Si7 0.769231 0.023832 0.020676
O O1 0.588650 0.700696 0.841182
O O2 0.623265 0.805708 0.782125
O O3 0.750000 0.750000 0.000000
O O4 0.573903 0.782447 0.038773
O O5 0.500000 0.179814 0.750000
O O6 0.392935 0.110262 0.884443
O O7 0.576233 0.138543 0.027817
O O8 0.884740 0.120557 0.447298
O O9 0.695887 0.090042 0.290034
O O10 0.839768 0.061948 0.166690
O O11 0.836537 0.016646 0.442638
O O12 0.196207 0.890788 0.313368
O O13 0.301307 0.985453 0.398725
O O14 0.293420 0.936064 0.121407
O O15 0.000000 0.894605 0.250000
O O16 0.500000 0.894473 0.750000
#
# Coordination Sequence:
#
# PCOD8133786 Si02
#       7
#     8   8   8   8   8   8   8
#     4  11  19  39  62  84 112 156 195 236 292 351
#     4  11  22  37  59  91 124 152 188 239 292 346
#     4  10  19  36  53  80 112 145 191 233 287 336
#     4  10  20  39  58  85 120 152 196 238 290 339
#     4  11  21  37  62  84 108 151 201 241 286 350
#     4  10  19  34  57  81 112 151 186 228 283 350
#     4   9  19  36  58  78 115 154 185 244 284 334
#
# _framework density 20.418402
#
# number of rings (size 3 to 8) (size 9 to 14) (size 15 to 20)
#    0.000    1.714    2.857    4.714    0.000    0.000 
#    0.000   30.000    0.000    0.000    0.000    0.000 
#    0.000    0.000    0.000    0.000    0.000    0.000 
#
# Total GULP energy -346949.909330 kJ/mol
# GULP energy per Si atom -12391.068190 kJ/mol
# Density = 2.037193 g / cm^3
# Si number density = 20.418402 Si / 1000 Ang^3
#
#
#
# Elastic Constant Matrix: (Units=GPa)
#
#
# Indices 1 2 3 4 5 6 
#
# 1 51.9944 21.4679 48.4803 0.0000 7.7721 0.0000
# 2 21.4679 89.5794 39.4049 0.0000 -4.3369 0.0000
# 3 48.4803 39.4049 165.1495 0.0000 -3.2442 0.0000
# 4 0.0000 0.0000 0.0000 33.4738 0.0000 -6.4933
# 5 7.7721 -4.3369 -3.2442 0.0000 35.1273 0.0000
# 6 0.0000 0.0000 0.0000 -6.4933 0.0000 -1.8912
#
#
#
# Elastic Compliance Matrix: (Units=1/GPa)
#
#
# Indices 1 2 3 4 5 6 
#
# 1 0.029296 -0.003959 -0.007806 0.000000 -0.007692 0.000000
# 2 -0.003959 0.013064 -0.001909 0.000000 0.002313 0.000000
# 3 -0.007806 -0.001909 0.008848 0.000000 0.002309 0.000000
# 4 0.000000 0.000000 0.000000 0.017931 0.000000 -0.061566
# 5 -0.007692 0.002313 0.002309 0.000000 0.030668 0.000000
# 6 0.000000 0.000000 0.000000 -0.061566 0.000000 -0.317385
#
#
# Mechanical properties :
#
#
# Convention : Reuss Voigt Hill
#
# Bulk Modulus (GPa) = 41.91537 58.38104 50.14820
# Shear Modulus (GPa) = -27.43114 26.50002 -0.46556
#
# Velocity S-wave (km/s) = -3.66929 3.60648 -0.47802
# Velocity P-wave (km/s) = 1.61902 6.78208 4.93041
#
# Compressibility (1/GPa) = 0.02385760
#
# Stress axis : x y z
#
# Youngs Moduli (GPa) = 34.13420 76.54613 113.02443
#
# Poissons Ratio (x) = 0.30307 0.88231
# Poissons Ratio (y) = 0.13515 0.21581
# Poissons Ratio (z) = 0.26646 0.14616
#
# Static dielectric constant tensor:
#      x y z
#    x 2.830580 0.000000 -0.015810 
#    y 0.000000 3.874460 0.000000 
#    z -0.015810 0.000000 4.269850 
# 
# 
# High freq. dielectric constant tensor:
#      x y z
#    x 1.757520 0.000000 0.008100 
#    y 0.000000 1.796580 0.000000 
#    z 0.008100 0.000000 1.824200 
# 
# From -- ./inp_files/42725.got.cif
#   From: 2010.06.25/outbox.cif.g09.slc.cpg/sg15_22_cif.got.tgz:42725.got - 2010.06.28 07:06:18.
