data_PCOD8133943
_publ_section_title
;
Structure prediction by ZEFSAII (Michael W. Deem and Ramdas Pophale) SiO2 
 PCOD8133943
Probable space group: C 2/C
;
_chemical_formula_sum "Si O2"
_cell_formula_units_Z 52
_cell_length_a 9.761249
_cell_length_b 22.732051
_cell_length_c 22.490568
_cell_angle_alpha 90.000000
_cell_angle_beta 146.210558
_cell_angle_gamma 90.000000
_cell_volume 2775.431450
_symmetry_space_group_name_H-M "C 2/C"
_symmetry_group_IT_number 15
_symmetry_cell_setting 'monoclinic'
loop_
_space_group_symop_operation_xyz
x,y,z
-x,y,1/2-z
-x,-y,-z
x,-y,1/2+z
1/2+x,1/2+y,z
1/2-x,1/2+y,1/2-z
1/2-x,1/2-y,-z
1/2+x,1/2-y,1/2+z
loop_
_atom_site_type_symbol
_atom_site_label
_atom_site_fract_x
_atom_site_fract_y
_atom_site_fract_z
Si Si1 0.531759 0.438798 0.578220
Si Si2 0.096517 0.501700 0.365426
Si Si3 0.142784 0.299028 0.714824
Si Si4 0.885349 0.188407 0.423249
Si Si5 0.500000 0.100567 0.750000
Si Si6 0.324795 0.580098 0.241514
Si Si7 0.773538 0.786720 0.352062
O O1 0.330872 0.487269 0.490303
O O2 0.802405 0.461845 0.655531
O O3 0.484089 0.375001 0.532698
O O4 0.518168 0.432364 0.643521
O O5 0.980921 0.440031 0.301623
O O6 0.913350 0.537750 0.341693
O O7 0.332804 0.285090 0.838199
O O8 0.244289 0.351690 0.710240
O O9 0.093995 0.240716 0.657881
O O10 0.878508 0.319905 0.641859
O O11 0.070513 0.227831 0.531190
O O12 0.256267 0.142340 0.664070
O O13 0.500000 0.564120 0.250000
O O14 0.500000 0.757151 0.250000
#
# Coordination Sequence:
#
# PCOD8133943 Si02
#       7
#     8   8   8   8   4   8   8
#     4  10  19  34  61  87 111 150 199 242 285 343
#     4  11  19  36  61  85 112 150 200 245 282 345
#     4  10  21  37  57  85 120 151 203 239 293 354
#     4  10  19  36  60  86 110 156 200 248 286 345
#     4  10  20  34  58  84 110 148 198 240 284 342
#     4  11  22  35  57  87 122 154 187 243 302 350
#     4  10  21  36  56  85 117 151 196 245 294 344
#
# _framework density 18.735824999999998
#
# number of rings (size 3 to 8) (size 9 to 14) (size 15 to 20)
#    0.462    1.231    4.615    0.923    0.000    1.231 
#    0.000    1.538    3.385    0.000    0.000    0.000 
#    0.000    0.000    0.000    0.000    0.000    0.000 
#
# Total GULP energy -322151.360749 kJ/mol
# GULP energy per Si atom -12390.436952 kJ/mol
# Density = 1.869318 g / cm^3
# Si number density = 18.735825 Si / 1000 Ang^3
#
#
#
# Elastic Constant Matrix: (Units=GPa)
#
#
# Indices 1 2 3 4 5 6 
#
# 1 122.9474 44.2457 45.6601 -0.0024 -6.8983 -0.0034
# 2 44.2457 77.4913 41.1367 -0.0001 -13.0019 0.0003
# 3 45.6601 41.1367 117.2052 0.0067 -8.0001 0.0032
# 4 -0.0024 -0.0001 0.0067 23.0053 0.0020 -3.5597
# 5 -6.8983 -13.0019 -8.0001 0.0020 23.1449 -0.0005
# 6 -0.0034 0.0003 0.0032 -3.5597 -0.0005 23.1018
#
#
#
# Elastic Compliance Matrix: (Units=1/GPa)
#
#
# Indices 1 2 3 4 5 6 
#
# 1 0.010811 -0.004904 -0.002518 0.000002 -0.000403 0.000002
# 2 -0.004904 0.019331 -0.004335 0.000000 0.007900 0.000000
# 3 -0.002518 -0.004335 0.011079 -0.000004 0.000643 -0.000002
# 4 0.000002 0.000000 -0.000004 0.044530 -0.000004 0.006861
# 5 -0.000403 0.007900 0.000643 -0.000004 0.047746 0.000000
# 6 0.000002 0.000000 -0.000002 0.006861 0.000000 0.044344
#
#
# Mechanical properties :
#
#
# Convention : Reuss Voigt Hill
#
# Bulk Modulus (GPa) = 56.47593 64.41434 60.44513
# Shear Modulus (GPa) = 24.12462 26.29048 25.20755
#
# Velocity S-wave (km/s) = 3.59223 3.75002 3.67198
# Velocity P-wave (km/s) = 6.88580 7.29419 7.09293
#
# Compressibility (1/GPa) = 0.01770666
#
# Stress axis : x y z
#
# Youngs Moduli (GPa) = 92.50019 51.72920 90.26427
#
# Poissons Ratio (x) = 0.25366 0.22729
# Poissons Ratio (y) = 0.45358 0.39134
# Poissons Ratio (z) = 0.23292 0.22427
#
# Static dielectric constant tensor:
#      x y z
#    x 3.140420 0.000000 -0.052620 
#    y 0.000000 3.328990 0.000000 
#    z -0.052620 0.000000 3.506570 
# 
# 
# High freq. dielectric constant tensor:
#      x y z
#    x 1.698440 0.000000 -0.002920 
#    y 0.000000 1.717970 0.000000 
#    z -0.002920 0.000000 1.740710 
# 
# From -- ./inp_files/234499.got.cif
#   From: 2010.06.25/outbox.cif.g09.slc.cpg/sg15_118_cif.got.tgz:234499.got - 2010.06.28 07:06:18.
