data_PCOD8133503
_publ_section_title
;
Structure prediction by ZEFSAII (Michael W. Deem and Ramdas Pophale) SiO2 
 PCOD8133503
Probable space group: C 2/C
;
_chemical_formula_sum "Si O2"
_cell_formula_units_Z 40
_cell_length_a 22.102041
_cell_length_b 6.297424
_cell_length_c 18.735410
_cell_angle_alpha 90.000000
_cell_angle_beta 59.317175
_cell_angle_gamma 90.000000
_cell_volume 2242.640346
_symmetry_space_group_name_H-M "C 2/C"
_symmetry_group_IT_number 15
_symmetry_cell_setting 'monoclinic'
loop_
_space_group_symop_operation_xyz
x,y,z
-x,y,1/2-z
-x,-y,-z
x,-y,1/2+z
1/2+x,1/2+y,z
1/2-x,1/2+y,1/2-z
1/2-x,1/2-y,-z
1/2+x,1/2-y,1/2+z
loop_
_atom_site_type_symbol
_atom_site_label
_atom_site_fract_x
_atom_site_fract_y
_atom_site_fract_z
Si Si1 0.826657 0.774495 0.354158
Si Si2 0.824956 0.861125 0.961886
Si Si3 0.582397 0.107311 0.702184
Si Si4 0.790268 0.031747 0.628076
Si Si5 0.823735 0.845780 0.750816
O O1 0.899784 0.642720 0.310986
O O2 0.764097 0.606150 0.385572
O O3 0.820644 0.904645 0.430717
O O4 0.824112 0.927144 0.287962
O O5 0.884118 0.724762 0.886357
O O6 0.750000 0.750000 0.000000
O O7 0.843881 0.879596 0.035160
O O8 0.500000 0.142924 0.750000
O O9 0.611842 0.205225 0.758753
O O10 0.750082 0.226145 0.690692
O O11 0.831346 0.889370 0.661550
#
# Coordination Sequence:
#
# PCOD8133503 Si02
#       5
#     8   8   8   8   8
#     4  10  19  33  57  82 114 148 184 233 287 330
#     4  11  20  34  59  91 112 143 195 244 281 332
#     4  10  23  40  55  80 118 159 194 227 280 350
#     4  11  19  32  55  92 115 141 184 243 289 333
#     4  10  20  33  58  85 118 146 186 235 292 336
#
# _framework density 17.836119
#
# number of rings (size 3 to 8) (size 9 to 14) (size 15 to 20)
#    0.000    1.600    8.000    0.600    0.000    3.200 
#    0.000    1.000    0.000    2.400    0.000    0.000 
#    0.000    0.000    0.000    0.000    0.000    0.000 
#
# Total GULP energy -247939.571672 kJ/mol
# GULP energy per Si atom -12396.978584 kJ/mol
# Density = 1.779552 g / cm^3
# Si number density = 17.836119 Si / 1000 Ang^3
#
#
#
# Elastic Constant Matrix: (Units=GPa)
#
#
# Indices 1 2 3 4 5 6 
#
# 1 88.8060 34.2375 65.9915 -0.0011 -0.3499 0.0009
# 2 34.2375 107.2149 48.3689 0.0009 1.7411 -0.0029
# 3 65.9915 48.3689 126.8703 -0.0004 17.9709 0.0039
# 4 -0.0011 0.0009 -0.0004 24.3315 0.0017 1.7993
# 5 -0.3499 1.7411 17.9709 0.0017 35.7176 -0.0012
# 6 0.0009 -0.0029 0.0039 1.7993 -0.0012 17.2154
#
#
#
# Elastic Compliance Matrix: (Units=1/GPa)
#
#
# Indices 1 2 3 4 5 6 
#
# 1 0.019611 -0.001690 -0.010331 0.000000 0.005473 0.000001
# 2 -0.001690 0.011511 -0.003690 -0.000001 0.001279 0.000003
# 3 -0.010331 -0.003690 0.015776 0.000001 -0.007859 -0.000004
# 4 0.000000 -0.000001 0.000001 0.041419 -0.000002 -0.004329
# 5 0.005473 0.001279 -0.007859 -0.000002 0.031943 0.000004
# 6 0.000001 0.000003 -0.000004 -0.004329 0.000004 0.058540
#
#
# Mechanical properties :
#
#
# Convention : Reuss Voigt Hill
#
# Bulk Modulus (GPa) = 64.62629 68.89858 66.76244
# Shear Modulus (GPa) = 23.21454 27.07246 25.14350
#
# Velocity S-wave (km/s) = 3.61161 3.90018 3.75866
# Velocity P-wave (km/s) = 7.32828 7.68078 7.50660
#
# Compressibility (1/GPa) = 0.01547358
#
# Stress axis : x y z
#
# Youngs Moduli (GPa) = 50.99184 86.87333 63.38719
#
# Poissons Ratio (x) = 0.14686 0.65487
# Poissons Ratio (y) = 0.08620 0.23393
# Poissons Ratio (z) = 0.52681 0.32060
#
# Static dielectric constant tensor:
#      x y z
#    x 3.001710 0.000000 0.226290 
#    y 0.000000 3.603750 0.000000 
#    z 0.226290 0.000000 3.411400 
# 
# 
# High freq. dielectric constant tensor:
#      x y z
#    x 1.649400 0.000000 0.025340 
#    y 0.000000 1.711120 0.000000 
#    z 0.025340 0.000000 1.683850 
# 
# From -- ./inp_files/217333.got.cif
#   From: 2010.06.25/outbox.cif.g09.slc.cpg/sg15_109_cif.got.tgz:217333.got - 2010.06.28 07:06:18.
