data_PCOD8133884
_publ_section_title
;
Structure prediction by ZEFSAII (Michael W. Deem and Ramdas Pophale) SiO2 
 PCOD8133884
Probable space group: C 2/C
;
_chemical_formula_sum "Si O2"
_cell_formula_units_Z 36
_cell_length_a 14.898050
_cell_length_b 19.813066
_cell_length_c 5.327961
_cell_angle_alpha 90.000000
_cell_angle_beta 66.439476
_cell_angle_gamma 90.000000
_cell_volume 1441.584728
_symmetry_space_group_name_H-M "C 2/C"
_symmetry_group_IT_number 15
_symmetry_cell_setting 'monoclinic'
loop_
_space_group_symop_operation_xyz
x,y,z
-x,y,1/2-z
-x,-y,-z
x,-y,1/2+z
1/2+x,1/2+y,z
1/2-x,1/2+y,1/2-z
1/2-x,1/2-y,-z
1/2+x,1/2-y,1/2+z
loop_
_atom_site_type_symbol
_atom_site_label
_atom_site_fract_x
_atom_site_fract_y
_atom_site_fract_z
Si Si1 0.325625 0.820806 0.670660
Si Si2 0.115972 0.966709 0.486405
Si Si3 0.377463 0.243341 0.608923
Si Si4 0.330842 0.022610 0.219294
Si Si5 0.500000 0.343476 0.750000
O O1 0.378981 0.808165 0.345023
O O2 0.224666 0.781800 0.790757
O O3 0.304108 0.899465 0.730304
O O4 0.394274 0.795894 0.826670
O O5 0.089110 0.887402 0.532995
O O6 0.069414 0.000331 0.789000
O O7 0.232681 0.976475 0.354245
O O8 0.462275 0.298084 0.561052
O O9 0.390118 0.004811 0.409164
#
# Coordination Sequence:
#
# PCOD8133884 Si02
#       5
#     8   8   8   8   4
#     4  10  21  40  56  84 119 162 209 238 293 357
#     4  10  22  35  54  85 125 161 188 236 296 362
#     4  10  23  37  59  81 120 167 201 247 285 360
#     4  10  19  34  59  86 114 150 196 251 294 345
#     4  12  24  40  60  94 128 160 200 242 314 366
#
# _framework density 24.972519999999999
#
# number of rings (size 3 to 8) (size 9 to 14) (size 15 to 20)
#    0.000    1.778    0.000    4.667    0.000   13.333 
#    0.000    0.000    0.000    0.000    0.000   15.556 
#    0.000    0.000    0.000    0.000    0.000    0.000 
#
# Total GULP energy -223148.984629 kJ/mol
# GULP energy per Si atom -12397.165813 kJ/mol
# Density = 2.491568 g / cm^3
# Si number density = 24.972520 Si / 1000 Ang^3
#
#
#
# Elastic Constant Matrix: (Units=GPa)
#
#
# Indices 1 2 3 4 5 6 
#
# 1 54.0026 33.4164 27.2681 0.0000 23.8633 0.0000
# 2 33.4164 132.2801 50.1613 0.0000 18.6405 0.0000
# 3 27.2681 50.1613 171.3378 0.0000 70.4771 0.0000
# 4 0.0000 0.0000 0.0000 30.5574 0.0000 0.8722
# 5 23.8633 18.6405 70.4771 0.0000 42.0367 0.0000
# 6 0.0000 0.0000 0.0000 0.8722 0.0000 41.6698
#
#
#
# Elastic Compliance Matrix: (Units=1/GPa)
#
#
# Indices 1 2 3 4 5 6 
#
# 1 0.032238 -0.007521 0.010398 0.000000 -0.032398 0.000000
# 2 -0.007521 0.010281 -0.005458 0.000000 0.008861 0.000000
# 3 0.010398 -0.005458 0.023236 0.000000 -0.042440 0.000000
# 4 0.000000 0.000000 0.000000 0.032745 0.000000 -0.000685
# 5 -0.032398 0.008861 -0.042440 0.000000 0.109404 0.000000
# 6 0.000000 0.000000 0.000000 -0.000685 0.000000 0.024013
#
#
# Mechanical properties :
#
#
# Convention : Reuss Voigt Hill
#
# Bulk Modulus (GPa) = 16.50359 64.36802 40.43580
# Shear Modulus (GPa) = 19.43437 39.30442 29.36939
#
# Velocity S-wave (km/s) = 2.79270 3.97155 3.43311
# Velocity P-wave (km/s) = 4.12577 6.84562 5.65175
#
# Compressibility (1/GPa) = 0.06059289
#
# Stress axis : x y z
#
# Youngs Moduli (GPa) = 31.01921 97.27011 43.03622
#
# Poissons Ratio (x) = 0.73161 -0.44749
# Poissons Ratio (y) = 0.23331 0.23487
# Poissons Ratio (z) = -0.32254 0.53086
#
# Static dielectric constant tensor:
#      x y z
#    x 4.407160 0.000000 0.852980 
#    y 0.000000 4.303900 0.000000 
#    z 0.852980 0.000000 5.644070 
# 
# 
# High freq. dielectric constant tensor:
#      x y z
#    x 1.982480 0.000000 0.033270 
#    y 0.000000 1.984340 0.000000 
#    z 0.033270 0.000000 2.011070 
# 
# From -- ./inp_files/9772.got.cif
#   From: 2010.06.25/outbox.cif.g09.slc.cpg/sg15_5_cif.got.tgz:9772.got - 2010.06.28 07:06:18.
