data_PCOD8133544
_publ_section_title
;
Structure prediction by ZEFSAII (Michael W. Deem and Ramdas Pophale) SiO2 
 PCOD8133544
Probable space group: C 2/C
;
_chemical_formula_sum "Si O2"
_cell_formula_units_Z 64
_cell_length_a 25.424153
_cell_length_b 20.891711
_cell_length_c 12.457427
_cell_angle_alpha 90.000000
_cell_angle_beta 30.432124
_cell_angle_gamma 90.000000
_cell_volume 3351.529999
_symmetry_space_group_name_H-M "C 2/C"
_symmetry_group_IT_number 15
_symmetry_cell_setting 'monoclinic'
loop_
_space_group_symop_operation_xyz
x,y,z
-x,y,1/2-z
-x,-y,-z
x,-y,1/2+z
1/2+x,1/2+y,z
1/2-x,1/2+y,1/2-z
1/2-x,1/2-y,-z
1/2+x,1/2-y,1/2+z
loop_
_atom_site_type_symbol
_atom_site_label
_atom_site_fract_x
_atom_site_fract_y
_atom_site_fract_z
Si Si1 0.878911 0.075122 0.747747
Si Si2 0.889470 0.721379 0.715179
Si Si3 0.427221 0.191333 0.979171
Si Si4 0.384427 0.561138 0.148974
Si Si5 0.685650 0.655164 0.050333
Si Si6 0.283586 0.622890 0.122705
Si Si7 0.315468 0.325478 0.184098
Si Si8 0.884111 0.254023 0.981513
O O1 0.865747 0.135857 0.692810
O O2 0.994770 0.070879 0.591621
O O3 0.853635 0.012267 0.723434
O O4 0.800835 0.080586 0.985832
O O5 0.874400 0.777540 0.828844
O O6 0.875985 0.754022 0.623532
O O7 0.001972 0.690207 0.537794
O O8 0.804399 0.665598 0.879260
O O9 0.500000 0.174192 0.750000
O O10 0.337918 0.138505 0.150543
O O11 0.376195 0.260236 0.057248
O O12 0.363554 0.598630 0.295452
O O13 0.315935 0.584318 0.170951
O O14 0.677925 0.634912 0.938915
O O15 0.354446 0.686058 0.982199
O O16 0.194799 0.308603 0.422192
O O17 0.000000 0.275517 0.750000
#
# Coordination Sequence:
#
# PCOD8133544 Si02
#       8
#     8   8   8   8   8   8   8   8
#     4  11  26  39  59  88 117 158 198 243 296 355
#     4  10  19  33  58  90 112 150 194 236 301 346
#     4  11  21  35  62  92 119 155 191 240 298 358
#     4  11  23  41  62  81 115 162 199 238 299 351
#     4  10  19  37  59  84 117 147 194 251 283 346
#     4  11  24  40  59  89 124 151 199 247 295 359
#     4  10  23  36  55  92 119 148 196 244 294 345
#     4  10  21  35  59  84 123 156 181 236 308 368
#
# _framework density 19.095755
#
# number of rings (size 3 to 8) (size 9 to 14) (size 15 to 20)
#    0.000    1.500    2.500    2.625    5.250    1.000 
#    0.000    0.000    0.000    5.250    0.000    0.000 
#    0.000    0.000    0.000    0.000    0.000    0.000 
#
# Total GULP energy -396872.232362 kJ/mol
# GULP energy per Si atom -12402.257261 kJ/mol
# Density = 1.905229 g / cm^3
# Si number density = 19.095755 Si / 1000 Ang^3
#
#
#
# Elastic Constant Matrix: (Units=GPa)
#
#
# Indices 1 2 3 4 5 6 
#
# 1 86.8829 31.7466 37.1029 0.0000 -8.4922 0.0000
# 2 31.7466 63.3296 40.9365 0.0000 -0.5231 0.0000
# 3 37.1029 40.9365 125.0796 0.0000 -8.5302 0.0000
# 4 0.0000 0.0000 0.0000 24.7141 0.0000 -3.8094
# 5 -8.4922 -0.5231 -8.5302 0.0000 32.0604 0.0000
# 6 0.0000 0.0000 0.0000 -3.8094 0.0000 19.1695
#
#
#
# Elastic Compliance Matrix: (Units=1/GPa)
#
#
# Indices 1 2 3 4 5 6 
#
# 1 0.014996 -0.006036 -0.002249 0.000000 0.003275 0.000000
# 2 -0.006036 0.022523 -0.005769 0.000000 -0.002767 0.000000
# 3 -0.002249 -0.005769 0.010697 0.000000 0.002156 0.000000
# 4 0.000000 0.000000 0.000000 0.041741 0.000000 0.008295
# 5 0.003275 -0.002767 0.002156 0.000000 0.032587 0.000000
# 6 0.000000 0.000000 0.000000 0.008295 0.000000 0.053815
#
#
# Mechanical properties :
#
#
# Convention : Reuss Voigt Hill
#
# Bulk Modulus (GPa) = 49.73623 54.98491 52.36057
# Shear Modulus (GPa) = 23.67736 26.22255 24.94995
#
# Velocity S-wave (km/s) = 3.52508 3.70971 3.61857
# Velocity P-wave (km/s) = 6.53227 6.87067 6.70360
#
# Compressibility (1/GPa) = 0.02010607
#
# Stress axis : x y z
#
# Youngs Moduli (GPa) = 66.68383 44.39910 93.48006
#
# Poissons Ratio (x) = 0.26801 0.21027
# Poissons Ratio (y) = 0.40253 0.53933
# Poissons Ratio (z) = 0.15000 0.25616
#
# Static dielectric constant tensor:
#      x y z
#    x 3.567440 0.000000 -0.136210 
#    y 0.000000 3.206100 0.000000 
#    z -0.136210 0.000000 3.703770 
# 
# 
# High freq. dielectric constant tensor:
#      x y z
#    x 1.754900 0.000000 -0.000540 
#    y 0.000000 1.707070 0.000000 
#    z -0.000540 0.000000 1.747800 
# 
# From -- ./inp_files/120213.got.cif
#   From: 2010.06.25/outbox.cif.g09.slc.cpg/sg15_61_cif.got.tgz:120213.got - 2010.06.28 07:06:18.
