data_PCOD8133274
_publ_section_title
;
Structure prediction by ZEFSAII (Michael W. Deem and Ramdas Pophale) SiO2 
 PCOD8133274
Probable space group: C 2/C
;
_chemical_formula_sum "Si O2"
_cell_formula_units_Z 64
_cell_length_a 19.179836
_cell_length_b 25.636173
_cell_length_c 9.327670
_cell_angle_alpha 90.000000
_cell_angle_beta 128.725721
_cell_angle_gamma 90.000000
_cell_volume 3578.072799
_symmetry_space_group_name_H-M "C 2/C"
_symmetry_group_IT_number 15
_symmetry_cell_setting 'monoclinic'
loop_
_space_group_symop_operation_xyz
x,y,z
-x,y,1/2-z
-x,-y,-z
x,-y,1/2+z
1/2+x,1/2+y,z
1/2-x,1/2+y,1/2-z
1/2-x,1/2-y,-z
1/2+x,1/2-y,1/2+z
loop_
_atom_site_type_symbol
_atom_site_label
_atom_site_fract_x
_atom_site_fract_y
_atom_site_fract_z
Si Si1 0.127796 0.202058 0.790921
Si Si2 0.357640 0.450013 0.028326
Si Si3 0.525292 0.371411 0.505565
Si Si4 0.801224 0.181249 0.160442
Si Si5 0.581176 0.462556 0.078363
Si Si6 0.601296 0.183423 0.373563
Si Si7 0.235096 0.363651 0.845015
Si Si8 0.231931 0.294560 0.277141
O O1 0.109205 0.256394 0.843159
O O2 0.184165 0.214598 0.720462
O O3 0.032886 0.174650 0.640203
O O4 0.183724 0.167321 0.973389
O O5 0.433700 0.411334 0.060557
O O6 0.358975 0.508839 0.965421
O O7 0.260225 0.424870 0.874932
O O8 0.363975 0.454364 0.206476
O O9 0.602158 0.345791 0.700233
O O10 0.458206 0.406008 0.519954
O O11 0.728560 0.155637 0.173126
O O12 0.809279 0.241985 0.209906
O O13 0.767100 0.171014 0.955253
O O14 0.500000 0.500000 0.000000
O O15 0.500000 0.164987 0.250000
O O16 0.642669 0.146002 0.305764
O O17 0.653033 0.175135 0.591042
#
# Coordination Sequence:
#
# PCOD8133274 Si02
#       8
#     8   8   8   8   8   8   8   8
#     4  11  19  32  54  75 105 144 196 211 253 310
#     4  10  21  35  53  75 111 145 174 222 261 319
#     4  10  20  31  52  77 107 153 177 213 259 314
#     4  10  19  33  49  69 111 143 178 218 270 310
#     4  10  19  34  49  77 107 139 181 214 259 311
#     4  11  21  34  55  78  99 139 192 232 257 315
#     4  10  19  36  53  74 103 148 178 220 270 315
#     4  10  20  34  46  73 108 142 182 229 256 307
#
# _framework density 17.886723
#
# number of rings (size 3 to 8) (size 9 to 14) (size 15 to 20)
#    0.000    1.750    3.750    3.000    3.500    0.500 
#   11.250    0.625    0.000    0.000    0.000    0.875 
#    0.000    0.000    0.000    0.375    0.000    0.000 
#
# Total GULP energy -396614.146790 kJ/mol
# GULP energy per Si atom -12394.192087 kJ/mol
# Density = 1.784601 g / cm^3
# Si number density = 17.886723 Si / 1000 Ang^3
#
#
#
# Elastic Constant Matrix: (Units=GPa)
#
#
# Indices 1 2 3 4 5 6 
#
# 1 84.6036 32.7528 49.4184 0.0000 6.8340 0.0000
# 2 32.7528 66.1749 26.9925 0.0000 0.0975 0.0000
# 3 49.4184 26.9925 110.7011 0.0000 -4.3366 0.0000
# 4 0.0000 0.0000 0.0000 24.2703 0.0000 1.9610
# 5 6.8340 0.0975 -4.3366 0.0000 22.5906 0.0000
# 6 0.0000 0.0000 0.0000 1.9610 0.0000 19.5985
#
#
#
# Elastic Compliance Matrix: (Units=1/GPa)
#
#
# Indices 1 2 3 4 5 6 
#
# 1 0.019148 -0.006514 -0.007240 0.000000 -0.007154 0.000000
# 2 -0.006514 0.019013 -0.001667 0.000000 0.001568 0.000000
# 3 -0.007240 -0.001667 0.012855 0.000000 0.004665 0.000000
# 4 0.000000 0.000000 0.000000 0.041538 0.000000 -0.004156
# 5 -0.007154 0.001568 0.004665 0.000000 0.047319 0.000000
# 6 0.000000 0.000000 0.000000 -0.004156 0.000000 0.051440
#
#
# Mechanical properties :
#
#
# Convention : Reuss Voigt Hill
#
# Bulk Modulus (GPa) = 49.56658 53.31190 51.43924
# Shear Modulus (GPa) = 21.84553 23.44628 22.64591
#
# Velocity S-wave (km/s) = 3.49854 3.62445 3.56205
# Velocity P-wave (km/s) = 6.64012 6.88372 6.76302
#
# Compressibility (1/GPa) = 0.02017489
#
# Stress axis : x y z
#
# Youngs Moduli (GPa) = 52.22353 52.59582 77.79330
#
# Poissons Ratio (x) = 0.34259 0.56323
# Poissons Ratio (y) = 0.34017 0.12966
# Poissons Ratio (z) = 0.37811 0.08766
#
# Static dielectric constant tensor:
#      x y z
#    x 3.349850 0.000000 -0.126870 
#    y 0.000000 3.626410 0.000000 
#    z -0.126870 0.000000 3.359410 
# 
# 
# High freq. dielectric constant tensor:
#      x y z
#    x 1.672170 0.000000 -0.016630 
#    y 0.000000 1.675720 0.000000 
#    z -0.016630 0.000000 1.683910 
# 
# From -- ./inp_files/59048.got.cif
#   From: 2010.06.25/outbox.cif.g09.slc.cpg/sg15_30_cif.got.tgz:59048.got - 2010.06.28 07:06:18.
