data_PCOD8133432
_publ_section_title
;
Structure prediction by ZEFSAII (Michael W. Deem and Ramdas Pophale) SiO2 
 PCOD8133432
Probable space group: C 2/C
;
_chemical_formula_sum "Si O2"
_cell_formula_units_Z 48
_cell_length_a 21.808902
_cell_length_b 14.376911
_cell_length_c 14.938538
_cell_angle_alpha 90.000000
_cell_angle_beta 149.668810
_cell_angle_gamma 90.000000
_cell_volume 2365.357319
_symmetry_space_group_name_H-M "C 2/C"
_symmetry_group_IT_number 15
_symmetry_cell_setting 'monoclinic'
loop_
_space_group_symop_operation_xyz
x,y,z
-x,y,1/2-z
-x,-y,-z
x,-y,1/2+z
1/2+x,1/2+y,z
1/2-x,1/2+y,1/2-z
1/2-x,1/2-y,-z
1/2+x,1/2-y,1/2+z
loop_
_atom_site_type_symbol
_atom_site_label
_atom_site_fract_x
_atom_site_fract_y
_atom_site_fract_z
Si Si1 0.063189 0.809955 0.237813
Si Si2 0.331998 0.255203 0.871217
Si Si3 0.632142 0.937233 0.408798
Si Si4 0.317601 0.141313 0.029128
Si Si5 0.349457 0.915128 0.869686
Si Si6 0.360812 0.099286 0.774941
O O1 0.172846 0.880149 0.353672
O O2 0.129885 0.709353 0.328378
O O3 0.000000 0.841788 0.250000
O O4 0.961710 0.809745 0.031135
O O5 0.349986 0.182339 0.973701
O O6 0.222186 0.324939 0.756863
O O7 0.310157 0.194297 0.754825
O O8 0.500000 0.890278 0.250000
O O9 0.699591 0.922143 0.588710
O O10 0.694395 0.898498 0.396028
O O11 0.612259 0.046381 0.367422
O O12 0.313573 0.007981 0.769197
O O13 0.492992 0.899677 0.043428
#
# Coordination Sequence:
#
# PCOD8133432 Si02
#       6
#     8   8   8   8   8   8
#     4   9  20  30  51  83 113 148 182 236 300 340
#     4  11  20  36  56  84 118 148 192 237 290 344
#     4  10  20  36  57  84 113 146 197 238 278 338
#     4  10  19  33  55  82 115 144 186 247 288 339
#     4  10  22  37  59  87 115 150 195 240 285 343
#     4  10  22  36  60  86 113 154 193 238 288 342
#
# _framework density 20.292918
#
# number of rings (size 3 to 8) (size 9 to 14) (size 15 to 20)
#    0.000    2.000    1.667    2.500   11.667    0.667 
#    0.000    0.833    0.000    0.000    0.000    0.000 
#    0.000    0.000    0.000    0.000    0.000    0.000 
#
# Total GULP energy -297383.104211 kJ/mol
# GULP energy per Si atom -12390.962675 kJ/mol
# Density = 2.024673 g / cm^3
# Si number density = 20.292918 Si / 1000 Ang^3
#
#
#
# Elastic Constant Matrix: (Units=GPa)
#
#
# Indices 1 2 3 4 5 6 
#
# 1 88.0846 27.3936 34.8733 0.0000 -10.0311 0.0000
# 2 27.3936 63.0641 15.1654 0.0000 -2.6844 0.0000
# 3 34.8733 15.1654 49.9804 0.0000 -4.1669 0.0000
# 4 0.0000 0.0000 0.0000 21.0575 0.0000 -0.8327
# 5 -10.0311 -2.6844 -4.1669 0.0000 38.2510 0.0000
# 6 0.0000 0.0000 0.0000 -0.8327 0.0000 27.7328
#
#
#
# Elastic Compliance Matrix: (Units=1/GPa)
#
#
# Indices 1 2 3 4 5 6 
#
# 1 0.017323 -0.004907 -0.010342 0.000000 0.003072 0.000000
# 2 -0.004907 0.018511 -0.002212 0.000000 -0.000229 0.000000
# 3 -0.010342 -0.002212 0.027909 0.000000 0.000173 0.000000
# 4 0.000000 0.000000 0.000000 0.047545 0.000000 0.001428
# 5 0.003072 -0.000229 0.000173 0.000000 0.026952 0.000000
# 6 0.000000 0.000000 0.000000 0.001428 0.000000 0.036101
#
#
# Mechanical properties :
#
#
# Convention : Reuss Voigt Hill
#
# Bulk Modulus (GPa) = 34.69647 39.55483 37.12565
# Shear Modulus (GPa) = 22.84465 25.65472 24.24969
#
# Velocity S-wave (km/s) = 3.35885 3.55945 3.46060
# Velocity P-wave (km/s) = 5.67252 6.03549 5.85682
#
# Compressibility (1/GPa) = 0.02882137
#
# Stress axis : x y z
#
# Youngs Moduli (GPa) = 57.72671 54.02333 35.83032
#
# Poissons Ratio (x) = 0.26509 0.37055
# Poissons Ratio (y) = 0.28326 0.07925
# Poissons Ratio (z) = 0.59700 0.11949
#
# Static dielectric constant tensor:
#      x y z
#    x 3.906540 0.000000 -0.123430 
#    y 0.000000 3.372600 0.000000 
#    z -0.123430 0.000000 3.644650 
# 
# 
# High freq. dielectric constant tensor:
#      x y z
#    x 1.797700 0.000000 -0.010030 
#    y 0.000000 1.757080 0.000000 
#    z -0.010030 0.000000 1.771300 
# 
# From -- ./inp_files/113540.got.cif
#   From: 2010.06.25/outbox.cif.g09.slc.cpg/sg15_57_cif.got.tgz:113540.got - 2010.06.28 07:06:18.
