data_PCOD8133409
_publ_section_title
;
Structure prediction by ZEFSAII (Michael W. Deem and Ramdas Pophale) SiO2 
 PCOD8133409
Probable space group: C 2/C
;
_chemical_formula_sum "Si O2"
_cell_formula_units_Z 56
_cell_length_a 15.857744
_cell_length_b 16.443428
_cell_length_c 24.318245
_cell_angle_alpha 90.000000
_cell_angle_beta 28.652993
_cell_angle_gamma 90.000000
_cell_volume 3040.590661
_symmetry_space_group_name_H-M "C 2/C"
_symmetry_group_IT_number 15
_symmetry_cell_setting 'monoclinic'
loop_
_space_group_symop_operation_xyz
x,y,z
-x,y,1/2-z
-x,-y,-z
x,-y,1/2+z
1/2+x,1/2+y,z
1/2-x,1/2+y,1/2-z
1/2-x,1/2-y,-z
1/2+x,1/2-y,1/2+z
loop_
_atom_site_type_symbol
_atom_site_label
_atom_site_fract_x
_atom_site_fract_y
_atom_site_fract_z
Si Si1 0.632028 0.064446 0.529339
Si Si2 0.159998 0.158245 0.376222
Si Si3 0.897998 0.515160 0.252690
Si Si4 0.086343 0.909738 0.392567
Si Si5 0.989715 0.059612 0.380415
Si Si6 0.321549 0.160439 0.667912
Si Si7 0.322508 0.520842 0.822788
O O1 0.513084 0.003528 0.633250
O O2 0.801446 0.091182 0.467267
O O3 0.519017 0.144172 0.577733
O O4 0.688818 0.018102 0.442156
O O5 0.199880 0.252780 0.347925
O O6 0.036293 0.144732 0.499404
O O7 0.066633 0.130258 0.373857
O O8 0.342248 0.109690 0.281363
O O9 0.721475 0.460598 0.353156
O O10 0.000000 0.494910 0.250000
O O11 0.185066 0.847191 0.296121
O O12 0.969863 0.974085 0.424383
O O13 0.124289 0.046751 0.252866
O O14 0.279942 0.095056 0.645183
O O15 0.500000 0.553655 0.750000
#
# Coordination Sequence:
#
# PCOD8133409 Si02
#       7
#     8   8   8   8   8   8   8
#     4  10  19  34  56  75  98 133 173 211 239 290
#     4  11  21  33  52  75 106 135 159 205 261 302
#     4  10  19  33  55  78  96 129 178 210 240 292
#     4   9  19  36  52  71 102 135 167 207 248 294
#     4   9  18  35  55  75  98 133 174 204 246 296
#     4  10  22  33  49  79 105 129 165 207 253 298
#     4   9  19  36  55  73 100 136 170 205 245 295
#
# _framework density 18.417473999999999
#
# number of rings (size 3 to 8) (size 9 to 14) (size 15 to 20)
#    0.000    2.286    0.000    4.714    0.000    3.429 
#    0.000    0.000    0.000    7.714    0.000    0.000 
#    0.000    0.000    0.000    0.000    0.000    0.000 
#
# Total GULP energy -347255.068660 kJ/mol
# GULP energy per Si atom -12401.966738 kJ/mol
# Density = 1.837556 g / cm^3
# Si number density = 18.417474 Si / 1000 Ang^3
#
#
#
# Elastic Constant Matrix: (Units=GPa)
#
#
# Indices 1 2 3 4 5 6 
#
# 1 69.9994 -4.1063 14.0685 0.0022 12.3916 -0.0042
# 2 -4.1063 48.2687 19.2748 0.0029 9.8746 -0.0032
# 3 14.0685 19.2748 78.2932 -0.0134 19.5254 -0.0093
# 4 0.0022 0.0029 -0.0134 19.3992 0.0025 3.8314
# 5 12.3916 9.8746 19.5254 0.0025 25.2745 0.0044
# 6 -0.0042 -0.0032 -0.0093 3.8314 0.0044 15.4418
#
#
#
# Elastic Compliance Matrix: (Units=1/GPa)
#
#
# Indices 1 2 3 4 5 6 
#
# 1 0.016302 0.003771 -0.001854 -0.000004 -0.008033 0.000007
# 2 0.003771 0.024532 -0.004788 -0.000008 -0.007734 0.000007
# 3 -0.001854 -0.004788 0.016835 0.000012 -0.010226 0.000008
# 4 -0.000004 -0.000008 0.000012 0.054205 -0.000007 -0.013449
# 5 -0.008033 -0.007734 -0.010226 -0.000007 0.054425 -0.000024
# 6 0.000007 0.000007 0.000008 -0.013449 -0.000024 0.068096
#
#
# Mechanical properties :
#
#
# Convention : Reuss Voigt Hill
#
# Bulk Modulus (GPa) = 19.25850 28.33726 23.79788
# Shear Modulus (GPa) = 19.42146 23.17806 21.29976
#
# Velocity S-wave (km/s) = 3.25085 3.55136 3.40442
# Velocity P-wave (km/s) = 4.95682 5.67765 5.32943
#
# Compressibility (1/GPa) = 0.05192513
#
# Stress axis : x y z
#
# Youngs Moduli (GPa) = 61.34312 40.76237 59.40135
#
# Poissons Ratio (x) = -0.15370 0.11014
# Poissons Ratio (y) = -0.23130 0.28443
# Poissons Ratio (z) = 0.11374 0.19518
#
# Static dielectric constant tensor:
#      x y z
#    x 3.635510 0.000010 -0.009380 
#    y 0.000010 3.003120 0.000010 
#    z -0.009380 0.000010 3.518600 
# 
# 
# High freq. dielectric constant tensor:
#      x y z
#    x 1.731130 0.000000 0.005690 
#    y 0.000000 1.677740 0.000000 
#    z 0.005690 0.000000 1.727040 
# 
# From -- ./inp_files/119210.got.cif
#   From: 2010.06.25/outbox.cif.g09.slc.cpg/sg15_60_cif.got.tgz:119210.got - 2010.06.28 07:06:18.
