data_PCOD8133045
_publ_section_title
;
Structure prediction by ZEFSAII (Michael W. Deem and Ramdas Pophale) SiO2 
 PCOD8133045
Probable space group: C 2/C
;
_chemical_formula_sum "Si O2"
_cell_formula_units_Z 52
_cell_length_a 17.796464
_cell_length_b 12.119109
_cell_length_c 20.065088
_cell_angle_alpha 90.000000
_cell_angle_beta 141.197119
_cell_angle_gamma 90.000000
_cell_volume 2711.850051
_symmetry_space_group_name_H-M "C 2/C"
_symmetry_group_IT_number 15
_symmetry_cell_setting 'monoclinic'
loop_
_space_group_symop_operation_xyz
x,y,z
-x,y,1/2-z
-x,-y,-z
x,-y,1/2+z
1/2+x,1/2+y,z
1/2-x,1/2+y,1/2-z
1/2-x,1/2-y,-z
1/2+x,1/2-y,1/2+z
loop_
_atom_site_type_symbol
_atom_site_label
_atom_site_fract_x
_atom_site_fract_y
_atom_site_fract_z
Si Si1 0.203994 0.016674 0.808227
Si Si2 0.131983 0.036064 0.112227
Si Si3 0.097253 0.650911 0.013151
Si Si4 0.721580 0.162510 0.830122
Si Si5 0.155168 0.285971 0.136582
Si Si6 0.615564 0.223753 0.888732
Si Si7 0.000000 0.078426 0.250000
O O1 0.240644 0.145203 0.828646
O O2 0.142472 0.976690 0.698374
O O3 0.325053 0.949516 0.906229
O O4 0.108042 0.999721 0.800541
O O5 0.157156 0.162390 0.109269
O O6 0.234401 0.963361 0.146922
O O7 0.000000 0.000000 0.000000
O O8 0.164135 0.766800 0.068646
O O9 0.066754 0.640798 0.912347
O O10 0.972748 0.656246 0.967465
O O11 0.673975 0.214316 0.728921
O O12 0.615306 0.171163 0.812886
O O13 0.545441 0.340914 0.840539
O O14 0.750000 0.250000 0.000000
#
# Coordination Sequence:
#
# PCOD8133045 Si02
#       7
#     8   8   8   8   8   8   4
#     4  11  24  36  58  89 114 155 195 248 291 349
#     4  11  21  35  60  83 115 156 194 237 287 353
#     4  11  19  36  58  86 121 145 191 249 297 332
#     4  10  20  34  55  91 118 145 196 239 290 345
#     4  11  22  38  56  87 122 155 195 234 293 353
#     4  10  19  31  58  89 115 146 188 250 290 334
#     4  12  20  38  60  86 124 150 200 238 300 350
#
# _framework density 19.175101000000002
#
# number of rings (size 3 to 8) (size 9 to 14) (size 15 to 20)
#    0.000    1.231    6.154    2.308    2.154    0.000 
#    0.000    0.000    0.000    8.308    0.000    0.000 
#    0.000    0.000    0.000    0.000    0.000    0.000 
#
# Total GULP energy -322322.241818 kJ/mol
# GULP energy per Si atom -12397.009301 kJ/mol
# Density = 1.913146 g / cm^3
# Si number density = 19.175101 Si / 1000 Ang^3
#
#
#
# Elastic Constant Matrix: (Units=GPa)
#
#
# Indices 1 2 3 4 5 6 
#
# 1 79.8520 49.6455 19.0520 0.0000 10.3192 0.0000
# 2 49.6455 131.5894 38.1476 0.0000 5.6309 0.0000
# 3 19.0520 38.1476 69.6364 0.0000 -6.4391 0.0000
# 4 0.0000 0.0000 0.0000 30.4633 0.0000 4.0695
# 5 10.3192 5.6309 -6.4391 0.0000 29.8265 0.0000
# 6 0.0000 0.0000 0.0000 4.0695 0.0000 27.7649
#
#
#
# Elastic Compliance Matrix: (Units=1/GPa)
#
#
# Indices 1 2 3 4 5 6 
#
# 1 0.017239 -0.005664 -0.002109 0.000000 -0.005350 0.000000
# 2 -0.005664 0.011135 -0.004657 0.000000 -0.001148 0.000000
# 3 -0.002109 -0.004657 0.017996 0.000000 0.005494 0.000000
# 4 0.000000 0.000000 0.000000 0.033482 0.000000 -0.004907
# 5 -0.005350 -0.001148 0.005494 0.000000 0.036781 0.000000
# 6 0.000000 0.000000 0.000000 -0.004907 0.000000 0.036736
#
#
# Mechanical properties :
#
#
# Convention : Reuss Voigt Hill
#
# Bulk Modulus (GPa) = 46.48438 54.97425 50.72932
# Shear Modulus (GPa) = 26.96909 29.22646 28.09778
#
# Velocity S-wave (km/s) = 3.75435 3.90832 3.83211
# Velocity P-wave (km/s) = 6.56416 7.00703 6.78921
#
# Compressibility (1/GPa) = 0.02151260
#
# Stress axis : x y z
#
# Youngs Moduli (GPa) = 58.00869 89.80524 55.56748
#
# Poissons Ratio (x) = 0.50862 0.11717
# Poissons Ratio (y) = 0.32854 0.25876
# Poissons Ratio (z) = 0.12231 0.41819
#
# Static dielectric constant tensor:
#      x y z
#    x 3.736430 0.000000 -0.161200 
#    y 0.000000 3.554000 0.000000 
#    z -0.161200 0.000000 3.922300 
# 
# 
# High freq. dielectric constant tensor:
#      x y z
#    x 1.729860 0.000000 0.011460 
#    y 0.000000 1.721660 0.000000 
#    z 0.011460 0.000000 1.771510 
# 
# From -- ./inp_files/248561.got.cif
#   From: 2010.06.25/outbox.cif.g09.slc.cpg/sg15_125_cif.got.tgz:248561.got - 2010.06.28 07:06:18.
