data_PCOD8133825
_publ_section_title
;
Structure prediction by ZEFSAII (Michael W. Deem and Ramdas Pophale) SiO2 
 PCOD8133825
Probable space group: C 2/C
;
_chemical_formula_sum "Si O2"
_cell_formula_units_Z 48
_cell_length_a 27.731803
_cell_length_b 9.010935
_cell_length_c 10.772555
_cell_angle_alpha 90.000000
_cell_angle_beta 125.955418
_cell_angle_gamma 90.000000
_cell_volume 2179.062288
_symmetry_space_group_name_H-M "C 2/C"
_symmetry_group_IT_number 15
_symmetry_cell_setting 'monoclinic'
loop_
_space_group_symop_operation_xyz
x,y,z
-x,y,1/2-z
-x,-y,-z
x,-y,1/2+z
1/2+x,1/2+y,z
1/2-x,1/2+y,1/2-z
1/2-x,1/2-y,-z
1/2+x,1/2-y,1/2+z
loop_
_atom_site_type_symbol
_atom_site_label
_atom_site_fract_x
_atom_site_fract_y
_atom_site_fract_z
Si Si1 0.113957 0.714559 0.404456
Si Si2 0.770455 0.431779 0.430298
Si Si3 0.842446 0.015024 0.104521
Si Si4 0.236368 0.765519 0.143635
Si Si5 0.535206 0.017231 0.682587
Si Si6 0.632988 0.218783 0.719764
O O1 0.167516 0.624691 0.416920
O O2 0.054731 0.648472 0.253016
O O3 0.115085 0.680061 0.552877
O O4 0.113499 0.891819 0.383804
O O5 0.717516 0.429068 0.448553
O O6 0.777399 0.591175 0.375153
O O7 0.756482 0.302931 0.311193
O O8 0.875829 0.104239 0.266240
O O9 0.822914 0.140023 0.975368
O O10 0.294769 0.806303 0.142631
O O11 0.500000 0.083451 0.750000
O O12 0.592411 0.123095 0.750395
O O13 0.500000 0.000000 0.500000
#
# Coordination Sequence:
#
# PCOD8133825 Si02
#       6
#     8   8   8   8   8   8
#     4  11  23  40  64  97 131 169 217 272 320 388
#     4  10  20  34  58  92 135 174 209 254 312 384
#     4  11  20  36  59  93 136 171 210 252 321 391
#     4  10  19  34  57  92 135 174 210 256 308 391
#     4  12  25  49  73  93 121 164 224 282 336 390
#     4  10  22  41  63  94 131 169 216 269 323 381
#
# _framework density 22.027823999999999
#
# number of rings (size 3 to 8) (size 9 to 14) (size 15 to 20)
#    0.000    1.333    1.667    7.500    0.000    2.667 
#    6.000    1.667    0.000    0.000    0.000    0.000 
#    0.000    0.000    0.000    0.000    0.000    0.000 
#
# Total GULP energy -297470.338264 kJ/mol
# GULP energy per Si atom -12394.597428 kJ/mol
# Density = 2.197769 g / cm^3
# Si number density = 22.027824 Si / 1000 Ang^3
#
#
#
# Elastic Constant Matrix: (Units=GPa)
#
#
# Indices 1 2 3 4 5 6 
#
# 1 69.4905 35.6533 28.9355 0.0000 -6.8773 0.0000
# 2 35.6533 114.5709 40.9130 0.0000 7.2756 0.0000
# 3 28.9355 40.9130 94.6440 0.0000 7.7847 0.0000
# 4 0.0000 0.0000 0.0000 35.6341 0.0000 -4.9096
# 5 -6.8773 7.2756 7.7847 0.0000 22.6676 0.0000
# 6 0.0000 0.0000 0.0000 -4.9096 0.0000 31.9234
#
#
#
# Elastic Compliance Matrix: (Units=1/GPa)
#
#
# Indices 1 2 3 4 5 6 
#
# 1 0.019855 -0.005117 -0.004619 0.000000 0.009253 0.000000
# 2 -0.005117 0.011715 -0.003152 0.000000 -0.004230 0.000000
# 3 -0.004619 -0.003152 0.013761 0.000000 -0.005116 0.000000
# 4 0.000000 0.000000 0.000000 0.028670 0.000000 0.004409
# 5 0.009253 -0.004230 -0.005116 0.000000 0.050038 0.000000
# 6 0.000000 0.000000 0.000000 0.004409 0.000000 0.032003
#
#
# Mechanical properties :
#
#
# Convention : Reuss Voigt Hill
#
# Bulk Modulus (GPa) = 51.13725 54.41210 52.77468
# Shear Modulus (GPa) = 26.54825 29.59194 28.07010
#
# Velocity S-wave (km/s) = 3.47539 3.66920 3.57361
# Velocity P-wave (km/s) = 6.27452 6.53497 6.40607
#
# Compressibility (1/GPa) = 0.01955522
#
# Stress axis : x y z
#
# Youngs Moduli (GPa) = 50.36554 85.36387 72.66659
#
# Poissons Ratio (x) = 0.43677 0.33568
# Poissons Ratio (y) = 0.25770 0.22903
# Poissons Ratio (z) = 0.23266 0.26905
#
# Static dielectric constant tensor:
#      x y z
#    x 3.939190 0.000000 -0.010440 
#    y 0.000000 4.069290 0.000000 
#    z -0.010440 0.000000 3.874110 
# 
# 
# High freq. dielectric constant tensor:
#      x y z
#    x 1.840440 0.000000 -0.011630 
#    y 0.000000 1.874290 0.000000 
#    z -0.011630 0.000000 1.862100 
# 
# From -- ./inp_files/121616.got.cif
#   From: 2010.06.25/outbox.cif.g09.slc.cpg/sg15_61_cif.got.tgz:121616.got - 2010.06.28 07:06:18.
