data_PCOD8133658
_publ_section_title
;
Structure prediction by ZEFSAII (Michael W. Deem and Ramdas Pophale) SiO2 
 PCOD8133658
Probable space group: C 2/C
;
_chemical_formula_sum "Si O2"
_cell_formula_units_Z 52
_cell_length_a 21.560030
_cell_length_b 11.663642
_cell_length_c 12.257701
_cell_angle_alpha 90.000000
_cell_angle_beta 125.823542
_cell_angle_gamma 90.000000
_cell_volume 2499.302589
_symmetry_space_group_name_H-M "C 2/C"
_symmetry_group_IT_number 15
_symmetry_cell_setting 'monoclinic'
loop_
_space_group_symop_operation_xyz
x,y,z
-x,y,1/2-z
-x,-y,-z
x,-y,1/2+z
1/2+x,1/2+y,z
1/2-x,1/2+y,1/2-z
1/2-x,1/2-y,-z
1/2+x,1/2-y,1/2+z
loop_
_atom_site_type_symbol
_atom_site_label
_atom_site_fract_x
_atom_site_fract_y
_atom_site_fract_z
Si Si1 0.619653 0.464784 0.102462
Si Si2 0.911889 0.596960 0.348243
Si Si3 0.000000 0.718981 0.250000
Si Si4 0.711415 0.717931 0.809407
Si Si5 0.648873 0.664737 0.975763
Si Si6 0.472680 0.384214 0.840616
Si Si7 0.975477 0.375092 0.344547
O O1 0.688082 0.375392 0.195291
O O2 0.648754 0.541404 0.032638
O O3 0.597621 0.539231 0.187201
O O4 0.544580 0.391349 0.996072
O O5 0.966323 0.642791 0.309870
O O6 0.830317 0.659402 0.254029
O O7 0.909099 0.459328 0.323913
O O8 0.948126 0.619991 0.503371
O O9 0.061676 0.797703 0.374515
O O10 0.802010 0.744666 0.900257
O O11 0.689256 0.658407 0.900599
O O12 0.500000 0.427679 0.750000
O O13 0.442456 0.253812 0.806554
O O14 0.000000 0.415419 0.250000
#
# Coordination Sequence:
#
# PCOD8133658 Si02
#       7
#     8   8   4   8   8   8   8
#     4  11  21  38  62  92 121 169 200 258 313 367
#     4  10  19  36  59  85 120 161 203 256 302 371
#     4  10  20  38  66  92 110 160 222 246 302 378
#     4  10  22  43  58  91 126 161 208 257 315 366
#     4  10  23  39  64  90 122 164 208 261 304 376
#     4  10  21  34  60  94 123 155 209 261 303 360
#     4  10  19  34  53  90 122 157 204 252 305 361
#
# _framework density 20.805803999999998
#
# number of rings (size 3 to 8) (size 9 to 14) (size 15 to 20)
#    0.000    1.846    2.308    1.846    7.538    0.000 
#    8.308    0.000    0.000    1.846    0.000    0.000 
#    0.000    0.000    0.000    0.000    0.000    0.000 
#
# Total GULP energy -322347.800758 kJ/mol
# GULP energy per Si atom -12397.992337 kJ/mol
# Density = 2.075845 g / cm^3
# Si number density = 20.805804 Si / 1000 Ang^3
#
#
#
# Elastic Constant Matrix: (Units=GPa)
#
#
# Indices 1 2 3 4 5 6 
#
# 1 39.5560 28.4473 30.1069 0.0000 15.6000 0.0000
# 2 28.4473 116.6745 43.4433 0.0000 11.4692 0.0000
# 3 30.1069 43.4433 110.3886 0.0000 9.3561 0.0000
# 4 0.0000 0.0000 0.0000 25.5854 0.0000 -4.6619
# 5 15.6000 11.4692 9.3561 0.0000 38.2975 0.0000
# 6 0.0000 0.0000 0.0000 -4.6619 0.0000 19.2716
#
#
#
# Elastic Compliance Matrix: (Units=1/GPa)
#
#
# Indices 1 2 3 4 5 6 
#
# 1 0.040264 -0.005709 -0.007648 0.000000 -0.012823 0.000000
# 2 -0.005709 0.011018 -0.002753 0.000000 -0.000301 0.000000
# 3 -0.007648 -0.002753 0.012146 0.000000 0.000973 0.000000
# 4 0.000000 0.000000 0.000000 0.040887 0.000000 0.009891
# 5 -0.012823 -0.000301 0.000973 0.000000 0.031187 0.000000
# 6 0.000000 0.000000 0.000000 0.009891 0.000000 0.054282
#
#
# Mechanical properties :
#
#
# Convention : Reuss Voigt Hill
#
# Bulk Modulus (GPa) = 32.04370 52.29046 42.16708
# Shear Modulus (GPa) = 21.51390 27.60568 24.55979
#
# Velocity S-wave (km/s) = 3.21913 3.64651 3.43947
# Velocity P-wave (km/s) = 5.40849 6.55108 6.00701
#
# Compressibility (1/GPa) = 0.03120738
#
# Stress axis : x y z
#
# Youngs Moduli (GPa) = 24.83581 90.76344 82.33209
#
# Poissons Ratio (x) = 0.51817 0.62967
# Poissons Ratio (y) = 0.14179 0.22669
# Poissons Ratio (z) = 0.18994 0.24991
#
# Static dielectric constant tensor:
#      x y z
#    x 3.450810 0.000000 -0.018280 
#    y 0.000000 3.927220 0.000000 
#    z -0.018280 0.000000 3.991360 
# 
# 
# High freq. dielectric constant tensor:
#      x y z
#    x 1.776430 0.000000 -0.014470 
#    y 0.000000 1.824920 0.000000 
#    z -0.014470 0.000000 1.822550 
# 
# From -- ./inp_files/111733.got.cif
#   From: 2010.06.25/outbox.cif.g09.slc.cpg/sg15_56_cif.got.tgz:111733.got - 2010.06.28 07:06:18.
