data_PCOD8133483
_publ_section_title
;
Structure prediction by ZEFSAII (Michael W. Deem and Ramdas Pophale) SiO2 
 PCOD8133483
Probable space group: C 2/C
;
_chemical_formula_sum "Si O2"
_cell_formula_units_Z 56
_cell_length_a 13.234209
_cell_length_b 24.986846
_cell_length_c 11.876390
_cell_angle_alpha 90.000000
_cell_angle_beta 132.804260
_cell_angle_gamma 90.000000
_cell_volume 2881.377580
_symmetry_space_group_name_H-M "C 2/C"
_symmetry_group_IT_number 15
_symmetry_cell_setting 'monoclinic'
loop_
_space_group_symop_operation_xyz
x,y,z
-x,y,1/2-z
-x,-y,-z
x,-y,1/2+z
1/2+x,1/2+y,z
1/2-x,1/2+y,1/2-z
1/2-x,1/2-y,-z
1/2+x,1/2-y,1/2+z
loop_
_atom_site_type_symbol
_atom_site_label
_atom_site_fract_x
_atom_site_fract_y
_atom_site_fract_z
Si Si1 0.347737 0.480868 0.121817
Si Si2 0.452922 0.789037 0.341398
Si Si3 0.773481 0.092818 0.981737
Si Si4 0.835206 0.459233 0.309348
Si Si5 0.423186 0.110520 0.464827
Si Si6 0.323338 0.709757 0.970106
Si Si7 0.861267 0.435332 0.702651
O O1 0.500000 0.456981 0.250000
O O2 0.364618 0.540914 0.082763
O O3 0.277283 0.483180 0.190662
O O4 0.266849 0.439246 0.980170
O O5 0.500000 0.804877 0.250000
O O6 0.510295 0.831347 0.474698
O O7 0.522776 0.732939 0.435195
O O8 0.284746 0.789217 0.217522
O O9 0.723440 0.087738 0.815075
O O10 0.648327 0.094086 0.973811
O O11 0.849073 0.150606 0.042314
O O12 0.889619 0.505146 0.268770
O O13 0.961150 0.434351 0.473913
O O14 0.325659 0.105428 0.279863
O O15 0.250000 0.750000 0.000000
O O16 0.000000 0.413574 0.750000
#
# Coordination Sequence:
#
# PCOD8133483 Si02
#       7
#     8   8   8   8   8   8   8
#     4  11  25  41  55  81 123 164 197 243 292 359
#     4  10  19  33  56  84 122 153 188 237 296 356
#     4  11  21  35  57  88 119 161 195 233 302 353
#     4  11  20  35  59  81 118 156 200 242 284 345
#     4  12  18  35  59  87 114 154 200 246 285 343
#     4  10  19  34  53  84 123 151 191 239 292 359
#     4  11  22  35  58  87 112 154 204 244 284 348
#
# _framework density 19.435148000000002
#
# number of rings (size 3 to 8) (size 9 to 14) (size 15 to 20)
#    0.000    1.143    7.143    2.571    0.000    4.000 
#    0.000    0.000    0.000    0.000    0.000    5.000 
#    0.000    0.000    0.000    0.000    0.000    0.000 
#
# Total GULP energy -346969.504467 kJ/mol
# GULP energy per Si atom -12391.768017 kJ/mol
# Density = 1.939091 g / cm^3
# Si number density = 19.435148 Si / 1000 Ang^3
#
#
#
# Elastic Constant Matrix: (Units=GPa)
#
#
# Indices 1 2 3 4 5 6 
#
# 1 47.3113 9.3020 39.2972 0.0000 2.7431 0.0000
# 2 9.3020 71.4322 40.9394 0.0000 -2.9794 0.0000
# 3 39.2972 40.9394 121.4989 0.0000 3.2563 0.0000
# 4 0.0000 0.0000 0.0000 30.0549 0.0000 -2.0092
# 5 2.7431 -2.9794 3.2563 0.0000 29.8163 0.0000
# 6 0.0000 0.0000 0.0000 -2.0092 0.0000 12.1771
#
#
#
# Elastic Compliance Matrix: (Units=1/GPa)
#
#
# Indices 1 2 3 4 5 6 
#
# 1 0.029185 0.001896 -0.010041 0.000000 -0.001399 0.000000
# 2 0.001896 0.017643 -0.006620 0.000000 0.002312 0.000000
# 3 -0.010041 -0.006620 0.013742 0.000000 -0.001239 0.000000
# 4 0.000000 0.000000 0.000000 0.033643 0.000000 0.005551
# 5 -0.001399 0.002312 -0.001239 0.000000 0.034034 0.000000
# 6 0.000000 0.000000 0.000000 0.005551 0.000000 0.083037
#
#
# Mechanical properties :
#
#
# Convention : Reuss Voigt Hill
#
# Bulk Modulus (GPa) = 32.21677 46.59108 39.40393
# Shear Modulus (GPa) = 19.90763 24.45661 22.18212
#
# Velocity S-wave (km/s) = 3.20396 3.55120 3.38204
# Velocity P-wave (km/s) = 5.50451 6.39057 5.96402
#
# Compressibility (1/GPa) = 0.03103973
#
# Stress axis : x y z
#
# Youngs Moduli (GPa) = 34.26432 56.68023 72.77046
#
# Poissons Ratio (x) = -0.10745 0.73067
# Poissons Ratio (y) = -0.06495 0.48173
# Poissons Ratio (z) = 0.34404 0.37522
#
# Static dielectric constant tensor:
#      x y z
#    x 3.187130 0.000000 0.105180 
#    y 0.000000 3.576230 0.000000 
#    z 0.105180 0.000000 4.053600 
# 
# 
# High freq. dielectric constant tensor:
#      x y z
#    x 1.708850 0.000000 0.001810 
#    y 0.000000 1.743830 0.000000 
#    z 0.001810 0.000000 1.764240 
# 
# From -- ./inp_files/92110.got.cif
#   From: 2010.06.25/outbox.cif.g09.slc.cpg/sg15_47_cif.got.tgz:92110.got - 2010.06.28 07:06:18.
