data_PCOD8133841
_publ_section_title
;
Structure prediction by ZEFSAII (Michael W. Deem and Ramdas Pophale) SiO2 
 PCOD8133841
Probable space group: C 2/C
;
_chemical_formula_sum "Si O2"
_cell_formula_units_Z 40
_cell_length_a 14.030223
_cell_length_b 12.179275
_cell_length_c 12.694424
_cell_angle_alpha 90.000000
_cell_angle_beta 53.466771
_cell_angle_gamma 90.000000
_cell_volume 1742.975349
_symmetry_space_group_name_H-M "C 2/C"
_symmetry_group_IT_number 15
_symmetry_cell_setting 'monoclinic'
loop_
_space_group_symop_operation_xyz
x,y,z
-x,y,1/2-z
-x,-y,-z
x,-y,1/2+z
1/2+x,1/2+y,z
1/2-x,1/2+y,1/2-z
1/2-x,1/2-y,-z
1/2+x,1/2-y,1/2+z
loop_
_atom_site_type_symbol
_atom_site_label
_atom_site_fract_x
_atom_site_fract_y
_atom_site_fract_z
Si Si1 0.171874 0.046291 0.688594
Si Si2 0.410983 0.094550 0.647182
Si Si3 0.829510 0.181076 0.224505
Si Si4 0.053054 0.851542 0.073765
Si Si5 0.567948 0.860269 0.857596
O O1 0.301528 0.082914 0.637938
O O2 0.149968 0.094810 0.586829
O O3 0.071383 0.084944 0.836648
O O4 0.163186 0.912905 0.691518
O O5 0.381765 0.203329 0.736246
O O6 0.531495 0.113458 0.502689
O O7 0.424019 0.980696 0.705857
O O8 0.694790 0.199324 0.274673
O O9 0.904596 0.143771 0.073392
O O10 0.028380 0.724341 0.127382
#
# Coordination Sequence:
#
# PCOD8133841 Si02
#       5
#     8   8   8   8   8
#     4  10  20  35  54  85 115 146 190 239 275 343
#     4   9  18  34  55  84 115 151 187 231 294 336
#     4  10  19  34  58  83 115 151 188 233 291 339
#     4  10  20  35  56  86 113 146 193 234 284 336
#     4   9  18  33  54  83 117 147 186 237 281 345
#
# _framework density 22.949262000000001
#
# number of rings (size 3 to 8) (size 9 to 14) (size 15 to 20)
#    0.000    2.400    2.000    0.600    0.000    3.200 
#    0.000    0.000    0.000    9.600   15.600    0.000 
#    0.000    0.000    0.000    0.000    0.000    0.000 
#
# Total GULP energy -247761.366699 kJ/mol
# GULP energy per Si atom -12388.068335 kJ/mol
# Density = 2.289703 g / cm^3
# Si number density = 22.949262 Si / 1000 Ang^3
#
#
#
# Elastic Constant Matrix: (Units=GPa)
#
#
# Indices 1 2 3 4 5 6 
#
# 1 49.8641 27.4845 7.4942 0.0000 -0.2061 0.0000
# 2 27.4845 195.5236 4.1463 0.0000 9.0287 0.0000
# 3 7.4942 4.1463 43.3555 0.0000 -18.9892 0.0000
# 4 0.0000 0.0000 0.0000 29.7134 0.0000 -8.4388
# 5 -0.2061 9.0287 -18.9892 0.0000 26.7968 0.0000
# 6 0.0000 0.0000 0.0000 -8.4388 0.0000 23.5865
#
#
#
# Elastic Compliance Matrix: (Units=1/GPa)
#
#
# Indices 1 2 3 4 5 6 
#
# 1 0.022344 -0.002955 -0.004449 0.000000 -0.001985 0.000000
# 2 -0.002955 0.005688 -0.001280 0.000000 -0.002846 0.000000
# 3 -0.004449 -0.001280 0.034991 0.000000 0.025193 0.000000
# 4 0.000000 0.000000 0.000000 0.037461 0.000000 0.013403
# 5 -0.001985 -0.002846 0.025193 0.000000 0.056114 0.000000
# 6 0.000000 0.000000 0.000000 0.013403 0.000000 0.047192
#
#
# Mechanical properties :
#
#
# Convention : Reuss Voigt Hill
#
# Bulk Modulus (GPa) = 21.90350 40.77703 31.34026
# Shear Modulus (GPa) = 21.15269 32.66056 26.90662
#
# Velocity S-wave (km/s) = 3.03927 3.77658 3.42781
# Velocity P-wave (km/s) = 4.67774 6.06825 5.41779
#
# Compressibility (1/GPa) = 0.04565481
#
# Stress axis : x y z
#
# Youngs Moduli (GPa) = 44.75546 175.79635 28.57911
#
# Poissons Ratio (x) = 0.51944 0.12715
# Poissons Ratio (y) = 0.13224 0.03658
# Poissons Ratio (z) = 0.19913 0.22501
#
# Static dielectric constant tensor:
#      x y z
#    x 3.506100 0.000000 -0.496050 
#    y 0.000000 4.908840 0.000000 
#    z -0.496050 0.000000 3.939680 
# 
# 
# High freq. dielectric constant tensor:
#      x y z
#    x 1.854690 0.000000 -0.048780 
#    y 0.000000 1.941560 0.000000 
#    z -0.048780 0.000000 1.891430 
# 
# From -- ./inp_files/151671.got.cif
#   From: 2010.06.25/outbox.cif.g09.slc.cpg/sg15_76_cif.got.tgz:151671.got - 2010.06.28 07:06:18.
