data_PCOD8133229
_publ_section_title
;
Structure prediction by ZEFSAII (Michael W. Deem and Ramdas Pophale) SiO2 
 PCOD8133229
Probable space group: C 2/C
;
_chemical_formula_sum "Si O2"
_cell_formula_units_Z 60
_cell_length_a 15.443082
_cell_length_b 15.075851
_cell_length_c 25.901732
_cell_angle_alpha 90.000000
_cell_angle_beta 148.528763
_cell_angle_gamma 90.000000
_cell_volume 3148.282859
_symmetry_space_group_name_H-M "C 2/C"
_symmetry_group_IT_number 15
_symmetry_cell_setting 'monoclinic'
loop_
_space_group_symop_operation_xyz
x,y,z
-x,y,1/2-z
-x,-y,-z
x,-y,1/2+z
1/2+x,1/2+y,z
1/2-x,1/2+y,1/2-z
1/2-x,1/2-y,-z
1/2+x,1/2-y,1/2+z
loop_
_atom_site_type_symbol
_atom_site_label
_atom_site_fract_x
_atom_site_fract_y
_atom_site_fract_z
Si Si1 0.246858 0.943062 0.966739
Si Si2 0.084711 0.109715 0.238911
Si Si3 0.000000 0.590665 0.750000
Si Si4 0.187056 0.529375 0.600389
Si Si5 0.509488 0.642917 0.506567
Si Si6 0.295036 0.495473 0.943734
Si Si7 0.189015 0.298214 0.270816
Si Si8 0.442612 0.181293 0.906972
O O1 0.064046 0.898746 0.878499
O O2 0.229503 0.018051 0.913286
O O3 0.386740 0.870217 0.022203
O O4 0.279652 0.995103 0.036482
O O5 0.197257 0.193631 0.283877
O O6 0.000000 0.127080 0.250000
O O7 0.210069 0.026358 0.304488
O O8 0.847726 0.524621 0.667559
O O9 0.971749 0.655233 0.784786
O O10 0.000000 0.500000 0.500000
O O11 0.177341 0.630093 0.614183
O O12 0.556454 0.565181 0.490177
O O13 0.350370 0.605370 0.457769
O O14 0.645540 0.661783 0.619830
O O15 0.480629 0.727120 0.455197
O O16 0.173953 0.310094 0.202068
#
# Coordination Sequence:
#
# PCOD8133229 Si02
#       8
#     8   8   4   8   8   8   8   8
#     4  10  20  35  61  86 114 150 201 246 296 346
#     4  10  19  32  57  87 113 140 187 249 294 336
#     4  10  20  36  58  84 118 148 204 236 290 370
#     4   9  20  36  54  83 118 149 196 243 288 354
#     4  10  23  38  57  87 128 147 198 248 294 365
#     4  10  21  39  58  86 117 159 188 245 303 351
#     4  11  20  34  59  87 116 153 188 251 301 351
#     4  11  22  38  58  88 119 163 194 245 301 357
#
# _framework density 19.058008000000001
#
# number of rings (size 3 to 8) (size 9 to 14) (size 15 to 20)
#    0.000    1.867    2.000    3.200    3.733    1.067 
#    2.400    2.000    4.400    0.000    0.000    0.000 
#    0.000    0.000    0.000    0.000    0.000    0.000 
#
# Total GULP energy -371704.424644 kJ/mol
# GULP energy per Si atom -12390.147488 kJ/mol
# Density = 1.901463 g / cm^3
# Si number density = 19.058008 Si / 1000 Ang^3
#
#
#
# Elastic Constant Matrix: (Units=GPa)
#
#
# Indices 1 2 3 4 5 6 
#
# 1 82.3493 60.2816 29.9645 0.0000 -14.0907 0.0000
# 2 60.2816 101.8944 36.5286 -0.0003 -2.5185 0.0001
# 3 29.9645 36.5286 74.3348 -0.0005 -14.6686 0.0005
# 4 0.0000 -0.0003 -0.0005 20.5723 0.0000 9.5553
# 5 -14.0907 -2.5185 -14.6686 0.0000 28.4796 0.0001
# 6 0.0000 0.0001 0.0005 9.5553 0.0001 32.4753
#
#
#
# Elastic Compliance Matrix: (Units=1/GPa)
#
#
# Indices 1 2 3 4 5 6 
#
# 1 0.024387 -0.013812 -0.001005 0.000000 0.010326 0.000000
# 2 -0.013812 0.019858 -0.005780 0.000000 -0.008055 0.000000
# 3 -0.001005 -0.005780 0.018366 0.000001 0.008451 0.000000
# 4 0.000000 0.000000 0.000001 0.056304 0.000000 -0.016566
# 5 0.010326 -0.008055 0.008451 0.000000 0.043863 0.000000
# 6 0.000000 0.000000 0.000000 -0.016566 0.000000 0.035667
#
#
# Mechanical properties :
#
#
# Convention : Reuss Voigt Hill
#
# Bulk Modulus (GPa) = 46.69401 56.90311 51.79856
# Shear Modulus (GPa) = 20.26109 25.09235 22.67672
#
# Velocity S-wave (km/s) = 3.26410 3.63248 3.45320
# Velocity P-wave (km/s) = 6.22575 6.89317 6.56795
#
# Compressibility (1/GPa) = 0.02141603
#
# Stress axis : x y z
#
# Youngs Moduli (GPa) = 41.00591 50.35652 54.44804
#
# Poissons Ratio (x) = 0.69551 0.05474
# Poissons Ratio (y) = 0.56636 0.31473
# Poissons Ratio (z) = 0.04123 0.29108
#
# Static dielectric constant tensor:
#      x y z
#    x 3.698500 0.000000 -0.035590 
#    y 0.000000 3.539130 0.000000 
#    z -0.035590 0.000000 3.577820 
# 
# 
# High freq. dielectric constant tensor:
#      x y z
#    x 1.725910 0.000000 -0.012460 
#    y 0.000000 1.727240 0.000000 
#    z -0.012460 0.000000 1.746180 
# 
# From -- ./inp_files/316089.got.cif
#   From: 2010.06.25/outbox.cif.g09.slc.cpg/sg15_159_cif.got.tgz:316089.got - 2010.06.28 07:06:18.
