data_PCOD8133174
_publ_section_title
;
Structure prediction by ZEFSAII (Michael W. Deem and Ramdas Pophale) SiO2 
 PCOD8133174
Probable space group: C 2/C
;
_chemical_formula_sum "Si O2"
_cell_formula_units_Z 52
_cell_length_a 28.968683
_cell_length_b 4.911427
_cell_length_c 16.487027
_cell_angle_alpha 90.000000
_cell_angle_beta 100.925317
_cell_angle_gamma 90.000000
_cell_volume 2303.217882
_symmetry_space_group_name_H-M "C 2/C"
_symmetry_group_IT_number 15
_symmetry_cell_setting 'monoclinic'
loop_
_space_group_symop_operation_xyz
x,y,z
-x,y,1/2-z
-x,-y,-z
x,-y,1/2+z
1/2+x,1/2+y,z
1/2-x,1/2+y,1/2-z
1/2-x,1/2-y,-z
1/2+x,1/2-y,1/2+z
loop_
_atom_site_type_symbol
_atom_site_label
_atom_site_fract_x
_atom_site_fract_y
_atom_site_fract_z
Si Si1 0.756616 0.208936 0.804126
Si Si2 0.924477 0.227275 0.104525
Si Si3 0.500000 0.615000 0.250000
Si Si4 0.840639 0.826386 0.689178
Si Si5 0.044789 0.712383 0.480574
Si Si6 0.048891 0.121763 0.616297
Si Si7 0.354576 0.172011 0.302747
O O1 0.746650 0.391552 0.720026
O O2 0.714658 0.282123 0.853581
O O3 0.810080 0.278910 0.849512
O O4 0.963475 0.302151 0.186694
O O5 0.871832 0.239688 0.121346
O O6 0.928322 0.432029 0.029767
O O7 0.935834 0.925616 0.078901
O O8 0.468569 0.424892 0.298097
O O9 0.854488 0.634384 0.769638
O O10 0.850028 0.131633 0.722877
O O11 0.987939 0.686920 0.446695
O O12 0.054000 0.827045 0.573966
O O13 0.098095 0.278302 0.631596
#
# Coordination Sequence:
#
# PCOD8133174 Si02
#       7
#     8   8   4   8   8   8   8
#     4   8  16  30  48  78 109 132 167 222 283 310
#     4  11  22  38  55  82 109 149 179 223 273 318
#     4  10  22  34  60  84 104 138 192 236 252 318
#     4  10  19  32  54  83 108 135 176 231 270 313
#     4  10  25  38  54  75 119 152 175 214 276 335
#     4  10  22  40  55  82 110 147 184 223 269 319
#     4  10  19  32  56  80 106 139 178 229 268 315
#
# _framework density 22.577107999999999
#
# number of rings (size 3 to 8) (size 9 to 14) (size 15 to 20)
#    0.000    2.154    1.538    0.923    4.308    7.385 
#    0.000    0.000    0.000    1.846    0.000    0.000 
#    0.000    0.000    0.000    0.000    0.000    0.000 
#
# Total GULP energy -322339.080732 kJ/mol
# GULP energy per Si atom -12397.656951 kJ/mol
# Density = 2.252572 g / cm^3
# Si number density = 22.577108 Si / 1000 Ang^3
#
#
#
# Elastic Constant Matrix: (Units=GPa)
#
#
# Indices 1 2 3 4 5 6 
#
# 1 189.1457 10.4765 34.6308 0.0000 -24.1983 0.0000
# 2 10.4765 53.2292 -6.7993 0.0000 -0.8414 0.0000
# 3 34.6308 -6.7993 60.6501 0.0000 -10.8936 0.0000
# 4 0.0000 0.0000 0.0000 21.4686 0.0000 -1.0350
# 5 -24.1983 -0.8414 -10.8936 0.0000 29.0982 0.0000
# 6 0.0000 0.0000 0.0000 -1.0350 0.0000 23.1647
#
#
#
# Elastic Compliance Matrix: (Units=1/GPa)
#
#
# Indices 1 2 3 4 5 6 
#
# 1 0.006484 -0.001610 -0.003133 0.000000 0.004172 0.000000
# 2 -0.001610 0.019517 0.003182 0.000000 0.000417 0.000000
# 3 -0.003133 0.003182 0.019493 0.000000 0.004784 0.000000
# 4 0.000000 0.000000 0.000000 0.046680 0.000000 0.002086
# 5 0.004172 0.000417 0.004784 0.000000 0.039639 0.000000
# 6 0.000000 0.000000 0.000000 0.002086 0.000000 0.043262
#
#
# Mechanical properties :
#
#
# Convention : Reuss Voigt Hill
#
# Bulk Modulus (GPa) = 23.60116 42.18234 32.89175
# Shear Modulus (GPa) = 25.99816 32.39409 29.19613
#
# Velocity S-wave (km/s) = 3.39710 3.79201 3.59997
# Velocity P-wave (km/s) = 5.08560 6.15603 5.64624
#
# Compressibility (1/GPa) = 0.04237080
#
# Stress axis : x y z
#
# Youngs Moduli (GPa) = 154.23626 51.23815 51.30013
#
# Poissons Ratio (x) = 0.08251 0.16073
# Poissons Ratio (y) = 0.24838 -0.16325
# Poissons Ratio (z) = 0.48325 -0.16305
#
# Static dielectric constant tensor:
#      x y z
#    x 4.561550 0.000000 -0.194850 
#    y 0.000000 3.993070 0.000000 
#    z -0.194850 0.000000 3.597130 
# 
# 
# High freq. dielectric constant tensor:
#      x y z
#    x 1.907530 0.000000 -0.023990 
#    y 0.000000 1.901740 0.000000 
#    z -0.023990 0.000000 1.834730 
# 
# From -- ./inp_files/220941.got.cif
#   From: 2010.06.25/outbox.cif.g09.slc.cpg/sg15_111_cif.got.tgz:220941.got - 2010.06.28 07:06:18.
