data_PCOD8133133
_publ_section_title
;
Structure prediction by ZEFSAII (Michael W. Deem and Ramdas Pophale) SiO2 
 PCOD8133133
Probable space group: C 2/C
;
_chemical_formula_sum "Si O2"
_cell_formula_units_Z 64
_cell_length_a 23.806981
_cell_length_b 30.566954
_cell_length_c 5.160135
_cell_angle_alpha 90.000000
_cell_angle_beta 73.435074
_cell_angle_gamma 90.000000
_cell_volume 3599.220368
_symmetry_space_group_name_H-M "C 2/C"
_symmetry_group_IT_number 15
_symmetry_cell_setting 'monoclinic'
loop_
_space_group_symop_operation_xyz
x,y,z
-x,y,1/2-z
-x,-y,-z
x,-y,1/2+z
1/2+x,1/2+y,z
1/2-x,1/2+y,1/2-z
1/2-x,1/2-y,-z
1/2+x,1/2-y,1/2+z
loop_
_atom_site_type_symbol
_atom_site_label
_atom_site_fract_x
_atom_site_fract_y
_atom_site_fract_z
Si Si1 0.892999 0.026329 0.455332
Si Si2 0.943240 0.896167 0.169194
Si Si3 0.335767 0.366515 0.592603
Si Si4 0.763012 0.121211 0.678897
Si Si5 0.731069 0.786222 0.228837
Si Si6 0.463136 0.702810 0.543478
Si Si7 0.845442 0.225040 0.903578
Si Si8 0.754321 0.026538 0.650178
O O1 0.928968 0.070864 0.454995
O O2 0.823731 0.034141 0.570581
O O3 0.911603 0.991460 0.651415
O O4 0.890314 0.896991 0.446325
O O5 0.949934 0.848541 0.029622
O O6 0.000000 0.911154 0.250000
O O7 0.285403 0.374515 0.444103
O O8 0.357688 0.315799 0.581042
O O9 0.316449 0.380867 0.903413
O O10 0.723051 0.163422 0.644757
O O11 0.726690 0.075680 0.702639
O O12 0.785172 0.789136 0.351046
O O13 0.668823 0.770829 0.433368
O O14 0.750000 0.750000 0.000000
O O15 0.500000 0.713243 0.750000
O O16 0.401469 0.729715 0.640306
O O17 0.500000 0.720007 0.250000
O O18 0.732879 0.002811 0.418431
#
# Coordination Sequence:
#
# PCOD8133133 Si02
#       8
#     8   8   8   8   8   8   8   8
#     4  10  22  35  48  62  81 111 152 203 266 312
#     4  10  22  35  49  64  86 113 158 208 257 302
#     4  10  20  32  49  69  89 122 151 197 251 297
#     4  11  20  33  53  70  94 121 157 193 250 300
#     4  10  19  32  52  80 106 132 158 207 269 309
#     4  10  23  38  55  74  95 133 174 206 245 300
#     4   9  20  34  50  76 108 129 163 209 250 309
#     4  10  20  34  50  67  88 121 164 202 239 298
#
# _framework density 17.781627
#
# number of rings (size 3 to 8) (size 9 to 14) (size 15 to 20)
#    0.000    2.000    2.500    0.750    5.250    8.500 
#    0.000    0.000    0.000    0.000    0.000    0.000 
#    0.000    0.000    0.000    0.000    0.000    3.750 
#
# Total GULP energy -396625.252408 kJ/mol
# GULP energy per Si atom -12394.539138 kJ/mol
# Density = 1.774116 g / cm^3
# Si number density = 17.781627 Si / 1000 Ang^3
#
#
#
# Elastic Constant Matrix: (Units=GPa)
#
#
# Indices 1 2 3 4 5 6 
#
# 1 28.6266 16.9397 16.6008 0.0000 -8.1259 0.0000
# 2 16.9397 117.2981 30.1676 0.0000 -6.5417 0.0000
# 3 16.6008 30.1676 81.1166 0.0000 -5.5669 0.0000
# 4 0.0000 0.0000 0.0000 20.4071 0.0000 -0.6205
# 5 -8.1259 -6.5417 -5.5669 0.0000 21.4978 0.0000
# 6 0.0000 0.0000 0.0000 -0.6205 0.0000 16.8480
#
#
#
# Elastic Compliance Matrix: (Units=1/GPa)
#
#
# Indices 1 2 3 4 5 6 
#
# 1 0.045255 -0.003997 -0.006805 0.000000 0.014127 0.000000
# 2 -0.003997 0.009865 -0.002798 0.000000 0.000766 0.000000
# 3 -0.006805 -0.002798 0.014789 0.000000 0.000406 0.000000
# 4 0.000000 0.000000 0.000000 0.049058 0.000000 0.001807
# 5 0.014127 0.000766 0.000406 0.000000 0.052195 0.000000
# 6 0.000000 0.000000 0.000000 0.001807 0.000000 0.059421
#
#
# Mechanical properties :
#
#
# Convention : Reuss Voigt Hill
#
# Bulk Modulus (GPa) = 23.41540 39.38417 31.39978
# Shear Modulus (GPa) = 18.38107 22.63945 20.51026
#
# Velocity S-wave (km/s) = 3.21863 3.57205 3.39994
# Velocity P-wave (km/s) = 5.19708 6.26176 5.75410
#
# Compressibility (1/GPa) = 0.04270694
#
# Stress axis : x y z
#
# Youngs Moduli (GPa) = 22.09720 101.36893 67.61703
#
# Poissons Ratio (x) = 0.40521 0.46016
# Poissons Ratio (y) = 0.08833 0.18920
# Poissons Ratio (z) = 0.15038 0.28364
#
# Static dielectric constant tensor:
#      x y z
#    x 2.353680 0.000000 -0.119610 
#    y 0.000000 4.120820 0.000000 
#    z -0.119610 0.000000 3.326480 
# 
# 
# High freq. dielectric constant tensor:
#      x y z
#    x 1.621840 0.000000 0.022900 
#    y 0.000000 1.683620 0.000000 
#    z 0.022900 0.000000 1.694050 
# 
# From -- ./inp_files/16559.got.cif
#   From: 2010.06.25/outbox.cif.g09.slc.cpg/sg15_9_cif.got.tgz:16559.got - 2010.06.28 07:06:18.
