data_PCOD8133226
_publ_section_title
;
Structure prediction by ZEFSAII (Michael W. Deem and Ramdas Pophale) SiO2 
 PCOD8133226
Probable space group: C 2/C
;
_chemical_formula_sum "Si O2"
_cell_formula_units_Z 48
_cell_length_a 28.172158
_cell_length_b 8.993607
_cell_length_c 14.770401
_cell_angle_alpha 90.000000
_cell_angle_beta 136.590876
_cell_angle_gamma 90.000000
_cell_volume 2571.766196
_symmetry_space_group_name_H-M "C 2/C"
_symmetry_group_IT_number 15
_symmetry_cell_setting 'monoclinic'
loop_
_space_group_symop_operation_xyz
x,y,z
-x,y,1/2-z
-x,-y,-z
x,-y,1/2+z
1/2+x,1/2+y,z
1/2-x,1/2+y,1/2-z
1/2-x,1/2-y,-z
1/2+x,1/2-y,1/2+z
loop_
_atom_site_type_symbol
_atom_site_label
_atom_site_fract_x
_atom_site_fract_y
_atom_site_fract_z
Si Si1 0.669279 0.296513 0.653919
Si Si2 0.296652 0.628529 0.775470
Si Si3 0.335563 0.665685 0.026370
Si Si4 0.821241 0.615300 0.656472
Si Si5 0.827228 0.721536 0.142322
Si Si6 0.918806 0.877738 0.129484
O O1 0.708868 0.450263 0.731133
O O2 0.719266 0.194536 0.661674
O O3 0.649552 0.210508 0.718481
O O4 0.601449 0.336804 0.502022
O O5 0.340320 0.678115 0.749170
O O6 0.332004 0.697789 0.914357
O O7 0.352436 0.813456 0.107429
O O8 0.392978 0.540820 0.123471
O O9 0.261743 0.607807 0.959641
O O10 0.844629 0.446315 0.695163
O O11 0.884210 0.759232 0.147358
O O12 0.750000 0.750000 0.000000
O O13 0.000000 0.870168 0.250000
#
# Coordination Sequence:
#
# PCOD8133226 Si02
#       6
#     8   8   8   8   8   8
#     4  10  20  35  58  89 116 154 194 251 300 338
#     4  10  19  32  57  85 117 144 199 249 290 340
#     4   9  19  36  57  87 114 155 195 246 295 333
#     4  10  20  34  61  87 116 145 201 256 283 345
#     4  12  21  35  58  90 117 153 198 243 293 344
#     4  11  23  40  58  85 124 159 194 238 302 365
#
# _framework density 18.664216
#
# number of rings (size 3 to 8) (size 9 to 14) (size 15 to 20)
#    0.000    1.667    3.333    3.000    4.667    1.333 
#    0.000    9.167    0.000    0.000    0.000    0.000 
#    0.000    0.000    0.000    0.000    0.000    0.000 
#
# Total GULP energy -297579.827042 kJ/mol
# GULP energy per Si atom -12399.159460 kJ/mol
# Density = 1.862174 g / cm^3
# Si number density = 18.664216 Si / 1000 Ang^3
#
#
#
# Elastic Constant Matrix: (Units=GPa)
#
#
# Indices 1 2 3 4 5 6 
#
# 1 86.7851 44.8750 53.2270 0.0000 -6.8748 0.0000
# 2 44.8750 126.1277 56.9304 0.0000 -3.5442 0.0000
# 3 53.2270 56.9304 93.2817 0.0000 2.7499 0.0000
# 4 0.0000 0.0000 0.0000 24.4700 0.0000 -8.6710
# 5 -6.8748 -3.5442 2.7499 0.0000 33.9201 0.0000
# 6 0.0000 0.0000 0.0000 -8.6710 0.0000 31.6131
#
#
#
# Elastic Compliance Matrix: (Units=1/GPa)
#
#
# Indices 1 2 3 4 5 6 
#
# 1 0.018886 -0.002312 -0.009494 0.000000 0.004356 0.000000
# 2 -0.002312 0.011323 -0.005626 0.000000 0.001171 0.000000
# 3 -0.009494 -0.005626 0.019692 0.000000 -0.004109 0.000000
# 4 0.000000 0.000000 0.000000 0.045266 0.000000 0.012416
# 5 0.004356 0.001171 -0.004109 0.000000 0.030819 0.000000
# 6 0.000000 0.000000 0.000000 0.012416 0.000000 0.035038
#
#
# Mechanical properties :
#
#
# Convention : Reuss Voigt Hill
#
# Bulk Modulus (GPa) = 66.49850 68.47327 67.48589
# Shear Modulus (GPa) = 24.88789 28.07813 26.48301
#
# Velocity S-wave (km/s) = 3.65561 3.88285 3.77094
# Velocity P-wave (km/s) = 7.31603 7.54112 7.42943
#
# Compressibility (1/GPa) = 0.01503793
#
# Stress axis : x y z
#
# Youngs Moduli (GPa) = 52.94936 88.31322 50.78125
#
# Poissons Ratio (x) = 0.20416 0.48212
# Poissons Ratio (y) = 0.12240 0.28570
# Poissons Ratio (z) = 0.50270 0.49686
#
# Static dielectric constant tensor:
#      x y z
#    x 3.318270 0.000000 -0.379330 
#    y 0.000000 3.589220 0.000000 
#    z -0.379330 0.000000 3.273170 
# 
# 
# High freq. dielectric constant tensor:
#      x y z
#    x 1.703650 0.000000 -0.042650 
#    y 0.000000 1.736550 0.000000 
#    z -0.042650 0.000000 1.701060 
# 
# From -- ./inp_files/166139.got.cif
#   From: 2010.06.25/outbox.cif.g09.slc.cpg/sg15_84_cif.got.tgz:166139.got - 2010.06.28 07:06:18.
