data_PCOD8133146
_publ_section_title
;
Structure prediction by ZEFSAII (Michael W. Deem and Ramdas Pophale) SiO2 
 PCOD8133146
Probable space group: C 2/C
;
_chemical_formula_sum "Si O2"
_cell_formula_units_Z 60
_cell_length_a 19.794356
_cell_length_b 18.618256
_cell_length_c 9.103826
_cell_angle_alpha 90.000000
_cell_angle_beta 74.523588
_cell_angle_gamma 90.000000
_cell_volume 3233.436850
_symmetry_space_group_name_H-M "C 2/C"
_symmetry_group_IT_number 15
_symmetry_cell_setting 'monoclinic'
loop_
_space_group_symop_operation_xyz
x,y,z
-x,y,1/2-z
-x,-y,-z
x,-y,1/2+z
1/2+x,1/2+y,z
1/2-x,1/2+y,1/2-z
1/2-x,1/2-y,-z
1/2+x,1/2-y,1/2+z
loop_
_atom_site_type_symbol
_atom_site_label
_atom_site_fract_x
_atom_site_fract_y
_atom_site_fract_z
Si Si1 0.704693 0.174031 0.861596
Si Si2 0.000000 0.506520 0.750000
Si Si3 0.422987 0.428791 0.131860
Si Si4 0.282005 0.584356 0.605505
Si Si5 0.728897 0.955748 0.822472
Si Si6 0.596175 0.946771 0.446669
Si Si7 0.575155 0.577934 0.530813
Si Si8 0.209786 0.161431 0.400752
O O1 0.728820 0.145928 0.688153
O O2 0.634020 0.130327 0.943560
O O3 0.696118 0.258551 0.851113
O O4 0.764766 0.158313 0.946446
O O5 0.953353 0.555932 0.668690
O O6 0.050803 0.457389 0.620491
O O7 0.361208 0.386236 0.082245
O O8 0.404893 0.438154 0.313176
O O9 0.496957 0.387059 0.067200
O O10 0.427122 0.506987 0.061980
O O11 0.274662 0.514226 0.711514
O O12 0.267259 0.560747 0.450895
O O13 0.731297 0.881414 0.728267
O O14 0.650625 0.986389 0.895619
O O15 0.632876 0.629078 0.426936
#
# Coordination Sequence:
#
# PCOD8133146 Si02
#       8
#     8   4   8   8   8   8   8   8
#     4  10  22  37  59  78 117 142 198 224 290 323
#     4  10  20  36  64  80 112 136 190 232 298 332
#     4  10  19  32  53  79 109 144 182 228 267 327
#     4  11  19  34  55  87 110 147 181 240 270 337
#     4  11  21  33  62  86 116 135 190 231 291 322
#     4  10  20  37  58  90 105 146 181 244 279 345
#     4  10  20  33  52  79 113 142 187 223 280 324
#     4  11  21  37  55  83 112 159 178 239 274 342
#
# _framework density 18.556107000000001
#
# number of rings (size 3 to 8) (size 9 to 14) (size 15 to 20)
#    0.000    1.600    2.667    4.800    0.000    0.533 
#    0.000    1.333    8.800    0.000    0.000    0.000 
#    0.000    0.000    0.000    0.000    0.000    0.000 
#
# Total GULP energy -371824.994636 kJ/mol
# GULP energy per Si atom -12394.166488 kJ/mol
# Density = 1.851387 g / cm^3
# Si number density = 18.556107 Si / 1000 Ang^3
#
#
#
# Elastic Constant Matrix: (Units=GPa)
#
#
# Indices 1 2 3 4 5 6 
#
# 1 101.5322 34.9410 24.3679 0.0000 -2.4896 0.0000
# 2 34.9410 95.1546 23.8920 0.0000 -12.9933 0.0000
# 3 24.3679 23.8920 83.5709 0.0000 0.2053 0.0000
# 4 0.0000 0.0000 0.0000 23.1658 0.0000 2.9920
# 5 -2.4896 -12.9933 0.2053 0.0000 33.4970 0.0000
# 6 0.0000 0.0000 0.0000 2.9920 0.0000 21.7537
#
#
#
# Elastic Compliance Matrix: (Units=1/GPa)
#
#
# Indices 1 2 3 4 5 6 
#
# 1 0.011698 -0.003792 -0.002325 0.000000 -0.000587 0.000000
# 2 -0.003792 0.013243 -0.002692 0.000000 0.004871 0.000000
# 3 -0.002325 -0.002692 0.013417 0.000000 -0.001299 0.000000
# 4 0.000000 0.000000 0.000000 0.043948 0.000000 -0.006045
# 5 -0.000587 0.004871 -0.001299 0.000000 0.031707 0.000000
# 6 0.000000 0.000000 0.000000 -0.006045 0.000000 0.046801
#
#
# Mechanical properties :
#
#
# Convention : Reuss Voigt Hill
#
# Bulk Modulus (GPa) = 48.21976 49.62883 48.92430
# Shear Modulus (GPa) = 26.97678 28.82043 27.89860
#
# Velocity S-wave (km/s) = 3.81700 3.94528 3.88167
# Velocity P-wave (km/s) = 6.74302 6.89616 6.82002
#
# Compressibility (1/GPa) = 0.02073839
#
# Stress axis : x y z
#
# Youngs Moduli (GPa) = 85.48724 75.51315 74.53326
#
# Poissons Ratio (x) = 0.28632 0.17332
# Poissons Ratio (y) = 0.32414 0.20067
# Poissons Ratio (z) = 0.19879 0.20331
#
# Static dielectric constant tensor:
#      x y z
#    x 3.918100 0.000000 -0.163370 
#    y 0.000000 3.175530 0.000000 
#    z -0.163370 0.000000 3.600210 
# 
# 
# High freq. dielectric constant tensor:
#      x y z
#    x 1.735760 0.000000 -0.001170 
#    y 0.000000 1.678730 0.000000 
#    z -0.001170 0.000000 1.731400 
# 
# From -- ./inp_files/56586.got.cif
#   From: 2010.06.25/outbox.cif.g09.slc.cpg/sg15_29_cif.got.tgz:56586.got - 2010.06.28 07:06:18.
