data_PCOD8133691
_publ_section_title
;
Structure prediction by ZEFSAII (Michael W. Deem and Ramdas Pophale) SiO2 
 PCOD8133691
Probable space group: C 2/C
;
_chemical_formula_sum "Si O2"
_cell_formula_units_Z 64
_cell_length_a 19.868991
_cell_length_b 9.202245
_cell_length_c 22.043889
_cell_angle_alpha 90.000000
_cell_angle_beta 126.050224
_cell_angle_gamma 90.000000
_cell_volume 3258.656786
_symmetry_space_group_name_H-M "C 2/C"
_symmetry_group_IT_number 15
_symmetry_cell_setting 'monoclinic'
loop_
_space_group_symop_operation_xyz
x,y,z
-x,y,1/2-z
-x,-y,-z
x,-y,1/2+z
1/2+x,1/2+y,z
1/2-x,1/2+y,1/2-z
1/2-x,1/2-y,-z
1/2+x,1/2-y,1/2+z
loop_
_atom_site_type_symbol
_atom_site_label
_atom_site_fract_x
_atom_site_fract_y
_atom_site_fract_z
Si Si1 0.649006 0.325079 0.898938
Si Si2 0.914003 0.339126 0.241077
Si Si3 0.317234 0.069653 0.493618
Si Si4 0.986661 0.847554 0.878412
Si Si5 0.155434 0.281790 0.929631
Si Si6 0.451306 0.148304 0.479853
Si Si7 0.411110 0.839691 0.731075
Si Si8 0.019711 0.171930 0.623135
O O1 0.652274 0.243874 0.836122
O O2 0.717429 0.455940 0.932569
O O3 0.559681 0.388949 0.869096
O O4 0.671697 0.216039 0.963937
O O5 0.880915 0.501885 0.238939
O O6 0.000000 0.344660 0.250000
O O7 0.920064 0.250502 0.307129
O O8 0.358784 0.098234 0.450266
O O9 0.363713 0.942721 0.554845
O O10 0.010545 0.757325 0.950206
O O11 0.953688 0.006950 0.879316
O O12 0.151427 0.280161 0.854123
O O13 0.080668 0.183787 0.918006
O O14 0.250000 0.250000 0.000000
O O15 0.450772 0.228779 0.416105
O O16 0.500000 0.000000 0.500000
O O17 0.500000 0.869240 0.750000
O O18 0.422500 0.721685 0.789960
#
# Coordination Sequence:
#
# PCOD8133691 Si02
#       8
#     8   8   8   8   8   8   8   8
#     4   9  18  32  57  83 115 141 187 243 287 331
#     4   9  16  31  56  82 112 146 190 239 287 339
#     4  10  19  34  54  86 113 148 190 231 287 342
#     4  10  21  33  57  88 112 148 193 244 286 330
#     4  11  21  34  58  88 121 148 185 244 301 339
#     4  11  21  38  61  79 112 159 196 228 276 350
#     4   9  19  34  57  83 115 151 192 236 288 343
#     4  11  22  37  56  85 119 151 194 238 285 348
#
# _framework density 19.639993
#
# number of rings (size 3 to 8) (size 9 to 14) (size 15 to 20)
#    0.000    2.000    2.500    1.875    3.500    5.500 
#    0.000    0.000    2.750    0.000    0.000    0.000 
#    0.000    0.000    0.000    0.000    0.000    0.000 
#
# Total GULP energy -396520.831940 kJ/mol
# GULP energy per Si atom -12391.275998 kJ/mol
# Density = 1.959529 g / cm^3
# Si number density = 19.639993 Si / 1000 Ang^3
#
#
#
# Elastic Constant Matrix: (Units=GPa)
#
#
# Indices 1 2 3 4 5 6 
#
# 1 50.6209 12.7117 46.0026 0.0000 -7.7872 0.0000
# 2 12.7117 106.5821 36.5805 0.0000 -12.0457 0.0000
# 3 46.0026 36.5805 114.0988 0.0000 -5.5123 0.0000
# 4 0.0000 0.0000 0.0000 27.3926 0.0000 -7.6405
# 5 -7.7872 -12.0457 -5.5123 0.0000 24.3519 0.0000
# 6 0.0000 0.0000 0.0000 -7.6405 0.0000 15.7385
#
#
#
# Elastic Compliance Matrix: (Units=1/GPa)
#
#
# Indices 1 2 3 4 5 6 
#
# 1 0.032709 0.001595 -0.013301 0.000000 0.008238 0.000000
# 2 0.001595 0.011131 -0.003965 0.000000 0.005119 0.000000
# 3 -0.013301 -0.003965 0.015265 0.000000 -0.002759 0.000000
# 4 0.000000 0.000000 0.000000 0.042224 0.000000 0.020498
# 5 0.008238 0.005119 -0.002759 0.000000 0.045606 0.000000
# 6 0.000000 0.000000 0.000000 0.020498 0.000000 0.073489
#
#
# Mechanical properties :
#
#
# Convention : Reuss Voigt Hill
#
# Bulk Modulus (GPa) = 36.01779 51.32127 43.66953
# Shear Modulus (GPa) = 19.15557 25.23039 22.19298
#
# Velocity S-wave (km/s) = 3.12642 3.58808 3.36518
# Velocity P-wave (km/s) = 5.60460 6.58434 6.11412
#
# Compressibility (1/GPa) = 0.02776406
#
# Stress axis : x y z
#
# Youngs Moduli (GPa) = 30.57260 89.83581 65.50996
#
# Poissons Ratio (x) = -0.14329 0.87135
# Poissons Ratio (y) = -0.04876 0.25972
# Poissons Ratio (z) = 0.40665 0.35616
#
# Static dielectric constant tensor:
#      x y z
#    x 3.953400 0.000000 -0.006400 
#    y 0.000000 3.815750 0.000000 
#    z -0.006400 0.000000 3.923750 
# 
# 
# High freq. dielectric constant tensor:
#      x y z
#    x 1.719430 0.000000 -0.003530 
#    y 0.000000 1.780110 0.000000 
#    z -0.003530 0.000000 1.766170 
# 
# From -- ./inp_files/251906.got.cif
#   From: 2010.06.25/outbox.cif.g09.slc.cpg/sg15_126_cif.got.tgz:251906.got - 2010.06.28 07:06:18.
