data_PCOD8133869
_publ_section_title
;
Structure prediction by ZEFSAII (Michael W. Deem and Ramdas Pophale) SiO2 
 PCOD8133869
Probable space group: C 2/C
;
_chemical_formula_sum "Si O2"
_cell_formula_units_Z 52
_cell_length_a 20.751007
_cell_length_b 8.250507
_cell_length_c 15.473238
_cell_angle_alpha 90.000000
_cell_angle_beta 77.013749
_cell_angle_gamma 90.000000
_cell_volume 2581.362516
_symmetry_space_group_name_H-M "C 2/C"
_symmetry_group_IT_number 15
_symmetry_cell_setting 'monoclinic'
loop_
_space_group_symop_operation_xyz
x,y,z
-x,y,1/2-z
-x,-y,-z
x,-y,1/2+z
1/2+x,1/2+y,z
1/2-x,1/2+y,1/2-z
1/2-x,1/2-y,-z
1/2+x,1/2-y,1/2+z
loop_
_atom_site_type_symbol
_atom_site_label
_atom_site_fract_x
_atom_site_fract_y
_atom_site_fract_z
Si Si1 0.772922 0.959922 0.421062
Si Si2 0.850393 0.730950 0.510214
Si Si3 0.000000 0.329191 0.250000
Si Si4 0.787643 0.717065 0.833880
Si Si5 0.603433 0.346740 0.827552
Si Si6 0.158571 0.824783 0.268343
Si Si7 0.383883 0.944004 0.834537
O O1 0.806232 0.886755 0.497015
O O2 0.695257 0.917993 0.444408
O O3 0.803205 0.877679 0.328076
O O4 0.787177 0.151844 0.411741
O O5 0.897658 0.789458 0.572820
O O6 0.893011 0.669835 0.415521
O O7 0.034528 0.213398 0.309213
O O8 0.053607 0.438623 0.185659
O O9 0.833241 0.771556 0.740025
O O10 0.712087 0.703494 0.826884
O O11 0.815591 0.547920 0.862940
O O12 0.606494 0.541550 0.817938
O O13 0.119180 0.660957 0.253545
#
# Coordination Sequence:
#
# PCOD8133869 Si02
#       7
#     8   8   4   8   8   8   8
#     4   9  19  32  54  88 131 146 182 230 309 350
#     4  10  20  36  56  89 124 160 181 251 291 351
#     4  10  24  42  60  80 108 164 206 254 266 362
#     4  10  19  34  58  91 119 155 189 235 289 370
#     4  10  21  38  60  80 118 154 204 232 294 334
#     4  10  19  34  61  87 113 157 190 241 289 367
#     4  10  22  38  59  86 119 151 204 238 302 338
#
# _framework density 20.144400000000001
#
# number of rings (size 3 to 8) (size 9 to 14) (size 15 to 20)
#    0.000    2.154    1.538    1.846    6.462    1.846 
#    0.000    0.000    0.000   15.692    0.000    0.000 
#    0.000    0.000    0.000    0.000    0.000    0.000 
#
# Total GULP energy -322399.468445 kJ/mol
# GULP energy per Si atom -12399.979556 kJ/mol
# Density = 2.009855 g / cm^3
# Si number density = 20.144400 Si / 1000 Ang^3
#
#
#
# Elastic Constant Matrix: (Units=GPa)
#
#
# Indices 1 2 3 4 5 6 
#
# 1 100.0419 52.0814 39.5296 0.0000 25.7350 0.0000
# 2 52.0814 136.6679 50.1556 0.0000 19.3527 0.0000
# 3 39.5296 50.1556 93.2820 0.0000 26.4701 0.0000
# 4 0.0000 0.0000 0.0000 29.0494 0.0000 -0.5695
# 5 25.7350 19.3527 26.4701 0.0000 27.6549 0.0000
# 6 0.0000 0.0000 0.0000 -0.5695 0.0000 25.7089
#
#
#
# Elastic Compliance Matrix: (Units=1/GPa)
#
#
# Indices 1 2 3 4 5 6 
#
# 1 0.015144 -0.003791 -0.001555 0.000000 -0.009951 0.000000
# 2 -0.003791 0.010174 -0.003905 0.000000 0.000146 0.000000
# 3 -0.001555 -0.003905 0.016877 0.000000 -0.011973 0.000000
# 4 0.000000 0.000000 0.000000 0.034439 0.000000 0.000763
# 5 -0.009951 0.000146 -0.011973 0.000000 0.056778 0.000000
# 6 0.000000 0.000000 0.000000 0.000763 0.000000 0.038914
#
#
# Mechanical properties :
#
#
# Convention : Reuss Voigt Hill
#
# Bulk Modulus (GPa) = 42.21001 68.16945 55.18973
# Shear Modulus (GPa) = 25.16019 29.03097 27.09558
#
# Velocity S-wave (km/s) = 3.53794 3.80036 3.67150
# Velocity P-wave (km/s) = 6.13910 7.29183 6.74016
#
# Compressibility (1/GPa) = 0.02369106
#
# Stress axis : x y z
#
# Youngs Moduli (GPa) = 66.03375 98.28704 59.25311
#
# Poissons Ratio (x) = 0.37262 0.09216
# Poissons Ratio (y) = 0.25034 0.23141
# Poissons Ratio (z) = 0.10270 0.38385
#
# Static dielectric constant tensor:
#      x y z
#    x 3.328030 0.000000 0.156340 
#    y 0.000000 4.045470 0.000000 
#    z 0.156340 0.000000 3.534150 
# 
# 
# High freq. dielectric constant tensor:
#      x y z
#    x 1.751050 0.000000 0.011720 
#    y 0.000000 1.798200 0.000000 
#    z 0.011720 0.000000 1.779610 
# 
# From -- ./inp_files/166319.got.cif
#   From: 2010.06.25/outbox.cif.g09.slc.cpg/sg15_84_cif.got.tgz:166319.got - 2010.06.28 07:06:18.
