data_PCOD8133265
_publ_section_title
;
Structure prediction by ZEFSAII (Michael W. Deem and Ramdas Pophale) SiO2 
 PCOD8133265
Probable space group: C 2/C
;
_chemical_formula_sum "Si O2"
_cell_formula_units_Z 56
_cell_length_a 14.721847
_cell_length_b 25.405732
_cell_length_c 9.536502
_cell_angle_alpha 90.000000
_cell_angle_beta 51.526606
_cell_angle_gamma 90.000000
_cell_volume 2792.465561
_symmetry_space_group_name_H-M "C 2/C"
_symmetry_group_IT_number 15
_symmetry_cell_setting 'monoclinic'
loop_
_space_group_symop_operation_xyz
x,y,z
-x,y,1/2-z
-x,-y,-z
x,-y,1/2+z
1/2+x,1/2+y,z
1/2-x,1/2+y,1/2-z
1/2-x,1/2-y,-z
1/2+x,1/2-y,1/2+z
loop_
_atom_site_type_symbol
_atom_site_label
_atom_site_fract_x
_atom_site_fract_y
_atom_site_fract_z
Si Si1 0.937315 0.367486 0.446557
Si Si2 0.121820 0.522692 0.426885
Si Si3 0.704964 0.306939 0.685619
Si Si4 0.181691 0.201183 0.904247
Si Si5 0.863588 0.560402 0.378987
Si Si6 0.036440 0.775574 0.064604
Si Si7 0.365065 0.839761 0.039071
O O1 0.896238 0.426831 0.454615
O O2 0.827389 0.333477 0.596270
O O3 0.000000 0.342931 0.250000
O O4 0.028412 0.368024 0.485540
O O5 0.188904 0.543434 0.222162
O O6 0.191977 0.477872 0.446783
O O7 0.000000 0.500000 0.500000
O O8 0.718181 0.244012 0.664389
O O9 0.649389 0.324277 0.587752
O O10 0.621200 0.316333 0.900669
O O11 0.246228 0.158637 0.743975
O O12 0.074234 0.229425 0.930943
O O13 0.838349 0.622521 0.431462
O O14 0.000000 0.548955 0.250000
O O15 0.097428 0.719365 0.040474
O O16 0.000000 0.800126 0.250000
#
# Coordination Sequence:
#
# PCOD8133265 Si02
#       7
#     8   8   8   8   8   8   8
#     4  12  20  33  55  85 113 143 184 224 275 337
#     4  10  20  31  51  76 114 148 174 220 271 332
#     4  10  22  35  57  78 104 149 188 232 277 323
#     4  10  21  37  54  77 105 143 192 235 273 325
#     4  10  19  33  47  76 110 146 178 215 271 332
#     4  11  24  38  53  76 112 150 191 237 273 326
#     4  11  21  33  56  79 110 146 183 225 284 322
#
# _framework density 20.053963
#
# number of rings (size 3 to 8) (size 9 to 14) (size 15 to 20)
#    0.000    1.429    5.714    2.143    0.000    3.429 
#    0.000    0.000    0.000    0.000    0.000    1.000 
#    0.000    0.286    0.000    0.000    0.000    0.000 
#
# Total GULP energy -346942.571844 kJ/mol
# GULP energy per Si atom -12390.806137 kJ/mol
# Density = 2.000832 g / cm^3
# Si number density = 20.053963 Si / 1000 Ang^3
#
#
#
# Elastic Constant Matrix: (Units=GPa)
#
#
# Indices 1 2 3 4 5 6 
#
# 1 45.1490 19.1728 43.1481 0.0000 2.1705 0.0000
# 2 19.1728 69.3439 40.0175 0.0000 -2.3139 0.0000
# 3 43.1481 40.0175 168.9151 0.0000 13.2531 0.0000
# 4 0.0000 0.0000 0.0000 32.8182 0.0000 4.5956
# 5 2.1705 -2.3139 13.2531 0.0000 22.3361 0.0000
# 6 0.0000 0.0000 0.0000 4.5956 0.0000 6.1921
#
#
#
# Elastic Compliance Matrix: (Units=1/GPa)
#
#
# Indices 1 2 3 4 5 6 
#
# 1 0.030505 -0.004508 -0.006770 0.000000 0.000586 0.000000
# 2 -0.004508 0.017770 -0.003395 0.000000 0.004294 0.000000
# 3 -0.006770 -0.003395 0.008842 0.000000 -0.004940 0.000000
# 4 0.000000 0.000000 0.000000 0.034005 0.000000 -0.025238
# 5 0.000586 0.004294 -0.004940 0.000000 0.048090 0.000000
# 6 0.000000 0.000000 0.000000 -0.025238 0.000000 0.180228
#
#
# Mechanical properties :
#
#
# Convention : Reuss Voigt Hill
#
# Bulk Modulus (GPa) = 36.01011 54.23164 45.12088
# Shear Modulus (GPa) = 13.96482 24.34057 19.15270
#
# Velocity S-wave (km/s) = 2.64173 3.48768 3.09375
# Velocity P-wave (km/s) = 5.22500 6.58180 5.94225
#
# Compressibility (1/GPa) = 0.02776998
#
# Stress axis : x y z
#
# Youngs Moduli (GPa) = 32.78122 56.27515 113.10243
#
# Poissons Ratio (x) = 0.25367 0.76575
# Poissons Ratio (y) = 0.14777 0.38401
# Poissons Ratio (z) = 0.22194 0.19107
#
# Static dielectric constant tensor:
#      x y z
#    x 3.252880 0.000000 0.390040 
#    y 0.000000 3.657700 0.000000 
#    z 0.390040 0.000000 4.251480 
# 
# 
# High freq. dielectric constant tensor:
#      x y z
#    x 1.732030 0.000000 0.032260 
#    y 0.000000 1.755530 0.000000 
#    z 0.032260 0.000000 1.796590 
# 
# From -- ./inp_files/43453.got.cif
#   From: 2010.06.25/outbox.cif.g09.slc.cpg/sg15_22_cif.got.tgz:43453.got - 2010.06.28 07:06:18.
