data_PCOD8133860
_publ_section_title
;
Structure prediction by ZEFSAII (Michael W. Deem and Ramdas Pophale) SiO2 
 PCOD8133860
Probable space group: C 2/C
;
_chemical_formula_sum "Si O2"
_cell_formula_units_Z 60
_cell_length_a 15.329842
_cell_length_b 13.682226
_cell_length_c 15.684572
_cell_angle_alpha 90.000000
_cell_angle_beta 66.314773
_cell_angle_gamma 90.000000
_cell_volume 3012.671096
_symmetry_space_group_name_H-M "C 2/C"
_symmetry_group_IT_number 15
_symmetry_cell_setting 'monoclinic'
loop_
_space_group_symop_operation_xyz
x,y,z
-x,y,1/2-z
-x,-y,-z
x,-y,1/2+z
1/2+x,1/2+y,z
1/2-x,1/2+y,1/2-z
1/2-x,1/2-y,-z
1/2+x,1/2-y,1/2+z
loop_
_atom_site_type_symbol
_atom_site_label
_atom_site_fract_x
_atom_site_fract_y
_atom_site_fract_z
Si Si1 0.863416 0.205669 0.540811
Si Si2 0.466415 0.412584 0.573642
Si Si3 0.760219 0.688024 0.756075
Si Si4 0.766709 0.095112 0.200993
Si Si5 0.792255 0.602231 0.004484
Si Si6 0.500000 0.518222 0.250000
Si Si7 0.612061 0.041996 0.700774
Si Si8 0.699351 0.546399 0.659296
O O1 0.826051 0.161561 0.644899
O O2 0.846970 0.322485 0.545417
O O3 0.804874 0.153138 0.488167
O O4 0.974382 0.181996 0.481376
O O5 0.500000 0.500000 0.500000
O O6 0.353708 0.398703 0.598491
O O7 0.476562 0.419878 0.673424
O O8 0.767029 0.804269 0.752958
O O9 0.856069 0.631996 0.749874
O O10 0.735042 0.655389 0.668870
O O11 0.667453 0.061211 0.196215
O O12 0.788951 0.009905 0.257256
O O13 0.866276 0.575892 0.902760
O O14 0.764013 0.501709 0.061686
O O15 0.412739 0.451147 0.316887
O O16 0.500000 0.022131 0.750000
#
# Coordination Sequence:
#
# PCOD8133860 Si02
#       8
#     8   8   8   8   8   4   8   8
#     4  10  19  34  58  90 119 155 202 258 310 369
#     4  11  21  35  61  92 125 159 205 261 326 371
#     4  10  21  40  61  87 121 162 203 260 309 371
#     4  10  22  40  60  88 125 158 201 262 314 370
#     4  10  19  34  58  88 121 152 205 255 298 370
#     4  10  20  32  60  88 118 162 194 254 314 378
#     4  10  23  41  63  85 122 168 207 256 315 375
#     4  10  19  37  58  86 123 155 199 253 312 365
#
# _framework density 19.915882
#
# number of rings (size 3 to 8) (size 9 to 14) (size 15 to 20)
#    0.000    1.867    2.667    3.200    1.867    0.000 
#    2.400    4.667    0.000    0.000    0.000    0.000 
#    0.000    0.000    0.000    0.000    0.000    0.000 
#
# Total GULP energy -371708.062536 kJ/mol
# GULP energy per Si atom -12390.268751 kJ/mol
# Density = 1.987055 g / cm^3
# Si number density = 19.915882 Si / 1000 Ang^3
#
#
#
# Elastic Constant Matrix: (Units=GPa)
#
#
# Indices 1 2 3 4 5 6 
#
# 1 105.8732 34.9617 39.9526 0.0000 -33.4158 0.0000
# 2 34.9617 63.7274 25.9793 0.0000 -2.4079 0.0000
# 3 39.9526 25.9793 81.3995 0.0000 -17.4336 0.0000
# 4 0.0000 0.0000 0.0000 29.2607 0.0000 6.4314
# 5 -33.4158 -2.4079 -17.4336 0.0000 36.1093 0.0000
# 6 0.0000 0.0000 0.0000 6.4314 0.0000 21.6345
#
#
#
# Elastic Compliance Matrix: (Units=1/GPa)
#
#
# Indices 1 2 3 4 5 6 
#
# 1 0.017804 -0.007955 -0.003105 0.000000 0.014446 0.000000
# 2 -0.007955 0.021694 -0.004780 0.000000 -0.008223 0.000000
# 3 -0.003105 -0.004780 0.016341 0.000000 0.004697 0.000000
# 4 0.000000 0.000000 0.000000 0.036565 0.000000 -0.010870
# 5 0.014446 -0.008223 0.004697 0.000000 0.042781 0.000000
# 6 0.000000 0.000000 0.000000 -0.010870 0.000000 0.049454
#
#
# Mechanical properties :
#
#
# Convention : Reuss Voigt Hill
#
# Bulk Modulus (GPa) = 41.39721 50.30969 45.85345
# Shear Modulus (GPa) = 22.28429 27.40801 24.84615
#
# Velocity S-wave (km/s) = 3.34866 3.71373 3.53591
# Velocity P-wave (km/s) = 5.98185 6.61097 6.30426
#
# Compressibility (1/GPa) = 0.02415622
#
# Stress axis : x y z
#
# Youngs Moduli (GPa) = 56.16844 46.09482 61.19588
#
# Poissons Ratio (x) = 0.36671 0.19004
# Poissons Ratio (y) = 0.44685 0.29254
# Poissons Ratio (z) = 0.17443 0.22035
#
# Static dielectric constant tensor:
#      x y z
#    x 3.756810 0.000000 -0.065240 
#    y 0.000000 3.542830 0.000000 
#    z -0.065240 0.000000 3.628600 
# 
# 
# High freq. dielectric constant tensor:
#      x y z
#    x 1.757170 0.000000 -0.010260 
#    y 0.000000 1.756710 0.000000 
#    z -0.010260 0.000000 1.781170 
# 
# From -- ./inp_files/154235.got.cif
#   From: 2010.06.25/outbox.cif.g09.slc.cpg/sg15_78_cif.got.tgz:154235.got - 2010.06.28 07:06:18.
