data_PCOD8133937
_publ_section_title
;
Structure prediction by ZEFSAII (Michael W. Deem and Ramdas Pophale) SiO2 
 PCOD8133937
Probable space group: C 2/C
;
_chemical_formula_sum "Si O2"
_cell_formula_units_Z 56
_cell_length_a 14.414318
_cell_length_b 16.815679
_cell_length_c 12.323355
_cell_angle_alpha 90.000000
_cell_angle_beta 110.453424
_cell_angle_gamma 90.000000
_cell_volume 2798.703721
_symmetry_space_group_name_H-M "C 2/C"
_symmetry_group_IT_number 15
_symmetry_cell_setting 'monoclinic'
loop_
_space_group_symop_operation_xyz
x,y,z
-x,y,1/2-z
-x,-y,-z
x,-y,1/2+z
1/2+x,1/2+y,z
1/2-x,1/2+y,1/2-z
1/2-x,1/2-y,-z
1/2+x,1/2-y,1/2+z
loop_
_atom_site_type_symbol
_atom_site_label
_atom_site_fract_x
_atom_site_fract_y
_atom_site_fract_z
Si Si1 0.109565 0.542082 0.824071
Si Si2 0.719963 0.419501 0.250012
Si Si3 0.610567 0.710488 0.833687
Si Si4 0.398690 0.390199 0.968740
Si Si5 0.777912 0.430876 0.918681
Si Si6 0.813221 0.375689 0.712796
Si Si7 0.898339 0.064094 0.009306
O O1 0.181754 0.596810 0.780992
O O2 0.122582 0.449704 0.800784
O O3 0.000000 0.570333 0.750000
O O4 0.132683 0.552149 0.961292
O O5 0.691782 0.340622 0.303147
O O6 0.742439 0.489625 0.343408
O O7 0.631592 0.438760 0.130164
O O8 0.500000 0.694474 0.750000
O O9 0.642024 0.801298 0.831691
O O10 0.611980 0.687568 0.960690
O O11 0.302026 0.393047 0.855287
O O12 0.408172 0.470587 0.045887
O O13 0.498799 0.387144 0.936007
O O14 0.819125 0.367727 0.846761
O O15 0.683792 0.395705 0.946728
#
# Coordination Sequence:
#
# PCOD8133937 Si02
#       7
#     8   8   8   8   8   8   8
#     4  10  21  40  62  85 117 160 213 257 293 360
#     4  10  19  37  59  89 118 154 207 248 310 355
#     4  12  23  38  61  88 126 167 192 254 313 373
#     4  11  20  35  60  91 125 154 204 254 303 367
#     4  10  19  38  61  90 120 156 205 261 296 357
#     4  11  23  38  56  93 125 163 204 248 312 367
#     4  10  19  34  60  93 118 155 208 254 307 353
#
# _framework density 20.009264000000002
#
# number of rings (size 3 to 8) (size 9 to 14) (size 15 to 20)
#    0.000    1.429    7.143    0.857    0.000    2.857 
#    0.000    5.714    3.143    0.000    0.000    0.000 
#    0.000    0.000    0.000    0.000    0.000    0.000 
#
# Total GULP energy -347078.367282 kJ/mol
# GULP energy per Si atom -12395.655974 kJ/mol
# Density = 1.996372 g / cm^3
# Si number density = 20.009264 Si / 1000 Ang^3
#
#
#
# Elastic Constant Matrix: (Units=GPa)
#
#
# Indices 1 2 3 4 5 6 
#
# 1 109.9319 27.7001 43.0937 0.0000 7.5560 0.0000
# 2 27.7001 62.0979 10.5316 0.0000 -14.1321 0.0000
# 3 43.0937 10.5316 85.3171 0.0000 -6.2408 0.0000
# 4 0.0000 0.0000 0.0000 21.7742 0.0000 -7.1382
# 5 7.5560 -14.1321 -6.2408 0.0000 31.9934 0.0000
# 6 0.0000 0.0000 0.0000 -7.1382 0.0000 24.8476
#
#
#
# Elastic Compliance Matrix: (Units=1/GPa)
#
#
# Indices 1 2 3 4 5 6 
#
# 1 0.014008 -0.006839 -0.006791 0.000000 -0.007654 0.000000
# 2 -0.006839 0.021475 0.001639 0.000000 0.011421 0.000000
# 3 -0.006791 0.001639 0.015338 0.000000 0.005320 0.000000
# 4 0.000000 0.000000 0.000000 0.050701 0.000000 0.014565
# 5 -0.007654 0.011421 0.005320 0.000000 0.039147 0.000000
# 6 0.000000 0.000000 0.000000 0.014565 0.000000 0.044430
#
#
# Mechanical properties :
#
#
# Convention : Reuss Voigt Hill
#
# Bulk Modulus (GPa) = 37.25896 46.66641 41.96268
# Shear Modulus (GPa) = 22.93297 27.45781 25.19539
#
# Velocity S-wave (km/s) = 3.38911 3.70841 3.55235
# Velocity P-wave (km/s) = 5.82890 6.45829 6.15165
#
# Compressibility (1/GPa) = 0.02683918
#
# Stress axis : x y z
#
# Youngs Moduli (GPa) = 71.38834 46.56506 65.19753
#
# Poissons Ratio (x) = 0.31844 0.44276
# Poissons Ratio (y) = 0.48820 -0.10684
# Poissons Ratio (z) = 0.48480 -0.07630
#
# Static dielectric constant tensor:
#      x y z
#    x 3.784070 0.000000 -0.084010 
#    y 0.000000 3.306860 0.000000 
#    z -0.084010 0.000000 3.754590 
# 
# 
# High freq. dielectric constant tensor:
#      x y z
#    x 1.791730 0.000000 0.000300 
#    y 0.000000 1.739130 0.000000 
#    z 0.000300 0.000000 1.783330 
# 
# From -- ./inp_files/98404.got.cif
#   From: 2010.06.25/outbox.cif.g09.slc.cpg/sg15_50_cif.got.tgz:98404.got - 2010.06.28 07:06:18.
