data_PCOD8133861
_publ_section_title
;
Structure prediction by ZEFSAII (Michael W. Deem and Ramdas Pophale) SiO2 
 PCOD8133861
Probable space group: C 2/C
;
_chemical_formula_sum "Si O2"
_cell_formula_units_Z 64
_cell_length_a 17.857344
_cell_length_b 25.422724
_cell_length_c 12.861128
_cell_angle_alpha 90.000000
_cell_angle_beta 145.006316
_cell_angle_gamma 90.000000
_cell_volume 3348.427727
_symmetry_space_group_name_H-M "C 2/C"
_symmetry_group_IT_number 15
_symmetry_cell_setting 'monoclinic'
loop_
_space_group_symop_operation_xyz
x,y,z
-x,y,1/2-z
-x,-y,-z
x,-y,1/2+z
1/2+x,1/2+y,z
1/2-x,1/2+y,1/2-z
1/2-x,1/2-y,-z
1/2+x,1/2-y,1/2+z
loop_
_atom_site_type_symbol
_atom_site_label
_atom_site_fract_x
_atom_site_fract_y
_atom_site_fract_z
Si Si1 0.949487 0.580083 0.409714
Si Si2 0.336451 0.663019 0.636233
Si Si3 0.572263 0.179520 0.437522
Si Si4 0.546090 0.444055 0.195276
Si Si5 0.400797 0.293987 0.992663
Si Si6 0.089071 0.524524 0.751972
Si Si7 0.324248 0.606781 0.303881
Si Si8 0.366827 0.454083 0.658519
O O1 0.939508 0.536469 0.308054
O O2 0.808915 0.586242 0.300115
O O3 0.993919 0.635905 0.412332
O O4 0.051551 0.562236 0.613328
O O5 0.210579 0.657193 0.562902
O O6 0.371174 0.602425 0.657944
O O7 0.447364 0.692290 0.826541
O O8 0.320135 0.692327 0.507046
O O9 0.500000 0.197163 0.250000
O O10 0.602324 0.232263 0.538742
O O11 0.500000 0.472542 0.250000
O O12 0.624242 0.496150 0.246659
O O13 0.443171 0.423031 0.996504
O O14 0.336742 0.329905 0.830448
O O15 0.000000 0.539116 0.750000
O O16 0.243211 0.534582 0.943129
O O17 0.331002 0.595830 0.189453
O O18 0.500000 0.437714 0.750000
#
# Coordination Sequence:
#
# PCOD8133861 Si02
#       8
#     8   8   8   8   8   8   8   8
#     4  11  25  39  65  91 123 170 204 249 314 383
#     4  10  19  35  50  82 125 161 183 242 302 358
#     4  12  24  33  59  92 122 159 202 251 308 376
#     4  10  19  34  58  88 124 157 196 244 295 361
#     4  10  21  36  57  82 122 161 197 252 305 362
#     4  11  24  44  60  92 133 164 206 255 314 371
#     4  11  21  40  61  88 124 162 207 250 309 367
#     4  11  24  39  65  89 119 165 209 257 300 366
#
# _framework density 19.113448000000002
#
# number of rings (size 3 to 8) (size 9 to 14) (size 15 to 20)
#    0.000    1.250    5.000    3.375    5.250    2.000 
#    0.000    0.000    0.000    1.500    0.000    0.000 
#    0.000    0.000    0.000    0.000    0.000    0.000 
#
# Total GULP energy -396508.529877 kJ/mol
# GULP energy per Si atom -12390.891559 kJ/mol
# Density = 1.906995 g / cm^3
# Si number density = 19.113448 Si / 1000 Ang^3
#
#
#
# Elastic Constant Matrix: (Units=GPa)
#
#
# Indices 1 2 3 4 5 6 
#
# 1 81.5371 30.0641 27.5016 0.0000 6.1349 0.0000
# 2 30.0641 121.5125 32.5096 0.0000 -11.6874 0.0000
# 3 27.5016 32.5096 88.7993 0.0000 0.1730 0.0000
# 4 0.0000 0.0000 0.0000 13.4251 0.0000 -13.0665
# 5 6.1349 -11.6874 0.1730 0.0000 25.4112 0.0000
# 6 0.0000 0.0000 0.0000 -13.0665 0.0000 10.1758
#
#
#
# Elastic Compliance Matrix: (Units=1/GPa)
#
#
# Indices 1 2 3 4 5 6 
#
# 1 0.015022 -0.003289 -0.003438 0.000000 -0.005116 0.000000
# 2 -0.003289 0.010319 -0.002770 0.000000 0.005559 0.000000
# 3 -0.003438 -0.002770 0.013341 0.000000 -0.000535 0.000000
# 4 0.000000 0.000000 0.000000 -0.298227 0.000000 -0.382944
# 5 -0.005116 0.005559 -0.000535 0.000000 0.043148 0.000000
# 6 0.000000 0.000000 0.000000 -0.382944 0.000000 -0.393454
#
#
# Mechanical properties :
#
#
# Convention : Reuss Voigt Hill
#
# Bulk Modulus (GPa) = 50.79297 52.44439 51.61868
# Shear Modulus (GPa) = -8.55734 23.25400 7.34833
#
# Velocity S-wave (km/s) = -2.11822 3.49181 1.96289
# Velocity P-wave (km/s) = 4.54419 6.61476 5.67471
#
# Compressibility (1/GPa) = 0.01968776
#
# Stress axis : x y z
#
# Youngs Moduli (GPa) = 66.57092 96.90784 74.95471
#
# Poissons Ratio (x) = 0.31870 0.25772
# Poissons Ratio (y) = 0.21893 0.20763
# Poissons Ratio (z) = 0.22889 0.26845
#
# Static dielectric constant tensor:
#      x y z
#    x 3.435270 0.000000 0.194370 
#    y 0.000000 3.701640 0.000000 
#    z 0.194370 0.000000 3.485150 
# 
# 
# High freq. dielectric constant tensor:
#      x y z
#    x 1.726140 0.000000 0.023340 
#    y 0.000000 1.747590 0.000000 
#    z 0.023340 0.000000 1.735000 
# 
# From -- ./inp_files/101368.got.cif
#   From: 2010.06.25/outbox.cif.g09.slc.cpg/sg15_51_cif.got.tgz:101368.got - 2010.06.28 07:06:18.
