data_PCOD8133162
_publ_section_title
;
Structure prediction by ZEFSAII (Michael W. Deem and Ramdas Pophale) SiO2 
 PCOD8133162
Probable space group: C 2/C
;
_chemical_formula_sum "Si O2"
_cell_formula_units_Z 56
_cell_length_a 20.959300
_cell_length_b 18.231759
_cell_length_c 18.028453
_cell_angle_alpha 90.000000
_cell_angle_beta 151.966969
_cell_angle_gamma 90.000000
_cell_volume 3237.752518
_symmetry_space_group_name_H-M "C 2/C"
_symmetry_group_IT_number 15
_symmetry_cell_setting 'monoclinic'
loop_
_space_group_symop_operation_xyz
x,y,z
-x,y,1/2-z
-x,-y,-z
x,-y,1/2+z
1/2+x,1/2+y,z
1/2-x,1/2+y,1/2-z
1/2-x,1/2-y,-z
1/2+x,1/2-y,1/2+z
loop_
_atom_site_type_symbol
_atom_site_label
_atom_site_fract_x
_atom_site_fract_y
_atom_site_fract_z
Si Si1 0.401449 0.062316 0.928124
Si Si2 0.504405 0.205700 0.970209
Si Si3 0.093399 0.909585 0.278290
Si Si4 0.802191 0.177277 0.260778
Si Si5 0.390800 0.864652 0.574009
Si Si6 0.938585 0.779126 0.041510
Si Si7 0.129391 0.988741 0.682457
O O1 0.419792 0.130479 0.891205
O O2 0.248984 0.033066 0.764489
O O3 0.429806 0.085635 0.042591
O O4 0.500000 0.000000 0.000000
O O5 0.406513 0.265085 0.828169
O O6 0.648102 0.194671 0.076889
O O7 0.538757 0.235868 0.088104
O O8 0.245040 0.886970 0.458384
O O9 0.000000 0.934175 0.250000
O O10 0.024943 0.841171 0.168389
O O11 0.099888 0.979942 0.232917
O O12 0.817940 0.185295 0.366941
O O13 0.835607 0.095825 0.269638
O O14 0.500000 0.878700 0.750000
O O15 0.381234 0.778434 0.542859
O O16 0.000000 0.000000 0.500000
#
# Coordination Sequence:
#
# PCOD8133162 Si02
#       7
#     8   8   8   8   8   8   8
#     4  10  20  35  54  80 109 143 187 228 269 323
#     4   9  19  31  51  81 109 137 176 226 269 329
#     4  11  23  36  51  78 111 147 191 223 265 333
#     4  10  19  32  54  77 112 140 178 224 276 316
#     4  10  22  36  52  75 114 148 180 221 268 330
#     4   9  19  31  54  75 108 143 184 211 265 327
#     4  11  21  35  54  78 109 150 184 231 272 319
#
# _framework density 17.295949
#
# number of rings (size 3 to 8) (size 9 to 14) (size 15 to 20)
#    0.857    1.143    2.857    1.286    4.000    5.714 
#    0.000    0.000    0.000    0.000    0.000    2.000 
#    0.000    0.000    0.000    0.000    0.000    0.000 
#
# Total GULP energy -346975.612946 kJ/mol
# GULP energy per Si atom -12391.986177 kJ/mol
# Density = 1.725658 g / cm^3
# Si number density = 17.295949 Si / 1000 Ang^3
#
#
#
# Elastic Constant Matrix: (Units=GPa)
#
#
# Indices 1 2 3 4 5 6 
#
# 1 65.5343 49.1805 33.1530 -0.0008 25.4382 -0.0003
# 2 49.1805 146.5987 53.7287 -0.0004 19.1290 -0.0001
# 3 33.1530 53.7287 83.7284 -0.0012 23.7669 -0.0009
# 4 -0.0008 -0.0004 -0.0012 26.6522 -0.0012 9.7482
# 5 25.4382 19.1290 23.7669 -0.0012 26.1711 -0.0007
# 6 -0.0003 -0.0001 -0.0009 9.7482 -0.0007 16.8052
#
#
#
# Elastic Compliance Matrix: (Units=1/GPa)
#
#
# Indices 1 2 3 4 5 6 
#
# 1 0.029673 -0.006584 -0.000948 0.000000 -0.023169 0.000000
# 2 -0.006584 0.010442 -0.005044 0.000000 0.003348 0.000000
# 3 -0.000948 -0.005044 0.019196 0.000000 -0.012825 0.000000
# 4 0.000000 0.000000 0.000000 0.047625 0.000002 -0.027626
# 5 -0.023169 0.003348 -0.012825 0.000002 0.069930 0.000001
# 6 0.000000 0.000000 0.000000 -0.027626 0.000001 0.075531
#
#
# Mechanical properties :
#
#
# Convention : Reuss Voigt Hill
#
# Bulk Modulus (GPa) = 29.27451 63.10952 46.19201
# Shear Modulus (GPa) = 17.30503 24.57897 20.94200
#
# Velocity S-wave (km/s) = 3.16654 3.77381 3.48344
# Velocity P-wave (km/s) = 5.50742 7.45360 6.55316
#
# Compressibility (1/GPa) = 0.03415942
#
# Stress axis : x y z
#
# Youngs Moduli (GPa) = 33.70058 95.76804 52.09526
#
# Poissons Ratio (x) = 0.63055 0.04936
# Poissons Ratio (y) = 0.22189 0.26277
# Poissons Ratio (z) = 0.03193 0.48305
#
# Static dielectric constant tensor:
#      x y z
#    x 3.073900 -0.000020 0.268610 
#    y -0.000020 2.007210 -0.000050 
#    z 0.268610 -0.000050 3.131540 
# 
# 
# High freq. dielectric constant tensor:
#      x y z
#    x 1.634830 0.000000 0.030890 
#    y 0.000000 1.679960 0.000000 
#    z 0.030890 0.000000 1.659240 
# 
# From -- ./inp_files/216060.got.cif
#   From: 2010.06.25/outbox.cif.g09.slc.cpg/sg15_109_cif.got.tgz:216060.got - 2010.06.28 07:06:18.
