data_PCOD8133971
_publ_section_title
;
Structure prediction by ZEFSAII (Michael W. Deem and Ramdas Pophale) SiO2 
 PCOD8133971
Probable space group: C 2/C
;
_chemical_formula_sum "Si O2"
_cell_formula_units_Z 56
_cell_length_a 8.699024
_cell_length_b 17.847899
_cell_length_c 25.830014
_cell_angle_alpha 90.000000
_cell_angle_beta 133.323898
_cell_angle_gamma 90.000000
_cell_volume 2917.476003
_symmetry_space_group_name_H-M "C 2/C"
_symmetry_group_IT_number 15
_symmetry_cell_setting 'monoclinic'
loop_
_space_group_symop_operation_xyz
x,y,z
-x,y,1/2-z
-x,-y,-z
x,-y,1/2+z
1/2+x,1/2+y,z
1/2-x,1/2+y,1/2-z
1/2-x,1/2-y,-z
1/2+x,1/2-y,1/2+z
loop_
_atom_site_type_symbol
_atom_site_label
_atom_site_fract_x
_atom_site_fract_y
_atom_site_fract_z
Si Si1 0.500000 0.941060 0.250000
Si Si2 0.263106 0.179033 0.859724
Si Si3 0.777851 0.823915 0.267227
Si Si4 0.500000 0.698426 0.250000
Si Si5 0.528398 0.423952 0.681668
Si Si6 0.308606 0.159945 0.166856
Si Si7 0.454863 0.958431 0.832747
Si Si8 0.872260 0.523579 0.920689
O O1 0.705343 0.891084 0.287148
O O2 0.438026 0.990261 0.186324
O O3 0.308785 0.160357 0.810397
O O4 0.324288 0.266668 0.882836
O O5 0.380442 0.114710 0.919851
O O6 0.025166 0.175601 0.823533
O O7 0.692150 0.746300 0.271146
O O8 0.589004 0.646319 0.317569
O O9 0.646444 0.396793 0.657038
O O10 0.703832 0.453381 0.763177
O O11 0.365268 0.490370 0.630858
O O12 0.500000 0.186118 0.250000
O O13 0.420865 0.120551 0.143671
O O14 0.491114 0.990818 0.897990
O O15 0.000000 0.500000 0.000000
#
# Coordination Sequence:
#
# PCOD8133971 Si02
#       8
#     4   8   8   4   8   8   8   8
#     4  11  18  30  54  95 120 144 188 237 302 344
#     4  11  20  36  57  84 121 152 187 241 304 343
#     4  10  20  29  58  97 121 140 182 257 304 352
#     4  11  18  32  58 101 122 138 194 255 308 352
#     4  11  20  35  64  88 115 155 196 250 301 352
#     4  10  19  34  62  96 118 138 195 255 307 352
#     4  11  20  36  64  90 117 150 199 250 297 356
#     4  12  27  41  56  84 125 167 207 237 288 359
#
# _framework density 19.194675
#
# number of rings (size 3 to 8) (size 9 to 14) (size 15 to 20)
#    0.000    1.143    7.857    1.714    2.000    0.000 
#    0.000    2.143    0.000    0.000    0.000    0.000 
#    0.000    0.000    0.000    0.000    0.000    0.000 
#
# Total GULP energy -347013.220413 kJ/mol
# GULP energy per Si atom -12393.329300 kJ/mol
# Density = 1.915099 g / cm^3
# Si number density = 19.194675 Si / 1000 Ang^3
#
#
#
# Elastic Constant Matrix: (Units=GPa)
#
#
# Indices 1 2 3 4 5 6 
#
# 1 105.6650 38.6653 32.0210 0.0000 -15.0831 -0.0001
# 2 38.6653 97.9994 25.3771 0.0000 -11.2945 0.0000
# 3 32.0210 25.3771 61.5500 0.0000 -16.4626 -0.0001
# 4 0.0000 0.0000 0.0000 15.6446 0.0000 -5.3361
# 5 -15.0831 -11.2945 -16.4626 0.0000 16.0074 -0.0001
# 6 -0.0001 0.0000 -0.0001 -5.3361 -0.0001 26.1346
#
#
#
# Elastic Compliance Matrix: (Units=1/GPa)
#
#
# Indices 1 2 3 4 5 6 
#
# 1 0.012624 -0.003374 -0.003630 0.000000 0.005781 0.000000
# 2 -0.003374 0.012559 -0.002625 0.000000 0.002982 0.000000
# 3 -0.003630 -0.002625 0.024564 0.000000 0.019990 0.000000
# 4 0.000000 0.000000 0.000000 0.068705 0.000001 0.014028
# 5 0.005781 0.002982 0.019990 0.000001 0.090581 0.000001
# 6 0.000000 0.000000 0.000000 0.014028 0.000001 0.041128
#
#
# Mechanical properties :
#
#
# Convention : Reuss Voigt Hill
#
# Bulk Modulus (GPa) = 32.79927 50.81570 41.80748
# Shear Modulus (GPa) = 17.88385 22.83407 20.35896
#
# Velocity S-wave (km/s) = 3.05570 3.45281 3.26031
# Velocity P-wave (km/s) = 5.43825 6.51361 6.00007
#
# Compressibility (1/GPa) = 0.03048849
#
# Stress axis : x y z
#
# Youngs Moduli (GPa) = 79.21485 79.62452 40.70919
#
# Poissons Ratio (x) = 0.26869 0.14778
# Poissons Ratio (y) = 0.26731 0.10686
# Poissons Ratio (z) = 0.28755 0.20901
#
# Static dielectric constant tensor:
#      x y z
#    x 3.850120 0.000000 -0.145500 
#    y 0.000000 4.072910 0.000000 
#    z -0.145500 0.000000 2.824400 
# 
# 
# High freq. dielectric constant tensor:
#      x y z
#    x 1.777130 0.000000 -0.014420 
#    y 0.000000 1.776460 0.000000 
#    z -0.014420 0.000000 1.650150 
# 
# From -- ./inp_files/289464.got.cif
#   From: 2010.06.25/outbox.cif.g09.slc.cpg/sg15_145_cif.got.tgz:289464.got - 2010.06.28 07:06:18.
