data_PCOD8133797
_publ_section_title
;
Structure prediction by ZEFSAII (Michael W. Deem and Ramdas Pophale) SiO2 
 PCOD8133797
Probable space group: C 2/C
;
_chemical_formula_sum "Si O2"
_cell_formula_units_Z 60
_cell_length_a 17.587364
_cell_length_b 9.611019
_cell_length_c 23.123154
_cell_angle_alpha 90.000000
_cell_angle_beta 54.192859
_cell_angle_gamma 90.000000
_cell_volume 3169.810097
_symmetry_space_group_name_H-M "C 2/C"
_symmetry_group_IT_number 15
_symmetry_cell_setting 'monoclinic'
loop_
_space_group_symop_operation_xyz
x,y,z
-x,y,1/2-z
-x,-y,-z
x,-y,1/2+z
1/2+x,1/2+y,z
1/2-x,1/2+y,1/2-z
1/2-x,1/2-y,-z
1/2+x,1/2-y,1/2+z
loop_
_atom_site_type_symbol
_atom_site_label
_atom_site_fract_x
_atom_site_fract_y
_atom_site_fract_z
Si Si1 0.496960 0.300648 0.650268
Si Si2 0.000000 0.989211 0.250000
Si Si3 0.701344 0.600714 0.629556
Si Si4 0.796555 0.601038 0.409552
Si Si5 0.187351 0.540982 0.231433
Si Si6 0.803192 0.300833 0.195650
Si Si7 0.986184 0.500004 0.821522
Si Si8 0.805966 0.892550 0.966479
O O1 0.468099 0.416430 0.709986
O O2 0.411210 0.254091 0.646507
O O3 0.532736 0.165015 0.668262
O O4 0.583785 0.361097 0.574555
O O5 0.908766 0.892619 0.302785
O O6 0.724622 0.734553 0.578714
O O7 0.773449 0.613880 0.651124
O O8 0.717695 0.458157 0.586479
O O9 0.805115 0.543020 0.340711
O O10 0.899148 0.575159 0.392143
O O11 0.717682 0.510719 0.476112
O O12 0.225119 0.392865 0.236432
O O13 0.242208 0.666375 0.234528
O O14 0.083594 0.547142 0.307028
O O15 0.000000 0.450674 0.750000
O O16 0.750000 0.750000 0.000000
#
# Coordination Sequence:
#
# PCOD8133797 Si02
#       8
#     8   4   8   8   8   8   8   8
#     4  10  19  34  57  84 111 148 190 242 277 338
#     4  10  20  34  60  90 112 148 198 244 284 342
#     4  10  23  36  58  85 117 149 184 239 292 341
#     4  10  20  36  57  81 113 143 189 232 282 335
#     4   9  20  32  57  80 114 146 179 231 288 342
#     4  10  20  37  54  85 122 144 183 236 303 343
#     4   9  16  30  55  82 105 136 185 234 277 319
#     4  11  22  38  59  82 108 151 203 235 274 337
#
# _framework density 18.928578999999999
#
# number of rings (size 3 to 8) (size 9 to 14) (size 15 to 20)
#    0.000    2.133    2.000    1.200    4.667    1.067 
#    0.000    3.333    2.933    0.000    0.000    0.000 
#    0.000    0.000    0.000    0.000    0.000    0.000 
#
# Total GULP energy -371708.814193 kJ/mol
# GULP energy per Si atom -12390.293806 kJ/mol
# Density = 1.888550 g / cm^3
# Si number density = 18.928579 Si / 1000 Ang^3
#
#
#
# Elastic Constant Matrix: (Units=GPa)
#
#
# Indices 1 2 3 4 5 6 
#
# 1 102.4114 44.1015 38.4237 0.0000 -11.0367 0.0001
# 2 44.1015 101.1438 49.9104 0.0000 -11.8411 0.0003
# 3 38.4237 49.9104 80.6760 0.0000 -14.4968 0.0000
# 4 0.0000 0.0000 0.0000 38.1967 0.0000 0.7366
# 5 -11.0367 -11.8411 -14.4968 0.0000 13.0912 0.0000
# 6 0.0001 0.0003 0.0000 0.7366 0.0000 36.5207
#
#
#
# Elastic Compliance Matrix: (Units=1/GPa)
#
#
# Indices 1 2 3 4 5 6 
#
# 1 0.012957 -0.003580 -0.003215 0.000000 0.004125 0.000000
# 2 -0.003580 0.015382 -0.007307 0.000000 0.002803 0.000000
# 3 -0.003215 -0.007307 0.020939 0.000000 0.013867 0.000000
# 4 0.000000 0.000000 0.000000 0.026190 0.000000 -0.000528
# 5 0.004125 0.002803 0.013867 0.000000 0.097757 0.000000
# 6 0.000000 0.000000 0.000000 -0.000528 0.000000 0.027392
#
#
# Mechanical properties :
#
#
# Convention : Reuss Voigt Hill
#
# Bulk Modulus (GPa) = 47.45374 61.01136 54.23255
# Shear Modulus (GPa) = 21.20022 27.68142 24.44082
#
# Velocity S-wave (km/s) = 3.35029 3.82830 3.59724
# Velocity P-wave (km/s) = 6.33168 7.20025 6.77989
#
# Compressibility (1/GPa) = 0.02107315
#
# Stress axis : x y z
#
# Youngs Moduli (GPa) = 77.17796 65.01101 47.75801
#
# Poissons Ratio (x) = 0.23276 0.15354
# Poissons Ratio (y) = 0.27632 0.34898
# Poissons Ratio (z) = 0.24812 0.47505
#
# Static dielectric constant tensor:
#      x y z
#    x 3.637110 0.000000 -0.254850 
#    y 0.000000 3.608090 0.000000 
#    z -0.254850 0.000000 3.403270 
# 
# 
# High freq. dielectric constant tensor:
#      x y z
#    x 1.723540 0.000000 -0.017010 
#    y 0.000000 1.750160 0.000000 
#    z -0.017010 0.000000 1.717220 
# 
# From -- ./inp_files/298381.got.cif
#   From: 2010.06.25/outbox.cif.g09.slc.cpg/sg15_150_cif.got.tgz:298381.got - 2010.06.28 07:06:18.
