data_PCOD8133743
_publ_section_title
;
Structure prediction by ZEFSAII (Michael W. Deem and Ramdas Pophale) SiO2 
 PCOD8133743
Probable space group: C 2/C
;
_chemical_formula_sum "Si O2"
_cell_formula_units_Z 56
_cell_length_a 7.268806
_cell_length_b 15.442881
_cell_length_c 25.908092
_cell_angle_alpha 90.000000
_cell_angle_beta 58.715759
_cell_angle_gamma 90.000000
_cell_volume 2485.367303
_symmetry_space_group_name_H-M "C 2/C"
_symmetry_group_IT_number 15
_symmetry_cell_setting 'monoclinic'
loop_
_space_group_symop_operation_xyz
x,y,z
-x,y,1/2-z
-x,-y,-z
x,-y,1/2+z
1/2+x,1/2+y,z
1/2-x,1/2+y,1/2-z
1/2-x,1/2-y,-z
1/2+x,1/2-y,1/2+z
loop_
_atom_site_type_symbol
_atom_site_label
_atom_site_fract_x
_atom_site_fract_y
_atom_site_fract_z
Si Si1 0.500000 0.336954 0.250000
Si Si2 0.427937 0.989985 0.180167
Si Si3 0.297317 0.603359 0.677954
Si Si4 0.692526 0.280694 0.641285
Si Si5 0.000000 0.093973 0.250000
Si Si6 0.142656 0.314200 0.368842
Si Si7 0.732448 0.573245 0.563681
Si Si8 0.491086 0.079715 0.430021
O O1 0.638203 0.397830 0.270504
O O2 0.351869 0.274663 0.308009
O O3 0.214696 0.039087 0.231970
O O4 0.561006 0.051661 0.120965
O O5 0.409342 0.958895 0.298534
O O6 0.356157 0.908397 0.157290
O O7 0.244359 0.702346 0.671988
O O8 0.480509 0.567467 0.612965
O O9 0.544404 0.349010 0.692886
O O10 0.564381 0.244476 0.609915
O O11 0.905661 0.324429 0.587214
O O12 0.174854 0.336918 0.424252
O O13 0.839269 0.485388 0.568391
O O14 0.774410 0.582548 0.496159
#
# Coordination Sequence:
#
# PCOD8133743 Si02
#       8
#     4   8   8   8   4   8   8   8
#     4  10  19  34  56  80 115 152 198 246 297 358
#     4   9  19  35  58  85 116 157 202 242 301 369
#     4  10  21  37  60  88 116 159 208 250 301 372
#     4  10  20  35  57  86 119 153 203 257 299 357
#     4  10  19  36  58  84 125 160 194 256 311 360
#     4   9  18  34  55  80 112 156 201 242 295 361
#     4   9  19  37  59  81 117 166 205 246 307 362
#     4   9  19  37  58  83 119 160 203 258 304 349
#
# _framework density 22.531880999999998
#
# number of rings (size 3 to 8) (size 9 to 14) (size 15 to 20)
#    0.000    2.571    0.000    1.286    0.000    4.571 
#    0.000    7.143    0.000   29.143    0.000    0.000 
#    0.000    0.000    0.000    0.000    0.000    0.143 
#
# Total GULP energy -346910.623074 kJ/mol
# GULP energy per Si atom -12389.665110 kJ/mol
# Density = 2.248060 g / cm^3
# Si number density = 22.531881 Si / 1000 Ang^3
#
#
#
# Elastic Constant Matrix: (Units=GPa)
#
#
# Indices 1 2 3 4 5 6 
#
# 1 119.7646 37.0604 36.3813 0.0005 5.8887 0.0029
# 2 37.0604 88.6850 37.1404 0.0000 -4.7665 0.0014
# 3 36.3813 37.1404 142.7604 0.0010 -12.5380 0.0011
# 4 0.0005 0.0000 0.0010 16.8876 -0.0007 -10.6437
# 5 5.8887 -4.7665 -12.5380 -0.0007 26.7226 -0.0012
# 6 0.0029 0.0014 0.0011 -10.6437 -0.0012 30.8518
#
#
#
# Elastic Compliance Matrix: (Units=1/GPa)
#
#
# Indices 1 2 3 4 5 6 
#
# 1 0.010283 -0.003664 -0.002006 -0.000001 -0.003861 -0.000001
# 2 -0.003664 0.013975 -0.002516 0.000000 0.002120 0.000000
# 3 -0.002006 -0.002516 0.008521 0.000000 0.003991 0.000000
# 4 -0.000001 0.000000 0.000000 0.075668 0.000003 0.026105
# 5 -0.003861 0.002120 0.003991 0.000003 0.040523 0.000003
# 6 -0.000001 0.000000 0.000000 0.026105 0.000003 0.041419
#
#
# Mechanical properties :
#
#
# Convention : Reuss Voigt Hill
#
# Bulk Modulus (GPa) = 60.95333 63.59714 62.27524
# Shear Modulus (GPa) = 23.55929 30.93427 27.24678
#
# Velocity S-wave (km/s) = 3.23708 3.70930 3.48121
# Velocity P-wave (km/s) = 6.40955 6.82876 6.62247
#
# Compressibility (1/GPa) = 0.01640599
#
# Stress axis : x y z
#
# Youngs Moduli (GPa) = 97.24853 71.55832 117.35675
#
# Poissons Ratio (x) = 0.26222 0.23545
# Poissons Ratio (y) = 0.35636 0.29522
# Poissons Ratio (z) = 0.19511 0.18001
#
# Static dielectric constant tensor:
#      x y z
#    x 3.931600 0.000000 -0.100150 
#    y 0.000000 4.009830 0.000000 
#    z -0.100150 0.000000 4.461150 
# 
# 
# High freq. dielectric constant tensor:
#      x y z
#    x 1.867920 0.000000 -0.009350 
#    y 0.000000 1.874210 0.000000 
#    z -0.009350 0.000000 1.898010 
# 
# From -- ./inp_files/265208.got.cif
#   From: 2010.06.25/outbox.cif.g09.slc.cpg/sg15_133_cif.got.tgz:265208.got - 2010.06.28 07:06:18.
