data_PCOD8133560
_publ_section_title
;
Structure prediction by ZEFSAII (Michael W. Deem and Ramdas Pophale) SiO2 
 PCOD8133560
Probable space group: C 2/C
;
_chemical_formula_sum "Si O2"
_cell_formula_units_Z 40
_cell_length_a 23.543702
_cell_length_b 18.614001
_cell_length_c 9.120140
_cell_angle_alpha 90.000000
_cell_angle_beta 148.615070
_cell_angle_gamma 90.000000
_cell_volume 2081.491062
_symmetry_space_group_name_H-M "C 2/C"
_symmetry_group_IT_number 15
_symmetry_cell_setting 'monoclinic'
loop_
_space_group_symop_operation_xyz
x,y,z
-x,y,1/2-z
-x,-y,-z
x,-y,1/2+z
1/2+x,1/2+y,z
1/2-x,1/2+y,1/2-z
1/2-x,1/2-y,-z
1/2+x,1/2-y,1/2+z
loop_
_atom_site_type_symbol
_atom_site_label
_atom_site_fract_x
_atom_site_fract_y
_atom_site_fract_z
Si Si1 0.872238 0.965856 0.446568
Si Si2 0.810016 0.089741 0.501221
Si Si3 0.612222 0.681217 0.406348
Si Si4 0.111538 0.311853 0.576870
Si Si5 0.029355 0.778184 0.154949
O O1 0.828458 0.895059 0.439292
O O2 0.807476 0.035738 0.358379
O O3 0.847940 0.956830 0.222698
O O4 0.000000 0.979432 0.750000
O O5 0.688584 0.119490 0.257723
O O6 0.893468 0.153604 0.655668
O O7 0.673758 0.748855 0.618614
O O8 0.500000 0.676045 0.250000
O O9 0.583433 0.696502 0.173300
O O10 0.087390 0.283878 0.688006
O O11 0.000000 0.334875 0.250000
O O12 0.000000 0.746715 0.250000
#
# Coordination Sequence:
#
# PCOD8133560 Si02
#       5
#     8   8   8   8   8
#     4  11  21  35  54  91 123 146 181 236 287 356
#     4  12  22  35  60  85 120 156 184 227 299 341
#     4   8  16  35  54  80 117 143 178 234 280 333
#     4   9  20  42  60  79 113 155 198 240 270 327
#     4  10  19  33  59  90 113 144 185 235 295 336
#
# _framework density 19.216992999999999
#
# number of rings (size 3 to 8) (size 9 to 14) (size 15 to 20)
#    0.000    2.400    6.000    1.800    2.800    0.000 
#    0.000    9.000    0.000    0.000    0.000    0.000 
#    0.000    0.000    0.000    0.000    0.000    0.000 
#
# Total GULP energy -247900.568888 kJ/mol
# GULP energy per Si atom -12395.028444 kJ/mol
# Density = 1.917325 g / cm^3
# Si number density = 19.216993 Si / 1000 Ang^3
#
#
#
# Elastic Constant Matrix: (Units=GPa)
#
#
# Indices 1 2 3 4 5 6 
#
# 1 98.9700 45.3319 45.0630 0.0000 -21.8975 0.0000
# 2 45.3319 89.2926 37.8163 0.0000 8.0564 0.0000
# 3 45.0630 37.8163 63.1672 0.0000 -8.8518 0.0000
# 4 0.0000 0.0000 0.0000 -7.7377 0.0000 9.8955
# 5 -21.8975 8.0564 -8.8518 0.0000 21.9363 0.0000
# 6 0.0000 0.0000 0.0000 9.8955 0.0000 32.5904
#
#
#
# Elastic Compliance Matrix: (Units=1/GPa)
#
#
# Indices 1 2 3 4 5 6 
#
# 1 0.024283 -0.011887 -0.006569 0.000000 0.025955 0.000000
# 2 -0.011887 0.023050 -0.008658 0.000000 -0.023826 0.000000
# 3 -0.006569 -0.008658 0.026740 0.000000 0.007412 0.000000
# 4 0.000000 0.000000 0.000000 -0.093089 0.000000 0.028265
# 5 0.025955 -0.023826 0.007412 0.000000 0.083237 0.000000
# 6 0.000000 0.000000 0.000000 0.028265 0.000000 0.022102
#
#
# Mechanical properties :
#
#
# Convention : Reuss Voigt Hill
#
# Bulk Modulus (GPa) = 50.39522 56.42802 53.41162
# Shear Modulus (GPa) = 33.97538 17.57235 25.77386
#
# Velocity S-wave (km/s) = 4.20930 3.02721 3.66622
# Velocity P-wave (km/s) = 7.06439 6.45337 6.76578
#
# Compressibility (1/GPa) = 0.01984315
#
# Stress axis : x y z
#
# Youngs Moduli (GPa) = 41.18169 43.38301 37.39776
#
# Poissons Ratio (x) = 0.51571 0.24568
# Poissons Ratio (y) = 0.48954 0.32379
# Poissons Ratio (z) = 0.27054 0.37561
#
# Static dielectric constant tensor:
#      x y z
#    x 3.267810 0.000000 -0.321850 
#    y 0.000000 3.809260 0.000000 
#    z -0.321850 0.000000 3.466470 
# 
# 
# High freq. dielectric constant tensor:
#      x y z
#    x 1.719170 0.000000 -0.033220 
#    y 0.000000 1.739760 0.000000 
#    z -0.033220 0.000000 1.733260 
# 
# From -- ./inp_files/63478.got.cif
#   From: 2010.06.25/outbox.cif.g09.slc.cpg/sg15_32_cif.got.tgz:63478.got - 2010.06.28 07:06:18.
