data_PCOD8133069
_publ_section_title
;
Structure prediction by ZEFSAII (Michael W. Deem and Ramdas Pophale) SiO2 
 PCOD8133069
Probable space group: C 2/C
;
_chemical_formula_sum "Si O2"
_cell_formula_units_Z 48
_cell_length_a 15.970799
_cell_length_b 20.162760
_cell_length_c 8.935167
_cell_angle_alpha 90.000000
_cell_angle_beta 60.710410
_cell_angle_gamma 90.000000
_cell_volume 2509.426926
_symmetry_space_group_name_H-M "C 2/C"
_symmetry_group_IT_number 15
_symmetry_cell_setting 'monoclinic'
loop_
_space_group_symop_operation_xyz
x,y,z
-x,y,1/2-z
-x,-y,-z
x,-y,1/2+z
1/2+x,1/2+y,z
1/2-x,1/2+y,1/2-z
1/2-x,1/2-y,-z
1/2+x,1/2-y,1/2+z
loop_
_atom_site_type_symbol
_atom_site_label
_atom_site_fract_x
_atom_site_fract_y
_atom_site_fract_z
Si Si1 0.634386 0.308102 0.990433
Si Si2 0.158002 0.718486 0.231239
Si Si3 0.775794 0.586709 0.426672
Si Si4 0.284968 0.503674 0.760104
Si Si5 0.542196 0.713862 0.065949
Si Si6 0.101588 0.929307 0.593080
O O1 0.727841 0.267383 0.845255
O O2 0.667645 0.383469 0.995834
O O3 0.545970 0.311222 0.957289
O O4 0.606256 0.271779 0.169234
O O5 0.144747 0.644441 0.171662
O O6 0.106059 0.728853 0.434860
O O7 0.776980 0.558907 0.594849
O O8 0.790150 0.530146 0.288801
O O9 0.321365 0.449054 0.847438
O O10 0.372325 0.535414 0.587329
O O11 0.500000 0.748890 0.250000
O O12 0.604241 0.649703 0.060917
O O13 0.000000 0.952601 0.750000
#
# Coordination Sequence:
#
# PCOD8133069 Si02
#       6
#     8   8   8   8   8   8
#     4   9  19  36  55  77 108 137 179 212 256 319
#     4   9  20  36  56  74 108 141 180 211 261 316
#     4   9  18  34  51  78 103 138 177 214 251 319
#     4  10  19  32  49  71 108 146 174 206 256 305
#     4  11  21  34  52  84 111 134 172 226 268 304
#     4  10  20  30  46  75 110 143 173 204 254 320
#
# _framework density 19.127873999999998
#
# number of rings (size 3 to 8) (size 9 to 14) (size 15 to 20)
#    1.000    1.333    0.000    4.000    0.000    2.000 
#    0.000    0.000    0.000    0.000    0.000    8.167 
#    0.000    0.000    0.000    0.000    0.000    0.000 
#
# Total GULP energy -297324.906814 kJ/mol
# GULP energy per Si atom -12388.537784 kJ/mol
# Density = 1.908434 g / cm^3
# Si number density = 19.127874 Si / 1000 Ang^3
#
#
#
# Elastic Constant Matrix: (Units=GPa)
#
#
# Indices 1 2 3 4 5 6 
#
# 1 14.6829 4.1489 14.8100 0.0000 2.7288 0.0000
# 2 4.1489 84.4290 65.2388 0.0000 -0.7034 0.0000
# 3 14.8100 65.2388 152.2096 0.0000 8.3143 0.0000
# 4 0.0000 0.0000 0.0000 37.4997 0.0000 3.8086
# 5 2.7288 -0.7034 8.3143 0.0000 15.8064 0.0000
# 6 0.0000 0.0000 0.0000 3.8086 0.0000 14.0788
#
#
#
# Elastic Compliance Matrix: (Units=1/GPa)
#
#
# Indices 1 2 3 4 5 6 
#
# 1 0.077210 0.002326 -0.008017 0.000000 -0.009009 0.000000
# 2 0.002326 0.018159 -0.008269 0.000000 0.004756 0.000000
# 3 -0.008017 -0.008269 0.011160 0.000000 -0.004854 0.000000
# 4 0.000000 0.000000 0.000000 0.027420 0.000000 -0.007418
# 5 -0.009009 0.004756 -0.004854 0.000000 0.067586 0.000000
# 6 0.000000 0.000000 0.000000 -0.007418 0.000000 0.073035
#
#
# Mechanical properties :
#
#
# Convention : Reuss Voigt Hill
#
# Bulk Modulus (GPa) = 12.72146 46.63522 29.67834
# Shear Modulus (GPa) = 15.21166 24.61857 19.91512
#
# Velocity S-wave (km/s) = 2.82310 3.59144 3.23020
# Velocity P-wave (km/s) = 4.15833 6.45226 5.42786
#
# Compressibility (1/GPa) = 0.07860734
#
# Stress axis : x y z
#
# Youngs Moduli (GPa) = 12.95162 55.06769 89.60975
#
# Poissons Ratio (x) = -0.12807 0.71843
# Poissons Ratio (y) = -0.03012 0.74102
# Poissons Ratio (z) = 0.10384 0.45538
#
# Static dielectric constant tensor:
#      x y z
#    x 2.942510 0.000000 0.144720 
#    y 0.000000 3.356070 0.000000 
#    z 0.144720 0.000000 3.735490 
# 
# 
# High freq. dielectric constant tensor:
#      x y z
#    x 1.691640 0.000000 0.016190 
#    y 0.000000 1.731540 0.000000 
#    z 0.016190 0.000000 1.757620 
# 
# From -- ./inp_files/57197.got.cif
#   From: 2010.06.25/outbox.cif.g09.slc.cpg/sg15_29_cif.got.tgz:57197.got - 2010.06.28 07:06:18.
