data_PCOD8133277
_publ_section_title
;
Structure prediction by ZEFSAII (Michael W. Deem and Ramdas Pophale) SiO2 
 PCOD8133277
Probable space group: C 2/C
;
_chemical_formula_sum "Si O2"
_cell_formula_units_Z 56
_cell_length_a 15.021393
_cell_length_b 21.509564
_cell_length_c 9.790083
_cell_angle_alpha 90.000000
_cell_angle_beta 86.434039
_cell_angle_gamma 90.000000
_cell_volume 3157.086766
_symmetry_space_group_name_H-M "C 2/C"
_symmetry_group_IT_number 15
_symmetry_cell_setting 'monoclinic'
loop_
_space_group_symop_operation_xyz
x,y,z
-x,y,1/2-z
-x,-y,-z
x,-y,1/2+z
1/2+x,1/2+y,z
1/2-x,1/2+y,1/2-z
1/2-x,1/2-y,-z
1/2+x,1/2-y,1/2+z
loop_
_atom_site_type_symbol
_atom_site_label
_atom_site_fract_x
_atom_site_fract_y
_atom_site_fract_z
Si Si1 0.045241 0.782808 0.390558
Si Si2 0.362516 0.839413 0.520162
Si Si3 0.999225 0.439102 0.090602
Si Si4 0.756716 0.323428 0.782991
Si Si5 0.927919 0.779010 0.641105
Si Si6 0.772956 0.185597 0.699322
Si Si7 0.161738 0.349984 0.438208
O O1 0.068447 0.713283 0.439816
O O2 0.130161 0.829974 0.374301
O O3 0.000000 0.776497 0.250000
O O4 0.976235 0.811211 0.507113
O O5 0.414691 0.898126 0.455495
O O6 0.298124 0.861479 0.650971
O O7 0.301703 0.809008 0.409295
O O8 0.908702 0.404415 0.062963
O O9 0.000000 0.456505 0.250000
O O10 0.000000 0.500000 0.000000
O O11 0.648504 0.325906 0.796087
O O12 0.789435 0.252742 0.765915
O O13 0.796892 0.351585 0.916286
O O14 0.882228 0.715395 0.597400
O O15 0.000000 0.763559 0.750000
O O16 0.741575 0.137918 0.820498
#
# Coordination Sequence:
#
# PCOD8133277 Si02
#       7
#     8   8   8   8   8   8   8
#     4  11  19  28  50  80 113 147 183 216 262 332
#     4  11  21  36  52  74 112 150 186 225 279 318
#     4  12  27  42  61  80 106 149 199 240 273 320
#     4  10  21  30  51  79 108 151 183 222 266 345
#     4  11  18  30  50  77 114 148 185 211 265 333
#     4  10  19  33  49  75 109 150 189 213 273 337
#     4  11  20  36  52  74 113 149 186 229 279 318
#
# _framework density 17.737871999999999
#
# number of rings (size 3 to 8) (size 9 to 14) (size 15 to 20)
#    0.000    1.143    2.857    9.000    2.000    0.000 
#    0.000    0.000    0.000    0.000    0.000    0.000 
#    0.000   22.857    0.000    0.000    0.000    0.000 
#
# Total GULP energy -347134.583365 kJ/mol
# GULP energy per Si atom -12397.663692 kJ/mol
# Density = 1.769750 g / cm^3
# Si number density = 17.737872 Si / 1000 Ang^3
#
#
#
# Elastic Constant Matrix: (Units=GPa)
#
#
# Indices 1 2 3 4 5 6 
#
# 1 102.7112 35.0454 47.5828 0.0000 -21.3797 0.0000
# 2 35.0454 49.3267 26.0324 0.0000 -6.8695 0.0000
# 3 47.5828 26.0324 126.6219 0.0000 -18.5339 0.0000
# 4 0.0000 0.0000 0.0000 21.3981 0.0000 -1.4916
# 5 -21.3797 -6.8695 -18.5339 0.0000 46.1445 0.0000
# 6 0.0000 0.0000 0.0000 -1.4916 0.0000 12.2825
#
#
#
# Elastic Compliance Matrix: (Units=1/GPa)
#
#
# Indices 1 2 3 4 5 6 
#
# 1 0.015013 -0.008319 -0.003288 0.000000 0.004397 0.000000
# 2 -0.008319 0.027462 -0.002641 0.000000 -0.000827 0.000000
# 3 -0.003288 -0.002641 0.009982 0.000000 0.002093 0.000000
# 4 0.000000 0.000000 0.000000 0.047132 0.000000 0.005724
# 5 0.004397 -0.000827 0.002093 0.000000 0.024426 0.000000
# 6 0.000000 0.000000 0.000000 0.005724 0.000000 0.082112
#
#
# Mechanical properties :
#
#
# Convention : Reuss Voigt Hill
#
# Bulk Modulus (GPa) = 41.73240 55.10898 48.42069
# Shear Modulus (GPa) = 20.60935 27.29832 23.95383
#
# Velocity S-wave (km/s) = 3.41234 3.92725 3.67881
# Velocity P-wave (km/s) = 6.25330 7.19029 6.73810
#
# Compressibility (1/GPa) = 0.02396220
#
# Stress axis : x y z
#
# Youngs Moduli (GPa) = 66.61019 36.41417 100.17717
#
# Poissons Ratio (x) = 0.30292 0.32936
# Poissons Ratio (y) = 0.55411 0.26455
# Poissons Ratio (z) = 0.21900 0.09616
#
# Static dielectric constant tensor:
#      x y z
#    x 3.890190 0.000000 -0.455470 
#    y 0.000000 2.687760 0.000000 
#    z -0.455470 0.000000 3.786450 
# 
# 
# High freq. dielectric constant tensor:
#      x y z
#    x 1.709240 0.000000 -0.011140 
#    y 0.000000 1.596100 0.000000 
#    z -0.011140 0.000000 1.719990 
# 
# From -- ./inp_files/41230.got.cif
#   From: 2010.06.25/outbox.cif.g09.slc.cpg/sg15_21_cif.got.tgz:41230.got - 2010.06.28 07:06:18.
