data_PCOD8133271
_publ_section_title
;
Structure prediction by ZEFSAII (Michael W. Deem and Ramdas Pophale) SiO2 
 PCOD8133271
Probable space group: C 2/C
;
_chemical_formula_sum "Si O2"
_cell_formula_units_Z 56
_cell_length_a 7.440883
_cell_length_b 21.666690
_cell_length_c 20.938846
_cell_angle_alpha 90.000000
_cell_angle_beta 58.562421
_cell_angle_gamma 90.000000
_cell_volume 2880.216691
_symmetry_space_group_name_H-M "C 2/C"
_symmetry_group_IT_number 15
_symmetry_cell_setting 'monoclinic'
loop_
_space_group_symop_operation_xyz
x,y,z
-x,y,1/2-z
-x,-y,-z
x,-y,1/2+z
1/2+x,1/2+y,z
1/2-x,1/2+y,1/2-z
1/2-x,1/2-y,-z
1/2+x,1/2-y,1/2+z
loop_
_atom_site_type_symbol
_atom_site_label
_atom_site_fract_x
_atom_site_fract_y
_atom_site_fract_z
Si Si1 0.504486 0.563957 0.924915
Si Si2 0.843206 0.834086 0.187058
Si Si3 0.786234 0.312574 0.157747
Si Si4 0.386835 0.756071 0.566831
Si Si5 0.531051 0.301698 0.919852
Si Si6 0.612996 0.567950 0.049860
Si Si7 0.551188 0.123680 0.991000
O O1 0.669559 0.602629 0.851129
O O2 0.482395 0.494206 0.901334
O O3 0.267874 0.591503 0.970496
O O4 0.610470 0.561421 0.974251
O O5 0.664114 0.827721 0.276105
O O6 0.844487 0.773158 0.143451
O O7 0.061536 0.839607 0.183233
O O8 0.952039 0.346202 0.079847
O O9 0.777812 0.238201 0.145549
O O10 0.517557 0.706689 0.499394
O O11 0.165727 0.768040 0.575566
O O12 0.516159 0.820373 0.548132
O O13 0.534427 0.374111 0.901757
O O14 0.853584 0.576858 0.029453
#
# Coordination Sequence:
#
# PCOD8133271 Si02
#       7
#     8   8   8   8   8   8   8
#     4  10  20  31  53  75 102 140 165 212 256 297
#     4  10  19  33  48  78 103 131 176 209 257 320
#     4   9  20  31  51  75 101 136 165 216 269 296
#     4   9  17  29  51  73  99 126 167 212 260 292
#     4   9  17  31  48  75 100 129 162 215 252 302
#     4  10  19  33  51  78 103 130 176 208 250 312
#     4   9  19  34  52  76 103 132 173 220 255 298
#
# _framework density 19.442982000000001
#
# number of rings (size 3 to 8) (size 9 to 14) (size 15 to 20)
#    0.000    2.571    1.429    1.286    2.000    2.286 
#    0.000    0.000    0.000   15.429    0.000    0.000 
#    0.000    0.000    0.000    0.000    0.000    0.000 
#
# Total GULP energy -346907.294041 kJ/mol
# GULP energy per Si atom -12389.546216 kJ/mol
# Density = 1.939873 g / cm^3
# Si number density = 19.442982 Si / 1000 Ang^3
#
#
#
# Elastic Constant Matrix: (Units=GPa)
#
#
# Indices 1 2 3 4 5 6 
#
# 1 21.5044 2.0286 -14.7605 0.0000 5.5866 0.0000
# 2 2.0286 117.2363 27.3645 0.0000 1.2197 0.0000
# 3 -14.7605 27.3645 75.6579 0.0000 12.0415 0.0000
# 4 0.0000 0.0000 0.0000 17.4507 0.0000 0.8014
# 5 5.5866 1.2197 12.0415 0.0000 19.3224 0.0000
# 6 0.0000 0.0000 0.0000 0.8014 0.0000 24.6437
#
#
#
# Elastic Compliance Matrix: (Units=1/GPa)
#
#
# Indices 1 2 3 4 5 6 
#
# 1 0.070020 -0.005769 0.020993 0.000000 -0.032963 0.000000
# 2 -0.005769 0.009841 -0.005386 0.000000 0.004403 0.000000
# 3 0.020993 -0.005386 0.022394 0.000000 -0.019686 0.000000
# 4 0.000000 0.000000 0.000000 0.057390 0.000000 -0.001866
# 5 -0.032963 0.004403 -0.019686 0.000000 0.073274 0.000000
# 6 0.000000 0.000000 0.000000 -0.001866 0.000000 0.040639
#
#
# Mechanical properties :
#
#
# Convention : Reuss Voigt Hill
#
# Bulk Modulus (GPa) = 8.20124 27.07374 17.63749
# Shear Modulus (GPa) = 16.97657 25.60110 21.28883
#
# Velocity S-wave (km/s) = 2.95811 3.63261 3.31257
# Velocity P-wave (km/s) = 3.98679 5.61688 4.87052
#
# Compressibility (1/GPa) = 0.12193275
#
# Stress axis : x y z
#
# Youngs Moduli (GPa) = 14.28171 101.61730 44.65465
#
# Poissons Ratio (x) = 0.58621 -0.93745
# Poissons Ratio (y) = 0.08239 0.24049
# Poissons Ratio (z) = -0.29982 0.54726
#
# Static dielectric constant tensor:
#      x y z
#    x 3.456800 0.000000 0.020450 
#    y 0.000000 3.816280 0.000000 
#    z 0.020450 0.000000 3.969740 
# 
# 
# High freq. dielectric constant tensor:
#      x y z
#    x 1.758760 0.000000 0.011040 
#    y 0.000000 1.754270 0.000000 
#    z 0.011040 0.000000 1.718240 
# 
# From -- ./inp_files/191634.got.cif
#   From: 2010.06.25/outbox.cif.g09.slc.cpg/sg15_96_cif.got.tgz:191634.got - 2010.06.28 07:06:18.
