data_PCOD8133331
_publ_section_title
;
Structure prediction by ZEFSAII (Michael W. Deem and Ramdas Pophale) SiO2 
 PCOD8133331
Probable space group: C 2/C
;
_chemical_formula_sum "Si O2"
_cell_formula_units_Z 56
_cell_length_a 14.195126
_cell_length_b 28.675659
_cell_length_c 9.422570
_cell_angle_alpha 90.000000
_cell_angle_beta 131.589506
_cell_angle_gamma 90.000000
_cell_volume 2868.646224
_symmetry_space_group_name_H-M "C 2/C"
_symmetry_group_IT_number 15
_symmetry_cell_setting 'monoclinic'
loop_
_space_group_symop_operation_xyz
x,y,z
-x,y,1/2-z
-x,-y,-z
x,-y,1/2+z
1/2+x,1/2+y,z
1/2-x,1/2+y,1/2-z
1/2-x,1/2-y,-z
1/2+x,1/2-y,1/2+z
loop_
_atom_site_type_symbol
_atom_site_label
_atom_site_fract_x
_atom_site_fract_y
_atom_site_fract_z
Si Si1 0.357076 0.785270 0.438396
Si Si2 0.354250 0.457583 0.762053
Si Si3 0.357076 0.785270 0.775756
Si Si4 0.000001 0.545628 0.409394
Si Si5 0.270698 0.113034 0.185102
Si Si6 0.729304 0.113034 0.643707
Si Si7 0.645750 0.457583 0.053556
O O1 0.361427 0.782722 0.611428
O O2 0.500000 0.774282 0.524332
O O3 0.250000 0.750000 0.271477
O O4 0.313901 0.836368 0.345545
O O5 0.340404 0.407619 0.828053
O O6 0.291748 0.456653 0.541747
O O7 0.292981 0.500000 0.792980
O O8 0.500000 0.467938 0.889144
O O9 0.313900 0.836367 0.782257
O O10 0.118291 0.577378 0.561416
O O11 0.000000 0.528163 0.250000
O O12 0.000000 0.500000 0.500000
O O13 0.881713 0.577380 0.324837
O O14 0.228103 0.114990 0.978104
O O15 0.840407 0.092381 0.852755
#
# Coordination Sequence:
#
# PCOD8133331 Si02
#       7
#     8   8   8   8   8   8   8
#     4   9  17  31  52  79 112 147 185 233 286 338
#     4  10  21  36  53  76 108 144 182 225 273 329
#     4   9  17  31  52  79 112 147 185 233 286 338
#     4  10  20  32  48  74 108 142 174 216 267 318
#     4  10  19  33  53  77 109 143 179 225 275 326
#     4  10  19  33  53  77 109 143 179 225 275 326
#     4  10  21  36  53  76 108 144 182 225 273 329
#
# _framework density 19.521401999999998
#
# number of rings (size 3 to 8) (size 9 to 14) (size 15 to 20)
#    0.000    2.286    1.429    1.714    0.000    6.286 
#    0.000    2.857    0.000    0.857    0.000    0.000 
#    0.000    0.000    0.000    0.000    0.000    0.000 
#
# Total GULP energy -347018.356645 kJ/mol
# GULP energy per Si atom -12393.512737 kJ/mol
# Density = 1.947697 g / cm^3
# Si number density = 19.521402 Si / 1000 Ang^3
#
#
#
# Elastic Constant Matrix: (Units=GPa)
#
#
# Indices 1 2 3 4 5 6 
#
# 1 69.7619 57.0050 33.7538 0.0000 -2.1123 0.0000
# 2 57.0050 165.8457 55.6458 0.0000 2.8516 0.0000
# 3 33.7538 55.6458 72.5368 0.0000 -3.7136 0.0000
# 4 0.0000 0.0000 0.0000 30.7099 0.0000 10.3260
# 5 -2.1123 2.8516 -3.7136 0.0000 21.8680 0.0000
# 6 0.0000 0.0000 0.0000 10.3260 0.0000 35.6290
#
#
#
# Elastic Compliance Matrix: (Units=1/GPa)
#
#
# Indices 1 2 3 4 5 6 
#
# 1 0.021720 -0.005572 -0.005738 0.000000 0.001850 0.000000
# 2 -0.005572 0.009649 -0.004944 0.000000 -0.002636 0.000000
# 3 -0.005738 -0.004944 0.020431 0.000000 0.003560 0.000000
# 4 0.000000 0.000000 0.000000 0.036079 0.000000 -0.010456
# 5 0.001850 -0.002636 0.003560 0.000000 0.046856 0.000000
# 6 0.000000 0.000000 0.000000 -0.010456 0.000000 0.031097
#
#
# Mechanical properties :
#
#
# Convention : Reuss Voigt Hill
#
# Bulk Modulus (GPa) = 51.83477 66.77264 59.30371
# Shear Modulus (GPa) = 24.41741 28.42402 26.42071
#
# Velocity S-wave (km/s) = 3.54050 3.81995 3.68288
# Velocity P-wave (km/s) = 6.58210 7.33043 6.96632
#
# Compressibility (1/GPa) = 0.01929207
#
# Stress axis : x y z
#
# Youngs Moduli (GPa) = 46.04061 103.63395 48.94467
#
# Poissons Ratio (x) = 0.57749 0.28082
# Poissons Ratio (y) = 0.25656 0.24200
# Poissons Ratio (z) = 0.26416 0.51240
#
# Static dielectric constant tensor:
#      x y z
#    x 3.567430 0.000000 0.119020 
#    y 0.000000 3.232490 0.000000 
#    z 0.119020 0.000000 3.510740 
# 
# 
# High freq. dielectric constant tensor:
#      x y z
#    x 1.746730 0.000000 0.018850 
#    y 0.000000 1.761360 0.000000 
#    z 0.018850 0.000000 1.737750 
# 
# From -- ./inp_files/44596.got.cif
#   From: 2010.06.25/outbox.cif.g09.slc.cpg/sg15_23_cif.got.tgz:44596.got - 2010.06.28 07:06:18.
