data_PCOD8133118
_publ_section_title
;
Structure prediction by ZEFSAII (Michael W. Deem and Ramdas Pophale) SiO2 
 PCOD8133118
Probable space group: C 2/C
;
_chemical_formula_sum "Si O2"
_cell_formula_units_Z 56
_cell_length_a 9.192359
_cell_length_b 16.439517
_cell_length_c 25.398853
_cell_angle_alpha 90.000000
_cell_angle_beta 45.849700
_cell_angle_gamma 90.000000
_cell_volume 2753.982445
_symmetry_space_group_name_H-M "C 2/C"
_symmetry_group_IT_number 15
_symmetry_cell_setting 'monoclinic'
loop_
_space_group_symop_operation_xyz
x,y,z
-x,y,1/2-z
-x,-y,-z
x,-y,1/2+z
1/2+x,1/2+y,z
1/2-x,1/2+y,1/2-z
1/2-x,1/2-y,-z
1/2+x,1/2-y,1/2+z
loop_
_atom_site_type_symbol
_atom_site_label
_atom_site_fract_x
_atom_site_fract_y
_atom_site_fract_z
Si Si1 0.411359 0.464984 0.145864
Si Si2 0.782417 0.998488 0.287127
Si Si3 0.867436 0.445475 0.071211
Si Si4 0.907189 0.269704 0.031635
Si Si5 0.717021 0.364109 0.860887
Si Si6 0.164226 0.663593 0.282984
Si Si7 0.951847 0.789817 0.107748
O O1 0.249435 0.467311 0.235319
O O2 0.637954 0.460512 0.110986
O O3 0.379000 0.545251 0.118048
O O4 0.373757 0.382735 0.122275
O O5 0.783654 0.096206 0.286041
O O6 0.000000 0.965095 0.250000
O O7 0.613869 0.968749 0.371514
O O8 0.958896 0.354764 0.046127
O O9 0.000000 0.500000 0.000000
O O10 0.922654 0.194807 0.068620
O O11 0.684582 0.283372 0.065023
O O12 0.068618 0.252294 0.944246
O O13 0.732054 0.321798 0.799729
O O14 0.936261 0.369922 0.832659
O O15 0.177489 0.745444 0.314094
#
# Coordination Sequence:
#
# PCOD8133118 Si02
#       7
#     8   8   8   8   8   8   8
#     4   9  19  33  51  76 102 131 173 212 257 302
#     4   9  18  32  52  74  99 130 170 210 249 304
#     4  10  19  32  52  74 102 135 171 214 255 306
#     4   9  18  30  47  74  99 128 170 206 250 306
#     4   9  18  32  51  76 101 129 167 217 257 302
#     4   9  17  31  54  73  99 133 167 208 258 305
#     4   9  17  30  49  72  99 131 166 205 250 307
#
# _framework density 20.334188000000001
#
# number of rings (size 3 to 8) (size 9 to 14) (size 15 to 20)
#    0.000    2.857    0.000    0.857    2.000    1.714 
#    0.000    0.714    6.286    0.000    0.000    0.000 
#    0.000    0.000    0.000    0.000    0.000    0.000 
#
# Total GULP energy -346972.227527 kJ/mol
# GULP energy per Si atom -12391.865269 kJ/mol
# Density = 2.028791 g / cm^3
# Si number density = 20.334188 Si / 1000 Ang^3
#
#
#
# Elastic Constant Matrix: (Units=GPa)
#
#
# Indices 1 2 3 4 5 6 
#
# 1 25.5367 27.7624 20.0112 -0.0006 16.0981 0.0003
# 2 27.7624 161.0800 66.2552 -0.0008 26.7343 0.0004
# 3 20.0112 66.2552 119.5485 -0.0025 32.9740 0.0008
# 4 -0.0006 -0.0008 -0.0025 35.7173 0.0010 7.3626
# 5 16.0981 26.7343 32.9740 0.0010 24.0733 -0.0003
# 6 0.0003 0.0004 0.0008 7.3626 -0.0003 30.5145
#
#
#
# Elastic Compliance Matrix: (Units=1/GPa)
#
#
# Indices 1 2 3 4 5 6 
#
# 1 0.072681 -0.006502 0.004583 0.000003 -0.047659 -0.000002
# 2 -0.006502 0.008944 -0.003742 0.000000 -0.000460 0.000000
# 3 0.004583 -0.003742 0.015060 0.000002 -0.019538 -0.000001
# 4 0.000003 0.000000 0.000002 0.029463 -0.000006 -0.007109
# 5 -0.047659 -0.000460 -0.019538 -0.000006 0.100683 0.000003
# 6 -0.000002 0.000000 -0.000001 -0.007109 0.000003 0.034487
#
#
# Mechanical properties :
#
#
# Convention : Reuss Voigt Hill
#
# Bulk Modulus (GPa) = 11.71457 59.35809 35.53633
# Shear Modulus (GPa) = 16.60614 30.87010 23.73812
#
# Velocity S-wave (km/s) = 2.86083 3.90056 3.42043
# Velocity P-wave (km/s) = 4.08485 7.03850 5.75441
#
# Compressibility (1/GPa) = 0.08536381
#
# Stress axis : x y z
#
# Youngs Moduli (GPa) = 13.75881 111.80654 66.39927
#
# Poissons Ratio (x) = 0.72692 -0.30429
# Poissons Ratio (y) = 0.08945 0.24845
# Poissons Ratio (z) = -0.06305 0.41836
#
# Static dielectric constant tensor:
#      x y z
#    x 3.313340 0.000000 0.295580 
#    y 0.000000 3.786340 0.000000 
#    z 0.295580 0.000000 3.933910 
# 
# 
# High freq. dielectric constant tensor:
#      x y z
#    x 1.749650 0.000000 0.025670 
#    y 0.000000 1.796870 0.000000 
#    z 0.025670 0.000000 1.796950 
# 
# From -- ./inp_files/238317.got.cif
#   From: 2010.06.25/outbox.cif.g09.slc.cpg/sg15_120_cif.got.tgz:238317.got - 2010.06.28 07:06:18.
