data_PCOD8133858
_publ_section_title
;
Structure prediction by ZEFSAII (Michael W. Deem and Ramdas Pophale) SiO2 
 PCOD8133858
Probable space group: C 2/C
;
_chemical_formula_sum "Si O2"
_cell_formula_units_Z 40
_cell_length_a 21.077134
_cell_length_b 8.811727
_cell_length_c 14.294333
_cell_angle_alpha 90.000000
_cell_angle_beta 132.566823
_cell_angle_gamma 90.000000
_cell_volume 1955.251805
_symmetry_space_group_name_H-M "C 2/C"
_symmetry_group_IT_number 15
_symmetry_cell_setting 'monoclinic'
loop_
_space_group_symop_operation_xyz
x,y,z
-x,y,1/2-z
-x,-y,-z
x,-y,1/2+z
1/2+x,1/2+y,z
1/2-x,1/2+y,1/2-z
1/2-x,1/2-y,-z
1/2+x,1/2-y,1/2+z
loop_
_atom_site_type_symbol
_atom_site_label
_atom_site_fract_x
_atom_site_fract_y
_atom_site_fract_z
Si Si1 0.727744 0.407342 0.314112
Si Si2 0.451293 0.679654 0.914041
Si Si3 0.046538 0.042672 0.394309
Si Si4 0.764511 0.922533 0.487162
Si Si5 0.178693 0.416436 0.746290
O O1 0.630612 0.436056 0.179695
O O2 0.735185 0.464900 0.426354
O O3 0.798972 0.494854 0.325648
O O4 0.744662 0.225556 0.327062
O O5 0.522066 0.626700 0.907832
O O6 0.419596 0.852038 0.861330
O O7 0.483610 0.660534 0.053703
O O8 0.148240 0.058653 0.484200
O O9 0.000000 0.081033 0.250000
O O10 0.750000 0.750000 0.500000
O O11 0.685761 0.970685 0.341152
#
# Coordination Sequence:
#
# PCOD8133858 Si02
#       5
#     8   8   8   8   8
#     4  10  19  34  58  88 118 160 203 265 309 369
#     4   9  21  34  58  88 119 166 207 263 318 365
#     4  11  19  37  59  91 122 164 217 256 308 389
#     4  12  22  36  64  95 120 166 218 268 318 380
#     4  10  20  39  57  93 127 155 219 261 311 378
#
# _framework density 20.457720999999999
#
# number of rings (size 3 to 8) (size 9 to 14) (size 15 to 20)
#    1.200    0.400    4.000    3.000    0.000    0.000 
#    0.000    0.000    0.000   10.800    0.000    0.000 
#    0.000    0.000    0.000    0.000    0.000    0.000 
#
# Total GULP energy -247820.755444 kJ/mol
# GULP energy per Si atom -12391.037772 kJ/mol
# Density = 2.041116 g / cm^3
# Si number density = 20.457721 Si / 1000 Ang^3
#
#
#
# Elastic Constant Matrix: (Units=GPa)
#
#
# Indices 1 2 3 4 5 6 
#
# 1 82.2468 41.0274 33.5201 0.0000 -16.8490 0.0000
# 2 41.0274 105.8155 21.0310 0.0000 -7.1469 0.0000
# 3 33.5201 21.0310 100.0882 0.0000 -28.9786 0.0000
# 4 0.0000 0.0000 0.0000 40.2712 0.0000 -0.7942
# 5 -16.8490 -7.1469 -28.9786 0.0000 33.2200 0.0000
# 6 0.0000 0.0000 0.0000 -0.7942 0.0000 31.5278
#
#
#
# Elastic Compliance Matrix: (Units=1/GPa)
#
#
# Indices 1 2 3 4 5 6 
#
# 1 0.017309 -0.005752 -0.003217 0.000000 0.004735 0.000000
# 2 -0.005752 0.011778 -0.000882 0.000000 -0.001153 0.000000
# 3 -0.003217 -0.000882 0.014351 0.000000 0.010697 0.000000
# 4 0.000000 0.000000 0.000000 0.024844 0.000000 0.000626
# 5 0.004735 -0.001153 0.010697 0.000000 0.041587 0.000000
# 6 0.000000 0.000000 0.000000 0.000626 0.000000 0.031734
#
#
# Mechanical properties :
#
#
# Convention : Reuss Voigt Hill
#
# Bulk Modulus (GPa) = 42.13164 53.25639 47.69401
# Shear Modulus (GPa) = 29.54761 33.84194 31.69478
#
# Velocity S-wave (km/s) = 3.80455 4.07164 3.94036
# Velocity P-wave (km/s) = 6.31971 6.94214 6.63822
#
# Compressibility (1/GPa) = 0.02373513
#
# Stress axis : x y z
#
# Youngs Moduli (GPa) = 57.77338 84.90364 69.68004
#
# Poissons Ratio (x) = 0.48836 0.22418
# Poissons Ratio (y) = 0.33231 0.06149
# Poissons Ratio (z) = 0.18588 0.07492
#
# Static dielectric constant tensor:
#      x y z
#    x 3.576860 0.000000 -0.141280 
#    y 0.000000 3.526980 0.000000 
#    z -0.141280 0.000000 3.678560 
# 
# 
# High freq. dielectric constant tensor:
#      x y z
#    x 1.785410 0.000000 -0.023630 
#    y 0.000000 1.778500 0.000000 
#    z -0.023630 0.000000 1.804310 
# 
# From -- ./inp_files/165868.got.cif
#   From: 2010.06.25/outbox.cif.g09.slc.cpg/sg15_83_cif.got.tgz:165868.got - 2010.06.28 07:06:18.
