data_PCOD8133570
_publ_section_title
;
Structure prediction by ZEFSAII (Michael W. Deem and Ramdas Pophale) SiO2 
 PCOD8133570
Probable space group: C 2/C
;
_chemical_formula_sum "Si O2"
_cell_formula_units_Z 64
_cell_length_a 12.407429
_cell_length_b 14.918136
_cell_length_c 28.561355
_cell_angle_alpha 90.000000
_cell_angle_beta 39.786486
_cell_angle_gamma 90.000000
_cell_volume 3383.035858
_symmetry_space_group_name_H-M "C 2/C"
_symmetry_group_IT_number 15
_symmetry_cell_setting 'monoclinic'
loop_
_space_group_symop_operation_xyz
x,y,z
-x,y,1/2-z
-x,-y,-z
x,-y,1/2+z
1/2+x,1/2+y,z
1/2-x,1/2+y,1/2-z
1/2-x,1/2-y,-z
1/2+x,1/2-y,1/2+z
loop_
_atom_site_type_symbol
_atom_site_label
_atom_site_fract_x
_atom_site_fract_y
_atom_site_fract_z
Si Si1 0.656259 0.938255 0.062320
Si Si2 0.693285 0.284133 0.248447
Si Si3 0.974713 0.871250 0.552728
Si Si4 0.597421 0.169594 0.909404
Si Si5 0.843662 0.814391 0.405281
Si Si6 0.568238 0.902863 0.278614
Si Si7 0.171895 0.406980 0.720423
Si Si8 0.288486 0.623998 0.023241
O O1 0.543821 0.903939 0.056177
O O2 0.586298 0.895779 0.133548
O O3 0.649103 0.045609 0.068312
O O4 0.850067 0.912950 0.989672
O O5 0.758646 0.325710 0.178154
O O6 0.505675 0.320175 0.318364
O O7 0.804913 0.321540 0.253833
O O8 0.703527 0.175840 0.245107
O O9 0.991486 0.765533 0.555819
O O10 0.824571 0.914923 0.632845
O O11 0.938105 0.894589 0.510439
O O12 0.686787 0.143985 0.928632
O O13 0.813590 0.710754 0.427008
O O14 0.870660 0.867818 0.444399
O O15 0.500000 0.888117 0.250000
O O16 0.659649 0.999816 0.252959
O O17 0.000000 0.387202 0.750000
#
# Coordination Sequence:
#
# PCOD8133570 Si02
#       8
#     8   8   8   8   8   8   8   8
#     4  11  21  34  55  78 114 138 178 221 272 323
#     4  10  19  33  60  78 105 142 187 229 264 321
#     4  10  20  34  57  79 108 139 183 217 270 322
#     4   9  20  37  52  80 102 147 178 219 265 322
#     4  10  20  35  54  76 110 137 185 217 272 319
#     4  10  22  35  54  84 112 142 181 228 279 321
#     4  10  19  36  59  81 106 144 187 227 265 320
#     4  10  21  32  52  82 105 140 173 228 268 313
#
# _framework density 18.917919000000001
#
# number of rings (size 3 to 8) (size 9 to 14) (size 15 to 20)
#    0.000    2.000    0.000    5.625    3.500    0.500 
#    0.000    0.000    0.000    3.750    0.000    0.000 
#    0.000    0.000    0.000    0.000    0.000    0.000 
#
# Total GULP energy -396823.455442 kJ/mol
# GULP energy per Si atom -12400.732983 kJ/mol
# Density = 1.887486 g / cm^3
# Si number density = 18.917919 Si / 1000 Ang^3
#
#
#
# Elastic Constant Matrix: (Units=GPa)
#
#
# Indices 1 2 3 4 5 6 
#
# 1 122.0158 63.8958 57.2339 0.0004 -2.6055 0.0000
# 2 63.8958 90.0470 21.9792 0.0003 -5.3517 0.0001
# 3 57.2339 21.9792 96.6901 0.0018 -12.6658 0.0007
# 4 0.0004 0.0003 0.0018 20.6005 0.0008 -3.9874
# 5 -2.6055 -5.3517 -12.6658 0.0008 25.8061 -0.0003
# 6 0.0000 0.0001 0.0007 -3.9874 -0.0003 36.3139
#
#
#
# Elastic Compliance Matrix: (Units=1/GPa)
#
#
# Indices 1 2 3 4 5 6 
#
# 1 0.017855 -0.010820 -0.008728 0.000001 -0.004725 0.000000
# 2 -0.010820 0.018350 0.002767 0.000000 0.004071 0.000000
# 3 -0.008728 0.002767 0.015859 -0.000002 0.007476 0.000000
# 4 0.000001 0.000000 -0.000002 0.049596 -0.000002 0.005446
# 5 -0.004725 0.004071 0.007476 -0.000002 0.042787 0.000000
# 6 0.000000 0.000000 0.000000 0.005446 0.000000 0.028136
#
#
# Mechanical properties :
#
#
# Convention : Reuss Voigt Hill
#
# Bulk Modulus (GPa) = 54.05153 66.10783 60.07968
# Shear Modulus (GPa) = 23.55013 27.58706 25.56859
#
# Velocity S-wave (km/s) = 3.53208 3.82285 3.68034
# Velocity P-wave (km/s) = 6.72813 7.38282 7.06306
#
# Compressibility (1/GPa) = 0.01850086
#
# Stress axis : x y z
#
# Youngs Moduli (GPa) = 56.00665 54.49722 63.05442
#
# Poissons Ratio (x) = 0.58966 0.55036
# Poissons Ratio (y) = 0.60599 -0.17446
# Poissons Ratio (z) = 0.48885 -0.15078
#
# Static dielectric constant tensor:
#      x y z
#    x 3.480690 0.000000 0.087560 
#    y 0.000000 3.551630 0.000000 
#    z 0.087560 0.000000 3.452180 
# 
# 
# High freq. dielectric constant tensor:
#      x y z
#    x 1.724350 0.000000 0.001770 
#    y 0.000000 1.728790 0.000000 
#    z 0.001770 0.000000 1.739540 
# 
# From -- ./inp_files/311178.got.cif
#   From: 2010.06.25/outbox.cif.g09.slc.cpg/sg15_156_cif.got.tgz:311178.got - 2010.06.28 07:06:18.
