data_PCOD8133700
_publ_section_title
;
Structure prediction by ZEFSAII (Michael W. Deem and Ramdas Pophale) SiO2 
 PCOD8133700
Probable space group: C 2/C
;
_chemical_formula_sum "Si O2"
_cell_formula_units_Z 64
_cell_length_a 10.508449
_cell_length_b 23.218729
_cell_length_c 16.969230
_cell_angle_alpha 90.000000
_cell_angle_beta 51.737531
_cell_angle_gamma 90.000000
_cell_volume 3250.945098
_symmetry_space_group_name_H-M "C 2/C"
_symmetry_group_IT_number 15
_symmetry_cell_setting 'monoclinic'
loop_
_space_group_symop_operation_xyz
x,y,z
-x,y,1/2-z
-x,-y,-z
x,-y,1/2+z
1/2+x,1/2+y,z
1/2-x,1/2+y,1/2-z
1/2-x,1/2-y,-z
1/2+x,1/2-y,1/2+z
loop_
_atom_site_type_symbol
_atom_site_label
_atom_site_fract_x
_atom_site_fract_y
_atom_site_fract_z
Si Si1 0.790808 0.534510 0.959192
Si Si2 0.114833 0.124664 0.135167
Si Si3 0.561336 0.814210 0.962869
Si Si4 0.012927 0.814210 0.962869
Si Si5 0.710902 0.186139 0.039098
Si Si6 0.170350 0.074280 0.579650
Si Si7 0.617952 0.905684 0.362129
Si Si8 0.657789 0.594316 0.862129
O O1 0.685165 0.568711 0.064835
O O2 0.768288 0.466538 0.981712
O O3 0.729014 0.547447 0.895164
O O4 0.980657 0.547447 0.895164
O O5 0.256266 0.164668 0.115894
O O6 0.000000 0.103715 0.250000
O O7 0.011947 0.164668 0.115894
O O8 0.481464 0.821083 0.905062
O O9 0.553070 0.750000 1.000000
O O10 0.463916 0.851823 0.063852
O O11 0.208411 0.821083 0.905062
O O12 0.908380 0.851823 0.063852
O O13 0.750000 0.250000 0.000000
O O14 0.801970 0.141379 0.948030
O O15 0.240838 0.063485 0.640119
O O16 0.978925 0.063485 0.640119
O O17 0.698515 0.884032 0.250000
#
# Coordination Sequence:
#
# PCOD8133700 Si02
#       8
#     8   8   8   8   8   8   8   8
#     4  10  21  37  53  75 109 142 175 219 267 311
#     4  10  21  34  49  72 104 141 180 217 257 310
#     4   9  18  34  54  78 107 139 174 217 269 317
#     4   9  18  34  54  78 107 139 174 217 269 317
#     4   8  16  33  56  77 102 133 167 211 262 315
#     4  10  19  34  55  78 105 138 173 215 264 314
#     4  10  20  34  55  82 108 138 179 223 264 314
#     4  10  20  34  55  82 108 138 179 223 264 314
#
# _framework density 19.686584
#
# number of rings (size 3 to 8) (size 9 to 14) (size 15 to 20)
#    0.000    2.500    0.000    1.875    0.000    2.000 
#    0.000    0.625    0.000   10.500    0.000    0.000 
#    0.000    0.000    0.000    0.000    0.000    0.000 
#
# Total GULP energy -396451.180050 kJ/mol
# GULP energy per Si atom -12389.099377 kJ/mol
# Density = 1.964178 g / cm^3
# Si number density = 19.686584 Si / 1000 Ang^3
#
#
#
# Elastic Constant Matrix: (Units=GPa)
#
#
# Indices 1 2 3 4 5 6 
#
# 1 163.7538 26.0454 50.2731 0.0000 1.4007 0.0000
# 2 26.0454 79.5538 26.4111 0.0000 -0.0054 0.0000
# 3 50.2731 26.4111 92.3354 0.0000 -0.3422 0.0000
# 4 0.0000 0.0000 0.0000 12.4021 0.0000 0.0944
# 5 1.4007 -0.0054 -0.3422 0.0000 9.5143 0.0000
# 6 0.0000 0.0000 0.0000 0.0944 0.0000 18.7731
#
#
#
# Elastic Compliance Matrix: (Units=1/GPa)
#
#
# Indices 1 2 3 4 5 6 
#
# 1 0.007450 -0.001205 -0.003716 0.000000 -0.001231 0.000000
# 2 -0.001205 0.014084 -0.003372 0.000000 0.000064 0.000000
# 3 -0.003716 -0.003372 0.013822 0.000000 0.001042 0.000000
# 4 0.000000 0.000000 0.000000 0.080634 0.000000 -0.000406
# 5 -0.001231 0.000064 0.001042 0.000000 0.105324 0.000000
# 6 0.000000 0.000000 0.000000 -0.000406 0.000000 0.053270
#
#
# Mechanical properties :
#
#
# Convention : Reuss Voigt Hill
#
# Bulk Modulus (GPa) = 53.27953 60.12247 56.70100
# Shear Modulus (GPa) = 16.81086 23.66546 20.23816
#
# Velocity S-wave (km/s) = 2.92537 3.47091 3.20975
# Velocity P-wave (km/s) = 6.20750 6.83148 6.52695
#
# Compressibility (1/GPa) = 0.01876894
#
# Stress axis : x y z
#
# Youngs Moduli (GPa) = 134.23215 71.00133 72.35049
#
# Poissons Ratio (x) = 0.08559 0.26885
# Poissons Ratio (y) = 0.16181 0.24397
# Poissons Ratio (z) = 0.49879 0.23942
#
# Static dielectric constant tensor:
#      x y z
#    x 4.471970 0.000000 0.019740 
#    y 0.000000 3.498910 0.000000 
#    z 0.019740 0.000000 3.139880 
# 
# 
# High freq. dielectric constant tensor:
#      x y z
#    x 1.803810 0.000000 0.001210 
#    y 0.000000 1.762810 0.000000 
#    z 0.001210 0.000000 1.722200 
# 
# From -- ./inp_files/200768.got.cif
#   From: 2010.06.25/outbox.cif.g09.slc.cpg/sg15_101_cif.got.tgz:200768.got - 2010.06.28 07:06:18.
