data_PCOD8133202
_publ_section_title
;
Structure prediction by ZEFSAII (Michael W. Deem and Ramdas Pophale) SiO2 
 PCOD8133202
Probable space group: C 2/C
;
_chemical_formula_sum "Si O2"
_cell_formula_units_Z 40
_cell_length_a 27.321833
_cell_length_b 11.390892
_cell_length_c 12.728577
_cell_angle_alpha 90.000000
_cell_angle_beta 34.535589
_cell_angle_gamma 90.000000
_cell_volume 2245.782482
_symmetry_space_group_name_H-M "C 2/C"
_symmetry_group_IT_number 15
_symmetry_cell_setting 'monoclinic'
loop_
_space_group_symop_operation_xyz
x,y,z
-x,y,1/2-z
-x,-y,-z
x,-y,1/2+z
1/2+x,1/2+y,z
1/2-x,1/2+y,1/2-z
1/2-x,1/2-y,-z
1/2+x,1/2-y,1/2+z
loop_
_atom_site_type_symbol
_atom_site_label
_atom_site_fract_x
_atom_site_fract_y
_atom_site_fract_z
Si Si1 0.638051 0.799943 0.636413
Si Si2 0.839590 0.511130 0.040156
Si Si3 0.537679 0.912644 0.517977
Si Si4 0.693395 0.864081 0.105786
Si Si5 0.747132 0.409434 0.902117
O O1 0.658457 0.664973 0.568991
O O2 0.675191 0.829708 0.686817
O O3 0.684917 0.885380 0.468771
O O4 0.534766 0.819745 0.817320
O O5 0.929599 0.491776 0.942537
O O6 0.765137 0.559348 0.248808
O O7 0.852069 0.606170 0.925137
O O8 0.619535 0.844634 0.323998
O O9 0.500000 0.000000 0.500000
O O10 0.758113 0.969566 0.023726
O O11 0.750000 0.750000 0.000000
#
# Coordination Sequence:
#
# PCOD8133202 Si02
#       5
#     8   8   8   8   8
#     4  10  19  34  55  81 112 142 187 239 275 337
#     4  10  19  32  56  81 109 147 186 235 284 325
#     4  11  19  35  54  87 109 142 197 238 270 334
#     4  10  22  37  54  84 117 146 189 238 282 344
#     4   9  20  34  53  84 111 145 184 226 289 340
#
# _framework density 17.811163000000001
#
# number of rings (size 3 to 8) (size 9 to 14) (size 15 to 20)
#    0.000    2.000    6.000    0.600    5.600    0.000 
#    0.000    1.000    0.000    0.000   10.400    0.000 
#    0.000    0.000    0.000    0.000    0.000    0.000 
#
# Total GULP energy -247851.011761 kJ/mol
# GULP energy per Si atom -12392.550588 kJ/mol
# Density = 1.777062 g / cm^3
# Si number density = 17.811163 Si / 1000 Ang^3
#
#
#
# Elastic Constant Matrix: (Units=GPa)
#
#
# Indices 1 2 3 4 5 6 
#
# 1 94.5338 37.6825 43.4736 0.0000 8.5806 0.0000
# 2 37.6825 118.5860 80.0177 0.0000 -7.9646 0.0000
# 3 43.4736 80.0177 121.8065 0.0000 -1.7172 0.0000
# 4 0.0000 0.0000 0.0000 38.8789 0.0000 -5.8552
# 5 8.5806 -7.9646 -1.7172 0.0000 30.3277 0.0000
# 6 0.0000 0.0000 0.0000 -5.8552 0.0000 23.2109
#
#
#
# Elastic Compliance Matrix: (Units=1/GPa)
#
#
# Indices 1 2 3 4 5 6 
#
# 1 0.013462 -0.002338 -0.003334 0.000000 -0.004611 0.000000
# 2 -0.002338 0.015915 -0.009560 0.000000 0.004300 0.000000
# 3 -0.003334 -0.009560 0.015670 0.000000 -0.000680 0.000000
# 4 0.000000 0.000000 0.000000 0.026737 0.000000 0.006745
# 5 -0.004611 0.004300 -0.000680 0.000000 0.035369 0.000000
# 6 0.000000 0.000000 0.000000 0.006745 0.000000 0.044785
#
#
# Mechanical properties :
#
#
# Convention : Reuss Voigt Hill
#
# Bulk Modulus (GPa) = 68.56941 73.03043 70.79992
# Shear Modulus (GPa) = 26.70058 30.06700 28.38379
#
# Velocity S-wave (km/s) = 3.87601 4.11310 3.99632
# Velocity P-wave (km/s) = 7.65590 7.97800 7.81861
#
# Compressibility (1/GPa) = 0.01458376
#
# Stress axis : x y z
#
# Youngs Moduli (GPa) = 74.28401 62.83311 63.81513
#
# Poissons Ratio (x) = 0.14690 0.21275
# Poissons Ratio (y) = 0.17367 0.61008
# Poissons Ratio (z) = 0.24765 0.60069
#
# Static dielectric constant tensor:
#      x y z
#    x 3.529700 0.000000 0.218810 
#    y 0.000000 3.195530 0.000000 
#    z 0.218810 0.000000 3.642280 
# 
# 
# High freq. dielectric constant tensor:
#      x y z
#    x 1.697840 0.000000 0.023620 
#    y 0.000000 1.663080 0.000000 
#    z 0.023620 0.000000 1.674970 
# 
# From -- ./inp_files/94489.got.cif
#   From: 2010.06.25/outbox.cif.g09.slc.cpg/sg15_48_cif.got.tgz:94489.got - 2010.06.28 07:06:18.
