data_PCOD8133718
_publ_section_title
;
Structure prediction by ZEFSAII (Michael W. Deem and Ramdas Pophale) SiO2 
 PCOD8133718
Probable space group: C 2/C
;
_chemical_formula_sum "Si O2"
_cell_formula_units_Z 60
_cell_length_a 21.514303
_cell_length_b 14.281784
_cell_length_c 14.200184
_cell_angle_alpha 90.000000
_cell_angle_beta 43.429048
_cell_angle_gamma 90.000000
_cell_volume 2999.497354
_symmetry_space_group_name_H-M "C 2/C"
_symmetry_group_IT_number 15
_symmetry_cell_setting 'monoclinic'
loop_
_space_group_symop_operation_xyz
x,y,z
-x,y,1/2-z
-x,-y,-z
x,-y,1/2+z
1/2+x,1/2+y,z
1/2-x,1/2+y,1/2-z
1/2-x,1/2-y,-z
1/2+x,1/2-y,1/2+z
loop_
_atom_site_type_symbol
_atom_site_label
_atom_site_fract_x
_atom_site_fract_y
_atom_site_fract_z
Si Si1 0.953256 0.567881 0.654205
Si Si2 0.000000 0.247306 0.750000
Si Si3 0.247481 0.864008 0.567243
Si Si4 0.906063 0.746077 0.819840
Si Si5 0.811744 0.842443 0.429548
Si Si6 0.745267 0.013693 0.621402
Si Si7 0.553251 0.103935 0.045139
Si Si8 0.747510 0.450409 0.178782
O O1 0.946169 0.655467 0.727576
O O2 0.861472 0.508057 0.742892
O O3 0.986462 0.605543 0.516546
O O4 0.025598 0.496554 0.620606
O O5 0.085866 0.181239 0.660988
O O6 0.007000 0.311292 0.650226
O O7 0.151108 0.811014 0.689803
O O8 0.332488 0.791282 0.478638
O O9 0.235187 0.905702 0.475700
O O10 0.262298 0.942912 0.628689
O O11 0.000000 0.797703 0.750000
O O12 0.750000 0.750000 0.500000
O O13 0.816546 0.893854 0.322341
O O14 0.777633 0.913147 0.548166
O O15 0.790942 0.042931 0.671892
O O16 0.661140 0.110644 0.928032
#
# Coordination Sequence:
#
# PCOD8133718 Si02
#       8
#     8   4   8   8   8   8   8   8
#     4   9  19  34  57  88 113 148 191 241 293 350
#     4  12  24  36  60  90 118 154 194 256 296 360
#     4   9  20  36  55  84 112 144 193 229 282 347
#     4  10  19  34  55  81 112 145 182 236 279 332
#     4  11  22  41  60  90 120 157 203 251 301 354
#     4   9  20  39  60  81 118 158 193 240 295 353
#     4  10  20  34  57  87 117 145 192 242 298 347
#     4  10  20  40  62  81 115 164 193 237 300 349
#
# _framework density 20.003350999999999
#
# number of rings (size 3 to 8) (size 9 to 14) (size 15 to 20)
#    0.000    2.133    1.333    1.600    4.667    1.067 
#   12.000    0.667    0.000    0.000    0.000    0.000 
#    0.000    0.000    0.000    0.000    0.000    0.000 
#
# Total GULP energy -371778.755409 kJ/mol
# GULP energy per Si atom -12392.625180 kJ/mol
# Density = 1.995782 g / cm^3
# Si number density = 20.003351 Si / 1000 Ang^3
#
#
#
# Elastic Constant Matrix: (Units=GPa)
#
#
# Indices 1 2 3 4 5 6 
#
# 1 74.1351 16.7022 35.0446 0.0000 -0.8394 0.0000
# 2 16.7022 63.2158 24.0575 0.0000 1.4204 0.0000
# 3 35.0446 24.0575 76.8986 0.0000 2.9177 0.0000
# 4 0.0000 0.0000 0.0000 -25.0584 0.0000 -12.7580
# 5 -0.8394 1.4204 2.9177 0.0000 39.1321 0.0000
# 6 0.0000 0.0000 0.0000 -12.7580 0.0000 35.8104
#
#
#
# Elastic Compliance Matrix: (Units=1/GPa)
#
#
# Indices 1 2 3 4 5 6 
#
# 1 0.017407 -0.001803 -0.007407 0.000000 0.000991 0.000000
# 2 -0.001803 0.018146 -0.004842 0.000000 -0.000336 0.000000
# 3 -0.007407 -0.004842 0.017945 0.000000 -0.001321 0.000000
# 4 0.000000 0.000000 0.000000 -0.033780 0.000000 -0.012034
# 5 0.000991 -0.000336 -0.001321 0.000000 0.025686 0.000000
# 6 0.000000 0.000000 0.000000 -0.012034 0.000000 0.023637
#
#
# Mechanical properties :
#
#
# Convention : Reuss Voigt Hill
#
# Bulk Modulus (GPa) = 39.37958 40.65091 40.01524
# Shear Modulus (GPa) = 47.34393 19.20649 33.27521
#
# Velocity S-wave (km/s) = 4.87025 3.10201 4.08301
# Velocity P-wave (km/s) = 7.16624 5.76161 6.50197
#
# Compressibility (1/GPa) = 0.02539387
#
# Stress axis : x y z
#
# Youngs Moduli (GPa) = 57.44658 55.10996 55.72709
#
# Poissons Ratio (x) = 0.09935 0.41275
# Poissons Ratio (y) = 0.10356 0.26986
# Poissons Ratio (z) = 0.42549 0.26687
#
# Static dielectric constant tensor:
#      x y z
#    x 3.672110 0.000000 -0.065880 
#    y 0.000000 3.636060 0.000000 
#    z -0.065880 0.000000 3.769300 
# 
# 
# High freq. dielectric constant tensor:
#      x y z
#    x 1.772690 0.000000 0.000990 
#    y 0.000000 1.777980 0.000000 
#    z 0.000990 0.000000 1.767670 
# 
# From -- ./inp_files/168261.got.cif
#   From: 2010.06.25/outbox.cif.g09.slc.cpg/sg15_85_cif.got.tgz:168261.got - 2010.06.28 07:06:18.
