data_PCOD8133047
_publ_section_title
;
Structure prediction by ZEFSAII (Michael W. Deem and Ramdas Pophale) SiO2 
 PCOD8133047
Probable space group: C 2/C
;
_chemical_formula_sum "Si O2"
_cell_formula_units_Z 40
_cell_length_a 17.539045
_cell_length_b 5.283653
_cell_length_c 20.093113
_cell_angle_alpha 90.000000
_cell_angle_beta 94.446683
_cell_angle_gamma 90.000000
_cell_volume 1856.428475
_symmetry_space_group_name_H-M "C 2/C"
_symmetry_group_IT_number 15
_symmetry_cell_setting 'monoclinic'
loop_
_space_group_symop_operation_xyz
x,y,z
-x,y,1/2-z
-x,-y,-z
x,-y,1/2+z
1/2+x,1/2+y,z
1/2-x,1/2+y,1/2-z
1/2-x,1/2-y,-z
1/2+x,1/2-y,1/2+z
loop_
_atom_site_type_symbol
_atom_site_label
_atom_site_fract_x
_atom_site_fract_y
_atom_site_fract_z
Si Si1 0.607191 0.179514 0.407038
Si Si2 0.540000 0.579005 0.570402
Si Si3 0.408288 0.184198 0.243457
Si Si4 0.837339 0.184362 0.016530
Si Si5 0.069202 0.815953 0.701781
O O1 0.514549 0.205568 0.402150
O O2 0.630301 0.169357 0.331452
O O3 0.650742 0.414427 0.445495
O O4 0.625758 0.910321 0.439472
O O5 0.500000 0.500000 0.500000
O O6 0.623983 0.676208 0.554546
O O7 0.542876 0.346457 0.623178
O O8 0.500000 0.204881 0.250000
O O9 0.378369 0.439502 0.277442
O O10 0.382164 0.941506 0.285694
O O11 0.750000 0.250000 0.000000
O O12 0.000000 0.794948 0.750000
#
# Coordination Sequence:
#
# PCOD8133047 Si02
#       5
#     8   8   8   8   8
#     4  11  21  40  64  94 121 163 218 261 306 375
#     4  10  22  37  63  98 121 158 214 266 306 369
#     4  10  19  31  59  89 123 149 197 257 319 351
#     4  11  25  41  61  89 135 170 206 256 324 376
#     4  10  19  33  54  89 125 150 192 259 320 350
#
# _framework density 21.546751
#
# number of rings (size 3 to 8) (size 9 to 14) (size 15 to 20)
#    0.000    1.600    4.000    2.400    8.400    3.200 
#    0.000    0.000    0.000    4.800    0.000    0.000 
#    0.000    0.000    0.000    0.000    0.000    0.000 
#
# Total GULP energy -247778.429515 kJ/mol
# GULP energy per Si atom -12388.921476 kJ/mol
# Density = 2.149771 g / cm^3
# Si number density = 21.546751 Si / 1000 Ang^3
#
#
#
# Elastic Constant Matrix: (Units=GPa)
#
#
# Indices 1 2 3 4 5 6 
#
# 1 83.3015 0.1513 14.7754 0.0000 -2.5600 0.0000
# 2 0.1513 132.6427 23.2429 0.0000 3.4126 0.0000
# 3 14.7754 23.2429 129.7343 0.0000 -1.3901 0.0000
# 4 0.0000 0.0000 0.0000 34.0098 0.0000 12.7206
# 5 -2.5600 3.4126 -1.3901 0.0000 9.8776 0.0000
# 6 0.0000 0.0000 0.0000 12.7206 0.0000 14.8033
#
#
#
# Elastic Compliance Matrix: (Units=1/GPa)
#
#
# Indices 1 2 3 4 5 6 
#
# 1 0.012344 0.000156 -0.001402 0.000000 0.002948 0.000000
# 2 0.000156 0.007869 -0.001458 0.000000 -0.002883 0.000000
# 3 -0.001402 -0.001458 0.008143 0.000000 0.001286 0.000000
# 4 0.000000 0.000000 0.000000 0.043329 0.000000 -0.037233
# 5 0.002948 -0.002883 0.001286 0.000000 0.103180 0.000000
# 6 0.000000 0.000000 0.000000 -0.037233 0.000000 0.099547
#
#
# Mechanical properties :
#
#
# Convention : Reuss Voigt Hill
#
# Bulk Modulus (GPa) = 43.58137 46.89084 45.23611
# Shear Modulus (GPa) = 17.39311 32.23875 24.81593
#
# Velocity S-wave (km/s) = 2.84426 3.87230 3.39739
# Velocity P-wave (km/s) = 5.57286 6.46549 6.03570
#
# Compressibility (1/GPa) = 0.02294558
#
# Stress axis : x y z
#
# Youngs Moduli (GPa) = 81.01370 127.08737 122.80780
#
# Poissons Ratio (x) = -0.01980 0.17219
# Poissons Ratio (y) = -0.01262 0.17910
# Poissons Ratio (z) = 0.11359 0.18534
#
# Static dielectric constant tensor:
#      x y z
#    x 3.721330 0.000000 -0.292460 
#    y 0.000000 5.691040 0.000000 
#    z -0.292460 0.000000 4.253900 
# 
# 
# High freq. dielectric constant tensor:
#      x y z
#    x 1.772600 0.000000 0.000630 
#    y 0.000000 1.870920 0.000000 
#    z 0.000630 0.000000 1.862980 
# 
# From -- ./inp_files/208119.got.cif
#   From: 2010.06.25/outbox.cif.g09.slc.cpg/sg15_105_cif.got.tgz:208119.got - 2010.06.28 07:06:18.
