data_PCOD8133498
_publ_section_title
;
Structure prediction by ZEFSAII (Michael W. Deem and Ramdas Pophale) SiO2 
 PCOD8133498
Probable space group: C 2/C
;
_chemical_formula_sum "Si O2"
_cell_formula_units_Z 64
_cell_length_a 18.730655
_cell_length_b 11.679839
_cell_length_c 29.258775
_cell_angle_alpha 90.000000
_cell_angle_beta 29.713309
_cell_angle_gamma 90.000000
_cell_volume 3172.708747
_symmetry_space_group_name_H-M "C 2/C"
_symmetry_group_IT_number 15
_symmetry_cell_setting 'monoclinic'
loop_
_space_group_symop_operation_xyz
x,y,z
-x,y,1/2-z
-x,-y,-z
x,-y,1/2+z
1/2+x,1/2+y,z
1/2-x,1/2+y,1/2-z
1/2-x,1/2-y,-z
1/2+x,1/2-y,1/2+z
loop_
_atom_site_type_symbol
_atom_site_label
_atom_site_fract_x
_atom_site_fract_y
_atom_site_fract_z
Si Si1 0.080738 0.664526 0.106267
Si Si2 0.083991 0.040487 0.908441
Si Si3 0.486237 0.075834 0.452769
Si Si4 0.623584 0.583112 0.558865
Si Si5 0.191340 0.595196 0.863516
Si Si6 0.763925 0.733292 0.182936
Si Si7 0.459477 0.556237 0.219248
Si Si8 0.734330 0.173479 0.213566
O O1 0.081233 0.634359 0.052880
O O2 0.107021 0.800201 0.097530
O O3 0.925483 0.635356 0.214856
O O4 0.211390 0.585444 0.052833
O O5 0.204473 0.137816 0.852403
O O6 0.974352 0.086320 0.931563
O O7 0.163815 0.934450 0.841347
O O8 0.000000 0.000000 0.000000
O O9 0.355540 0.056696 0.559940
O O10 0.608627 0.155301 0.408628
O O11 0.570837 0.955772 0.395161
O O12 0.592317 0.475017 0.610716
O O13 0.346828 0.541913 0.767211
O O14 0.198796 0.732027 0.857167
O O15 0.609022 0.682586 0.252454
O O16 0.775371 0.731065 0.231414
O O17 0.500000 0.548963 0.250000
#
# Coordination Sequence:
#
# PCOD8133498 Si02
#       8
#     8   8   8   8   8   8   8   8
#     4  10  21  35  60  86 128 161 200 267 323 369
#     4  12  24  42  68  91 131 170 215 263 320 388
#     4   9  18  33  57  84 122 153 198 272 304 372
#     4  11  21  40  58  95 125 165 207 262 329 373
#     4  10  19  33  56  94 116 154 218 252 314 374
#     4  10  21  38  59  88 120 164 218 248 311 386
#     4  11  21  38  64  90 125 163 207 266 321 377
#     4  11  21  37  65  91 123 169 214 262 311 384
#
# _framework density 20.172038000000001
#
# number of rings (size 3 to 8) (size 9 to 14) (size 15 to 20)
#    0.000    1.500    5.000    1.500    3.500    0.000 
#    0.000    1.875    0.000    2.250    0.000    0.000 
#    0.000    0.000    0.000    0.000    0.000    0.000 
#
# Total GULP energy -396558.058699 kJ/mol
# GULP energy per Si atom -12392.439334 kJ/mol
# Density = 2.012613 g / cm^3
# Si number density = 20.172038 Si / 1000 Ang^3
#
#
#
# Elastic Constant Matrix: (Units=GPa)
#
#
# Indices 1 2 3 4 5 6 
#
# 1 65.2206 27.5223 23.6477 0.0002 -8.8494 0.0000
# 2 27.5223 115.9165 47.9174 0.0001 -8.4815 0.0001
# 3 23.6477 47.9174 101.3014 0.0011 -9.4668 -0.0001
# 4 0.0002 0.0001 0.0011 38.8178 -0.0002 0.1117
# 5 -8.8494 -8.4815 -9.4668 -0.0002 26.6064 0.0001
# 6 0.0000 0.0001 -0.0001 0.1117 0.0001 24.2819
#
#
#
# Elastic Compliance Matrix: (Units=1/GPa)
#
#
# Indices 1 2 3 4 5 6 
#
# 1 0.018032 -0.002979 -0.002409 0.000000 0.004191 0.000000
# 2 -0.002979 0.011288 -0.004552 0.000000 0.000988 0.000000
# 3 -0.002409 -0.004552 0.012802 0.000000 0.002303 0.000000
# 4 0.000000 0.000000 0.000000 0.025762 0.000000 -0.000119
# 5 0.004191 0.000988 0.002303 0.000000 0.040113 0.000000
# 6 0.000000 0.000000 0.000000 -0.000119 0.000000 0.041183
#
#
# Mechanical properties :
#
#
# Convention : Reuss Voigt Hill
#
# Bulk Modulus (GPa) = 44.95751 53.40148 49.17950
# Shear Modulus (GPa) = 28.33294 30.16462 29.24878
#
# Velocity S-wave (km/s) = 3.75182 3.87119 3.81197
# Velocity P-wave (km/s) = 6.41121 6.81997 6.61875
#
# Compressibility (1/GPa) = 0.02224322
#
# Stress axis : x y z
#
# Youngs Moduli (GPa) = 55.45822 88.58896 78.11256
#
# Poissons Ratio (x) = 0.26391 0.18814
# Poissons Ratio (y) = 0.16521 0.35555
# Poissons Ratio (z) = 0.13357 0.40323
#
# Static dielectric constant tensor:
#      x y z
#    x 3.411530 0.000000 -0.255190 
#    y 0.000000 3.664780 0.000000 
#    z -0.255190 0.000000 3.934240 
# 
# 
# High freq. dielectric constant tensor:
#      x y z
#    x 1.757220 0.000000 -0.007690 
#    y 0.000000 1.776830 0.000000 
#    z -0.007690 0.000000 1.797350 
# 
# From -- ./inp_files/316203.got.cif
#   From: 2010.06.25/outbox.cif.g09.slc.cpg/sg15_159_cif.got.tgz:316203.got - 2010.06.28 07:06:18.
