data_PCOD8133025
_publ_section_title
;
Structure prediction by ZEFSAII (Michael W. Deem and Ramdas Pophale) SiO2 
 PCOD8133025
Probable space group: C 2/C
;
_chemical_formula_sum "Si O2"
_cell_formula_units_Z 60
_cell_length_a 11.379228
_cell_length_b 14.838575
_cell_length_c 24.138462
_cell_angle_alpha 90.000000
_cell_angle_beta 128.269227
_cell_angle_gamma 90.000000
_cell_volume 3199.960526
_symmetry_space_group_name_H-M "C 2/C"
_symmetry_group_IT_number 15
_symmetry_cell_setting 'monoclinic'
loop_
_space_group_symop_operation_xyz
x,y,z
-x,y,1/2-z
-x,-y,-z
x,-y,1/2+z
1/2+x,1/2+y,z
1/2-x,1/2+y,1/2-z
1/2-x,1/2-y,-z
1/2+x,1/2-y,1/2+z
loop_
_atom_site_type_symbol
_atom_site_label
_atom_site_fract_x
_atom_site_fract_y
_atom_site_fract_z
Si Si1 0.924600 0.567667 0.391286
Si Si2 0.219375 0.378029 0.147403
Si Si3 0.745712 0.934642 0.034475
Si Si4 0.104564 0.911625 0.532906
Si Si5 0.974343 0.243224 0.065784
Si Si6 0.500000 0.295800 0.250000
Si Si7 0.747642 0.635201 0.436358
Si Si8 0.923741 0.377349 0.673168
O O1 0.866191 0.467945 0.360931
O O2 0.798292 0.626258 0.386871
O O3 0.067959 0.564625 0.472775
O O4 0.962935 0.610238 0.344205
O O5 0.274187 0.381338 0.099365
O O6 0.365504 0.362885 0.228890
O O7 0.123462 0.288852 0.131372
O O8 0.798141 0.037774 0.053783
O O9 0.839836 0.887438 0.012926
O O10 0.258246 0.920291 0.614537
O O11 0.004478 0.830665 0.526846
O O12 0.000000 0.000000 0.500000
O O13 0.897143 0.198610 0.097437
O O14 0.877707 0.323470 0.011921
O O15 0.575744 0.231511 0.319118
O O16 0.000000 0.423145 0.750000
#
# Coordination Sequence:
#
# PCOD8133025 Si02
#       8
#     8   8   8   8   8   4   8   8
#     4  10  19  37  62  83 113 150 198 234 294 352
#     4  11  20  37  58  85 116 153 195 235 286 356
#     4  10  19  35  57  87 116 143 190 246 294 339
#     4  11  21  35  59  89 116 150 202 253 293 342
#     4  11  19  32  55  85 127 145 181 247 296 341
#     4  10  22  40  56  82 112 168 194 224 294 350
#     4  10  19  31  54  88 117 147 180 238 309 341
#     4   9  21  40  62  75 118 163 193 237 303 355
#
# _framework density 18.750230999999999
#
# number of rings (size 3 to 8) (size 9 to 14) (size 15 to 20)
#    0.400    1.333    5.333    0.800    0.000    1.600 
#    2.400    1.333    2.933    0.000    0.000    0.000 
#    0.000    0.000    0.000    0.000    0.000    0.000 
#
# Total GULP energy -371716.554969 kJ/mol
# GULP energy per Si atom -12390.551832 kJ/mol
# Density = 1.870755 g / cm^3
# Si number density = 18.750231 Si / 1000 Ang^3
#
#
#
# Elastic Constant Matrix: (Units=GPa)
#
#
# Indices 1 2 3 4 5 6 
#
# 1 111.7503 40.6114 26.7084 0.0000 3.9537 0.0000
# 2 40.6114 83.4290 23.2634 0.0000 12.4587 0.0000
# 3 26.7084 23.2634 68.4113 0.0000 13.3900 0.0000
# 4 0.0000 0.0000 0.0000 21.8039 0.0000 5.2971
# 5 3.9537 12.4587 13.3900 0.0000 29.8210 0.0000
# 6 0.0000 0.0000 0.0000 5.2971 0.0000 21.6552
#
#
#
# Elastic Compliance Matrix: (Units=1/GPa)
#
#
# Indices 1 2 3 4 5 6 
#
# 1 0.011446 -0.004987 -0.003162 0.000000 0.001985 0.000000
# 2 -0.004987 0.015830 -0.002490 0.000000 -0.004834 0.000000
# 3 -0.003162 -0.002490 0.017994 0.000000 -0.006620 0.000000
# 4 0.000000 0.000000 0.000000 0.048761 0.000000 -0.011927
# 5 0.001985 -0.004834 -0.006620 0.000000 0.038262 0.000000
# 6 0.000000 0.000000 0.000000 -0.011927 0.000000 0.049096
#
#
# Mechanical properties :
#
#
# Convention : Reuss Voigt Hill
#
# Bulk Modulus (GPa) = 41.67716 49.41746 45.54731
# Shear Modulus (GPa) = 23.73452 26.18985 24.96218
#
# Velocity S-wave (km/s) = 3.56170 3.74140 3.65266
# Velocity P-wave (km/s) = 6.26020 6.71394 6.49104
#
# Compressibility (1/GPa) = 0.02399396
#
# Stress axis : x y z
#
# Youngs Moduli (GPa) = 87.36608 63.17185 55.57337
#
# Poissons Ratio (x) = 0.31501 0.17570
# Poissons Ratio (y) = 0.43566 0.13837
# Poissons Ratio (z) = 0.27621 0.15729
#
# Static dielectric constant tensor:
#      x y z
#    x 3.623520 0.000000 0.140470 
#    y 0.000000 3.409410 0.000000 
#    z 0.140470 0.000000 3.192640 
# 
# 
# High freq. dielectric constant tensor:
#      x y z
#    x 1.739900 0.000000 0.013900 
#    y 0.000000 1.729500 0.000000 
#    z 0.013900 0.000000 1.694100 
# 
# From -- ./inp_files/292720.got.cif
#   From: 2010.06.25/outbox.cif.g09.slc.cpg/sg15_147_cif.got.tgz:292720.got - 2010.06.28 07:06:18.
