data_PCOD8133460
_publ_section_title
;
Structure prediction by ZEFSAII (Michael W. Deem and Ramdas Pophale) SiO2 
 PCOD8133460
Probable space group: C 2/C
;
_chemical_formula_sum "Si O2"
_cell_formula_units_Z 48
_cell_length_a 10.530439
_cell_length_b 22.989616
_cell_length_c 20.344648
_cell_angle_alpha 90.000000
_cell_angle_beta 147.424637
_cell_angle_gamma 90.000000
_cell_volume 2651.796959
_symmetry_space_group_name_H-M "C 2/C"
_symmetry_group_IT_number 15
_symmetry_cell_setting 'monoclinic'
loop_
_space_group_symop_operation_xyz
x,y,z
-x,y,1/2-z
-x,-y,-z
x,-y,1/2+z
1/2+x,1/2+y,z
1/2-x,1/2+y,1/2-z
1/2-x,1/2-y,-z
1/2+x,1/2-y,1/2+z
loop_
_atom_site_type_symbol
_atom_site_label
_atom_site_fract_x
_atom_site_fract_y
_atom_site_fract_z
Si Si1 0.236289 0.136165 0.156622
Si Si2 0.931642 0.826390 0.052454
Si Si3 0.101551 0.293313 0.654170
Si Si4 0.112837 0.926855 0.370173
Si Si5 0.655432 0.100738 0.093845
Si Si6 0.493350 0.445534 0.845577
O O1 0.500000 0.117694 0.250000
O O2 0.254896 0.189163 0.217369
O O3 0.110058 0.079669 0.131963
O O4 0.068389 0.155389 0.023802
O O5 0.999619 0.878988 0.130380
O O6 0.125421 0.775230 0.148497
O O7 0.672118 0.805513 0.956097
O O8 0.192639 0.332426 0.633083
O O9 0.387940 0.918507 0.478156
O O10 0.000000 0.921510 0.250000
O O11 0.066450 0.987717 0.386198
O O12 0.776124 0.092437 0.075293
O O13 0.790009 0.057361 0.201950
#
# Coordination Sequence:
#
# PCOD8133460 Si02
#       6
#     8   8   8   8   8   8
#     4   9  18  34  54  77 101 139 181 214 262 324
#     4   9  18  31  49  79 105 130 171 220 268 307
#     4   8  16  31  53  72 101 136 175 215 258 313
#     4  11  21  32  54  81 109 137 179 226 268 310
#     4   9  18  34  53  81 102 138 186 221 255 315
#     4  10  19  33  56  78 103 143 179 221 261 317
#
# _framework density 18.100933000000001
#
# number of rings (size 3 to 8) (size 9 to 14) (size 15 to 20)
#    0.000    2.667    1.667    1.500    0.000    5.333 
#    0.000    0.833    0.000    4.000    0.000    0.000 
#    0.000    0.000    0.000    0.000    0.000    0.000 
#
# Total GULP energy -297482.506695 kJ/mol
# GULP energy per Si atom -12395.104446 kJ/mol
# Density = 1.805973 g / cm^3
# Si number density = 18.100933 Si / 1000 Ang^3
#
#
#
# Elastic Constant Matrix: (Units=GPa)
#
#
# Indices 1 2 3 4 5 6 
#
# 1 92.4373 78.5760 41.4360 0.0003 -12.8263 -0.0033
# 2 78.5760 152.8598 53.8966 -0.0010 -13.5165 0.0037
# 3 41.4360 53.8966 66.8144 -0.0080 -8.4668 -0.0160
# 4 0.0003 -0.0010 -0.0080 22.9468 -0.0008 -0.3990
# 5 -12.8263 -13.5165 -8.4668 -0.0008 28.9579 -0.0033
# 6 -0.0033 0.0037 -0.0160 -0.3990 -0.0033 10.4578
#
#
#
# Elastic Compliance Matrix: (Units=1/GPa)
#
#
# Indices 1 2 3 4 5 6 
#
# 1 0.021160 -0.008508 -0.005790 -0.000002 0.003708 0.000002
# 2 -0.008508 0.012699 -0.004874 -0.000001 0.000734 -0.000014
# 3 -0.005790 -0.004874 0.022718 0.000008 0.001803 0.000036
# 4 -0.000002 -0.000001 0.000008 0.043608 0.000002 0.001664
# 5 0.003708 0.000734 0.001803 0.000002 0.037045 0.000015
# 6 0.000002 -0.000014 0.000036 0.001664 0.000015 0.095685
#
#
# Mechanical properties :
#
#
# Convention : Reuss Voigt Hill
#
# Bulk Modulus (GPa) = 54.84670 73.32542 64.08606
# Shear Modulus (GPa) = 18.02858 21.68603 19.85730
#
# Velocity S-wave (km/s) = 3.15937 3.46506 3.31574
# Velocity P-wave (km/s) = 6.60872 7.52369 7.08100
#
# Compressibility (1/GPa) = 0.01823264
#
# Stress axis : x y z
#
# Youngs Moduli (GPa) = 47.25863 78.74740 44.01788
#
# Poissons Ratio (x) = 0.66996 0.25486
# Poissons Ratio (y) = 0.40207 0.21456
# Poissons Ratio (z) = 0.27363 0.38385
#
# Static dielectric constant tensor:
#      x y z
#    x 3.422710 0.000000 -0.027040 
#    y 0.000000 3.579230 -0.000010 
#    z -0.027040 -0.000010 3.225290 
# 
# 
# High freq. dielectric constant tensor:
#      x y z
#    x 1.689990 0.000000 -0.006060 
#    y 0.000000 1.699090 0.000000 
#    z -0.006060 0.000000 1.683050 
# 
# From -- ./inp_files/240719.got.cif
#   From: 2010.06.25/outbox.cif.g09.slc.cpg/sg15_121_cif.got.tgz:240719.got - 2010.06.28 07:06:18.
