data_PCOD8133947
_publ_section_title
;
Structure prediction by ZEFSAII (Michael W. Deem and Ramdas Pophale) SiO2 
 PCOD8133947
Probable space group: C 2/C
;
_chemical_formula_sum "Si O2"
_cell_formula_units_Z 64
_cell_length_a 22.483361
_cell_length_b 11.931738
_cell_length_c 21.139522
_cell_angle_alpha 90.000000
_cell_angle_beta 36.399565
_cell_angle_gamma 90.000000
_cell_volume 3365.247399
_symmetry_space_group_name_H-M "C 2/C"
_symmetry_group_IT_number 15
_symmetry_cell_setting 'monoclinic'
loop_
_space_group_symop_operation_xyz
x,y,z
-x,y,1/2-z
-x,-y,-z
x,-y,1/2+z
1/2+x,1/2+y,z
1/2-x,1/2+y,1/2-z
1/2-x,1/2-y,-z
1/2+x,1/2-y,1/2+z
loop_
_atom_site_type_symbol
_atom_site_label
_atom_site_fract_x
_atom_site_fract_y
_atom_site_fract_z
Si Si1 0.595161 0.027518 0.244691
Si Si2 0.336714 0.184587 0.213060
Si Si3 0.044337 0.710713 0.820752
Si Si4 0.827358 0.309082 0.479481
Si Si5 0.732032 0.122443 0.869465
Si Si6 0.132354 0.559969 0.074658
Si Si7 0.525452 0.129946 0.977708
Si Si8 0.779073 0.134650 0.309667
O O1 0.662343 0.072493 0.244634
O O2 0.632343 0.090410 0.148942
O O3 0.480014 0.061503 0.357111
O O4 0.601601 0.891455 0.234820
O O5 0.317620 0.290580 0.275272
O O6 0.248005 0.169580 0.238479
O O7 0.443936 0.200363 0.087478
O O8 0.017779 0.668609 0.912779
O O9 0.109509 0.823345 0.768007
O O10 0.939933 0.739918 0.874397
O O11 0.750000 0.250000 0.500000
O O12 0.821151 0.437965 0.467634
O O13 0.796160 0.299036 0.579660
O O14 0.635689 0.149305 0.909678
O O15 0.774159 0.998643 0.820901
O O16 0.701392 0.138021 0.970121
O O17 0.500000 0.000000 0.000000
#
# Coordination Sequence:
#
# PCOD8133947 Si02
#       8
#     8   8   8   8   8   8   8   8
#     4  10  19  34  61  91 111 153 207 242 289 346
#     4  12  22  34  62  89 114 158 205 244 289 353
#     4  11  20  35  62  89 123 148 196 253 294 350
#     4  10  20  36  59  88 118 156 193 243 306 358
#     4  11  22  38  59  86 122 156 200 243 304 355
#     4   9  19  36  58  85 118 150 198 252 284 349
#     4  12  18  37  61  86 114 153 198 247 292 344
#     4  11  22  36  58  88 119 158 193 243 303 356
#
# _framework density 19.017918000000002
#
# number of rings (size 3 to 8) (size 9 to 14) (size 15 to 20)
#    0.000    1.250    6.250    1.500    0.000    2.000 
#    0.000    0.625    5.500    3.000    0.000    0.000 
#    0.000    0.000    0.000    0.000    0.000    0.000 
#
# Total GULP energy -396678.164427 kJ/mol
# GULP energy per Si atom -12396.192638 kJ/mol
# Density = 1.897463 g / cm^3
# Si number density = 19.017918 Si / 1000 Ang^3
#
#
#
# Elastic Constant Matrix: (Units=GPa)
#
#
# Indices 1 2 3 4 5 6 
#
# 1 96.0305 34.9073 28.7893 0.0000 -1.8988 0.0000
# 2 34.9073 67.6984 49.5246 0.0000 -5.3191 0.0000
# 3 28.7893 49.5246 95.8649 0.0000 6.6321 0.0000
# 4 0.0000 0.0000 0.0000 39.2291 0.0000 -0.9577
# 5 -1.8988 -5.3191 6.6321 0.0000 35.2767 0.0000
# 6 0.0000 0.0000 0.0000 -0.9577 0.0000 25.0754
#
#
#
# Elastic Compliance Matrix: (Units=1/GPa)
#
#
# Indices 1 2 3 4 5 6 
#
# 1 0.012845 -0.006132 -0.000682 0.000000 -0.000105 0.000000
# 2 -0.006132 0.027980 -0.013052 0.000000 0.006343 0.000000
# 3 -0.000682 -0.013052 0.017748 0.000000 -0.005341 0.000000
# 4 0.000000 0.000000 0.000000 0.025515 0.000000 0.000974
# 5 -0.000105 0.006343 -0.005341 0.000000 0.030302 0.000000
# 6 0.000000 0.000000 0.000000 0.000974 0.000000 0.039917
#
#
# Mechanical properties :
#
#
# Convention : Reuss Voigt Hill
#
# Bulk Modulus (GPa) = 53.07735 54.00402 53.54069
# Shear Modulus (GPa) = 24.96004 29.67442 27.31723
#
# Velocity S-wave (km/s) = 3.62670 3.95440 3.79409
# Velocity P-wave (km/s) = 6.74589 7.02195 6.88530
#
# Compressibility (1/GPa) = 0.01884043
#
# Stress axis : x y z
#
# Youngs Moduli (GPa) = 77.85167 35.74005 56.34321
#
# Poissons Ratio (x) = 0.21918 0.03843
# Poissons Ratio (y) = 0.47742 0.73538
# Poissons Ratio (z) = 0.05310 0.46647
#
# Static dielectric constant tensor:
#      x y z
#    x 3.549310 0.000000 0.203550 
#    y 0.000000 3.274720 0.000000 
#    z 0.203550 0.000000 3.802630 
# 
# 
# High freq. dielectric constant tensor:
#      x y z
#    x 1.745410 0.000000 0.020040 
#    y 0.000000 1.702030 0.000000 
#    z 0.020040 0.000000 1.746770 
# 
# From -- ./inp_files/252556.got.cif
#   From: 2010.06.25/outbox.cif.g09.slc.cpg/sg15_127_cif.got.tgz:252556.got - 2010.06.28 07:06:18.
