data_PCOD8133046
_publ_section_title
;
Structure prediction by ZEFSAII (Michael W. Deem and Ramdas Pophale) SiO2 
 PCOD8133046
Probable space group: C 2/C
;
_chemical_formula_sum "Si O2"
_cell_formula_units_Z 52
_cell_length_a 26.294528
_cell_length_b 9.526752
_cell_length_c 17.570097
_cell_angle_alpha 90.000000
_cell_angle_beta 39.922091
_cell_angle_gamma 90.000000
_cell_volume 2824.536194
_symmetry_space_group_name_H-M "C 2/C"
_symmetry_group_IT_number 15
_symmetry_cell_setting 'monoclinic'
loop_
_space_group_symop_operation_xyz
x,y,z
-x,y,1/2-z
-x,-y,-z
x,-y,1/2+z
1/2+x,1/2+y,z
1/2-x,1/2+y,1/2-z
1/2-x,1/2-y,-z
1/2+x,1/2-y,1/2+z
loop_
_atom_site_type_symbol
_atom_site_label
_atom_site_fract_x
_atom_site_fract_y
_atom_site_fract_z
Si Si1 0.136770 0.243954 0.068955
Si Si2 0.906365 0.586780 0.178439
Si Si3 0.000000 0.971962 0.750000
Si Si4 0.470639 0.628423 0.633529
Si Si5 0.195948 0.653042 0.660513
Si Si6 0.573720 0.343473 0.876620
Si Si7 0.957726 0.628131 0.952858
O O1 0.166639 0.325696 0.108259
O O2 0.096966 0.358915 0.058880
O O3 0.078048 0.122815 0.163995
O O4 0.210052 0.172002 0.940816
O O5 0.825167 0.507151 0.292813
O O6 0.911364 0.739607 0.211663
O O7 0.979790 0.497221 0.127297
O O8 0.906449 0.601214 0.087075
O O9 0.003909 0.076127 0.674637
O O10 0.419299 0.507511 0.650762
O O11 0.546750 0.675397 0.495363
O O12 0.155494 0.762304 0.766325
O O13 0.504416 0.276177 0.903860
#
# Coordination Sequence:
#
# PCOD8133046 Si02
#       7
#     8   8   4   8   8   8   8
#     4  11  21  36  60  81 108 159 200 232 276 351
#     4   9  19  35  56  85 113 139 184 245 287 326
#     4  12  20  36  56  88 110 148 202 232 272 354
#     4  10  19  31  59  82 112 143 182 235 288 332
#     4  10  21  38  58  80 116 151 192 239 287 336
#     4   9  17  35  57  81 106 148 190 228 279 345
#     4   9  17  35  59  79 107 147 194 232 274 338
#
# _framework density 18.410101999999998
#
# number of rings (size 3 to 8) (size 9 to 14) (size 15 to 20)
#    0.000    2.154    3.077    1.846    0.000    1.231 
#    2.769    0.769    3.385    0.000    0.000    0.000 
#    0.000    0.000    0.000    0.000    0.000    0.000 
#
# Total GULP energy -322378.114311 kJ/mol
# GULP energy per Si atom -12399.158243 kJ/mol
# Density = 1.836820 g / cm^3
# Si number density = 18.410102 Si / 1000 Ang^3
#
#
#
# Elastic Constant Matrix: (Units=GPa)
#
#
# Indices 1 2 3 4 5 6 
#
# 1 58.9593 15.9678 26.0730 -0.0014 5.9249 0.0011
# 2 15.9678 115.1705 33.3347 0.0000 -3.8781 0.0009
# 3 26.0730 33.3347 99.6157 -0.0001 -12.0875 0.0006
# 4 -0.0014 0.0000 -0.0001 28.1346 0.0001 8.3169
# 5 5.9249 -3.8781 -12.0875 0.0001 26.2138 -0.0006
# 6 0.0011 0.0009 0.0006 8.3169 -0.0006 20.4593
#
#
#
# Elastic Compliance Matrix: (Units=1/GPa)
#
#
# Indices 1 2 3 4 5 6 
#
# 1 0.020703 -0.001429 -0.005862 0.000002 -0.007594 -0.000002
# 2 -0.001429 0.009713 -0.002820 0.000000 0.000460 0.000000
# 3 -0.005862 -0.002820 0.013375 0.000000 0.007075 0.000000
# 4 0.000002 0.000000 0.000000 0.040398 -0.000001 -0.016422
# 5 -0.007594 0.000460 0.007075 -0.000001 0.043195 0.000002
# 6 -0.000002 0.000000 0.000000 -0.016422 0.000002 0.055553
#
#
# Mechanical properties :
#
#
# Convention : Reuss Voigt Hill
#
# Bulk Modulus (GPa) = 42.43063 47.16625 44.79844
# Shear Modulus (GPa) = 23.69483 28.18619 25.94051
#
# Velocity S-wave (km/s) = 3.59145 3.91707 3.75779
# Velocity P-wave (km/s) = 6.34787 6.79215 6.57376
#
# Compressibility (1/GPa) = 0.02356788
#
# Stress axis : x y z
#
# Youngs Moduli (GPa) = 48.30131 102.95752 74.76569
#
# Poissons Ratio (x) = 0.14717 0.43827
# Poissons Ratio (y) = 0.06904 0.21086
# Poissons Ratio (z) = 0.28314 0.29037
#
# Static dielectric constant tensor:
#      x y z
#    x 3.079920 0.000000 0.108610 
#    y 0.000000 3.472030 0.000000 
#    z 0.108610 0.000000 3.569540 
# 
# 
# High freq. dielectric constant tensor:
#      x y z
#    x 1.684120 0.000000 0.018670 
#    y 0.000000 1.715690 0.000000 
#    z 0.018670 0.000000 1.715330 
# 
# From -- ./inp_files/224220.got.cif
#   From: 2010.06.25/outbox.cif.g09.slc.cpg/sg15_113_cif.got.tgz:224220.got - 2010.06.28 07:06:18.
