data_PCOD8133904
_publ_section_title
;
Structure prediction by ZEFSAII (Michael W. Deem and Ramdas Pophale) SiO2 
 PCOD8133904
Probable space group: C 2/C
;
_chemical_formula_sum "Si O2"
_cell_formula_units_Z 60
_cell_length_a 20.152036
_cell_length_b 14.676346
_cell_length_c 14.828308
_cell_angle_alpha 90.000000
_cell_angle_beta 140.262775
_cell_angle_gamma 90.000000
_cell_volume 2803.568278
_symmetry_space_group_name_H-M "C 2/C"
_symmetry_group_IT_number 15
_symmetry_cell_setting 'monoclinic'
loop_
_space_group_symop_operation_xyz
x,y,z
-x,y,1/2-z
-x,-y,-z
x,-y,1/2+z
1/2+x,1/2+y,z
1/2-x,1/2+y,1/2-z
1/2-x,1/2-y,-z
1/2+x,1/2-y,1/2+z
loop_
_atom_site_type_symbol
_atom_site_label
_atom_site_fract_x
_atom_site_fract_y
_atom_site_fract_z
Si Si1 0.500000 0.205813 0.750000
Si Si2 0.220957 0.357228 0.464633
Si Si3 0.184079 0.773039 0.645722
Si Si4 0.001614 0.190000 0.436177
Si Si5 0.301852 0.981286 0.905024
Si Si6 0.893364 0.642444 0.365895
Si Si7 0.706135 0.601122 0.652921
Si Si8 0.440646 0.139632 0.098555
O O1 0.402947 0.137787 0.653079
O O2 0.505656 0.274620 0.672591
O O3 0.250000 0.250000 0.500000
O O4 0.264486 0.416651 0.595594
O O5 0.256519 0.410162 0.411752
O O6 0.275658 0.839393 0.705786
O O7 0.236465 0.692925 0.757634
O O8 0.116976 0.731878 0.493977
O O9 0.111168 0.831207 0.638482
O O10 0.052924 0.263779 0.554133
O O11 0.080590 0.104769 0.521584
O O12 0.234670 0.019721 0.750677
O O13 0.391334 0.920704 0.951957
O O14 0.353736 0.061625 0.017956
O O15 0.969415 0.598544 0.371945
O O16 0.500000 0.167640 0.250000
#
# Coordination Sequence:
#
# PCOD8133904 Si02
#       8
#     4   8   8   8   8   8   8   8
#     4  12  20  30  62  96 116 150 214 270 296 368
#     4  12  23  39  64  97 124 171 216 260 319 388
#     4   9  19  38  62  84 117 163 209 253 307 373
#     4  10  19  34  59  90 117 158 210 260 306 370
#     4  11  24  36  58  90 129 162 199 264 332 375
#     4  10  20  37  59  83 120 165 204 250 313 378
#     4  10  21  38  57  89 131 159 205 265 322 375
#     4  10  23  37  57  91 124 157 202 257 320 377
#
# _framework density 21.401297
#
# number of rings (size 3 to 8) (size 9 to 14) (size 15 to 20)
#    0.000    1.600    4.000    1.200    2.800    0.533 
#    0.000    0.667    0.000    0.000    0.000    0.000 
#    0.000    0.000    0.000    0.000    0.000    0.000 
#
# Total GULP energy -371734.944326 kJ/mol
# GULP energy per Si atom -12391.164811 kJ/mol
# Density = 2.135259 g / cm^3
# Si number density = 21.401297 Si / 1000 Ang^3
#
#
#
# Elastic Constant Matrix: (Units=GPa)
#
#
# Indices 1 2 3 4 5 6 
#
# 1 76.4007 32.9028 30.8541 0.0000 -11.0617 0.0000
# 2 32.9028 65.5591 27.7517 0.0000 -5.6453 0.0000
# 3 30.8541 27.7517 85.3014 0.0000 -17.2151 0.0000
# 4 0.0000 0.0000 0.0000 16.4824 0.0000 -11.2665
# 5 -11.0617 -5.6453 -17.2151 0.0000 38.4799 0.0000
# 6 0.0000 0.0000 0.0000 -11.2665 0.0000 21.0031
#
#
#
# Elastic Compliance Matrix: (Units=1/GPa)
#
#
# Indices 1 2 3 4 5 6 
#
# 1 0.018073 -0.007308 -0.003658 0.000000 0.002487 0.000000
# 2 -0.007308 0.020645 -0.004271 0.000000 -0.000983 0.000000
# 3 -0.003658 -0.004271 0.015496 0.000000 0.005255 0.000000
# 4 0.000000 0.000000 0.000000 0.095797 0.000000 0.051388
# 5 0.002487 -0.000983 0.005255 0.000000 0.028909 0.000000
# 6 0.000000 0.000000 0.000000 0.051388 0.000000 0.075177
#
#
# Mechanical properties :
#
#
# Convention : Reuss Voigt Hill
#
# Bulk Modulus (GPa) = 42.12364 45.58647 43.85506
# Shear Modulus (GPa) = 17.09483 24.24325 20.66904
#
# Velocity S-wave (km/s) = 2.82933 3.36935 3.11108
# Velocity P-wave (km/s) = 5.51352 6.04018 5.78285
#
# Compressibility (1/GPa) = 0.02373964
#
# Stress axis : x y z
#
# Youngs Moduli (GPa) = 55.32965 48.43845 64.53157
#
# Poissons Ratio (x) = 0.35400 0.23604
# Poissons Ratio (y) = 0.40436 0.27564
# Poissons Ratio (z) = 0.20238 0.20690
#
# Static dielectric constant tensor:
#      x y z
#    x 4.185800 0.000000 0.267140 
#    y 0.000000 3.628160 0.000000 
#    z 0.267140 0.000000 4.077940 
# 
# 
# High freq. dielectric constant tensor:
#      x y z
#    x 1.840300 0.000000 0.004320 
#    y 0.000000 1.809570 0.000000 
#    z 0.004320 0.000000 1.841100 
# 
# From -- ./inp_files/168639.got.cif
#   From: 2010.06.25/outbox.cif.g09.slc.cpg/sg15_85_cif.got.tgz:168639.got - 2010.06.28 07:06:18.
