data_PCOD8133435
_publ_section_title
;
Structure prediction by ZEFSAII (Michael W. Deem and Ramdas Pophale) SiO2 
 PCOD8133435
Probable space group: C 2/C
;
_chemical_formula_sum "Si O2"
_cell_formula_units_Z 52
_cell_length_a 13.154592
_cell_length_b 18.738887
_cell_length_c 21.355742
_cell_angle_alpha 90.000000
_cell_angle_beta 146.380225
_cell_angle_gamma 90.000000
_cell_volume 2914.700156
_symmetry_space_group_name_H-M "C 2/C"
_symmetry_group_IT_number 15
_symmetry_cell_setting 'monoclinic'
loop_
_space_group_symop_operation_xyz
x,y,z
-x,y,1/2-z
-x,-y,-z
x,-y,1/2+z
1/2+x,1/2+y,z
1/2-x,1/2+y,1/2-z
1/2-x,1/2-y,-z
1/2+x,1/2-y,1/2+z
loop_
_atom_site_type_symbol
_atom_site_label
_atom_site_fract_x
_atom_site_fract_y
_atom_site_fract_z
Si Si1 0.500000 0.765956 0.750000
Si Si2 0.302031 0.311746 0.717149
Si Si3 0.154939 0.818617 0.212814
Si Si4 0.783986 0.185505 0.064797
Si Si5 0.036716 0.579838 0.590937
Si Si6 0.765633 0.826786 0.977454
Si Si7 0.512965 0.081294 0.431698
O O1 0.415154 0.713667 0.757938
O O2 0.657867 0.819864 0.856524
O O3 0.281494 0.239570 0.744895
O O4 0.506735 0.342040 0.832904
O O5 0.253727 0.290557 0.621006
O O6 0.167275 0.372090 0.674699
O O7 0.279084 0.887844 0.285631
O O8 0.982672 0.842417 0.080796
O O9 0.750000 0.250000 0.000000
O O10 0.644947 0.121100 0.978509
O O11 0.021755 0.499356 0.608069
O O12 0.062228 0.583366 0.529717
O O13 0.681330 0.887389 0.978614
O O14 0.750000 0.750000 0.000000
#
# Coordination Sequence:
#
# PCOD8133435 Si02
#       7
#     4   8   8   8   8   8   8
#     4  10  20  32  58  86 110 144 182 230 276 326
#     4  10  20  34  56  79 111 141 185 232 265 328
#     4  11  20  33  57  87 110 142 187 228 274 330
#     4  10  20  35  55  80 105 147 190 223 270 322
#     4  10  21  34  58  81 113 150 177 230 281 325
#     4  10  19  33  55  83 110 141 183 228 269 331
#     4  10  20  37  53  84 117 140 181 230 285 326
#
# _framework density 17.840599999999998
#
# number of rings (size 3 to 8) (size 9 to 14) (size 15 to 20)
#    0.000    1.846    4.615    1.846    2.154    1.231 
#    0.000    4.615    3.385    0.923    0.000    0.000 
#    0.000    0.000    0.000    0.000    0.000    0.000 
#
# Total GULP energy -322347.233098 kJ/mol
# GULP energy per Si atom -12397.970504 kJ/mol
# Density = 1.779999 g / cm^3
# Si number density = 17.840600 Si / 1000 Ang^3
#
#
#
# Elastic Constant Matrix: (Units=GPa)
#
#
# Indices 1 2 3 4 5 6 
#
# 1 51.5895 28.8242 22.1035 0.0002 13.0177 0.0001
# 2 28.8242 124.2003 49.0331 0.0002 8.9499 0.0001
# 3 22.1035 49.0331 128.8328 0.0005 21.0207 0.0004
# 4 0.0002 0.0002 0.0005 29.4567 0.0004 3.7524
# 5 13.0177 8.9499 21.0207 0.0004 28.2700 0.0002
# 6 0.0001 0.0001 0.0004 3.7524 0.0002 29.6667
#
#
#
# Elastic Compliance Matrix: (Units=1/GPa)
#
#
# Indices 1 2 3 4 5 6 
#
# 1 0.024740 -0.004702 -0.000955 0.000000 -0.009194 0.000000
# 2 -0.004702 0.010372 -0.003367 0.000000 0.001385 0.000000
# 3 -0.000955 -0.003367 0.010199 0.000000 -0.006078 0.000000
# 4 0.000000 0.000000 0.000000 0.034504 0.000000 -0.004364
# 5 -0.009194 0.001385 -0.006078 0.000000 0.043688 0.000000
# 6 0.000000 0.000000 0.000000 -0.004364 0.000000 0.034260
#
#
# Mechanical properties :
#
#
# Convention : Reuss Voigt Hill
#
# Bulk Modulus (GPa) = 36.67939 56.06046 46.36993
# Shear Modulus (GPa) = 27.04193 31.12280 29.08237
#
# Velocity S-wave (km/s) = 3.89749 4.18124 4.04186
# Velocity P-wave (km/s) = 6.39203 7.40281 6.91591
#
# Compressibility (1/GPa) = 0.02726326
#
# Stress axis : x y z
#
# Youngs Moduli (GPa) = 40.42049 96.41186 98.04940
#
# Poissons Ratio (x) = 0.45334 0.09363
# Poissons Ratio (y) = 0.19006 0.33012
# Poissons Ratio (z) = 0.03860 0.32460
#
# Static dielectric constant tensor:
#      x y z
#    x 3.277490 0.000000 0.161800 
#    y 0.000000 3.217550 0.000000 
#    z 0.161800 0.000000 4.020570 
# 
# 
# High freq. dielectric constant tensor:
#      x y z
#    x 1.679510 0.000000 0.014130 
#    y 0.000000 1.671190 0.000000 
#    z 0.014130 0.000000 1.704510 
# 
# From -- ./inp_files/174006.got.cif
#   From: 2010.06.25/outbox.cif.g09.slc.cpg/sg15_88_cif.got.tgz:174006.got - 2010.06.28 07:06:18.
