data_PCOD8133653
_publ_section_title
;
Structure prediction by ZEFSAII (Michael W. Deem and Ramdas Pophale) SiO2 
 PCOD8133653
Probable space group: C 2/C
;
_chemical_formula_sum "Si O2"
_cell_formula_units_Z 36
_cell_length_a 18.256596
_cell_length_b 21.816245
_cell_length_c 9.042928
_cell_angle_alpha 90.000000
_cell_angle_beta 148.302802
_cell_angle_gamma 90.000000
_cell_volume 1892.447242
_symmetry_space_group_name_H-M "C 2/C"
_symmetry_group_IT_number 15
_symmetry_cell_setting 'monoclinic'
loop_
_space_group_symop_operation_xyz
x,y,z
-x,y,1/2-z
-x,-y,-z
x,-y,1/2+z
1/2+x,1/2+y,z
1/2-x,1/2+y,1/2-z
1/2-x,1/2-y,-z
1/2+x,1/2-y,1/2+z
loop_
_atom_site_type_symbol
_atom_site_label
_atom_site_fract_x
_atom_site_fract_y
_atom_site_fract_z
Si Si1 0.267954 0.818626 0.586744
Si Si2 0.500000 0.503117 0.250000
Si Si3 0.914127 0.082825 0.848741
Si Si4 0.159709 0.170950 0.222609
Si Si5 0.446695 0.791758 0.317652
O O1 0.250000 0.750000 0.500000
O O2 0.208971 0.866672 0.365350
O O3 0.176097 0.828674 0.574885
O O4 0.431524 0.831997 0.896937
O O5 0.600763 0.544856 0.525262
O O6 0.598938 0.462027 0.315032
O O7 0.067756 0.113310 0.112359
O O8 0.308603 0.166812 0.562095
O O9 0.081517 0.233266 0.130037
O O10 0.500000 0.767669 0.250000
#
# Coordination Sequence:
#
# PCOD8133653 Si02
#       5
#     8   4   8   8   8
#     4  11  20  33  56  85 118 150 185 241 298 349
#     4  10  24  38  60  84 110 160 208 238 272 332
#     4  11  21  39  60  83 113 153 202 243 278 338
#     4  10  19  34  53  81 121 149 183 234 287 350
#     4   9  20  32  52  85 119 151 174 227 308 354
#
# _framework density 19.022987000000001
#
# number of rings (size 3 to 8) (size 9 to 14) (size 15 to 20)
#    0.000    1.778    4.444    0.000    1.556    1.778 
#    0.000    0.000    0.000    8.000    0.000    0.000 
#    0.000    0.000    0.000    0.000    0.000    0.000 
#
# Total GULP energy -223202.759219 kJ/mol
# GULP energy per Si atom -12400.153290 kJ/mol
# Density = 1.897969 g / cm^3
# Si number density = 19.022987 Si / 1000 Ang^3
#
#
#
# Elastic Constant Matrix: (Units=GPa)
#
#
# Indices 1 2 3 4 5 6 
#
# 1 49.4380 27.0967 39.7071 0.0000 -2.3470 0.0000
# 2 27.0967 106.1961 62.6135 0.0000 -6.9263 0.0000
# 3 39.7071 62.6135 125.9782 0.0000 8.2150 0.0000
# 4 0.0000 0.0000 0.0000 38.4129 0.0000 -7.6075
# 5 -2.3470 -6.9263 8.2150 0.0000 31.6049 0.0000
# 6 0.0000 0.0000 0.0000 -7.6075 0.0000 24.8122
#
#
#
# Elastic Compliance Matrix: (Units=1/GPa)
#
#
# Indices 1 2 3 4 5 6 
#
# 1 0.028014 -0.002209 -0.007971 0.000000 0.003668 0.000000
# 2 -0.002209 0.014224 -0.006679 0.000000 0.004689 0.000000
# 3 -0.007971 -0.006679 0.014144 0.000000 -0.005732 0.000000
# 4 0.000000 0.000000 0.000000 0.027716 0.000000 0.008498
# 5 0.003668 0.004689 -0.005732 0.000000 0.034431 0.000000
# 6 0.000000 0.000000 0.000000 0.008498 0.000000 0.042908
#
#
# Mechanical properties :
#
#
# Convention : Reuss Voigt Hill
#
# Bulk Modulus (GPa) = 44.12361 60.04965 52.08663
# Shear Modulus (GPa) = 24.66578 29.11235 26.88906
#
# Velocity S-wave (km/s) = 3.60478 3.91625 3.76374
# Velocity P-wave (km/s) = 6.36955 7.21698 6.80646
#
# Compressibility (1/GPa) = 0.02266361
#
# Stress axis : x y z
#
# Youngs Moduli (GPa) = 35.69594 70.30328 70.70261
#
# Poissons Ratio (x) = 0.15530 0.56358
# Poissons Ratio (y) = 0.07885 0.47223
# Poissons Ratio (z) = 0.28454 0.46957
#
# Static dielectric constant tensor:
#      x y z
#    x 3.482800 0.000000 -0.049380 
#    y 0.000000 3.377630 0.000000 
#    z -0.049380 0.000000 3.780520 
# 
# 
# High freq. dielectric constant tensor:
#      x y z
#    x 1.731580 0.000000 -0.014380 
#    y 0.000000 1.720530 0.000000 
#    z -0.014380 0.000000 1.745850 
# 
# From -- ./inp_files/30125.got.cif
#   From: 2010.06.25/outbox.cif.g09.slc.cpg/sg15_16_cif.got.tgz:30125.got - 2010.06.28 07:06:18.
