data_PCOD8133877
_publ_section_title
;
Structure prediction by ZEFSAII (Michael W. Deem and Ramdas Pophale) SiO2 
 PCOD8133877
Probable space group: C 2/C
;
_chemical_formula_sum "Si O2"
_cell_formula_units_Z 40
_cell_length_a 19.800196
_cell_length_b 6.279932
_cell_length_c 22.137670
_cell_angle_alpha 90.000000
_cell_angle_beta 128.546037
_cell_angle_gamma 90.000000
_cell_volume 2152.895302
_symmetry_space_group_name_H-M "C 2/C"
_symmetry_group_IT_number 15
_symmetry_cell_setting 'monoclinic'
loop_
_space_group_symop_operation_xyz
x,y,z
-x,y,1/2-z
-x,-y,-z
x,-y,1/2+z
1/2+x,1/2+y,z
1/2-x,1/2+y,1/2-z
1/2-x,1/2-y,-z
1/2+x,1/2-y,1/2+z
loop_
_atom_site_type_symbol
_atom_site_label
_atom_site_fract_x
_atom_site_fract_y
_atom_site_fract_z
Si Si1 0.459882 0.419979 0.039788
Si Si2 0.794172 0.195282 0.962149
Si Si3 0.143249 0.569857 0.576329
Si Si4 0.745605 0.049174 0.324032
Si Si5 0.376331 0.238718 0.332504
O O1 0.389016 0.588014 0.024823
O O2 0.538566 0.385925 0.131783
O O3 0.500000 0.500000 0.000000
O O4 0.419522 0.189717 0.004639
O O5 0.750000 0.250000 0.000000
O O6 0.797523 0.420865 0.931520
O O7 0.735990 0.039501 0.887283
O O8 0.200915 0.734260 0.645616
O O9 0.094257 0.425863 0.598647
O O10 0.652402 0.108024 0.243272
O O11 0.795497 0.878403 0.310428
#
# Coordination Sequence:
#
# PCOD8133877 Si02
#       5
#     8   8   8   8   8
#     4  11  20  33  57  94 111 145 202 243 298 350
#     4  10  23  40  57  83 116 164 203 236 293 369
#     4  10  19  34  59  82 118 148 185 249 293 347
#     4  10  20  32  57  88 115 152 189 242 312 350
#     4  11  19  32  54  92 117 140 189 253 305 344
#
# _framework density 18.579630000000002
#
# number of rings (size 3 to 8) (size 9 to 14) (size 15 to 20)
#    0.000    1.600    8.000    0.600    0.000    3.200 
#    0.000    0.000    0.000    7.200    0.000    0.000 
#    0.000    0.000    0.000    0.000    0.000    0.000 
#
# Total GULP energy -247820.548315 kJ/mol
# GULP energy per Si atom -12391.027416 kJ/mol
# Density = 1.853734 g / cm^3
# Si number density = 18.579630 Si / 1000 Ang^3
#
#
#
# Elastic Constant Matrix: (Units=GPa)
#
#
# Indices 1 2 3 4 5 6 
#
# 1 89.3035 28.7622 45.1497 -0.0001 -6.7137 -0.0001
# 2 28.7622 89.0144 27.1127 -0.0010 -1.6965 -0.0005
# 3 45.1497 27.1127 111.3338 -0.0002 8.3532 -0.0003
# 4 -0.0001 -0.0010 -0.0002 35.2988 -0.0001 2.4179
# 5 -6.7137 -1.6965 8.3532 -0.0001 24.7233 -0.0001
# 6 -0.0001 -0.0005 -0.0003 2.4179 -0.0001 19.7578
#
#
#
# Elastic Compliance Matrix: (Units=1/GPa)
#
#
# Indices 1 2 3 4 5 6 
#
# 1 0.015735 -0.003116 -0.006081 0.000000 0.006114 0.000000
# 2 -0.003116 0.012837 -0.001914 0.000000 0.000681 0.000000
# 3 -0.006081 -0.001914 0.012361 0.000000 -0.005959 0.000000
# 4 0.000000 0.000000 0.000000 0.028569 0.000000 -0.003496
# 5 0.006114 0.000681 -0.005959 0.000000 0.044168 0.000000
# 6 0.000000 0.000000 0.000000 -0.003496 0.000000 0.051041
#
#
# Mechanical properties :
#
#
# Convention : Reuss Voigt Hill
#
# Bulk Modulus (GPa) = 53.44074 54.63341 54.03707
# Shear Modulus (GPa) = 25.88396 28.53114 27.20755
#
# Velocity S-wave (km/s) = 3.73652 3.92294 3.83087
# Velocity P-wave (km/s) = 6.88774 7.07023 6.97958
#
# Compressibility (1/GPa) = 0.01871232
#
# Stress axis : x y z
#
# Youngs Moduli (GPa) = 63.55108 77.90151 80.89763
#
# Poissons Ratio (x) = 0.24271 0.49196
# Poissons Ratio (y) = 0.19800 0.15482
# Poissons Ratio (z) = 0.38647 0.14908
#
# Static dielectric constant tensor:
#      x y z
#    x 3.037230 0.000000 0.249410 
#    y 0.000000 3.823410 0.000000 
#    z 0.249410 0.000000 3.615990 
# 
# 
# High freq. dielectric constant tensor:
#      x y z
#    x 1.663830 0.000000 0.016580 
#    y 0.000000 1.746930 0.000000 
#    z 0.016580 0.000000 1.718220 
# 
# From -- ./inp_files/208044.got.cif
#   From: 2010.06.25/outbox.cif.g09.slc.cpg/sg15_105_cif.got.tgz:208044.got - 2010.06.28 07:06:18.
