data_PCOD8133737
_publ_section_title
;
Structure prediction by ZEFSAII (Michael W. Deem and Ramdas Pophale) SiO2 
 PCOD8133737
Probable space group: C 2/C
;
_chemical_formula_sum "Si O2"
_cell_formula_units_Z 48
_cell_length_a 23.443244
_cell_length_b 11.779282
_cell_length_c 23.514251
_cell_angle_alpha 90.000000
_cell_angle_beta 25.397518
_cell_angle_gamma 90.000000
_cell_volume 2784.964566
_symmetry_space_group_name_H-M "C 2/C"
_symmetry_group_IT_number 15
_symmetry_cell_setting 'monoclinic'
loop_
_space_group_symop_operation_xyz
x,y,z
-x,y,1/2-z
-x,-y,-z
x,-y,1/2+z
1/2+x,1/2+y,z
1/2-x,1/2+y,1/2-z
1/2-x,1/2-y,-z
1/2+x,1/2-y,1/2+z
loop_
_atom_site_type_symbol
_atom_site_label
_atom_site_fract_x
_atom_site_fract_y
_atom_site_fract_z
Si Si1 0.486454 0.240199 0.493064
Si Si2 0.339315 0.592943 0.046927
Si Si3 0.962566 0.590153 0.159604
Si Si4 0.945559 0.336586 0.148659
Si Si5 0.849516 0.164433 0.561633
Si Si6 0.396311 0.261437 0.392378
O O1 0.383158 0.329960 0.560386
O O2 0.539483 0.153229 0.398708
O O3 0.415831 0.168793 0.607450
O O4 0.610776 0.309224 0.408499
O O5 0.385950 0.464826 0.014960
O O6 0.181415 0.601805 0.182455
O O7 0.406424 0.636358 0.928465
O O8 0.068137 0.643403 0.108217
O O9 0.001488 0.459559 0.115150
O O10 0.807320 0.310719 0.305933
O O11 0.060648 0.244651 0.060863
O O12 0.500000 0.291487 0.250000
O O13 0.250000 0.250000 0.500000
#
# Coordination Sequence:
#
# PCOD8133737 Si02
#       6
#     8   8   8   8   8   8
#     4   9  18  30  50  82 110 145 174 204 253 317
#     4  10  19  34  56  78 108 140 175 219 265 308
#     4  10  19  34  56  78 108 141 174 217 266 311
#     4   9  19  33  50  77 114 145 174 206 254 314
#     4   9  19  33  50  77 114 144 174 209 254 312
#     4  11  22  40  58  80  98 131 179 229 273 309
#
# _framework density 17.235406999999999
#
# number of rings (size 3 to 8) (size 9 to 14) (size 15 to 20)
#    1.000    1.333    1.667    2.000    0.000    0.000 
#    3.000    0.000    0.000    2.000    0.000    0.000 
#    0.000    0.000    0.000    0.000    0.000    0.000 
#
# Total GULP energy -297458.080032 kJ/mol
# GULP energy per Si atom -12394.086668 kJ/mol
# Density = 1.719618 g / cm^3
# Si number density = 17.235407 Si / 1000 Ang^3
#
#
#
# Elastic Constant Matrix: (Units=GPa)
#
#
# Indices 1 2 3 4 5 6 
#
# 1 57.4776 38.9722 31.5511 0.0000 -8.6485 0.0000
# 2 38.9722 126.2709 57.0794 0.0006 -10.0841 -0.0001
# 3 31.5511 57.0794 94.7558 0.0007 -3.4106 -0.0001
# 4 0.0000 0.0006 0.0007 30.0226 -0.0005 -3.6113
# 5 -8.6485 -10.0841 -3.4106 -0.0005 26.1805 0.0000
# 6 0.0000 -0.0001 -0.0001 -3.6113 0.0000 14.2172
#
#
#
# Elastic Compliance Matrix: (Units=1/GPa)
#
#
# Indices 1 2 3 4 5 6 
#
# 1 0.024201 -0.004778 -0.004982 0.000000 0.005505 0.000000
# 2 -0.004778 0.012127 -0.005630 0.000000 0.002360 0.000000
# 3 -0.004982 -0.005630 0.015539 0.000000 -0.001790 0.000000
# 4 0.000000 0.000000 0.000000 0.034358 0.000001 0.008727
# 5 0.005505 0.002360 -0.001790 0.000001 0.040691 0.000000
# 6 0.000000 0.000000 0.000000 0.008727 0.000000 0.072554
#
#
# Mechanical properties :
#
#
# Convention : Reuss Voigt Hill
#
# Bulk Modulus (GPa) = 47.41896 59.30107 53.36002
# Shear Modulus (GPa) = 21.07240 24.14418 22.60829
#
# Velocity S-wave (km/s) = 3.50040 3.74685 3.62572
# Velocity P-wave (km/s) = 6.62641 7.29382 6.96811
#
# Compressibility (1/GPa) = 0.02108861
#
# Stress axis : x y z
#
# Youngs Moduli (GPa) = 41.32128 82.45919 64.35398
#
# Poissons Ratio (x) = 0.39395 0.32062
# Poissons Ratio (y) = 0.19741 0.36228
# Poissons Ratio (z) = 0.20587 0.46421
#
# Static dielectric constant tensor:
#      x y z
#    x 3.021300 0.000000 -0.005220 
#    y 0.000000 3.187400 0.000000 
#    z -0.005220 0.000000 3.049470 
# 
# 
# High freq. dielectric constant tensor:
#      x y z
#    x 1.642880 0.000000 -0.003520 
#    y 0.000000 1.666360 0.000000 
#    z -0.003520 0.000000 1.666390 
# 
# From -- ./inp_files/303221.got.cif
#   From: 2010.06.25/outbox.cif.g09.slc.cpg/sg15_152_cif.got.tgz:303221.got - 2010.06.28 07:06:18.
