data_PCOD8133390
_publ_section_title
;
Structure prediction by ZEFSAII (Michael W. Deem and Ramdas Pophale) SiO2 
 PCOD8133390
Probable space group: C 2/C
;
_chemical_formula_sum "Si O2"
_cell_formula_units_Z 36
_cell_length_a 10.018683
_cell_length_b 17.501167
_cell_length_c 12.427941
_cell_angle_alpha 90.000000
_cell_angle_beta 117.337967
_cell_angle_gamma 90.000000
_cell_volume 1935.721620
_symmetry_space_group_name_H-M "C 2/C"
_symmetry_group_IT_number 15
_symmetry_cell_setting 'monoclinic'
loop_
_space_group_symop_operation_xyz
x,y,z
-x,y,1/2-z
-x,-y,-z
x,-y,1/2+z
1/2+x,1/2+y,z
1/2-x,1/2+y,1/2-z
1/2-x,1/2-y,-z
1/2+x,1/2-y,1/2+z
loop_
_atom_site_type_symbol
_atom_site_label
_atom_site_fract_x
_atom_site_fract_y
_atom_site_fract_z
Si Si1 0.290452 0.319863 0.089651
Si Si2 0.862159 0.595574 0.630900
Si Si3 0.105136 0.189546 0.638678
Si Si4 0.970682 0.640800 0.446303
Si Si5 0.500000 0.950203 0.750000
O O1 0.310181 0.291592 0.219068
O O2 0.447667 0.354984 0.104085
O O3 0.250000 0.250000 0.000000
O O4 0.148603 0.376548 0.031583
O O5 0.704738 0.634600 0.601702
O O6 0.881143 0.602281 0.510008
O O7 0.863144 0.504808 0.658507
O O8 0.000000 0.634893 0.750000
O O9 0.071585 0.269809 0.568175
O O10 0.929114 0.602190 0.317412
#
# Coordination Sequence:
#
# PCOD8133390 Si02
#       5
#     8   8   8   8   4
#     4   9  17  30  52  80 111 141 181 229 269 326
#     4  10  21  35  55  80 115 145 181 231 286 320
#     4  10  19  33  54  85 110 146 187 232 281 323
#     4  11  19  36  58  81 110 150 190 228 273 340
#     4  10  22  36  60  82 112 154 192 216 284 346
#
# _framework density 18.597714
#
# number of rings (size 3 to 8) (size 9 to 14) (size 15 to 20)
#    0.667    1.333    2.222    4.000    0.000    0.000 
#    0.000    1.111    0.000    2.667    0.000    0.000 
#    0.000    0.000    0.000    0.000    0.000    0.000 
#
# Total GULP energy -223024.707099 kJ/mol
# GULP energy per Si atom -12390.261506 kJ/mol
# Density = 1.855539 g / cm^3
# Si number density = 18.597714 Si / 1000 Ang^3
#
#
#
# Elastic Constant Matrix: (Units=GPa)
#
#
# Indices 1 2 3 4 5 6 
#
# 1 133.5555 35.6746 42.7382 0.0000 -13.1511 0.0000
# 2 35.6746 58.0181 7.5485 0.0000 -1.8214 0.0000
# 3 42.7382 7.5485 75.8702 0.0000 -18.9634 0.0000
# 4 0.0000 0.0000 0.0000 26.8224 0.0000 -1.4672
# 5 -13.1511 -1.8214 -18.9634 0.0000 35.1519 0.0000
# 6 0.0000 0.0000 0.0000 -1.4672 0.0000 15.1294
#
#
#
# Elastic Compliance Matrix: (Units=1/GPa)
#
#
# Indices 1 2 3 4 5 6 
#
# 1 0.010866 -0.005963 -0.005304 0.000000 0.000895 0.000000
# 2 -0.005963 0.020735 0.001164 0.000000 -0.000529 0.000000
# 3 -0.005304 0.001164 0.017998 0.000000 0.007786 0.000000
# 4 0.000000 0.000000 0.000000 0.037481 0.000000 0.003635
# 5 0.000895 -0.000529 0.007786 0.000000 0.032955 0.000000
# 6 0.000000 0.000000 0.000000 0.003635 0.000000 0.066449
#
#
# Mechanical properties :
#
#
# Convention : Reuss Voigt Hill
#
# Bulk Modulus (GPa) = 34.02194 48.81848 41.42021
# Shear Modulus (GPa) = 23.09605 27.51957 25.30781
#
# Velocity S-wave (km/s) = 3.52785 3.85090 3.69291
# Velocity P-wave (km/s) = 5.90996 6.78817 6.36423
#
# Compressibility (1/GPa) = 0.02939280
#
# Stress axis : x y z
#
# Youngs Moduli (GPa) = 92.03290 48.22868 55.56108
#
# Poissons Ratio (x) = 0.28759 0.29468
# Poissons Ratio (y) = 0.54879 -0.06467
# Poissons Ratio (z) = 0.48812 -0.05614
#
# Static dielectric constant tensor:
#      x y z
#    x 3.434260 0.000000 0.022680 
#    y 0.000000 3.085050 0.000000 
#    z 0.022680 0.000000 3.452180 
# 
# 
# High freq. dielectric constant tensor:
#      x y z
#    x 1.720530 0.000000 -0.012320 
#    y 0.000000 1.688070 0.000000 
#    z -0.012320 0.000000 1.726630 
# 
# From -- ./inp_files/76580.got.cif
#   From: 2010.06.25/outbox.cif.g09.slc.cpg/sg15_39_cif.got.tgz:76580.got - 2010.06.28 07:06:18.
