data_PCOD8133183
_publ_section_title
;
Structure prediction by ZEFSAII (Michael W. Deem and Ramdas Pophale) SiO2 
 PCOD8133183
Probable space group: C 2/C
;
_chemical_formula_sum "Si O2"
_cell_formula_units_Z 56
_cell_length_a 12.340269
_cell_length_b 19.587019
_cell_length_c 11.610869
_cell_angle_alpha 90.000000
_cell_angle_beta 88.154147
_cell_angle_gamma 90.000000
_cell_volume 2804.996243
_symmetry_space_group_name_H-M "C 2/C"
_symmetry_group_IT_number 15
_symmetry_cell_setting 'monoclinic'
loop_
_space_group_symop_operation_xyz
x,y,z
-x,y,1/2-z
-x,-y,-z
x,-y,1/2+z
1/2+x,1/2+y,z
1/2-x,1/2+y,1/2-z
1/2-x,1/2-y,-z
1/2+x,1/2-y,1/2+z
loop_
_atom_site_type_symbol
_atom_site_label
_atom_site_fract_x
_atom_site_fract_y
_atom_site_fract_z
Si Si1 0.210216 0.141348 0.824497
Si Si2 0.717163 0.977139 0.336503
Si Si3 0.109294 0.248186 0.173469
Si Si4 0.923660 0.564748 0.480657
Si Si5 0.540684 0.190296 0.451290
Si Si6 0.500000 0.720770 0.750000
Si Si7 0.262881 0.624690 0.404387
Si Si8 0.500000 0.027408 0.250000
O O1 0.218700 0.070526 0.753735
O O2 0.309140 0.191915 0.789219
O O3 0.100428 0.174661 0.783585
O O4 0.206724 0.124991 0.960768
O O5 0.698927 0.945660 0.466715
O O6 0.777049 0.049420 0.348978
O O7 0.590798 0.978929 0.303041
O O8 0.163452 0.173540 0.177615
O O9 0.000000 0.250206 0.250000
O O10 0.087132 0.255127 0.038674
O O11 0.930753 0.574153 0.341475
O O12 0.000000 0.500000 0.500000
O O13 0.968947 0.636615 0.527238
O O14 0.470691 0.230828 0.359012
O O15 0.639245 0.148238 0.389736
#
# Coordination Sequence:
#
# PCOD8133183 Si02
#       8
#     8   8   8   8   8   4   8   4
#     4  11  24  43  68  92 128 173 214 268 323 383
#     4  11  23  36  61  99 127 164 214 269 323 376
#     4  11  23  42  67  95 127 173 219 261 317 389
#     4  10  19  32  54  93 128 153 197 262 326 377
#     4  11  20  38  66  92 126 166 213 263 324 382
#     4  12  23  44  66  90 127 174 226 254 318 387
#     4  11  21  44  64  93 128 171 212 258 335 391
#     4  10  19  32  56  90 129 160 194 262 328 383
#
# _framework density 19.964378
#
# number of rings (size 3 to 8) (size 9 to 14) (size 15 to 20)
#    0.000    1.143    5.714    3.000    7.000    0.000 
#    1.286    6.429    0.000    0.000    0.000    0.000 
#    0.000    0.000    0.000    0.000    0.000    0.000 
#
# Total GULP energy -346955.111610 kJ/mol
# GULP energy per Si atom -12391.253986 kJ/mol
# Density = 1.991894 g / cm^3
# Si number density = 19.964378 Si / 1000 Ang^3
#
#
#
# Elastic Constant Matrix: (Units=GPa)
#
#
# Indices 1 2 3 4 5 6 
#
# 1 74.8044 52.4528 28.5438 0.0000 2.7194 0.0000
# 2 52.4528 153.8517 44.2785 0.0000 -1.5908 0.0000
# 3 28.5438 44.2785 75.0197 0.0000 3.0932 0.0000
# 4 0.0000 0.0000 0.0000 33.6219 0.0000 -2.2251
# 5 2.7194 -1.5908 3.0932 0.0000 29.4736 0.0000
# 6 0.0000 0.0000 0.0000 -2.2251 0.0000 25.4772
#
#
#
# Elastic Compliance Matrix: (Units=1/GPa)
#
#
# Indices 1 2 3 4 5 6 
#
# 1 0.018586 -0.005224 -0.003923 0.000000 -0.001585 0.000000
# 2 -0.005224 0.009322 -0.003571 0.000000 0.001360 0.000000
# 3 -0.003923 -0.003571 0.016997 0.000000 -0.001615 0.000000
# 4 0.000000 0.000000 0.000000 0.029915 0.000000 0.002613
# 5 -0.001585 0.001360 -0.001615 0.000000 0.034318 0.000000
# 6 0.000000 0.000000 0.000000 0.002613 0.000000 0.039479
#
#
# Mechanical properties :
#
#
# Convention : Reuss Voigt Hill
#
# Bulk Modulus (GPa) = 51.36230 61.58065 56.47147
# Shear Modulus (GPa) = 27.69441 29.60794 28.65118
#
# Velocity S-wave (km/s) = 3.72854 3.85520 3.79240
# Velocity P-wave (km/s) = 6.65724 7.12243 6.89376
#
# Compressibility (1/GPa) = 0.01946953
#
# Stress axis : x y z
#
# Youngs Moduli (GPa) = 53.80498 107.26773 58.83514
#
# Poissons Ratio (x) = 0.56034 0.23081
# Poissons Ratio (y) = 0.28107 0.21009
# Poissons Ratio (z) = 0.21108 0.38304
#
# Static dielectric constant tensor:
#      x y z
#    x 3.365900 0.000000 0.036730 
#    y 0.000000 3.745070 0.000000 
#    z 0.036730 0.000000 4.301780 
# 
# 
# High freq. dielectric constant tensor:
#      x y z
#    x 1.738160 0.000000 0.000700 
#    y 0.000000 1.787110 0.000000 
#    z 0.000700 0.000000 1.787580 
# 
# From -- ./inp_files/89015.got.cif
#   From: 2010.06.25/outbox.cif.g09.slc.cpg/sg15_45_cif.got.tgz:89015.got - 2010.06.28 07:06:18.
