data_PCOD8133363
_publ_section_title
;
Structure prediction by ZEFSAII (Michael W. Deem and Ramdas Pophale) SiO2 
 PCOD8133363
Probable space group: C 2/C
;
_chemical_formula_sum "Si O2"
_cell_formula_units_Z 52
_cell_length_a 13.473799
_cell_length_b 9.682399
_cell_length_c 21.866222
_cell_angle_alpha 90.000000
_cell_angle_beta 73.075222
_cell_angle_gamma 90.000000
_cell_volume 2729.084725
_symmetry_space_group_name_H-M "C 2/C"
_symmetry_group_IT_number 15
_symmetry_cell_setting 'monoclinic'
loop_
_space_group_symop_operation_xyz
x,y,z
-x,y,1/2-z
-x,-y,-z
x,-y,1/2+z
1/2+x,1/2+y,z
1/2-x,1/2+y,1/2-z
1/2-x,1/2-y,-z
1/2+x,1/2-y,1/2+z
loop_
_atom_site_type_symbol
_atom_site_label
_atom_site_fract_x
_atom_site_fract_y
_atom_site_fract_z
Si Si1 0.558980 0.511782 0.130433
Si Si2 0.277835 0.267871 0.275503
Si Si3 0.388383 0.969540 0.046075
Si Si4 0.254110 0.070986 0.172237
Si Si5 0.204904 0.901505 0.005855
Si Si6 0.000000 0.164755 0.750000
Si Si7 0.122571 0.833476 0.899706
O O1 0.649825 0.588606 0.151388
O O2 0.488522 0.426829 0.190654
O O3 0.486492 0.621298 0.109240
O O4 0.610728 0.411390 0.071113
O O5 0.261899 0.210050 0.210273
O O6 0.251509 0.431046 0.285426
O O7 0.397341 0.241986 0.273363
O O8 0.208952 0.174649 0.332173
O O9 0.392056 0.811720 0.065294
O O10 0.355956 0.062128 0.110563
O O11 0.301041 0.998703 0.009466
O O12 0.500000 0.000000 0.000000
O O13 0.163010 0.939242 0.945399
O O14 0.250000 0.750000 0.000000
#
# Coordination Sequence:
#
# PCOD8133363 Si02
#       7
#     8   8   8   8   8   4   8
#     4  10  19  35  55  78 105 142 181 223 270 322
#     4  10  20  36  54  80 107 140 181 225 271 323
#     4   9  19  35  53  75 110 144 173 222 277 321
#     4   9  20  37  57  79 109 143 182 226 274 321
#     4   9  18  33  53  76 103 136 175 217 261 315
#     4  10  20  34  56  78 104 138 176 222 268 318
#     4  10  19  33  54  77 105 139 180 222 268 323
#
# _framework density 19.054008
#
# number of rings (size 3 to 8) (size 9 to 14) (size 15 to 20)
#    0.000    2.462    0.000    5.077    0.000    3.692 
#    0.000   10.769    0.000    0.000    0.000    0.000 
#    0.000    0.000    0.000    0.000    0.000    0.000 
#
# Total GULP energy -322231.568650 kJ/mol
# GULP energy per Si atom -12393.521871 kJ/mol
# Density = 1.901064 g / cm^3
# Si number density = 19.054008 Si / 1000 Ang^3
#
#
#
# Elastic Constant Matrix: (Units=GPa)
#
#
# Indices 1 2 3 4 5 6 
#
# 1 129.0572 39.4065 71.4854 0.0000 -1.2232 0.0000
# 2 39.4065 31.5461 26.9134 0.0000 5.5693 0.0000
# 3 71.4854 26.9134 118.0281 0.0000 -6.5996 0.0000
# 4 0.0000 0.0000 0.0000 30.8753 0.0000 -0.8502
# 5 -1.2232 5.5693 -6.5996 0.0000 44.8475 0.0000
# 6 0.0000 0.0000 0.0000 -0.8502 0.0000 25.5525
#
#
#
# Elastic Compliance Matrix: (Units=1/GPa)
#
#
# Indices 1 2 3 4 5 6 
#
# 1 0.015520 -0.014485 -0.006022 0.000000 0.001336 0.000000
# 2 -0.014485 0.054698 -0.004136 0.000000 -0.007796 0.000000
# 3 -0.006022 -0.004136 0.013191 0.000000 0.002290 0.000000
# 4 0.000000 0.000000 0.000000 0.032418 0.000000 0.001079
# 5 0.001336 -0.007796 0.002290 0.000000 0.023639 0.000000
# 6 0.000000 0.000000 0.000000 0.001079 0.000000 0.039171
#
#
# Mechanical properties :
#
#
# Convention : Reuss Voigt Hill
#
# Bulk Modulus (GPa) = 29.30495 61.58244 45.44370
# Shear Modulus (GPa) = 20.89454 29.64348 25.26901
#
# Velocity S-wave (km/s) = 3.31508 3.94859 3.64562
# Velocity P-wave (km/s) = 5.48328 7.29237 6.45155
#
# Compressibility (1/GPa) = 0.03412393
#
# Stress axis : x y z
#
# Youngs Moduli (GPa) = 64.43440 18.28212 75.80920
#
# Poissons Ratio (x) = 0.26481 0.45653
# Poissons Ratio (y) = 0.93332 0.31351
# Poissons Ratio (z) = 0.38803 0.07561
#
# Static dielectric constant tensor:
#      x y z
#    x 3.815780 0.000000 0.110260 
#    y 0.000000 3.174470 0.000000 
#    z 0.110260 0.000000 3.859980 
# 
# 
# High freq. dielectric constant tensor:
#      x y z
#    x 1.750010 0.000000 -0.004090 
#    y 0.000000 1.697030 0.000000 
#    z -0.004090 0.000000 1.760150 
# 
# From -- ./inp_files/243123.got.cif
#   From: 2010.06.25/outbox.cif.g09.slc.cpg/sg15_122_cif.got.tgz:243123.got - 2010.06.28 07:06:18.
