data_PCOD8133577
_publ_section_title
;
Structure prediction by ZEFSAII (Michael W. Deem and Ramdas Pophale) SiO2 
 PCOD8133577
Probable space group: C 2/C
;
_chemical_formula_sum "Si O2"
_cell_formula_units_Z 64
_cell_length_a 14.892107
_cell_length_b 11.356003
_cell_length_c 33.253561
_cell_angle_alpha 90.000000
_cell_angle_beta 144.208538
_cell_angle_gamma 90.000000
_cell_volume 3288.929035
_symmetry_space_group_name_H-M "C 2/C"
_symmetry_group_IT_number 15
_symmetry_cell_setting 'monoclinic'
loop_
_space_group_symop_operation_xyz
x,y,z
-x,y,1/2-z
-x,-y,-z
x,-y,1/2+z
1/2+x,1/2+y,z
1/2-x,1/2+y,1/2-z
1/2-x,1/2-y,-z
1/2+x,1/2-y,1/2+z
loop_
_atom_site_type_symbol
_atom_site_label
_atom_site_fract_x
_atom_site_fract_y
_atom_site_fract_z
Si Si1 0.958081 0.714044 0.120332
Si Si2 0.575535 0.257565 0.081205
Si Si3 0.841382 0.115635 0.212375
Si Si4 0.254614 0.997720 0.146062
Si Si5 0.327166 0.657132 0.696499
Si Si6 0.054710 0.496573 0.207273
Si Si7 0.171260 0.771174 0.570848
Si Si8 0.236712 0.720196 0.745070
O O1 0.791249 0.729898 0.077788
O O2 0.948232 0.719328 0.068372
O O3 0.036322 0.595752 0.166623
O O4 0.087279 0.813448 0.177962
O O5 0.714243 0.165646 0.135502
O O6 0.637000 0.390455 0.109559
O O7 0.496108 0.246683 0.008642
O O8 0.823677 0.168718 0.250812
O O9 0.000000 0.155123 0.250000
O O10 0.830750 0.976031 0.213142
O O11 0.391004 0.958909 0.165949
O O12 0.328007 0.037750 0.215142
O O13 0.166481 0.107241 0.093835
O O14 0.500000 0.704260 0.750000
O O15 0.222257 0.665919 0.618726
O O16 0.248843 0.741556 0.701509
O O17 0.118904 0.383838 0.208476
#
# Coordination Sequence:
#
# PCOD8133577 Si02
#       8
#     8   8   8   8   8   8   8   8
#     4  10  20  34  55  86 117 153 189 240 294 348
#     4  11  21  38  59  86 119 156 197 237 299 355
#     4  10  22  39  62  87 116 155 196 248 298 352
#     4  10  20  35  60  86 114 150 196 248 290 344
#     4  11  23  39  58  87 122 153 198 247 294 346
#     4  10  19  33  60  88 113 142 196 252 293 334
#     4  11  23  37  56  83 124 161 192 237 296 360
#     4  11  18  34  60  86 116 147 196 244 296 339
#
# _framework density 19.459220999999999
#
# number of rings (size 3 to 8) (size 9 to 14) (size 15 to 20)
#    0.000    1.500    3.750    3.750    1.750    0.500 
#    0.000    0.000    0.000    3.000    0.000    0.000 
#    0.000    0.000    0.000    0.000    0.000    0.000 
#
# Total GULP energy -396552.709299 kJ/mol
# GULP energy per Si atom -12392.272166 kJ/mol
# Density = 1.941493 g / cm^3
# Si number density = 19.459221 Si / 1000 Ang^3
#
#
#
# Elastic Constant Matrix: (Units=GPa)
#
#
# Indices 1 2 3 4 5 6 
#
# 1 109.2770 52.6690 37.9385 0.0000 -11.3066 0.0000
# 2 52.6690 73.8492 38.9300 0.0000 -4.6002 0.0000
# 3 37.9385 38.9300 114.7583 0.0000 -15.6203 0.0000
# 4 0.0000 0.0000 0.0000 9.2933 0.0000 -0.4767
# 5 -11.3066 -4.6002 -15.6203 0.0000 25.3856 0.0000
# 6 0.0000 0.0000 0.0000 -0.4767 0.0000 27.0877
#
#
#
# Elastic Compliance Matrix: (Units=1/GPa)
#
#
# Indices 1 2 3 4 5 6 
#
# 1 0.014547 -0.009595 -0.000992 0.000000 0.004130 0.000000
# 2 -0.009595 0.022824 -0.005009 0.000000 -0.003220 0.000000
# 3 -0.000992 -0.005009 0.011523 0.000000 0.005740 0.000000
# 4 0.000000 0.000000 0.000000 0.107702 0.000000 0.001896
# 5 0.004130 -0.003220 0.005740 0.000000 0.044181 0.000000
# 6 0.000000 0.000000 0.000000 0.001896 0.000000 0.036950
#
#
# Mechanical properties :
#
#
# Convention : Reuss Voigt Hill
#
# Bulk Modulus (GPa) = 56.49076 61.88440 59.18758
# Shear Modulus (GPa) = 18.19375 23.57645 20.88510
#
# Velocity S-wave (km/s) = 3.06104 3.48456 3.27964
# Velocity P-wave (km/s) = 6.44877 6.93258 6.69505
#
# Compressibility (1/GPa) = 0.01770201
#
# Stress axis : x y z
#
# Youngs Moduli (GPa) = 68.74118 43.81352 86.78628
#
# Poissons Ratio (x) = 0.42038 0.08611
# Poissons Ratio (y) = 0.65956 0.43471
# Poissons Ratio (z) = 0.06821 0.21946
#
# Static dielectric constant tensor:
#      x y z
#    x 3.819780 0.000000 -0.072120 
#    y 0.000000 3.426460 0.000000 
#    z -0.072120 0.000000 3.445020 
# 
# 
# High freq. dielectric constant tensor:
#      x y z
#    x 1.771360 0.000000 -0.007140 
#    y 0.000000 1.748130 0.000000 
#    z -0.007140 0.000000 1.739880 
# 
# From -- ./inp_files/313618.got.cif
#   From: 2010.06.25/outbox.cif.g09.slc.cpg/sg15_157_cif.got.tgz:313618.got - 2010.06.28 07:06:18.
