data_PCOD8133173
_publ_section_title
;
Structure prediction by ZEFSAII (Michael W. Deem and Ramdas Pophale) SiO2 
 PCOD8133173
Probable space group: C 2/C
;
_chemical_formula_sum "Si O2"
_cell_formula_units_Z 64
_cell_length_a 22.809046
_cell_length_b 10.572446
_cell_length_c 14.660836
_cell_angle_alpha 90.000000
_cell_angle_beta 63.316596
_cell_angle_gamma 90.000000
_cell_volume 3158.905379
_symmetry_space_group_name_H-M "C 2/C"
_symmetry_group_IT_number 15
_symmetry_cell_setting 'monoclinic'
loop_
_space_group_symop_operation_xyz
x,y,z
-x,y,1/2-z
-x,-y,-z
x,-y,1/2+z
1/2+x,1/2+y,z
1/2-x,1/2+y,1/2-z
1/2-x,1/2-y,-z
1/2+x,1/2-y,1/2+z
loop_
_atom_site_type_symbol
_atom_site_label
_atom_site_fract_x
_atom_site_fract_y
_atom_site_fract_z
Si Si1 0.844405 0.554556 0.407238
Si Si2 0.639552 0.076911 0.312019
Si Si3 0.231453 0.904102 0.421872
Si Si4 0.789655 0.905538 0.713138
Si Si5 0.441993 0.843555 0.348648
Si Si6 0.833884 0.184340 0.359314
Si Si7 0.371912 0.817425 0.065968
Si Si8 0.514640 0.851119 0.991057
O O1 0.874389 0.578113 0.286413
O O2 0.768918 0.515389 0.449685
O O3 0.887835 0.442871 0.421178
O O4 0.845918 0.665103 0.480604
O O5 0.712632 0.131457 0.279263
O O6 0.582502 0.170620 0.388137
O O7 0.636046 0.937454 0.360344
O O8 0.175357 0.858837 0.529739
O O9 0.282697 0.793031 0.364018
O O10 0.203035 0.962356 0.347620
O O11 0.823018 0.923909 0.790278
O O12 0.829253 0.796238 0.634514
O O13 0.500000 0.908275 0.250000
O O14 0.408102 0.736959 0.308129
O O15 0.474105 0.789867 0.417721
O O16 0.449184 0.781423 0.999952
O O17 0.500000 0.000000 0.000000
#
# Coordination Sequence:
#
# PCOD8133173 Si02
#       8
#     8   8   8   8   8   8   8   8
#     4  10  19  32  54  82 118 148 191 237 307 356
#     4  10  21  34  51  86 114 157 192 244 303 357
#     4   9  21  36  55  85 114 153 195 245 289 353
#     4  11  21  36  58  85 120 150 198 244 300 360
#     4  11  19  32  58  86 111 149 197 246 294 356
#     4  10  21  37  60  85 113 152 201 241 293 358
#     4  11  21  36  55  85 120 156 193 248 305 365
#     4  10  19  34  53  83 119 148 191 250 304 353
#
# _framework density 20.260182
#
# number of rings (size 3 to 8) (size 9 to 14) (size 15 to 20)
#    0.000    1.750    2.500    5.250    3.500    2.000 
#    0.000    0.000    0.000    3.000    0.000    0.000 
#    0.000    0.000    0.000    0.000    0.000    0.000 
#
# Total GULP energy -396460.607468 kJ/mol
# GULP energy per Si atom -12389.393983 kJ/mol
# Density = 2.021407 g / cm^3
# Si number density = 20.260182 Si / 1000 Ang^3
#
#
#
# Elastic Constant Matrix: (Units=GPa)
#
#
# Indices 1 2 3 4 5 6 
#
# 1 82.3320 24.3858 24.9372 0.0000 -2.2193 0.0000
# 2 24.3858 40.1769 24.5750 0.0000 -1.9678 0.0000
# 3 24.9372 24.5750 99.5143 0.0000 3.7670 0.0000
# 4 0.0000 0.0000 0.0000 34.7246 0.0000 7.8362
# 5 -2.2193 -1.9678 3.7670 0.0000 48.8999 0.0000
# 6 0.0000 0.0000 0.0000 7.8362 0.0000 27.3163
#
#
#
# Elastic Compliance Matrix: (Units=1/GPa)
#
#
# Indices 1 2 3 4 5 6 
#
# 1 0.015086 -0.008019 -0.001819 0.000000 0.000502 0.000000
# 2 -0.008019 0.033730 -0.006376 0.000000 0.001485 0.000000
# 3 -0.001819 -0.006376 0.012127 0.000000 -0.001273 0.000000
# 4 0.000000 0.000000 0.000000 0.030791 0.000000 -0.008833
# 5 0.000502 0.001485 -0.001273 0.000000 0.020631 0.000000
# 6 0.000000 0.000000 0.000000 -0.008833 0.000000 0.039142
#
#
# Mechanical properties :
#
#
# Convention : Reuss Voigt Hill
#
# Bulk Modulus (GPa) = 35.07014 41.09104 38.08059
# Shear Modulus (GPa) = 25.84768 32.06317 28.95543
#
# Velocity S-wave (km/s) = 3.57569 3.98247 3.78455
# Velocity P-wave (km/s) = 5.86472 6.43991 6.15903
#
# Compressibility (1/GPa) = 0.02851428
#
# Stress axis : x y z
#
# Youngs Moduli (GPa) = 66.28839 29.64708 82.45755
#
# Poissons Ratio (x) = 0.23774 0.14999
# Poissons Ratio (y) = 0.53158 0.52578
# Poissons Ratio (z) = 0.12058 0.18904
#
# Static dielectric constant tensor:
#      x y z
#    x 4.036420 0.000000 -0.002270 
#    y 0.000000 3.213620 0.000000 
#    z -0.002270 0.000000 3.887260 
# 
# 
# High freq. dielectric constant tensor:
#      x y z
#    x 1.800310 0.000000 0.004630 
#    y 0.000000 1.720450 0.000000 
#    z 0.004630 0.000000 1.809160 
# 
# From -- ./inp_files/167631.got.cif
#   From: 2010.06.25/outbox.cif.g09.slc.cpg/sg15_84_cif.got.tgz:167631.got - 2010.06.28 07:06:18.
