data_PCOD8133384
_publ_section_title
;
Structure prediction by ZEFSAII (Michael W. Deem and Ramdas Pophale) SiO2 
 PCOD8133384
Probable space group: C 2/C
;
_chemical_formula_sum "Si O2"
_cell_formula_units_Z 56
_cell_length_a 14.526700
_cell_length_b 19.961186
_cell_length_c 15.304154
_cell_angle_alpha 90.000000
_cell_angle_beta 142.247249
_cell_angle_gamma 90.000000
_cell_volume 2717.034479
_symmetry_space_group_name_H-M "C 2/C"
_symmetry_group_IT_number 15
_symmetry_cell_setting 'monoclinic'
loop_
_space_group_symop_operation_xyz
x,y,z
-x,y,1/2-z
-x,-y,-z
x,-y,1/2+z
1/2+x,1/2+y,z
1/2-x,1/2+y,1/2-z
1/2-x,1/2-y,-z
1/2+x,1/2-y,1/2+z
loop_
_atom_site_type_symbol
_atom_site_label
_atom_site_fract_x
_atom_site_fract_y
_atom_site_fract_z
Si Si1 0.828156 0.221778 0.363906
Si Si2 0.311036 0.135581 0.793378
Si Si3 0.483917 0.776569 0.641856
Si Si4 0.473387 0.605110 0.016110
Si Si5 0.862244 0.976837 0.999367
Si Si6 0.683340 0.088939 0.515638
Si Si7 0.444589 0.981976 0.304042
O O1 0.880042 0.290710 0.357243
O O2 0.649540 0.211239 0.226749
O O3 0.891597 0.224720 0.511458
O O4 0.903397 0.160967 0.365737
O O5 0.182039 0.141667 0.624110
O O6 0.441253 0.085560 0.858837
O O7 0.247475 0.109516 0.839274
O O8 0.500000 0.743327 0.750000
O O9 0.394415 0.846417 0.587219
O O10 0.442743 0.550394 0.070228
O O11 0.521325 0.570178 0.961981
O O12 0.815575 0.943111 0.055864
O O13 0.719853 0.984876 0.827566
O O14 0.555126 0.033481 0.434166
O O15 0.500000 0.961959 0.250000
#
# Coordination Sequence:
#
# PCOD8133384 Si02
#       7
#     8   8   8   8   8   8   8
#     4  11  21  36  52  80 114 155 192 225 287 337
#     4  10  21  33  52  83 109 148 182 237 281 335
#     4  11  21  33  52  80 116 150 187 233 284 349
#     4  10  19  36  53  76 110 151 190 226 283 337
#     4   9  19  33  56  78 103 146 187 232 279 340
#     4  10  19  33  54  83 110 139 187 236 288 335
#     4   9  17  34  57  80 105 140 190 231 289 334
#
# _framework density 20.610707999999999
#
# number of rings (size 3 to 8) (size 9 to 14) (size 15 to 20)
#    0.000    2.000    1.429    3.857    0.000    1.714 
#    0.000    0.000    0.000    7.714    0.000    0.000 
#    0.000    0.000    0.000    0.000    0.000    0.000 
#
# Total GULP energy -347103.952262 kJ/mol
# GULP energy per Si atom -12396.569724 kJ/mol
# Density = 2.056380 g / cm^3
# Si number density = 20.610708 Si / 1000 Ang^3
#
#
#
# Elastic Constant Matrix: (Units=GPa)
#
#
# Indices 1 2 3 4 5 6 
#
# 1 51.5079 32.0948 9.9956 0.0002 8.9170 0.0002
# 2 32.0948 105.9852 5.2746 0.0002 -1.3567 0.0002
# 3 9.9956 5.2746 36.9194 0.0007 4.1872 0.0006
# 4 0.0002 0.0002 0.0007 17.5730 0.0004 5.7495
# 5 8.9170 -1.3567 4.1872 0.0004 23.7902 0.0003
# 6 0.0002 0.0002 0.0006 5.7495 0.0003 36.9525
#
#
#
# Elastic Compliance Matrix: (Units=1/GPa)
#
#
# Indices 1 2 3 4 5 6 
#
# 1 0.027124 -0.008085 -0.005085 0.000000 -0.009733 0.000000
# 2 -0.008085 0.011928 0.000065 0.000000 0.003699 0.000000
# 3 -0.005085 0.000065 0.028812 -0.000001 -0.003161 0.000000
# 4 0.000000 0.000000 -0.000001 0.059958 -0.000001 -0.009329
# 5 -0.009733 0.003699 -0.003161 -0.000001 0.046450 0.000000
# 6 0.000000 0.000000 0.000000 -0.009329 0.000000 0.028513
#
#
# Mechanical properties :
#
#
# Convention : Reuss Voigt Hill
#
# Bulk Modulus (GPa) = 24.00696 32.12695 28.06696
# Shear Modulus (GPa) = 20.58640 25.46628 23.02634
#
# Velocity S-wave (km/s) = 3.16384 3.51890 3.34608
# Velocity P-wave (km/s) = 5.00196 5.66847 5.34561
#
# Compressibility (1/GPa) = 0.04165458
#
# Stress axis : x y z
#
# Youngs Moduli (GPa) = 36.86742 83.83763 34.70792
#
# Poissons Ratio (x) = 0.67786 0.17648
# Poissons Ratio (y) = 0.29809 -0.00227
# Poissons Ratio (z) = 0.18746 -0.00548
#
# Static dielectric constant tensor:
#      x y z
#    x 3.626750 0.000000 0.224510 
#    y 0.000000 3.885470 0.000000 
#    z 0.224510 0.000000 3.562660 
# 
# 
# High freq. dielectric constant tensor:
#      x y z
#    x 1.782340 0.000000 0.022970 
#    y 0.000000 1.811500 0.000000 
#    z 0.022970 0.000000 1.788660 
# 
# From -- ./inp_files/57938.got.cif
#   From: 2010.06.25/outbox.cif.g09.slc.cpg/sg15_29_cif.got.tgz:57938.got - 2010.06.28 07:06:18.
