data_PCOD8133099
_publ_section_title
;
Structure prediction by ZEFSAII (Michael W. Deem and Ramdas Pophale) SiO2 
 PCOD8133099
Probable space group: C 2/C
;
_chemical_formula_sum "Si O2"
_cell_formula_units_Z 56
_cell_length_a 19.814603
_cell_length_b 12.780615
_cell_length_c 12.229523
_cell_angle_alpha 90.000000
_cell_angle_beta 103.920021
_cell_angle_gamma 90.000000
_cell_volume 3006.086446
_symmetry_space_group_name_H-M "C 2/C"
_symmetry_group_IT_number 15
_symmetry_cell_setting 'monoclinic'
loop_
_space_group_symop_operation_xyz
x,y,z
-x,y,1/2-z
-x,-y,-z
x,-y,1/2+z
1/2+x,1/2+y,z
1/2-x,1/2+y,1/2-z
1/2-x,1/2-y,-z
1/2+x,1/2-y,1/2+z
loop_
_atom_site_type_symbol
_atom_site_label
_atom_site_fract_x
_atom_site_fract_y
_atom_site_fract_z
Si Si1 0.286428 0.191420 0.674817
Si Si2 0.879843 0.577993 0.319636
Si Si3 0.235492 0.407423 0.561053
Si Si4 0.772639 0.122450 0.617925
Si Si5 0.516139 0.117416 0.461050
Si Si6 0.933888 0.351570 0.296809
Si Si7 0.346734 0.821569 0.596587
O O1 0.255743 0.301789 0.629042
O O2 0.276194 0.108483 0.572531
O O3 0.247414 0.144056 0.764292
O O4 0.367548 0.213839 0.730260
O O5 0.836124 0.552441 0.411630
O O6 0.912107 0.472465 0.283341
O O7 0.829717 0.630657 0.209621
O O8 0.943596 0.655655 0.379266
O O9 0.292019 0.500033 0.606097
O O10 0.705220 0.140311 0.516213
O O11 0.836984 0.195424 0.604874
O O12 0.542756 0.186107 0.573477
O O13 0.575782 0.135066 0.394343
O O14 0.500000 0.000000 0.500000
O O15 0.000000 0.328105 0.250000
#
# Coordination Sequence:
#
# PCOD8133099 Si02
#       7
#     8   8   8   8   8   8   8
#     4  11  22  40  56  85 120 155 201 241 297 355
#     4  11  19  33  56  86 120 146 188 244 298 354
#     4  11  23  37  60  86 117 161 193 243 300 349
#     4  11  22  38  58  85 118 156 200 246 287 356
#     4  10  19  32  50  83 120 149 185 233 300 348
#     4  11  20  34  56  83 118 152 188 235 301 358
#     4  11  21  34  56  85 119 155 191 234 299 356
#
# _framework density 18.628872000000001
#
# number of rings (size 3 to 8) (size 9 to 14) (size 15 to 20)
#    0.000    1.143    4.286    4.714    0.000    0.000 
#    0.000    0.000    0.000    1.714    0.000    4.000 
#    0.000    0.000    0.000    0.000    0.000    0.000 
#
# Total GULP energy -346971.843583 kJ/mol
# GULP energy per Si atom -12391.851557 kJ/mol
# Density = 1.858647 g / cm^3
# Si number density = 18.628872 Si / 1000 Ang^3
#
#
#
# Elastic Constant Matrix: (Units=GPa)
#
#
# Indices 1 2 3 4 5 6 
#
# 1 74.3956 16.0320 16.4526 0.0000 -8.2016 0.0000
# 2 16.0320 59.3478 24.4033 0.0000 -10.4837 0.0000
# 3 16.4526 24.4033 123.6281 0.0000 -6.5165 0.0000
# 4 0.0000 0.0000 0.0000 20.7365 0.0000 -1.3155
# 5 -8.2016 -10.4837 -6.5165 0.0000 27.7885 0.0000
# 6 0.0000 0.0000 0.0000 -1.3155 0.0000 22.1249
#
#
#
# Elastic Compliance Matrix: (Units=1/GPa)
#
#
# Indices 1 2 3 4 5 6 
#
# 1 0.014668 -0.002944 -0.001216 0.000000 0.002933 0.000000
# 2 -0.002944 0.020028 -0.003249 0.000000 0.005925 0.000000
# 3 -0.001216 -0.003249 0.008919 0.000000 0.000507 0.000000
# 4 0.000000 0.000000 0.000000 0.048407 0.000000 0.002878
# 5 0.002933 0.005925 0.000507 0.000000 0.039206 0.000000
# 6 0.000000 0.000000 0.000000 0.002878 0.000000 0.045369
#
#
# Mechanical properties :
#
#
# Convention : Reuss Voigt Hill
#
# Bulk Modulus (GPa) = 34.72752 41.23857 37.98304
# Shear Modulus (GPa) = 24.87379 27.49555 26.18467
#
# Velocity S-wave (km/s) = 3.65804 3.84600 3.75320
# Velocity P-wave (km/s) = 6.04350 6.47358 6.26223
#
# Compressibility (1/GPa) = 0.02879561
#
# Stress axis : x y z
#
# Youngs Moduli (GPa) = 68.17339 49.93051 112.12360
#
# Poissons Ratio (x) = 0.14700 0.13638
# Poissons Ratio (y) = 0.20071 0.36432
# Poissons Ratio (z) = 0.08292 0.16224
#
# Static dielectric constant tensor:
#      x y z
#    x 3.522870 0.000000 0.180960 
#    y 0.000000 3.308250 0.000000 
#    z 0.180960 0.000000 4.045410 
# 
# 
# High freq. dielectric constant tensor:
#      x y z
#    x 1.706090 0.000000 -0.007790 
#    y 0.000000 1.686530 0.000000 
#    z -0.007790 0.000000 1.755850 
# 
# From -- ./inp_files/111692.got.cif
#   From: 2010.06.25/outbox.cif.g09.slc.cpg/sg15_56_cif.got.tgz:111692.got - 2010.06.28 07:06:18.
