data_PCOD8133221
_publ_section_title
;
Structure prediction by ZEFSAII (Michael W. Deem and Ramdas Pophale) SiO2 
 PCOD8133221
Probable space group: C 2/C
;
_chemical_formula_sum "Si O2"
_cell_formula_units_Z 40
_cell_length_a 12.466358
_cell_length_b 7.858229
_cell_length_c 16.533634
_cell_angle_alpha 90.000000
_cell_angle_beta 76.399268
_cell_angle_gamma 90.000000
_cell_volume 1574.273162
_symmetry_space_group_name_H-M "C 2/C"
_symmetry_group_IT_number 15
_symmetry_cell_setting 'monoclinic'
loop_
_space_group_symop_operation_xyz
x,y,z
-x,y,1/2-z
-x,-y,-z
x,-y,1/2+z
1/2+x,1/2+y,z
1/2-x,1/2+y,1/2-z
1/2-x,1/2-y,-z
1/2+x,1/2-y,1/2+z
loop_
_atom_site_type_symbol
_atom_site_label
_atom_site_fract_x
_atom_site_fract_y
_atom_site_fract_z
Si Si1 0.210539 0.939781 0.526349
Si Si2 0.955378 0.776711 0.841199
Si Si3 0.762828 0.497624 0.345106
Si Si4 0.390989 0.737017 0.723334
Si Si5 0.414760 0.020174 0.587132
O O1 0.250000 0.750000 0.500000
O O2 0.093029 0.928184 0.593714
O O3 0.204857 0.039134 0.442053
O O4 0.292584 0.035208 0.572840
O O5 0.862184 0.635842 0.839433
O O6 0.000000 0.855932 0.750000
O O7 0.058988 0.691032 0.868107
O O8 0.670678 0.428425 0.299916
O O9 0.809672 0.670360 0.300347
O O10 0.500000 0.675866 0.750000
O O11 0.424764 0.858522 0.643553
O O12 0.500000 0.000000 0.500000
#
# Coordination Sequence:
#
# PCOD8133221 Si02
#       5
#     8   8   8   8   8
#     4  10  19  32  56  95 125 159 214 265 309 377
#     4  11  19  32  56  96 121 163 217 255 306 385
#     4  11  21  38  61  95 128 165 214 262 315 377
#     4  12  22  38  63  93 126 166 212 261 315 375
#     4  12  17  30  60  94 120 158 214 257 312 378
#
# _framework density 25.408552
#
# number of rings (size 3 to 8) (size 9 to 14) (size 15 to 20)
#    0.000    0.800   12.000    0.000    0.000    0.000 
#    0.000    2.000    0.000    6.000    0.000    1.400 
#    0.000    0.000    0.000    0.000    0.000    0.000 
#
# Total GULP energy -248072.338723 kJ/mol
# GULP energy per Si atom -12403.616936 kJ/mol
# Density = 2.535072 g / cm^3
# Si number density = 25.408552 Si / 1000 Ang^3
#
#
#
# Elastic Constant Matrix: (Units=GPa)
#
#
# Indices 1 2 3 4 5 6 
#
# 1 160.3251 50.9655 57.1149 0.0000 32.8198 0.0000
# 2 50.9655 48.0717 38.1689 0.0000 7.5503 0.0000
# 3 57.1149 38.1689 203.5838 0.0000 -7.8610 0.0000
# 4 0.0000 0.0000 0.0000 5.3774 0.0000 3.1347
# 5 32.8198 7.5503 -7.8610 0.0000 53.3065 0.0000
# 6 0.0000 0.0000 0.0000 3.1347 0.0000 30.6394
#
#
#
# Elastic Compliance Matrix: (Units=1/GPa)
#
#
# Indices 1 2 3 4 5 6 
#
# 1 0.010954 -0.009539 -0.001501 0.000000 -0.005614 0.000000
# 2 -0.009539 0.033702 -0.003620 0.000000 0.000566 0.000000
# 3 -0.001501 -0.003620 0.006102 0.000000 0.002337 0.000000
# 4 0.000000 0.000000 0.000000 0.197759 0.000000 -0.020233
# 5 -0.005614 0.000566 0.002337 0.000000 0.022481 0.000000
# 6 0.000000 0.000000 0.000000 -0.020233 0.000000 0.034708
#
#
# Mechanical properties :
#
#
# Convention : Reuss Voigt Hill
#
# Bulk Modulus (GPa) = 46.65200 78.27546 62.46373
# Shear Modulus (GPa) = 14.61248 35.58006 25.09627
#
# Velocity S-wave (km/s) = 2.40073 3.74614 3.14619
# Velocity P-wave (km/s) = 5.10737 7.04167 6.15103
#
# Compressibility (1/GPa) = 0.02143531
#
# Stress axis : x y z
#
# Youngs Moduli (GPa) = 91.29082 29.67207 163.87500
#
# Poissons Ratio (x) = 0.28306 0.24604
# Poissons Ratio (y) = 0.87087 0.59330
# Poissons Ratio (z) = 0.13706 0.10743
#
# Static dielectric constant tensor:
#      x y z
#    x 5.029340 0.000000 0.035070 
#    y 0.000000 4.052880 0.000000 
#    z 0.035070 0.000000 5.572320 
# 
# 
# High freq. dielectric constant tensor:
#      x y z
#    x 2.015020 0.000000 0.001070 
#    y 0.000000 1.981090 0.000000 
#    z 0.001070 0.000000 2.043650 
# 
# From -- ./inp_files/195098.got.cif
#   From: 2010.06.25/outbox.cif.g09.slc.cpg/sg15_98_cif.got.tgz:195098.got - 2010.06.28 07:06:18.
