data_PCOD8133856
_publ_section_title
;
Structure prediction by ZEFSAII (Michael W. Deem and Ramdas Pophale) SiO2 
 PCOD8133856
Probable space group: C 2/C
;
_chemical_formula_sum "Si O2"
_cell_formula_units_Z 52
_cell_length_a 13.129323
_cell_length_b 27.571347
_cell_length_c 9.734009
_cell_angle_alpha 90.000000
_cell_angle_beta 51.395147
_cell_angle_gamma 90.000000
_cell_volume 2753.613941
_symmetry_space_group_name_H-M "C 2/C"
_symmetry_group_IT_number 15
_symmetry_cell_setting 'monoclinic'
loop_
_space_group_symop_operation_xyz
x,y,z
-x,y,1/2-z
-x,-y,-z
x,-y,1/2+z
1/2+x,1/2+y,z
1/2-x,1/2+y,1/2-z
1/2-x,1/2-y,-z
1/2+x,1/2-y,1/2+z
loop_
_atom_site_type_symbol
_atom_site_label
_atom_site_fract_x
_atom_site_fract_y
_atom_site_fract_z
Si Si1 0.797114 0.319242 0.904800
Si Si2 0.000000 0.090647 0.250000
Si Si3 0.000000 0.604007 0.250000
Si Si4 0.962889 0.145817 0.011950
Si Si5 0.879229 0.523489 0.175058
Si Si6 0.000000 0.930395 0.250000
Si Si7 0.790699 0.013309 0.442066
Si Si8 0.111055 0.223570 0.761055
O O1 0.882349 0.362019 0.897920
O O2 0.681542 0.339035 0.909274
O O3 0.882126 0.282274 0.734856
O O4 0.750523 0.292261 0.082732
O O5 0.947500 0.125286 0.176258
O O6 0.885426 0.056750 0.407892
O O7 0.061233 0.574099 0.323860
O O8 0.017335 0.103411 0.868074
O O9 0.065568 0.192008 0.931867
O O10 0.763160 0.528259 0.162721
O O11 0.826589 0.492799 0.350046
O O12 0.000000 0.500000 0.000000
O O13 0.869925 0.962897 0.369664
O O14 0.000000 0.206013 0.750000
#
# Coordination Sequence:
#
# PCOD8133856 Si02
#       8
#     8   4   4   8   8   4   8   8
#     4  10  19  34  58  88 113 139 188 240 289 340
#     4  11  24  38  60  85 115 160 192 250 291 348
#     4  12  22  33  58  83 113 156 191 226 286 348
#     4  11  21  37  59  89 116 144 199 238 296 345
#     4  12  24  39  55  84 122 162 194 240 288 351
#     4  11  20  37  64  88 106 154 205 258 279 326
#     4  11  23  40  58  81 120 155 204 244 292 329
#     4   9  18  35  58  87 115 136 179 252 292 330
#
# _framework density 18.884274000000001
#
# number of rings (size 3 to 8) (size 9 to 14) (size 15 to 20)
#    0.000    1.231    4.615    3.692    0.000    3.692 
#    0.000    0.769    0.000    0.000    0.000    0.000 
#    0.000    0.000    0.000    0.000    0.000    0.000 
#
# Total GULP energy -322207.266841 kJ/mol
# GULP energy per Si atom -12392.587186 kJ/mol
# Density = 1.884129 g / cm^3
# Si number density = 18.884274 Si / 1000 Ang^3
#
#
#
# Elastic Constant Matrix: (Units=GPa)
#
#
# Indices 1 2 3 4 5 6 
#
# 1 78.1766 39.8594 28.6876 0.0000 -1.4102 0.0000
# 2 39.8594 114.4216 47.4817 0.0000 -10.0646 0.0000
# 3 28.6876 47.4817 89.9255 0.0000 -6.7952 0.0000
# 4 0.0000 0.0000 0.0000 24.5433 0.0000 -11.5373
# 5 -1.4102 -10.0646 -6.7952 0.0000 31.4807 0.0000
# 6 0.0000 0.0000 0.0000 -11.5373 0.0000 27.4188
#
#
#
# Elastic Compliance Matrix: (Units=1/GPa)
#
#
# Indices 1 2 3 4 5 6 
#
# 1 0.016135 -0.004560 -0.002841 0.000000 -0.001348 0.000000
# 2 -0.004560 0.012653 -0.005018 0.000000 0.002758 0.000000
# 3 -0.002841 -0.005018 0.014787 0.000000 0.001460 0.000000
# 4 0.000000 0.000000 0.000000 0.050791 0.000000 0.021372
# 5 -0.001348 0.002758 0.001460 0.000000 0.032902 0.000000
# 6 0.000000 0.000000 0.000000 0.021372 0.000000 0.045464
#
#
# Mechanical properties :
#
#
# Convention : Reuss Voigt Hill
#
# Bulk Modulus (GPa) = 53.37367 57.17569 55.27468
# Shear Modulus (GPa) = 24.53203 27.78824 26.16013
#
# Velocity S-wave (km/s) = 3.60817 3.84018 3.72598
# Velocity P-wave (km/s) = 6.75895 7.07144 6.91696
#
# Compressibility (1/GPa) = 0.01873583
#
# Stress axis : x y z
#
# Youngs Moduli (GPa) = 61.97714 79.03262 67.62922
#
# Poissons Ratio (x) = 0.36041 0.19216
# Poissons Ratio (y) = 0.28263 0.33935
# Poissons Ratio (z) = 0.17610 0.39657
#
# Static dielectric constant tensor:
#      x y z
#    x 3.399430 0.000000 -0.313300 
#    y 0.000000 4.167690 0.000000 
#    z -0.313300 0.000000 3.306710 
# 
# 
# High freq. dielectric constant tensor:
#      x y z
#    x 1.727620 0.000000 -0.027950 
#    y 0.000000 1.745190 0.000000 
#    z -0.027950 0.000000 1.715840 
# 
# From -- ./inp_files/35128.got.cif
#   From: 2010.06.25/outbox.cif.g09.slc.cpg/sg15_18_cif.got.tgz:35128.got - 2010.06.28 07:06:18.
