data_PCOD8133157
_publ_section_title
;
Structure prediction by ZEFSAII (Michael W. Deem and Ramdas Pophale) SiO2 
 PCOD8133157
Probable space group: C 2/C
;
_chemical_formula_sum "Si O2"
_cell_formula_units_Z 52
_cell_length_a 18.741344
_cell_length_b 15.826094
_cell_length_c 9.406734
_cell_angle_alpha 90.000000
_cell_angle_beta 116.464107
_cell_angle_gamma 90.000000
_cell_volume 2497.698769
_symmetry_space_group_name_H-M "C 2/C"
_symmetry_group_IT_number 15
_symmetry_cell_setting 'monoclinic'
loop_
_space_group_symop_operation_xyz
x,y,z
-x,y,1/2-z
-x,-y,-z
x,-y,1/2+z
1/2+x,1/2+y,z
1/2-x,1/2+y,1/2-z
1/2-x,1/2-y,-z
1/2+x,1/2-y,1/2+z
loop_
_atom_site_type_symbol
_atom_site_label
_atom_site_fract_x
_atom_site_fract_y
_atom_site_fract_z
Si Si1 0.604223 0.040200 0.965592
Si Si2 0.566945 0.904867 0.137492
Si Si3 0.721706 0.585353 0.317373
Si Si4 0.109059 0.221870 0.277486
Si Si5 0.500000 0.368335 0.250000
Si Si6 0.043309 0.159751 0.490020
Si Si7 0.868884 0.993105 0.015219
O O1 0.529114 0.095793 0.954435
O O2 0.598788 0.033817 0.790711
O O3 0.683449 0.087246 0.085844
O O4 0.601459 0.944197 0.022987
O O5 0.600431 0.811676 0.194076
O O6 0.695242 0.683008 0.318776
O O7 0.681843 0.526751 0.399467
O O8 0.696190 0.550448 0.142662
O O9 0.093303 0.226127 0.435156
O O10 0.045695 0.155168 0.154997
O O11 0.463306 0.312436 0.348593
O O12 0.431457 0.424281 0.120828
O O13 0.083282 0.067656 0.521360
#
# Coordination Sequence:
#
# PCOD8133157 Si02
#       7
#     8   8   8   8   4   8   8
#     4  10  21  40  67  88 112 160 207 255 294 361
#     4  10  22  44  67  87 115 154 214 251 299 367
#     4  11  21  35  60  90 127 158 201 253 305 355
#     4  10  21  38  60  90 124 158 200 251 306 365
#     4  12  18  30  50  80 126 170 204 236 284 380
#     4  10  19  32  53  85 124 170 198 239 295 367
#     4  11  20  32  52  86 128 169 205 238 295 374
#
# _framework density 20.819163
#
# number of rings (size 3 to 8) (size 9 to 14) (size 15 to 20)
#    0.000    1.538    3.077    5.077    0.000    0.615 
#    0.000    6.154    0.000    1.846    0.000    0.000 
#    0.000    0.000    0.000    0.000    0.000    0.000 
#
# Total GULP energy -322280.698647 kJ/mol
# GULP energy per Si atom -12395.411486 kJ/mol
# Density = 2.077178 g / cm^3
# Si number density = 20.819163 Si / 1000 Ang^3
#
#
#
# Elastic Constant Matrix: (Units=GPa)
#
#
# Indices 1 2 3 4 5 6 
#
# 1 77.7328 39.7465 48.9690 0.0000 23.0812 0.0000
# 2 39.7465 98.4470 41.0071 0.0000 4.6738 0.0000
# 3 48.9690 41.0071 122.1079 0.0000 5.4297 0.0000
# 4 0.0000 0.0000 0.0000 21.8736 0.0000 -1.5220
# 5 23.0812 4.6738 5.4297 0.0000 37.5248 0.0000
# 6 0.0000 0.0000 0.0000 -1.5220 0.0000 19.4168
#
#
#
# Elastic Compliance Matrix: (Units=1/GPa)
#
#
# Indices 1 2 3 4 5 6 
#
# 1 0.024511 -0.006299 -0.007125 0.000000 -0.013261 0.000000
# 2 -0.006299 0.013459 -0.002105 0.000000 0.002503 0.000000
# 3 -0.007125 -0.002105 0.011622 0.000000 0.002963 0.000000
# 4 0.000000 0.000000 0.000000 0.045968 0.000000 0.003603
# 5 -0.013261 0.002503 0.002963 0.000000 0.034066 0.000000
# 6 0.000000 0.000000 0.000000 0.003603 0.000000 0.051784
#
#
# Mechanical properties :
#
#
# Convention : Reuss Voigt Hill
#
# Bulk Modulus (GPa) = 53.95276 61.97034 57.96155
# Shear Modulus (GPa) = 22.86807 27.00071 24.93439
#
# Velocity S-wave (km/s) = 3.31783 3.60518 3.46448
# Velocity P-wave (km/s) = 6.37562 6.86734 6.62604
#
# Compressibility (1/GPa) = 0.01853473
#
# Stress axis : x y z
#
# Youngs Moduli (GPa) = 40.79743 74.30064 86.04396
#
# Poissons Ratio (x) = 0.46800 0.61305
# Poissons Ratio (y) = 0.25697 0.18113
# Poissons Ratio (z) = 0.29068 0.15641
#
# Static dielectric constant tensor:
#      x y z
#    x 3.912490 0.000000 -0.170860 
#    y 0.000000 3.418310 0.000000 
#    z -0.170860 0.000000 4.086010 
# 
# 
# High freq. dielectric constant tensor:
#      x y z
#    x 1.810880 0.000000 -0.001890 
#    y 0.000000 1.784650 0.000000 
#    z -0.001890 0.000000 1.823320 
# 
# From -- ./inp_files/49222.got.cif
#   From: 2010.06.25/outbox.cif.g09.slc.cpg/sg15_25_cif.got.tgz:49222.got - 2010.06.28 07:06:18.
