data_PCOD8133290
_publ_section_title
;
Structure prediction by ZEFSAII (Michael W. Deem and Ramdas Pophale) SiO2 
 PCOD8133290
Probable space group: C 2/C
;
_chemical_formula_sum "Si O2"
_cell_formula_units_Z 64
_cell_length_a 12.348821
_cell_length_b 24.754395
_cell_length_c 23.669503
_cell_angle_alpha 90.000000
_cell_angle_beta 151.086792
_cell_angle_gamma 90.000000
_cell_volume 3498.236959
_symmetry_space_group_name_H-M "C 2/C"
_symmetry_group_IT_number 15
_symmetry_cell_setting 'monoclinic'
loop_
_space_group_symop_operation_xyz
x,y,z
-x,y,1/2-z
-x,-y,-z
x,-y,1/2+z
1/2+x,1/2+y,z
1/2-x,1/2+y,1/2-z
1/2-x,1/2-y,-z
1/2+x,1/2-y,1/2+z
loop_
_atom_site_type_symbol
_atom_site_label
_atom_site_fract_x
_atom_site_fract_y
_atom_site_fract_z
Si Si1 0.904464 0.209917 0.147439
Si Si2 0.327387 0.748585 0.789805
Si Si3 0.962059 0.435764 0.044962
Si Si4 0.961091 0.749710 0.994164
Si Si5 0.017363 0.898792 0.876499
Si Si6 0.711339 0.660548 0.816767
Si Si7 0.727707 0.466888 0.826167
Si Si8 0.220847 0.659729 0.321965
O O1 0.675676 0.242037 0.051847
O O2 0.000000 0.188101 0.250000
O O3 0.072290 0.252564 0.195480
O O4 0.876528 0.157288 0.096491
O O5 0.495742 0.752093 0.919361
O O6 0.367766 0.693497 0.774564
O O7 0.361159 0.801355 0.766330
O O8 0.102801 0.381591 0.117517
O O9 0.122785 0.485904 0.133423
O O10 0.740416 0.436447 0.984595
O O11 0.877576 0.437028 0.941624
O O12 0.793050 0.701768 0.902372
O O13 0.856328 0.807337 0.931115
O O14 0.836413 0.923666 0.750746
O O15 0.882003 0.888354 0.872711
O O16 0.500000 0.630741 0.750000
O O17 0.500000 0.491023 0.750000
O O18 0.000000 0.633969 0.250000
#
# Coordination Sequence:
#
# PCOD8133290 Si02
#       8
#     8   8   8   8   8   8   8   8
#     4   9  16  28  50  78 101 137 177 207 248 308
#     4   9  20  32  49  75 107 145 176 216 255 307
#     4  10  19  33  55  80 107 134 165 219 281 318
#     4  10  19  33  51  74 113 143 178 217 255 307
#     4  10  19  33  57  77 103 138 179 210 266 327
#     4  11  22  31  47  77 109 140 173 211 260 317
#     4   9  19  34  55  83 108 131 167 222 272 331
#     4  10  22  34  51  79 107 144 186 219 249 309
#
# _framework density 18.294930000000001
#
# number of rings (size 3 to 8) (size 9 to 14) (size 15 to 20)
#    0.000    2.250    1.250    3.000    5.250    3.500 
#    0.000    0.000    0.000    0.750    0.000    0.000 
#    0.000    0.000    0.000    0.000    0.000    0.000 
#
# Total GULP energy -396674.864188 kJ/mol
# GULP energy per Si atom -12396.089506 kJ/mol
# Density = 1.825329 g / cm^3
# Si number density = 18.294930 Si / 1000 Ang^3
#
#
#
# Elastic Constant Matrix: (Units=GPa)
#
#
# Indices 1 2 3 4 5 6 
#
# 1 101.2958 28.0779 41.8102 0.0122 20.3851 -0.0045
# 2 28.0779 57.4627 21.9915 0.0008 5.2344 -0.0034
# 3 41.8102 21.9915 76.3326 -0.0007 4.0066 -0.0210
# 4 0.0122 0.0008 -0.0007 22.0578 -0.0134 8.4949
# 5 20.3851 5.2344 4.0066 -0.0134 40.0372 0.0053
# 6 -0.0045 -0.0034 -0.0210 8.4949 0.0053 22.8167
#
#
#
# Elastic Compliance Matrix: (Units=1/GPa)
#
#
# Indices 1 2 3 4 5 6 
#
# 1 0.015122 -0.004225 -0.006726 -0.000013 -0.006474 0.000003
# 2 -0.004225 0.020901 -0.003696 0.000002 -0.000211 -0.000002
# 3 -0.006726 -0.003696 0.017738 0.000000 0.002133 0.000014
# 4 -0.000013 0.000002 0.000000 0.052924 0.000027 -0.019704
# 5 -0.006474 -0.000211 0.002133 0.000027 0.028087 -0.000016
# 6 0.000003 -0.000002 0.000014 -0.019704 -0.000016 0.051164
#
#
# Mechanical properties :
#
#
# Convention : Reuss Voigt Hill
#
# Bulk Modulus (GPa) = 40.87297 46.53891 43.70594
# Shear Modulus (GPa) = 22.38278 26.52976 24.45627
#
# Velocity S-wave (km/s) = 3.50157 3.81217 3.66016
# Velocity P-wave (km/s) = 6.22395 6.69852 6.46559
#
# Compressibility (1/GPa) = 0.02446605
#
# Stress axis : x y z
#
# Youngs Moduli (GPa) = 66.12752 47.84454 56.37772
#
# Poissons Ratio (x) = 0.20216 0.37919
# Poissons Ratio (y) = 0.27941 0.20838
# Poissons Ratio (z) = 0.44477 0.17684
#
# Static dielectric constant tensor:
#      x y z
#    x 3.456470 0.000000 0.251140 
#    y 0.000000 3.114560 -0.000050 
#    z 0.251140 -0.000050 3.499260 
# 
# 
# High freq. dielectric constant tensor:
#      x y z
#    x 1.699980 0.000000 0.023490 
#    y 0.000000 1.673540 0.000000 
#    z 0.023490 0.000000 1.716290 
# 
# From -- ./inp_files/120251.got.cif
#   From: 2010.06.25/outbox.cif.g09.slc.cpg/sg15_61_cif.got.tgz:120251.got - 2010.06.28 07:06:18.
