data_PCOD8133938
_publ_section_title
;
Structure prediction by ZEFSAII (Michael W. Deem and Ramdas Pophale) SiO2 
 PCOD8133938
Probable space group: C 2/C
;
_chemical_formula_sum "Si O2"
_cell_formula_units_Z 52
_cell_length_a 13.080741
_cell_length_b 29.382543
_cell_length_c 7.747020
_cell_angle_alpha 90.000000
_cell_angle_beta 127.129448
_cell_angle_gamma 90.000000
_cell_volume 2373.908058
_symmetry_space_group_name_H-M "C 2/C"
_symmetry_group_IT_number 15
_symmetry_cell_setting 'monoclinic'
loop_
_space_group_symop_operation_xyz
x,y,z
-x,y,1/2-z
-x,-y,-z
x,-y,1/2+z
1/2+x,1/2+y,z
1/2-x,1/2+y,1/2-z
1/2-x,1/2-y,-z
1/2+x,1/2-y,1/2+z
loop_
_atom_site_type_symbol
_atom_site_label
_atom_site_fract_x
_atom_site_fract_y
_atom_site_fract_z
Si Si1 0.912617 0.879755 0.826823
Si Si2 0.000000 0.936107 0.250000
Si Si3 0.268319 0.970396 0.480768
Si Si4 0.122413 0.794946 0.499184
Si Si5 0.167720 0.565324 0.081532
Si Si6 0.931685 0.601825 0.995264
Si Si7 0.365097 0.805319 0.518084
O O1 0.773151 0.898222 0.631308
O O2 0.000000 0.887641 0.750000
O O3 0.964744 0.904878 0.050963
O O4 0.902949 0.826152 0.859798
O O5 0.885665 0.969912 0.189765
O O6 0.310742 0.950585 0.703606
O O7 0.324536 0.937736 0.388276
O O8 0.324547 0.021084 0.530703
O O9 0.247803 0.814149 0.529632
O O10 0.152580 0.743360 0.595542
O O11 0.000000 0.796289 0.250000
O O12 0.028151 0.589312 0.937336
O O13 0.866931 0.651236 0.890009
O O14 0.000000 0.605384 0.250000
O O15 0.500000 0.802827 0.750000
#
# Coordination Sequence:
#
# PCOD8133938 Si02
#       7
#     8   4   8   8   8   8   8
#     4  11  23  37  60  87 123 157 193 248 298 361
#     4  10  22  38  58  86 116 152 204 236 304 348
#     4  10  21  34  58  80 113 151 193 250 289 359
#     4  10  19  34  60  94 118 155 205 247 301 366
#     4  10  22  36  56  81 113 154 200 241 296 356
#     4   9  17  34  55  83 113 151 198 243 295 352
#     4   9  17  32  62  89 117 158 205 245 300 368
#
# _framework density 21.904807999999999
#
# number of rings (size 3 to 8) (size 9 to 14) (size 15 to 20)
#    0.000    2.154    0.769    4.154    3.231    1.231 
#    0.000    0.000    0.000   16.615    0.000    0.000 
#    0.000    0.000    0.000    0.000    0.000    0.000 
#
# Total GULP energy -322263.444594 kJ/mol
# GULP energy per Si atom -12394.747869 kJ/mol
# Density = 2.185495 g / cm^3
# Si number density = 21.904808 Si / 1000 Ang^3
#
#
#
# Elastic Constant Matrix: (Units=GPa)
#
#
# Indices 1 2 3 4 5 6 
#
# 1 176.9725 65.9762 33.4371 0.0000 17.3932 0.0000
# 2 65.9762 149.4399 9.4877 0.0000 -6.0294 0.0000
# 3 33.4371 9.4877 15.5027 0.0000 -0.0573 0.0000
# 4 0.0000 0.0000 0.0000 17.2728 0.0000 4.5075
# 5 17.3932 -6.0294 -0.0573 0.0000 25.0279 0.0000
# 6 0.0000 0.0000 0.0000 4.5075 0.0000 44.3071
#
#
#
# Elastic Compliance Matrix: (Units=1/GPa)
#
#
# Indices 1 2 3 4 5 6 
#
# 1 0.013295 -0.004647 -0.025869 0.000000 -0.010418 0.000000
# 2 -0.004647 0.008657 0.004745 0.000000 0.005326 0.000000
# 3 -0.025869 0.004745 0.117469 0.000000 0.019390 0.000000
# 4 0.000000 0.000000 0.000000 0.059473 0.000000 -0.006050
# 5 -0.010418 0.005326 0.019390 0.000000 0.048523 0.000000
# 6 0.000000 0.000000 0.000000 -0.006050 0.000000 0.023185
#
#
# Mechanical properties :
#
#
# Convention : Reuss Voigt Hill
#
# Bulk Modulus (GPa) = 11.37939 62.19078 36.78509
# Shear Modulus (GPa) = 14.22727 32.85584 23.54155
#
# Velocity S-wave (km/s) = 2.55130 3.87710 3.28185
# Velocity P-wave (km/s) = 3.72627 6.96388 5.58483
#
# Compressibility (1/GPa) = 0.08787814
#
# Stress axis : x y z
#
# Youngs Moduli (GPa) = 75.21712 115.51251 8.51289
#
# Poissons Ratio (x) = 0.53684 0.22022
# Poissons Ratio (y) = 0.34957 -0.04040
# Poissons Ratio (z) = 1.94582 -0.54816
#
# Static dielectric constant tensor:
#      x y z
#    x 4.230430 0.000000 0.278880 
#    y 0.000000 4.669420 0.000000 
#    z 0.278880 0.000000 3.486750 
# 
# 
# High freq. dielectric constant tensor:
#      x y z
#    x 1.875070 0.000000 0.024400 
#    y 0.000000 1.876390 0.000000 
#    z 0.024400 0.000000 1.820960 
# 
# From -- ./inp_files/35351.got.cif
#   From: 2010.06.25/outbox.cif.g09.slc.cpg/sg15_18_cif.got.tgz:35351.got - 2010.06.28 07:06:18.
