data_PCOD8133536
_publ_section_title
;
Structure prediction by ZEFSAII (Michael W. Deem and Ramdas Pophale) SiO2 
 PCOD8133536
Probable space group: C 2/C
;
_chemical_formula_sum "Si O2"
_cell_formula_units_Z 60
_cell_length_a 9.076163
_cell_length_b 27.425205
_cell_length_c 13.113802
_cell_angle_alpha 90.000000
_cell_angle_beta 82.356278
_cell_angle_gamma 90.000000
_cell_volume 3235.225418
_symmetry_space_group_name_H-M "C 2/C"
_symmetry_group_IT_number 15
_symmetry_cell_setting 'monoclinic'
loop_
_space_group_symop_operation_xyz
x,y,z
-x,y,1/2-z
-x,-y,-z
x,-y,1/2+z
1/2+x,1/2+y,z
1/2-x,1/2+y,1/2-z
1/2-x,1/2-y,-z
1/2+x,1/2-y,1/2+z
loop_
_atom_site_type_symbol
_atom_site_label
_atom_site_fract_x
_atom_site_fract_y
_atom_site_fract_z
Si Si1 0.305043 0.697791 0.958465
Si Si2 0.832922 0.461506 0.578450
Si Si3 0.024198 0.943418 0.527058
Si Si4 0.091998 0.566696 0.923385
Si Si5 0.352926 0.152810 0.717497
Si Si6 0.000000 0.584208 0.250000
Si Si7 0.250803 0.886155 0.904107
Si Si8 0.438087 0.361268 0.146720
O O1 0.196001 0.682762 0.876978
O O2 0.473303 0.687361 0.901087
O O3 0.250000 0.750000 0.000000
O O4 0.302266 0.667876 0.064725
O O5 0.670764 0.436956 0.584278
O O6 0.805218 0.518997 0.592531
O O7 0.934693 0.448068 0.665285
O O8 0.922078 0.448541 0.465979
O O9 0.038833 0.908027 0.427886
O O10 0.883576 0.924118 0.605622
O O11 0.000000 0.000000 0.500000
O O12 0.103897 0.597253 0.818163
O O13 0.156755 0.599455 0.005916
O O14 0.500000 0.178104 0.750000
O O15 0.233718 0.152641 0.820868
O O16 0.138366 0.617074 0.201723
O O17 0.500000 0.378589 0.250000
#
# Coordination Sequence:
#
# PCOD8133536 Si02
#       8
#     8   8   8   8   8   4   8   8
#     4   9  19  39  62  77 107 143 171 229 302 345
#     4  10  20  32  50  75 112 156 194 215 265 321
#     4  11  20  33  52  78 115 152 182 226 279 324
#     4   9  18  33  49  75 110 151 182 223 269 317
#     4  10  19  33  58  84 110 136 185 238 279 322
#     4  10  22  36  48  74 108 144 194 222 248 334
#     4   9  19  37  53  75 105 141 184 226 272 328
#     4   9  20  36  56  85 112 141 189 232 275 337
#
# _framework density 18.545850000000002
#
# number of rings (size 3 to 8) (size 9 to 14) (size 15 to 20)
#    0.000    2.400    1.333    1.600    0.933    1.600 
#    3.600    0.667    5.867    0.000    0.000    0.000 
#    0.000    0.000    0.000    0.000    0.000    0.000 
#
# Total GULP energy -371646.798245 kJ/mol
# GULP energy per Si atom -12388.226608 kJ/mol
# Density = 1.850364 g / cm^3
# Si number density = 18.545850 Si / 1000 Ang^3
#
#
#
# Elastic Constant Matrix: (Units=GPa)
#
#
# Indices 1 2 3 4 5 6 
#
# 1 132.8978 38.1032 45.1022 0.0000 -22.1870 0.0000
# 2 38.1032 107.5793 39.9292 0.0000 -17.0848 0.0000
# 3 45.1022 39.9292 84.2483 0.0000 -24.9225 0.0000
# 4 0.0000 0.0000 0.0000 21.6296 0.0000 -4.6802
# 5 -22.1870 -17.0848 -24.9225 0.0000 31.8251 0.0000
# 6 0.0000 0.0000 0.0000 -4.6802 0.0000 19.6123
#
#
#
# Elastic Compliance Matrix: (Units=1/GPa)
#
#
# Indices 1 2 3 4 5 6 
#
# 1 0.009705 -0.001643 -0.003483 0.000000 0.003156 0.000000
# 2 -0.001643 0.011705 -0.004097 0.000000 0.001930 0.000000
# 3 -0.003483 -0.004097 0.018621 0.000000 0.009955 0.000000
# 4 0.000000 0.000000 0.000000 0.048750 0.000000 0.011633
# 5 0.003156 0.001930 0.009955 0.000000 0.042453 0.000000
# 6 0.000000 0.000000 0.000000 0.011633 0.000000 0.053765
#
#
# Mechanical properties :
#
#
# Convention : Reuss Voigt Hill
#
# Bulk Modulus (GPa) = 46.33101 63.44384 54.88743
# Shear Modulus (GPa) = 23.73735 28.05277 25.89506
#
# Velocity S-wave (km/s) = 3.58149 3.89346 3.74073
# Velocity P-wave (km/s) = 6.49145 7.38210 6.95105
#
# Compressibility (1/GPa) = 0.02158381
#
# Stress axis : x y z
#
# Youngs Moduli (GPa) = 103.04355 85.43721 53.70372
#
# Poissons Ratio (x) = 0.14040 0.18705
# Poissons Ratio (y) = 0.16933 0.22001
# Poissons Ratio (z) = 0.35889 0.35002
#
# Static dielectric constant tensor:
#      x y z
#    x 3.717920 0.000000 -0.292410 
#    y 0.000000 3.216580 0.000000 
#    z -0.292410 0.000000 3.576340 
# 
# 
# High freq. dielectric constant tensor:
#      x y z
#    x 1.731310 0.000000 -0.011440 
#    y 0.000000 1.686630 0.000000 
#    z -0.011440 0.000000 1.712020 
# 
# From -- ./inp_files/138242.got.cif
#   From: 2010.06.25/outbox.cif.g09.slc.cpg/sg15_70_cif.got.tgz:138242.got - 2010.06.28 07:06:18.
