data_PCOD8133345
_publ_section_title
;
Structure prediction by ZEFSAII (Michael W. Deem and Ramdas Pophale) SiO2 
 PCOD8133345
Probable space group: C 2/C
;
_chemical_formula_sum "Si O2"
_cell_formula_units_Z 48
_cell_length_a 32.290208
_cell_length_b 9.030103
_cell_length_c 8.840748
_cell_angle_alpha 90.000000
_cell_angle_beta 76.689165
_cell_angle_gamma 90.000000
_cell_volume 2508.567594
_symmetry_space_group_name_H-M "C 2/C"
_symmetry_group_IT_number 15
_symmetry_cell_setting 'monoclinic'
loop_
_space_group_symop_operation_xyz
x,y,z
-x,y,1/2-z
-x,-y,-z
x,-y,1/2+z
1/2+x,1/2+y,z
1/2-x,1/2+y,1/2-z
1/2-x,1/2-y,-z
1/2+x,1/2-y,1/2+z
loop_
_atom_site_type_symbol
_atom_site_label
_atom_site_fract_x
_atom_site_fract_y
_atom_site_fract_z
Si Si1 0.636168 0.373927 0.774612
Si Si2 0.581666 0.891575 0.313563
Si Si3 0.454219 0.862630 0.849204
Si Si4 0.166976 0.565260 0.279039
Si Si5 0.127248 0.819573 0.130708
Si Si6 0.203535 0.314220 0.061243
O O1 0.597158 0.270918 0.748938
O O2 0.626913 0.542198 0.742748
O O3 0.678323 0.323653 0.652340
O O4 0.642026 0.361445 0.950117
O O5 0.545265 0.874814 0.470668
O O6 0.559874 0.974943 0.194307
O O7 0.623014 0.976790 0.347267
O O8 0.500000 0.814485 0.750000
O O9 0.420876 0.739635 0.823547
O O10 0.159811 0.696843 0.165438
O O11 0.201899 0.453031 0.178723
O O12 0.183454 0.632717 0.420794
O O13 0.250000 0.250000 0.000000
#
# Coordination Sequence:
#
# PCOD8133345 Si02
#       6
#     8   8   8   8   8   8
#     4  10  20  37  55  81 108 145 187 223 273 334
#     4   9  18  34  56  76 104 141 181 220 268 331
#     4  10  19  33  53  81 108 139 182 230 272 317
#     4  10  20  39  59  79 109 148 183 219 270 333
#     4  10  21  37  59  79 110 150 185 222 272 336
#     4  11  23  38  59  86 112 141 183 232 273 317
#
# _framework density 19.134423999999999
#
# number of rings (size 3 to 8) (size 9 to 14) (size 15 to 20)
#    0.000    2.000    0.000    6.500    0.000    4.000 
#    0.000    6.667    0.000    0.000    0.000    0.000 
#    0.000    0.000    0.000    0.000    0.000    0.000 
#
# Total GULP energy -297602.472607 kJ/mol
# GULP energy per Si atom -12400.103025 kJ/mol
# Density = 1.909087 g / cm^3
# Si number density = 19.134424 Si / 1000 Ang^3
#
#
#
# Elastic Constant Matrix: (Units=GPa)
#
#
# Indices 1 2 3 4 5 6 
#
# 1 79.6491 22.7830 31.7896 0.0000 -28.0752 0.0000
# 2 22.7830 109.8617 29.1675 0.0000 -11.7702 0.0000
# 3 31.7896 29.1675 85.2889 0.0000 -20.3544 0.0000
# 4 0.0000 0.0000 0.0000 36.3263 0.0000 -0.3579
# 5 -28.0752 -11.7702 -20.3544 0.0000 33.4650 0.0000
# 6 0.0000 0.0000 0.0000 -0.3579 0.0000 16.9557
#
#
#
# Elastic Compliance Matrix: (Units=1/GPa)
#
#
# Indices 1 2 3 4 5 6 
#
# 1 0.019083 -0.001631 -0.003359 0.000000 0.013393 0.000000
# 2 -0.001631 0.010232 -0.002760 0.000000 0.000552 0.000000
# 3 -0.003359 -0.002760 0.015227 0.000000 0.005473 0.000000
# 4 0.000000 0.000000 0.000000 0.027534 0.000000 0.000581
# 5 0.013393 0.000552 0.005473 0.000000 0.044641 0.000000
# 6 0.000000 0.000000 0.000000 0.000581 0.000000 0.058990
#
#
# Mechanical properties :
#
#
# Convention : Reuss Voigt Hill
#
# Bulk Modulus (GPa) = 34.43114 49.14221 41.78667
# Shear Modulus (GPa) = 24.88972 30.08669 27.48821
#
# Velocity S-wave (km/s) = 3.61055 3.96963 3.79434
# Velocity P-wave (km/s) = 5.95104 6.83733 6.40952
#
# Compressibility (1/GPa) = 0.02904348
#
# Stress axis : x y z
#
# Youngs Moduli (GPa) = 52.40285 97.72894 65.67428
#
# Poissons Ratio (x) = 0.15937 0.22059
# Poissons Ratio (y) = 0.08546 0.18124
# Poissons Ratio (z) = 0.17601 0.26970
#
# Static dielectric constant tensor:
#      x y z
#    x 3.307090 0.000000 -0.153700 
#    y 0.000000 3.704730 0.000000 
#    z -0.153700 0.000000 3.619970 
# 
# 
# High freq. dielectric constant tensor:
#      x y z
#    x 1.719570 0.000000 -0.010350 
#    y 0.000000 1.750230 0.000000 
#    z -0.010350 0.000000 1.758770 
# 
# From -- ./inp_files/68579.got.cif
#   From: 2010.06.25/outbox.cif.g09.slc.cpg/sg15_35_cif.got.tgz:68579.got - 2010.06.28 07:06:18.
