data_PCOD8133010
_publ_section_title
;
Structure prediction by ZEFSAII (Michael W. Deem and Ramdas Pophale) SiO2 
 PCOD8133010
Probable space group: C 2/C
;
_chemical_formula_sum "Si O2"
_cell_formula_units_Z 64
_cell_length_a 13.274652
_cell_length_b 17.505969
_cell_length_c 20.816043
_cell_angle_alpha 90.000000
_cell_angle_beta 134.269224
_cell_angle_gamma 90.000000
_cell_volume 3463.870190
_symmetry_space_group_name_H-M "C 2/C"
_symmetry_group_IT_number 15
_symmetry_cell_setting 'monoclinic'
loop_
_space_group_symop_operation_xyz
x,y,z
-x,y,1/2-z
-x,-y,-z
x,-y,1/2+z
1/2+x,1/2+y,z
1/2-x,1/2+y,1/2-z
1/2-x,1/2-y,-z
1/2+x,1/2-y,1/2+z
loop_
_atom_site_type_symbol
_atom_site_label
_atom_site_fract_x
_atom_site_fract_y
_atom_site_fract_z
Si Si1 0.427649 0.879497 0.984098
Si Si2 0.126078 0.196241 0.345054
Si Si3 0.449328 0.742573 0.382672
Si Si4 0.555832 0.033828 0.431799
Si Si5 0.805865 0.986607 0.949100
Si Si6 0.533318 0.626264 0.518356
Si Si7 0.231058 0.312798 0.299088
Si Si8 0.875778 0.523751 0.742455
O O1 0.267858 0.852536 0.901194
O O2 0.515199 0.891979 0.956492
O O3 0.509846 0.820917 0.065074
O O4 0.421535 0.960420 0.014948
O O5 0.145434 0.279371 0.321172
O O6 0.000000 0.152918 0.250000
O O7 0.079790 0.213902 0.397060
O O8 0.431533 0.676604 0.427841
O O9 0.304335 0.757114 0.277810
O O10 0.701459 0.041692 0.458119
O O11 0.426001 0.025361 0.325028
O O12 0.941185 0.933519 0.017279
O O13 0.738124 0.974672 0.848129
O O14 0.851991 0.076832 0.972577
O O15 0.607172 0.682317 0.603972
O O16 0.185513 0.397171 0.258464
O O17 0.000000 0.546432 0.750000
#
# Coordination Sequence:
#
# PCOD8133010 Si02
#       8
#     8   8   8   8   8   8   8   8
#     4  11  21  34  54  83 110 147 177 220 284 326
#     4  10  21  32  53  87 111 138 175 234 285 322
#     4  11  20  33  57  82 112 138 181 229 276 329
#     4  10  21  35  55  77 114 148 183 219 265 340
#     4   9  20  36  56  82 110 145 187 224 275 314
#     4  10  20  35  57  85 109 144 183 232 277 321
#     4  10  19  31  53  83 111 142 179 221 281 327
#     4   9  16  30  52  77 104 140 180 223 264 321
#
# _framework density 18.476444000000001
#
# number of rings (size 3 to 8) (size 9 to 14) (size 15 to 20)
#    0.000    2.000    2.500    2.250    3.500    2.000 
#    0.000    1.875    0.000    0.000    3.250    0.000 
#    0.000    0.000    0.000    0.000    0.000    0.000 
#
# Total GULP energy -396480.368548 kJ/mol
# GULP energy per Si atom -12390.011517 kJ/mol
# Density = 1.843439 g / cm^3
# Si number density = 18.476444 Si / 1000 Ang^3
#
#
#
# Elastic Constant Matrix: (Units=GPa)
#
#
# Indices 1 2 3 4 5 6 
#
# 1 75.5750 34.5642 39.3396 0.0000 -3.1258 0.0000
# 2 34.5642 64.7009 42.4140 0.0000 -2.8414 0.0000
# 3 39.3396 42.4140 112.9614 0.0000 -3.4810 0.0000
# 4 0.0000 0.0000 0.0000 28.1799 0.0000 6.8905
# 5 -3.1258 -2.8414 -3.4810 0.0000 21.5559 0.0000
# 6 0.0000 0.0000 0.0000 6.8905 0.0000 25.6467
#
#
#
# Elastic Compliance Matrix: (Units=1/GPa)
#
#
# Indices 1 2 3 4 5 6 
#
# 1 0.018600 -0.007512 -0.003622 0.000000 0.001122 0.000000
# 2 -0.007512 0.023583 -0.006207 0.000000 0.001017 0.000000
# 3 -0.003622 -0.006207 0.012465 0.000000 0.000670 0.000000
# 4 0.000000 0.000000 0.000000 0.037981 0.000000 -0.010204
# 5 0.001122 0.001017 0.000670 0.000000 0.046796 0.000000
# 6 0.000000 0.000000 0.000000 -0.010204 0.000000 0.041733
#
#
# Mechanical properties :
#
#
# Convention : Reuss Voigt Hill
#
# Bulk Modulus (GPa) = 50.08976 53.98586 52.03781
# Shear Modulus (GPa) = 22.47234 24.20446 23.33840
#
# Velocity S-wave (km/s) = 3.49129 3.62334 3.55793
# Velocity P-wave (km/s) = 6.58947 6.84010 6.71595
#
# Compressibility (1/GPa) = 0.01996416
#
# Stress axis : x y z
#
# Youngs Moduli (GPa) = 53.76474 42.40415 80.22311
#
# Poissons Ratio (x) = 0.31856 0.29058
# Poissons Ratio (y) = 0.40390 0.49795
# Poissons Ratio (z) = 0.19474 0.26321
#
# Static dielectric constant tensor:
#      x y z
#    x 3.203990 0.000000 -0.004990 
#    y 0.000000 3.266660 0.000000 
#    z -0.004990 0.000000 3.752720 
# 
# 
# High freq. dielectric constant tensor:
#      x y z
#    x 1.679940 0.000000 -0.001750 
#    y 0.000000 1.702410 0.000000 
#    z -0.001750 0.000000 1.734450 
# 
# From -- ./inp_files/239830.got.cif
#   From: 2010.06.25/outbox.cif.g09.slc.cpg/sg15_120_cif.got.tgz:239830.got - 2010.06.28 07:06:18.
