data_PCOD8133965
_publ_section_title
;
Structure prediction by ZEFSAII (Michael W. Deem and Ramdas Pophale) SiO2 
 PCOD8133965
Probable space group: C 2/C
;
_chemical_formula_sum "Si O2"
_cell_formula_units_Z 64
_cell_length_a 9.865255
_cell_length_b 21.712749
_cell_length_c 19.744839
_cell_angle_alpha 90.000000
_cell_angle_beta 44.392688
_cell_angle_gamma 90.000000
_cell_volume 2958.756596
_symmetry_space_group_name_H-M "C 2/C"
_symmetry_group_IT_number 15
_symmetry_cell_setting 'monoclinic'
loop_
_space_group_symop_operation_xyz
x,y,z
-x,y,1/2-z
-x,-y,-z
x,-y,1/2+z
1/2+x,1/2+y,z
1/2-x,1/2+y,1/2-z
1/2-x,1/2-y,-z
1/2+x,1/2-y,1/2+z
loop_
_atom_site_type_symbol
_atom_site_label
_atom_site_fract_x
_atom_site_fract_y
_atom_site_fract_z
Si Si1 0.965783 0.403055 0.544824
Si Si2 0.284656 0.660227 0.100191
Si Si3 0.841639 0.520842 0.753634
Si Si4 0.877658 0.712691 0.861162
Si Si5 0.853565 0.618554 0.222678
Si Si6 0.642315 0.412152 0.428765
Si Si7 0.867433 0.520962 0.958027
Si Si8 0.997093 0.719814 0.534745
O O1 0.125517 0.449065 0.521574
O O2 0.810335 0.382258 0.658142
O O3 0.836517 0.436942 0.534588
O O4 0.071282 0.343995 0.475142
O O5 0.291534 0.659772 0.180795
O O6 0.348849 0.729186 0.058775
O O7 0.071622 0.644556 0.151039
O O8 0.424014 0.609067 0.018232
O O9 0.821967 0.447979 0.767834
O O10 0.652742 0.558243 0.848424
O O11 0.000000 0.545487 0.750000
O O12 0.919360 0.537339 0.650679
O O13 0.784552 0.645480 0.887589
O O14 0.011750 0.712897 0.880582
O O15 0.000000 0.728827 0.750000
O O16 0.713067 0.764312 0.931458
O O17 0.697842 0.465539 0.464332
#
# Coordination Sequence:
#
# PCOD8133965 Si02
#       8
#     8   8   8   8   8   8   8   8
#     4  10  20  36  58  82 115 159 190 227 292 356
#     4  10  22  39  56  87 115 148 203 243 285 341
#     4   9  16  32  57  87 110 145 181 225 290 336
#     4  10  20  36  57  88 122 142 189 242 298 342
#     4  10  21  40  58  83 112 157 199 230 288 351
#     4  10  19  34  62  92 113 143 189 251 291 338
#     4   9  18  34  58  87 119 151 184 231 297 357
#     4  10  22  36  56  88 114 154 195 241 283 352
#
# _framework density 21.630707000000001
#
# number of rings (size 3 to 8) (size 9 to 14) (size 15 to 20)
#    0.000    2.250    2.500    1.125    1.750    1.000 
#    0.000    0.625    0.000    0.750    6.500    0.000 
#    0.000    0.000    0.000    0.000    0.000    0.000 
#
# Total GULP energy -396452.642641 kJ/mol
# GULP energy per Si atom -12389.145083 kJ/mol
# Density = 2.158147 g / cm^3
# Si number density = 21.630707 Si / 1000 Ang^3
#
#
#
# Elastic Constant Matrix: (Units=GPa)
#
#
# Indices 1 2 3 4 5 6 
#
# 1 33.8303 27.9417 34.8499 0.0000 14.1445 0.0001
# 2 27.9417 118.0903 45.3126 0.0000 5.8145 0.0001
# 3 34.8499 45.3126 137.8670 0.0000 20.8374 0.0000
# 4 0.0000 0.0000 0.0000 32.3418 0.0001 9.2322
# 5 14.1445 5.8145 20.8374 0.0001 34.9904 -0.0001
# 6 0.0001 0.0001 0.0000 9.2322 -0.0001 14.7100
#
#
#
# Elastic Compliance Matrix: (Units=1/GPa)
#
#
# Indices 1 2 3 4 5 6 
#
# 1 0.050459 -0.008205 -0.007892 0.000000 -0.014334 -0.000001
# 2 -0.008205 0.011028 -0.001950 0.000000 0.002646 0.000000
# 3 -0.007892 -0.001950 0.010284 0.000000 -0.002610 0.000000
# 4 0.000000 0.000000 0.000000 0.037668 0.000000 -0.023641
# 5 -0.014334 0.002646 -0.002610 0.000000 0.035488 0.000001
# 6 -0.000001 0.000000 0.000000 -0.023641 0.000001 0.082818
#
#
# Mechanical properties :
#
#
# Convention : Reuss Voigt Hill
#
# Bulk Modulus (GPa) = 28.03002 56.22176 42.12589
# Shear Modulus (GPa) = 18.13357 28.52068 23.32712
#
# Velocity S-wave (km/s) = 2.89853 3.63509 3.28750
# Velocity P-wave (km/s) = 4.91818 6.60807 5.82474
#
# Compressibility (1/GPa) = 0.03567603
#
# Stress axis : x y z
#
# Youngs Moduli (GPa) = 19.81804 90.68145 97.24198
#
# Poissons Ratio (x) = 0.74407 0.76740
# Poissons Ratio (y) = 0.16261 0.18964
# Poissons Ratio (z) = 0.15640 0.17684
#
# Static dielectric constant tensor:
#      x y z
#    x 3.413500 0.000000 0.380610 
#    y 0.000000 3.943550 0.000000 
#    z 0.380610 0.000000 4.451390 
# 
# 
# High freq. dielectric constant tensor:
#      x y z
#    x 1.797950 0.000000 0.029610 
#    y 0.000000 1.860140 0.000000 
#    z 0.029610 0.000000 1.857950 
# 
# From -- ./inp_files/240400.got.cif
#   From: 2010.06.25/outbox.cif.g09.slc.cpg/sg15_121_cif.got.tgz:240400.got - 2010.06.28 07:06:18.
