data_PCOD8133486
_publ_section_title
;
Structure prediction by ZEFSAII (Michael W. Deem and Ramdas Pophale) SiO2 
 PCOD8133486
Probable space group: C 2/C
;
_chemical_formula_sum "Si O2"
_cell_formula_units_Z 64
_cell_length_a 14.493148
_cell_length_b 19.758754
_cell_length_c 12.187257
_cell_angle_alpha 90.000000
_cell_angle_beta 65.651376
_cell_angle_gamma 90.000000
_cell_volume 3179.598147
_symmetry_space_group_name_H-M "C 2/C"
_symmetry_group_IT_number 15
_symmetry_cell_setting 'monoclinic'
loop_
_space_group_symop_operation_xyz
x,y,z
-x,y,1/2-z
-x,-y,-z
x,-y,1/2+z
1/2+x,1/2+y,z
1/2-x,1/2+y,1/2-z
1/2-x,1/2-y,-z
1/2+x,1/2-y,1/2+z
loop_
_atom_site_type_symbol
_atom_site_label
_atom_site_fract_x
_atom_site_fract_y
_atom_site_fract_z
Si Si1 0.685450 0.107479 0.418111
Si Si2 0.607537 0.408737 0.934717
Si Si3 0.672731 0.938342 0.689013
Si Si4 0.898813 0.469579 0.996426
Si Si5 0.720418 0.917052 0.262566
Si Si6 0.443129 0.454883 0.168596
Si Si7 0.392761 0.331810 0.769275
Si Si8 0.390012 0.177553 0.839695
O O1 0.645225 0.108275 0.309974
O O2 0.804370 0.123106 0.364698
O O3 0.624556 0.161516 0.523230
O O4 0.678229 0.032987 0.474398
O O5 0.722780 0.415234 0.921942
O O6 0.582285 0.475083 0.876575
O O7 0.607837 0.339640 0.862484
O O8 0.521373 0.404320 0.068646
O O9 0.587019 0.939344 0.634360
O O10 0.686151 0.013101 0.726877
O O11 0.849735 0.410037 0.094273
O O12 0.000000 0.500000 0.000000
O O13 0.838773 0.913600 0.236228
O O14 0.697642 0.857530 0.188231
O O15 0.500000 0.475315 0.250000
O O16 0.500000 0.363177 0.750000
O O17 0.380299 0.256464 0.820184
O O18 0.500000 0.149897 0.750000
#
# Coordination Sequence:
#
# PCOD8133486 Si02
#       8
#     8   8   8   8   8   8   8   8
#     4  10  21  37  59  83 120 153 194 251 303 363
#     4   9  19  33  55  86 117 151 190 246 308 362
#     4   9  19  35  54  86 116 151 190 240 307 367
#     4  11  21  35  59  86 122 158 196 250 304 363
#     4  10  21  32  55  86 114 156 190 241 307 355
#     4  10  19  33  56  85 120 152 189 244 302 374
#     4  10  22  36  59  87 115 158 199 253 303 354
#     4  11  22  39  57  85 120 156 205 252 300 358
#
# _framework density 20.128329000000001
#
# number of rings (size 3 to 8) (size 9 to 14) (size 15 to 20)
#    0.000    2.000    1.250    3.000    1.750    2.500 
#    0.000    0.000    0.000    6.750    0.000    0.000 
#    0.000    0.000    0.000    0.000    0.000    0.000 
#
# Total GULP energy -396492.327741 kJ/mol
# GULP energy per Si atom -12390.385242 kJ/mol
# Density = 2.008252 g / cm^3
# Si number density = 20.128329 Si / 1000 Ang^3
#
#
#
# Elastic Constant Matrix: (Units=GPa)
#
#
# Indices 1 2 3 4 5 6 
#
# 1 106.9734 22.0869 47.2664 0.0000 9.9958 0.0000
# 2 22.0869 53.5144 28.3422 0.0000 1.9038 0.0000
# 3 47.2664 28.3422 133.8138 0.0000 0.8621 0.0000
# 4 0.0000 0.0000 0.0000 24.3938 0.0000 4.6910
# 5 9.9958 1.9038 0.8621 0.0000 33.8103 0.0000
# 6 0.0000 0.0000 0.0000 4.6910 0.0000 18.5726
#
#
#
# Elastic Compliance Matrix: (Units=1/GPa)
#
#
# Indices 1 2 3 4 5 6 
#
# 1 0.011810 -0.002884 -0.003540 0.000000 -0.003239 0.000000
# 2 -0.002884 0.021791 -0.003595 0.000000 -0.000283 0.000000
# 3 -0.003540 -0.003595 0.009478 0.000000 0.001007 0.000000
# 4 0.000000 0.000000 0.000000 0.043087 0.000000 -0.010883
# 5 -0.003239 -0.000283 0.001007 0.000000 0.030525 0.000000
# 6 0.000000 0.000000 0.000000 -0.010883 0.000000 0.056591
#
#
# Mechanical properties :
#
#
# Convention : Reuss Voigt Hill
#
# Bulk Modulus (GPa) = 43.39993 54.41029 48.90511
# Shear Modulus (GPa) = 24.87547 28.46240 26.66893
#
# Velocity S-wave (km/s) = 3.51927 3.76446 3.64393
# Velocity P-wave (km/s) = 6.17431 6.78124 6.48488
#
# Compressibility (1/GPa) = 0.02304151
#
# Stress axis : x y z
#
# Youngs Moduli (GPa) = 84.67061 45.89069 105.50362
#
# Poissons Ratio (x) = 0.13237 0.37348
# Poissons Ratio (y) = 0.24423 0.37925
# Poissons Ratio (z) = 0.29973 0.16496
#
# Static dielectric constant tensor:
#      x y z
#    x 3.852200 0.000000 -0.146220 
#    y 0.000000 3.308230 0.000000 
#    z -0.146220 0.000000 4.192830 
# 
# 
# High freq. dielectric constant tensor:
#      x y z
#    x 1.792240 0.000000 -0.011600 
#    y 0.000000 1.732980 0.000000 
#    z -0.011600 0.000000 1.797550 
# 
# From -- ./inp_files/99776.got.cif
#   From: 2010.06.25/outbox.cif.g09.slc.cpg/sg15_50_cif.got.tgz:99776.got - 2010.06.28 07:06:18.
