data_PCOD8133899
_publ_section_title
;
Structure prediction by ZEFSAII (Michael W. Deem and Ramdas Pophale) SiO2 
 PCOD8133899
Probable space group: C 2/C
;
_chemical_formula_sum "Si O2"
_cell_formula_units_Z 52
_cell_length_a 29.929569
_cell_length_b 15.556508
_cell_length_c 5.220976
_cell_angle_alpha 90.000000
_cell_angle_beta 96.940146
_cell_angle_gamma 90.000000
_cell_volume 2413.072949
_symmetry_space_group_name_H-M "C 2/C"
_symmetry_group_IT_number 15
_symmetry_cell_setting 'monoclinic'
loop_
_space_group_symop_operation_xyz
x,y,z
-x,y,1/2-z
-x,-y,-z
x,-y,1/2+z
1/2+x,1/2+y,z
1/2-x,1/2+y,1/2-z
1/2-x,1/2-y,-z
1/2+x,1/2-y,1/2+z
loop_
_atom_site_type_symbol
_atom_site_label
_atom_site_fract_x
_atom_site_fract_y
_atom_site_fract_z
Si Si1 0.087772 0.271100 0.124785
Si Si2 0.060049 0.944880 0.050060
Si Si3 0.410730 0.968908 0.400109
Si Si4 0.279442 0.236742 0.270317
Si Si5 0.872204 0.808669 0.353891
Si Si6 0.811158 0.457115 0.795069
Si Si7 0.500000 0.310157 0.750000
O O1 0.096365 0.369040 0.055841
O O2 0.114349 0.254803 0.406238
O O3 0.035171 0.250257 0.125416
O O4 0.106245 0.215258 0.903862
O O5 0.110242 0.904761 0.066328
O O6 0.052330 0.984279 0.325169
O O7 0.024638 0.868135 0.981091
O O8 0.437777 0.011961 0.655765
O O9 0.364164 0.021498 0.321603
O O10 0.250000 0.250000 0.500000
O O11 0.318379 0.308953 0.293857
O O12 0.303424 0.144427 0.284853
O O13 0.250000 0.250000 0.000000
O O14 0.788267 0.500826 0.530049
#
# Coordination Sequence:
#
# PCOD8133899 Si02
#       7
#     8   8   8   8   8   8   4
#     4  11  22  40  65  96 129 166 211 257 317 390
#     4  11  23  41  65  94 128 172 221 267 318 386
#     4  10  19  34  59  88 117 158 203 248 296 369
#     4  12  25  42  65  97 129 165 216 272 325 387
#     4  11  23  42  64  90 127 173 211 261 327 385
#     4  10  19  36  61  88 115 156 206 252 305 370
#     4  10  24  40  66 100 132 170 214 272 322 378
#
# _framework density 21.549285999999999
#
# number of rings (size 3 to 8) (size 9 to 14) (size 15 to 20)
#    0.000    1.231    0.000    8.769    0.000    4.923 
#    0.000    5.385    0.000    0.000    0.000    0.000 
#    0.000    0.000    0.000    0.000    0.000    0.000 
#
# Total GULP energy -322346.992089 kJ/mol
# GULP energy per Si atom -12397.961234 kJ/mol
# Density = 2.150024 g / cm^3
# Si number density = 21.549286 Si / 1000 Ang^3
#
#
#
# Elastic Constant Matrix: (Units=GPa)
#
#
# Indices 1 2 3 4 5 6 
#
# 1 117.4695 25.8299 44.5483 0.0000 4.5456 0.0000
# 2 25.8299 87.0323 19.5645 0.0000 8.2686 0.0000
# 3 44.5483 19.5645 157.9143 0.0000 -15.5727 0.0000
# 4 0.0000 0.0000 0.0000 32.7669 0.0000 0.0242
# 5 4.5456 8.2686 -15.5727 0.0000 33.3783 0.0000
# 6 0.0000 0.0000 0.0000 0.0242 0.0000 38.5349
#
#
#
# Elastic Compliance Matrix: (Units=1/GPa)
#
#
# Indices 1 2 3 4 5 6 
#
# 1 0.010137 -0.002174 -0.002802 0.000000 -0.002149 0.000000
# 2 -0.002174 0.012760 -0.001310 0.000000 -0.003476 0.000000
# 3 -0.002802 -0.001310 0.007710 0.000000 0.004303 0.000000
# 4 0.000000 0.000000 0.000000 0.030519 0.000000 -0.000019
# 5 -0.002149 -0.003476 0.004303 0.000000 0.033121 0.000000
# 6 0.000000 0.000000 0.000000 -0.000019 0.000000 0.025950
#
#
# Mechanical properties :
#
#
# Convention : Reuss Voigt Hill
#
# Bulk Modulus (GPa) = 55.45393 60.25573 57.85483
# Shear Modulus (GPa) = 36.02786 39.10093 37.56439
#
# Velocity S-wave (km/s) = 4.09330 4.26430 4.17968
# Velocity P-wave (km/s) = 6.93755 7.22968 7.08512
#
# Compressibility (1/GPa) = 0.01803299
#
# Stress axis : x y z
#
# Youngs Moduli (GPa) = 98.65041 78.36923 129.70579
#
# Poissons Ratio (x) = 0.17040 0.36346
# Poissons Ratio (y) = 0.21450 0.16995
# Poissons Ratio (z) = 0.27644 0.10269
#
# Static dielectric constant tensor:
#      x y z
#    x 3.862200 0.000000 -0.309540 
#    y 0.000000 3.865490 0.000000 
#    z -0.309540 0.000000 5.085370 
# 
# 
# High freq. dielectric constant tensor:
#      x y z
#    x 1.817960 0.000000 -0.014170 
#    y 0.000000 1.844460 0.000000 
#    z -0.014170 0.000000 1.878420 
# 
# From -- ./inp_files/18252.got.cif
#   From: 2010.06.25/outbox.cif.g09.slc.cpg/sg15_10_cif.got.tgz:18252.got - 2010.06.28 07:06:18.
