data_PCOD8133916
_publ_section_title
;
Structure prediction by ZEFSAII (Michael W. Deem and Ramdas Pophale) SiO2 
 PCOD8133916
Probable space group: C 2/C
;
_chemical_formula_sum "Si O2"
_cell_formula_units_Z 40
_cell_length_a 14.825986
_cell_length_b 13.404792
_cell_length_c 17.862449
_cell_angle_alpha 90.000000
_cell_angle_beta 33.175115
_cell_angle_gamma 90.000000
_cell_volume 1942.542604
_symmetry_space_group_name_H-M "C 2/C"
_symmetry_group_IT_number 15
_symmetry_cell_setting 'monoclinic'
loop_
_space_group_symop_operation_xyz
x,y,z
-x,y,1/2-z
-x,-y,-z
x,-y,1/2+z
1/2+x,1/2+y,z
1/2-x,1/2+y,1/2-z
1/2-x,1/2-y,-z
1/2+x,1/2-y,1/2+z
loop_
_atom_site_type_symbol
_atom_site_label
_atom_site_fract_x
_atom_site_fract_y
_atom_site_fract_z
Si Si1 0.919797 0.278380 0.541821
Si Si2 0.118160 0.291069 0.767791
Si Si3 0.904761 0.916050 0.609808
Si Si4 0.669236 0.431650 0.671871
Si Si5 0.688437 0.860900 0.449221
O O1 0.842377 0.245602 0.676338
O O2 0.790227 0.336837 0.579763
O O3 0.978084 0.179983 0.458117
O O4 0.072648 0.353221 0.455359
O O5 0.243688 0.385176 0.672811
O O6 0.154865 0.211686 0.676168
O O7 0.924342 0.325185 0.900707
O O8 0.855003 0.959669 0.724602
O O9 0.000000 0.000000 0.500000
O O10 0.500000 0.402416 0.750000
O O11 0.748669 0.528413 0.577232
#
# Coordination Sequence:
#
# PCOD8133916 Si02
#       5
#     8   8   8   8   8
#     4   8  18  34  53  81 105 145 188 233 271 322
#     4   8  17  31  58  84 102 136 192 241 271 314
#     4  10  19  34  60  83 105 147 195 238 269 333
#     4  11  22  34  53  84 119 152 179 228 294 341
#     4   9  17  35  55  84 105 146 191 234 276 330
#
# _framework density 20.591567999999999
#
# number of rings (size 3 to 8) (size 9 to 14) (size 15 to 20)
#    1.200    1.600    0.000    1.800    0.000    0.800 
#    0.000    1.000    0.000    0.000    0.000    0.000 
#    0.000    0.000    0.000    0.000    0.000    0.000 
#
# Total GULP energy -247773.686841 kJ/mol
# GULP energy per Si atom -12388.684342 kJ/mol
# Density = 2.054470 g / cm^3
# Si number density = 20.591568 Si / 1000 Ang^3
#
#
#
# Elastic Constant Matrix: (Units=GPa)
#
#
# Indices 1 2 3 4 5 6 
#
# 1 35.9354 15.2031 1.2751 -0.0007 -20.6067 0.0003
# 2 15.2031 92.7081 57.4748 -0.0004 -13.6435 0.0001
# 3 1.2751 57.4748 122.2522 0.0006 -15.4026 0.0007
# 4 -0.0007 -0.0004 0.0006 42.5564 0.0009 -5.5451
# 5 -20.6067 -13.6435 -15.4026 0.0009 20.0562 -0.0005
# 6 0.0003 0.0001 0.0007 -5.5451 -0.0005 9.2532
#
#
#
# Elastic Compliance Matrix: (Units=1/GPa)
#
#
# Indices 1 2 3 4 5 6 
#
# 1 0.083419 -0.009704 0.015122 -0.000001 0.090721 0.000001
# 2 -0.009704 0.016895 -0.008469 0.000000 -0.004981 0.000001
# 3 0.015122 -0.008469 0.014653 -0.000001 0.021029 -0.000001
# 4 -0.000001 0.000000 -0.000001 0.025488 -0.000002 0.015274
# 5 0.090721 -0.004981 0.021029 -0.000002 0.155832 0.000003
# 6 0.000001 0.000001 -0.000001 0.015274 0.000003 0.117224
#
#
# Mechanical properties :
#
#
# Convention : Reuss Voigt Hill
#
# Bulk Modulus (GPa) = 9.18564 44.31129 26.74847
# Shear Modulus (GPa) = 10.96724 26.16935 18.56829
#
# Velocity S-wave (km/s) = 2.31033 3.56880 3.00616
# Velocity P-wave (km/s) = 3.40403 6.20868 5.00675
#
# Compressibility (1/GPa) = 0.10886557
#
# Stress axis : x y z
#
# Youngs Moduli (GPa) = 11.98766 59.18738 68.24406
#
# Poissons Ratio (x) = 0.57433 -1.03198
# Poissons Ratio (y) = 0.11632 0.57799
# Poissons Ratio (z) = -0.18128 0.50128
#
# Static dielectric constant tensor:
#      x y z
#    x 3.136850 0.000000 -0.185480 
#    y 0.000000 3.411470 0.000000 
#    z -0.185480 0.000000 3.998170 
# 
# 
# High freq. dielectric constant tensor:
#      x y z
#    x 1.756380 0.000000 -0.016350 
#    y 0.000000 1.786420 0.000000 
#    z -0.016350 0.000000 1.823480 
# 
# From -- ./inp_files/248528.got.cif
#   From: 2010.06.25/outbox.cif.g09.slc.cpg/sg15_125_cif.got.tgz:248528.got - 2010.06.28 07:06:18.
