data_PCOD8133309
_publ_section_title
;
Structure prediction by ZEFSAII (Michael W. Deem and Ramdas Pophale) SiO2 
 PCOD8133309
Probable space group: C 2/C
;
_chemical_formula_sum "Si O2"
_cell_formula_units_Z 64
_cell_length_a 15.149622
_cell_length_b 25.717888
_cell_length_c 8.901296
_cell_angle_alpha 90.000000
_cell_angle_beta 105.845760
_cell_angle_gamma 90.000000
_cell_volume 3336.303223
_symmetry_space_group_name_H-M "C 2/C"
_symmetry_group_IT_number 15
_symmetry_cell_setting 'monoclinic'
loop_
_space_group_symop_operation_xyz
x,y,z
-x,y,1/2-z
-x,-y,-z
x,-y,1/2+z
1/2+x,1/2+y,z
1/2-x,1/2+y,1/2-z
1/2-x,1/2-y,-z
1/2+x,1/2-y,1/2+z
loop_
_atom_site_type_symbol
_atom_site_label
_atom_site_fract_x
_atom_site_fract_y
_atom_site_fract_z
Si Si1 0.904530 0.943686 0.133665
Si Si2 0.096077 0.314895 0.498834
Si Si3 0.717556 0.639434 0.432150
Si Si4 0.602577 0.743844 0.766906
Si Si5 0.785553 0.143065 0.718027
Si Si6 0.903952 0.054639 0.273916
Si Si7 0.394211 0.189173 0.964580
Si Si8 0.099422 0.767872 0.766748
O O1 0.824448 0.904157 0.138756
O O2 0.000000 0.923670 0.250000
O O3 0.878871 0.998879 0.193961
O O4 0.912378 0.948349 0.957609
O O5 0.173023 0.359760 0.549140
O O6 0.114609 0.262762 0.602902
O O7 0.103898 0.290723 0.336810
O O8 0.994760 0.337154 0.487764
O O9 0.695002 0.632189 0.597397
O O10 0.675727 0.593635 0.313260
O O11 0.679197 0.694483 0.356678
O O12 0.500000 0.723224 0.750000
O O13 0.671192 0.696348 0.822840
O O14 0.624321 0.796896 0.870215
O O15 0.677621 0.147525 0.633129
O O16 0.000000 0.074695 0.250000
O O17 0.389094 0.249397 0.899589
O O18 0.000000 0.794512 0.750000
#
# Coordination Sequence:
#
# PCOD8133309 Si02
#       8
#     8   8   8   8   8   8   8   8
#     4  11  24  43  65  87 117 143 180 230 287 342
#     4  10  20  37  52  78 117 160 195 233 279 329
#     4  12  22  34  58  84 114 152 197 237 279 337
#     4  10  21  34  51  77 118 154 194 240 285 331
#     4  12  22  35  56  84 116 152 196 236 282 336
#     4  11  24  43  65  88 114 145 181 229 288 341
#     4  10  22  34  53  80 117 160 195 238 279 332
#     4  10  19  33  52  78 115 154 196 232 277 333
#
# _framework density 19.182908999999999
#
# number of rings (size 3 to 8) (size 9 to 14) (size 15 to 20)
#    0.000    1.250    2.500    5.250    3.500    0.000 
#    0.000    0.000    0.000    0.750    0.000    0.000 
#    0.000    0.000    0.000    0.000    0.000    0.000 
#
# Total GULP energy -396718.768880 kJ/mol
# GULP energy per Si atom -12397.461528 kJ/mol
# Density = 1.913925 g / cm^3
# Si number density = 19.182909 Si / 1000 Ang^3
#
#
#
# Elastic Constant Matrix: (Units=GPa)
#
#
# Indices 1 2 3 4 5 6 
#
# 1 118.8690 55.7645 49.3037 0.0000 10.8378 0.0000
# 2 55.7645 73.7898 34.6183 0.0000 9.0655 0.0000
# 3 49.3037 34.6183 101.0149 0.0000 2.9526 0.0000
# 4 0.0000 0.0000 0.0000 28.3648 0.0000 4.3094
# 5 10.8378 9.0655 2.9526 0.0000 31.4654 0.0000
# 6 0.0000 0.0000 0.0000 4.3094 0.0000 25.3456
#
#
#
# Elastic Compliance Matrix: (Units=1/GPa)
#
#
# Indices 1 2 3 4 5 6 
#
# 1 0.014329 -0.008727 -0.003943 0.000000 -0.002051 0.000000
# 2 -0.008727 0.022021 -0.003198 0.000000 -0.003038 0.000000
# 3 -0.003943 -0.003198 0.012889 0.000000 0.001070 0.000000
# 4 0.000000 0.000000 0.000000 0.036190 0.000000 -0.006153
# 5 -0.002051 -0.003038 0.001070 0.000000 0.033262 0.000000
# 6 0.000000 0.000000 0.000000 -0.006153 0.000000 0.040501
#
#
# Mechanical properties :
#
#
# Convention : Reuss Voigt Hill
#
# Bulk Modulus (GPa) = 57.13589 63.67187 60.40388
# Shear Modulus (GPa) = 25.41129 27.30098 26.35613
#
# Velocity S-wave (km/s) = 3.64357 3.77662 3.71069
# Velocity P-wave (km/s) = 6.89567 7.23057 7.06510
#
# Compressibility (1/GPa) = 0.01750213
#
# Stress axis : x y z
#
# Youngs Moduli (GPa) = 69.78760 45.41128 77.58599
#
# Poissons Ratio (x) = 0.39630 0.30593
# Poissons Ratio (y) = 0.60903 0.24815
# Poissons Ratio (z) = 0.27518 0.14524
#
# Static dielectric constant tensor:
#      x y z
#    x 3.587540 0.000000 0.007230 
#    y 0.000000 3.072490 0.000000 
#    z 0.007230 0.000000 3.740230 
# 
# 
# High freq. dielectric constant tensor:
#      x y z
#    x 1.751470 0.000000 -0.004800 
#    y 0.000000 1.696560 0.000000 
#    z -0.004800 0.000000 1.772290 
# 
# From -- ./inp_files/43588.got.cif
#   From: 2010.06.25/outbox.cif.g09.slc.cpg/sg15_22_cif.got.tgz:43588.got - 2010.06.28 07:06:18.
