data_PCOD8133966
_publ_section_title
;
Structure prediction by ZEFSAII (Michael W. Deem and Ramdas Pophale) SiO2 
 PCOD8133966
Probable space group: C 2/C
;
_chemical_formula_sum "Si O2"
_cell_formula_units_Z 64
_cell_length_a 13.757530
_cell_length_b 13.998727
_cell_length_c 32.434737
_cell_angle_alpha 90.000000
_cell_angle_beta 32.633413
_cell_angle_gamma 90.000000
_cell_volume 3368.520528
_symmetry_space_group_name_H-M "C 2/C"
_symmetry_group_IT_number 15
_symmetry_cell_setting 'monoclinic'
loop_
_space_group_symop_operation_xyz
x,y,z
-x,y,1/2-z
-x,-y,-z
x,-y,1/2+z
1/2+x,1/2+y,z
1/2-x,1/2+y,1/2-z
1/2-x,1/2-y,-z
1/2+x,1/2-y,1/2+z
loop_
_atom_site_type_symbol
_atom_site_label
_atom_site_fract_x
_atom_site_fract_y
_atom_site_fract_z
Si Si1 0.594272 0.576851 0.915202
Si Si2 0.026108 0.388340 0.484175
Si Si3 0.167750 0.229699 0.662187
Si Si4 0.256299 0.645102 0.482244
Si Si5 0.544036 0.227839 0.062036
Si Si6 0.336458 0.391827 0.657343
Si Si7 0.231520 0.476213 0.067666
Si Si8 0.971683 0.639285 0.170757
O O1 0.576874 0.676682 0.897674
O O2 0.694936 0.496355 0.851680
O O3 0.706126 0.593566 0.917542
O O4 0.392809 0.546985 0.998630
O O5 0.207660 0.361209 0.393683
O O6 0.033911 0.332312 0.524027
O O7 0.000000 0.500000 0.500000
O O8 0.851288 0.357718 0.521545
O O9 0.288697 0.310623 0.641057
O O10 0.088079 0.275910 0.649332
O O11 0.000000 0.194508 0.750000
O O12 0.250000 0.750000 0.500000
O O13 0.459035 0.612949 0.401015
O O14 0.168873 0.580715 0.549544
O O15 0.448927 0.164194 0.130998
O O16 0.750000 0.250000 0.000000
O O17 0.220637 0.374574 0.739403
O O18 0.066223 0.537803 0.142901
#
# Coordination Sequence:
#
# PCOD8133966 Si02
#       8
#     8   8   8   8   8   8   8   8
#     4  10  20  35  63  95 122 153 209 266 323 364
#     4  12  25  41  62  97 130 171 218 258 312 387
#     4  10  20  39  67  96 124 158 211 269 324 378
#     4  11  22  39  61  86 126 169 209 246 314 392
#     4  12  23  40  64  94 127 170 217 265 315 383
#     4  10  22  39  65  96 124 162 211 272 325 379
#     4  10  19  34  62  92 117 159 202 266 313 369
#     4  11  21  40  64  95 127 158 214 271 320 376
#
# _framework density 18.999438999999999
#
# number of rings (size 3 to 8) (size 9 to 14) (size 15 to 20)
#    0.000    1.250    5.000    1.500    3.500    0.000 
#    2.250    4.375    2.750    0.000    0.000    0.000 
#    0.000    0.000    0.000    0.000    0.000    0.000 
#
# Total GULP energy -396784.954169 kJ/mol
# GULP energy per Si atom -12399.529818 kJ/mol
# Density = 1.895620 g / cm^3
# Si number density = 18.999439 Si / 1000 Ang^3
#
#
#
# Elastic Constant Matrix: (Units=GPa)
#
#
# Indices 1 2 3 4 5 6 
#
# 1 131.6076 45.0692 48.3249 0.0003 13.3811 0.0000
# 2 45.0692 119.7126 50.5489 0.0005 2.8711 -0.0002
# 3 48.3249 50.5489 108.2314 0.0003 7.8492 0.0019
# 4 0.0003 0.0005 0.0003 32.1893 0.0016 3.6542
# 5 13.3811 2.8711 7.8492 0.0016 25.4571 0.0002
# 6 0.0000 -0.0002 0.0019 3.6542 0.0002 34.0543
#
#
#
# Elastic Compliance Matrix: (Units=1/GPa)
#
#
# Indices 1 2 3 4 5 6 
#
# 1 0.009931 -0.002358 -0.003042 0.000000 -0.004016 0.000000
# 2 -0.002358 0.010968 -0.004163 0.000000 0.001286 0.000000
# 3 -0.003042 -0.004163 0.012675 0.000000 -0.001840 -0.000001
# 4 0.000000 0.000000 0.000000 0.031449 -0.000002 -0.003375
# 5 -0.004016 0.001286 -0.001840 -0.000002 0.041815 0.000000
# 6 0.000000 0.000000 -0.000001 -0.003375 0.000000 0.029727
#
#
# Mechanical properties :
#
#
# Convention : Reuss Voigt Hill
#
# Bulk Modulus (GPa) = 69.20871 71.93751 70.57311
# Shear Modulus (GPa) = 31.15117 32.71404 31.93261
#
# Velocity S-wave (km/s) = 4.05357 4.15401 4.10410
# Velocity P-wave (km/s) = 7.64293 7.80723 7.72552
#
# Compressibility (1/GPa) = 0.01444905
#
# Stress axis : x y z
#
# Youngs Moduli (GPa) = 100.69381 91.17331 78.89427
#
# Poissons Ratio (x) = 0.21501 0.23996
# Poissons Ratio (y) = 0.23746 0.32843
# Poissons Ratio (z) = 0.30626 0.37955
#
# Static dielectric constant tensor:
#      x y z
#    x 3.630790 0.000000 0.132730 
#    y 0.000000 3.495470 0.000000 
#    z 0.132730 0.000000 3.414420 
# 
# 
# High freq. dielectric constant tensor:
#      x y z
#    x 1.745230 0.000000 0.009170 
#    y 0.000000 1.734900 0.000000 
#    z 0.009170 0.000000 1.728940 
# 
# From -- ./inp_files/293057.got.cif
#   From: 2010.06.25/outbox.cif.g09.slc.cpg/sg15_147_cif.got.tgz:293057.got - 2010.06.28 07:06:18.
