data_PCOD8133268
_publ_section_title
;
Structure prediction by ZEFSAII (Michael W. Deem and Ramdas Pophale) SiO2 
 PCOD8133268
Probable space group: C 2/C
;
_chemical_formula_sum "Si O2"
_cell_formula_units_Z 48
_cell_length_a 17.615986
_cell_length_b 17.755304
_cell_length_c 23.562484
_cell_angle_alpha 90.000000
_cell_angle_beta 157.617400
_cell_angle_gamma 90.000000
_cell_volume 2806.345930
_symmetry_space_group_name_H-M "C 2/C"
_symmetry_group_IT_number 15
_symmetry_cell_setting 'monoclinic'
loop_
_space_group_symop_operation_xyz
x,y,z
-x,y,1/2-z
-x,-y,-z
x,-y,1/2+z
1/2+x,1/2+y,z
1/2-x,1/2+y,1/2-z
1/2-x,1/2-y,-z
1/2+x,1/2-y,1/2+z
loop_
_atom_site_type_symbol
_atom_site_label
_atom_site_fract_x
_atom_site_fract_y
_atom_site_fract_z
Si Si1 0.842254 0.377512 0.687036
Si Si2 0.752795 0.239998 0.705252
Si Si3 0.862733 0.573056 0.024072
Si Si4 0.969076 0.098806 0.617247
Si Si5 0.092329 0.666959 0.090334
Si Si6 0.716362 0.979041 0.628240
O O1 0.773414 0.304960 0.673347
O O2 0.655947 0.416747 0.526876
O O3 0.000000 0.348452 0.750000
O O4 0.948708 0.438025 0.803093
O O5 0.773317 0.273279 0.782795
O O6 0.531783 0.205993 0.545968
O O7 0.920360 0.177663 0.811177
O O8 0.927143 0.630586 0.018699
O O9 0.675210 0.606541 0.928184
O O10 0.789305 0.494830 0.943840
O O11 0.116628 0.028503 0.725272
O O12 0.244799 0.608046 0.165671
O O13 0.500000 0.000000 0.500000
#
# Coordination Sequence:
#
# PCOD8133268 Si02
#       6
#     8   8   8   8   8   8
#     4   9  20  29  44  74 105 128 159 204 249 301
#     4  11  19  30  48  70 104 137 165 196 249 294
#     4   9  19  32  49  73 101 129 170 203 243 296
#     4  11  19  31  51  74  99 135 167 206 250 292
#     4  10  21  33  47  73 106 134 169 199 247 300
#     4  10  19  33  48  69 102 135 173 202 237 300
#
# _framework density 17.104092999999999
#
# number of rings (size 3 to 8) (size 9 to 14) (size 15 to 20)
#    0.000    2.000    5.000    0.500    2.333    2.000 
#    0.000    9.167    0.000    0.000    0.000    4.667 
#    0.000    0.000    0.000    0.000    0.000    0.000 
#
# Total GULP energy -297413.613242 kJ/mol
# GULP energy per Si atom -12392.233885 kJ/mol
# Density = 1.706516 g / cm^3
# Si number density = 17.104093 Si / 1000 Ang^3
#
#
#
# Elastic Constant Matrix: (Units=GPa)
#
#
# Indices 1 2 3 4 5 6 
#
# 1 45.2473 47.9113 38.4040 0.0099 -21.4651 0.0130
# 2 47.9113 98.7186 64.3965 -0.0139 -14.4417 0.0012
# 3 38.4040 64.3965 134.7387 -0.0341 -29.2672 -0.0112
# 4 0.0099 -0.0139 -0.0341 24.8881 0.0166 -4.2495
# 5 -21.4651 -14.4417 -29.2672 0.0166 23.6261 0.0042
# 6 0.0130 0.0012 -0.0112 -4.2495 0.0042 29.7206
#
#
#
# Elastic Compliance Matrix: (Units=1/GPa)
#
#
# Indices 1 2 3 4 5 6 
#
# 1 0.084988 -0.036548 0.007064 -0.000097 0.063625 -0.000056
# 2 -0.036548 0.030438 -0.009989 0.000039 -0.026974 0.000020
# 3 0.007064 -0.009989 0.014024 -0.000001 0.017684 0.000000
# 4 -0.000097 0.000039 -0.000001 0.041185 -0.000095 0.005889
# 5 0.063625 -0.026974 0.017684 -0.000095 0.105550 -0.000049
# 6 -0.000056 0.000020 0.000000 0.005889 -0.000049 0.034489
#
#
# Mechanical properties :
#
#
# Convention : Reuss Voigt Hill
#
# Bulk Modulus (GPa) = 19.80062 64.45870 42.12966
# Shear Modulus (GPa) = 12.30149 24.17980 18.24065
#
# Velocity S-wave (km/s) = 2.68473 3.76398 3.26920
# Velocity P-wave (km/s) = 4.60565 7.52715 6.23979
#
# Compressibility (1/GPa) = 0.05050347
#
# Stress axis : x y z
#
# Youngs Moduli (GPa) = 11.76637 32.85378 71.30664
#
# Poissons Ratio (x) = 1.20073 -0.50371
# Poissons Ratio (y) = 0.43003 0.71232
# Poissons Ratio (z) = -0.08312 0.32819
#
# Static dielectric constant tensor:
#      x y z
#    x 3.374940 0.000100 -0.355510 
#    y 0.000100 3.507760 0.000020 
#    z -0.355510 0.000020 3.547000 
# 
# 
# High freq. dielectric constant tensor:
#      x y z
#    x 1.633340 0.000000 -0.027360 
#    y 0.000000 1.630710 -0.000020 
#    z -0.027360 -0.000020 1.674740 
# 
# From -- ./inp_files/56244.got.cif
#   From: 2010.06.25/outbox.cif.g09.slc.cpg/sg15_29_cif.got.tgz:56244.got - 2010.06.28 07:06:18.
