data_PCOD8133448
_publ_section_title
;
Structure prediction by ZEFSAII (Michael W. Deem and Ramdas Pophale) SiO2 
 PCOD8133448
Probable space group: C 2/C
;
_chemical_formula_sum "Si O2"
_cell_formula_units_Z 56
_cell_length_a 5.103426
_cell_length_b 17.484043
_cell_length_c 28.310256
_cell_angle_alpha 90.000000
_cell_angle_beta 88.144370
_cell_angle_gamma 90.000000
_cell_volume 2524.757535
_symmetry_space_group_name_H-M "C 2/C"
_symmetry_group_IT_number 15
_symmetry_cell_setting 'monoclinic'
loop_
_space_group_symop_operation_xyz
x,y,z
-x,y,1/2-z
-x,-y,-z
x,-y,1/2+z
1/2+x,1/2+y,z
1/2-x,1/2+y,1/2-z
1/2-x,1/2-y,-z
1/2+x,1/2-y,1/2+z
loop_
_atom_site_type_symbol
_atom_site_label
_atom_site_fract_x
_atom_site_fract_y
_atom_site_fract_z
Si Si1 0.804404 0.217058 0.052148
Si Si2 0.508305 0.160560 0.362859
Si Si3 0.525372 0.017069 0.857110
Si Si4 0.514900 0.589831 0.995048
Si Si5 0.996026 0.162791 0.197173
Si Si6 0.517502 0.128560 0.939790
Si Si7 0.023072 0.985381 0.301135
O O1 0.552060 0.203246 0.087162
O O2 0.987827 0.281770 0.075792
O O3 0.750000 0.250000 0.000000
O O4 0.945931 0.134574 0.044458
O O5 0.772026 0.195091 0.337947
O O6 0.278911 0.177483 0.326558
O O7 0.534523 0.070436 0.374455
O O8 0.430853 0.071703 0.899309
O O9 0.806243 0.049132 0.837900
O O10 0.316941 0.026832 0.816590
O O11 0.810357 0.615573 0.982705
O O12 0.313295 0.611438 0.954835
O O13 0.500000 0.500000 0.000000
O O14 0.000000 0.200222 0.250000
O O15 0.056411 0.073681 0.203082
O O16 0.000000 0.945928 0.250000
#
# Coordination Sequence:
#
# PCOD8133448 Si02
#       7
#     8   8   8   8   8   8   8
#     4  10  24  42  60  87 123 164 204 247 304 365
#     4  10  20  34  58  85 116 154 195 242 295 356
#     4  10  19  33  55  85 115 150 198 244 292 357
#     4  11  23  40  62  85 114 152 201 252 296 347
#     4   9  18  33  56  87 117 146 189 247 303 352
#     4  11  23  39  58  84 118 156 193 243 297 351
#     4   9  17  31  54  85 118 148 185 243 305 356
#
# _framework density 22.180346
#
# number of rings (size 3 to 8) (size 9 to 14) (size 15 to 20)
#    0.000    2.000    0.000    3.429    0.000   11.429 
#    0.000    0.000    0.000    3.429    0.000    0.000 
#    0.000    0.000    0.000    0.000    0.000    0.000 
#
# Total GULP energy -347060.888453 kJ/mol
# GULP energy per Si atom -12395.031730 kJ/mol
# Density = 2.212986 g / cm^3
# Si number density = 22.180346 Si / 1000 Ang^3
#
#
#
# Elastic Constant Matrix: (Units=GPa)
#
#
# Indices 1 2 3 4 5 6 
#
# 1 81.5663 23.0426 17.8986 0.0000 -19.2246 0.0000
# 2 23.0426 102.4364 35.7608 0.0000 -9.1475 0.0000
# 3 17.8986 35.7608 118.6210 0.0000 -20.9255 0.0000
# 4 0.0000 0.0000 0.0000 18.0323 0.0000 -1.1105
# 5 -19.2246 -9.1475 -20.9255 0.0000 40.2333 0.0000
# 6 0.0000 0.0000 0.0000 -1.1105 0.0000 20.8740
#
#
#
# Elastic Compliance Matrix: (Units=1/GPa)
#
#
# Indices 1 2 3 4 5 6 
#
# 1 0.014522 -0.002604 -0.000315 0.000000 0.006183 0.000000
# 2 -0.002604 0.011404 -0.003091 0.000000 -0.000259 0.000000
# 3 -0.000315 -0.003091 0.010194 0.000000 0.004449 0.000000
# 4 0.000000 0.000000 0.000000 0.055638 0.000000 0.002960
# 5 0.006183 -0.000259 0.004449 0.000000 0.030064 0.000000
# 6 0.000000 0.000000 0.000000 0.002960 0.000000 0.048064
#
#
# Mechanical properties :
#
#
# Convention : Reuss Voigt Hill
#
# Bulk Modulus (GPa) = 41.49487 50.66974 46.08230
# Shear Modulus (GPa) = 26.32393 30.88936 28.60665
#
# Velocity S-wave (km/s) = 3.44875 3.73587 3.59518
# Velocity P-wave (km/s) = 5.88278 6.44228 6.16887
#
# Compressibility (1/GPa) = 0.02409937
#
# Stress axis : x y z
#
# Youngs Moduli (GPa) = 68.86007 87.68983 98.09384
#
# Poissons Ratio (x) = 0.22839 0.03094
# Poissons Ratio (y) = 0.17934 0.30317
# Poissons Ratio (z) = 0.02172 0.27102
#
# Static dielectric constant tensor:
#      x y z
#    x 3.986310 0.000000 -0.263840 
#    y 0.000000 4.436410 0.000000 
#    z -0.263840 0.000000 4.128160 
# 
# 
# High freq. dielectric constant tensor:
#      x y z
#    x 1.876980 0.000000 -0.012500 
#    y 0.000000 1.843780 0.000000 
#    z -0.012500 0.000000 1.875940 
# 
# From -- ./inp_files/286011.got.cif
#   From: 2010.06.25/outbox.cif.g09.slc.cpg/sg15_144_cif.got.tgz:286011.got - 2010.06.28 07:06:18.
