data_PCOD8133050
_publ_section_title
;
Structure prediction by ZEFSAII (Michael W. Deem and Ramdas Pophale) SiO2 
 PCOD8133050
Probable space group: C 2/C
;
_chemical_formula_sum "Si O2"
_cell_formula_units_Z 48
_cell_length_a 29.912535
_cell_length_b 14.367990
_cell_length_c 12.563589
_cell_angle_alpha 90.000000
_cell_angle_beta 154.755874
_cell_angle_gamma 90.000000
_cell_volume 2302.807134
_symmetry_space_group_name_H-M "C 2/C"
_symmetry_group_IT_number 15
_symmetry_cell_setting 'monoclinic'
loop_
_space_group_symop_operation_xyz
x,y,z
-x,y,1/2-z
-x,-y,-z
x,-y,1/2+z
1/2+x,1/2+y,z
1/2-x,1/2+y,1/2-z
1/2-x,1/2-y,-z
1/2+x,1/2-y,1/2+z
loop_
_atom_site_type_symbol
_atom_site_label
_atom_site_fract_x
_atom_site_fract_y
_atom_site_fract_z
Si Si1 0.258194 0.526104 0.859819
Si Si2 0.722474 0.147365 0.976884
Si Si3 0.624448 0.674446 0.535397
Si Si4 0.115891 0.626562 0.953340
Si Si5 0.407139 0.592737 0.826569
Si Si6 0.943951 0.089770 0.519092
O O1 0.174461 0.466727 0.614749
O O2 0.199753 0.586849 0.823361
O O3 0.320848 0.593674 0.915412
O O4 0.333263 0.453770 0.080201
O O5 0.821524 0.112457 0.260493
O O6 0.750000 0.250000 0.000000
O O7 0.621395 0.134997 0.835887
O O8 0.500000 0.673417 0.250000
O O9 0.670112 0.776767 0.607918
O O10 0.651043 0.663130 0.718883
O O11 0.000000 0.619024 0.750000
O O12 0.499120 0.644872 0.956615
O O13 0.459670 0.518415 0.021615
O O14 0.000000 0.113778 0.750000
#
# Coordination Sequence:
#
# PCOD8133050 Si02
#       6
#     8   8   8   8   8   8
#     4  11  22  41  65  92 128 166 213 269 320 384
#     4  11  22  41  65  90 125 175 211 251 324 388
#     4  11  21  38  64  94 126 163 213 266 324 384
#     4  11  26  42  65  92 127 174 219 261 314 388
#     4  10  19  31  61  94 121 156 199 266 330 368
#     4  10  19  33  58  93 124 150 203 265 320 375
#
# _framework density 20.844127
#
# number of rings (size 3 to 8) (size 9 to 14) (size 15 to 20)
#    0.000    1.333    1.667    7.500    2.333    1.333 
#    0.000    0.833    0.000    0.000    0.000    0.000 
#    0.000    0.000    0.000    0.000    0.000    0.000 
#
# Total GULP energy -297392.891126 kJ/mol
# GULP energy per Si atom -12391.370464 kJ/mol
# Density = 2.079668 g / cm^3
# Si number density = 20.844127 Si / 1000 Ang^3
#
#
#
# Elastic Constant Matrix: (Units=GPa)
#
#
# Indices 1 2 3 4 5 6 
#
# 1 191.8603 47.8877 31.4200 0.0000 10.4451 0.0000
# 2 47.8877 104.5625 29.2478 0.0000 1.6288 0.0000
# 3 31.4200 29.2478 45.7171 0.0000 1.1735 0.0000
# 4 0.0000 0.0000 0.0000 22.7355 0.0000 -1.3709
# 5 10.4451 1.6288 1.1735 0.0000 29.9843 0.0000
# 6 0.0000 0.0000 0.0000 -1.3709 0.0000 38.3857
#
#
#
# Elastic Compliance Matrix: (Units=1/GPa)
#
#
# Indices 1 2 3 4 5 6 
#
# 1 0.006315 -0.002024 -0.002995 0.000000 -0.001973 0.000000
# 2 -0.002024 0.012300 -0.006486 0.000000 0.000291 0.000000
# 3 -0.002995 -0.006486 0.028073 0.000000 0.000297 0.000000
# 4 0.000000 0.000000 0.000000 0.044079 0.000000 0.001574
# 5 -0.001973 0.000291 0.000297 0.000000 0.034011 0.000000
# 6 0.000000 0.000000 0.000000 0.001574 0.000000 0.026108
#
#
# Mechanical properties :
#
#
# Convention : Reuss Voigt Hill
#
# Bulk Modulus (GPa) = 42.22933 62.13899 52.18416
# Shear Modulus (GPa) = 27.50459 33.79339 30.64899
#
# Velocity S-wave (km/s) = 3.63648 4.03083 3.83873
# Velocity P-wave (km/s) = 6.15919 7.17910 6.68861
#
# Compressibility (1/GPa) = 0.02368022
#
# Stress axis : x y z
#
# Youngs Moduli (GPa) = 158.35070 81.30007 35.62080
#
# Poissons Ratio (x) = 0.16453 0.10668
# Poissons Ratio (y) = 0.32047 0.23102
# Poissons Ratio (z) = 0.47423 0.52728
#
# Static dielectric constant tensor:
#      x y z
#    x 4.486940 0.000000 0.105750 
#    y 0.000000 3.895680 0.000000 
#    z 0.105750 0.000000 3.388630 
# 
# 
# High freq. dielectric constant tensor:
#      x y z
#    x 1.855500 0.000000 -0.000090 
#    y 0.000000 1.802820 0.000000 
#    z -0.000090 0.000000 1.773320 
# 
# From -- ./inp_files/96318.got.cif
#   From: 2010.06.25/outbox.cif.g09.slc.cpg/sg15_49_cif.got.tgz:96318.got - 2010.06.28 07:06:18.
