data_PCOD8133649
_publ_section_title
;
Structure prediction by ZEFSAII (Michael W. Deem and Ramdas Pophale) SiO2 
 PCOD8133649
Probable space group: C 2/C
;
_chemical_formula_sum "Si O2"
_cell_formula_units_Z 56
_cell_length_a 9.049221
_cell_length_b 20.675178
_cell_length_c 23.323888
_cell_angle_alpha 90.000000
_cell_angle_beta 42.047939
_cell_angle_gamma 90.000000
_cell_volume 2922.641319
_symmetry_space_group_name_H-M "C 2/C"
_symmetry_group_IT_number 15
_symmetry_cell_setting 'monoclinic'
loop_
_space_group_symop_operation_xyz
x,y,z
-x,y,1/2-z
-x,-y,-z
x,-y,1/2+z
1/2+x,1/2+y,z
1/2-x,1/2+y,1/2-z
1/2-x,1/2-y,-z
1/2+x,1/2-y,1/2+z
loop_
_atom_site_type_symbol
_atom_site_label
_atom_site_fract_x
_atom_site_fract_y
_atom_site_fract_z
Si Si1 0.007663 0.738610 0.496709
Si Si2 0.900214 0.182679 0.720060
Si Si3 0.172775 0.163751 0.534608
Si Si4 0.498940 0.521661 0.916083
Si Si5 0.167572 0.554897 0.582029
Si Si6 0.452008 0.796348 0.387199
Si Si7 0.168781 0.031672 0.747261
O O1 0.271620 0.745212 0.417771
O O2 0.947336 0.722114 0.579701
O O3 0.893955 0.805765 0.507548
O O4 0.926602 0.680523 0.478205
O O5 0.650798 0.208575 0.784657
O O6 0.889462 0.106053 0.728341
O O7 0.000000 0.211982 0.750000
O O8 0.033639 0.201357 0.624648
O O9 0.139272 0.087933 0.546063
O O10 0.705440 0.530557 0.898466
O O11 0.611435 0.498681 0.824573
O O12 0.316399 0.468446 0.985718
O O13 0.152772 0.632035 0.581969
O O14 0.923115 0.522740 0.654076
O O15 0.000000 0.000585 0.750000
#
# Coordination Sequence:
#
# PCOD8133649 Si02
#       7
#     8   8   8   8   8   8   8
#     4  10  20  32  52  76 110 136 172 214 264 314
#     4   9  16  30  52  75 104 129 175 222 263 297
#     4  10  19  34  53  81 104 140 173 222 263 314
#     4  10  20  35  57  83 108 143 181 221 272 325
#     4  10  20  35  57  83 108 143 181 221 272 325
#     4  10  19  34  53  81 104 140 173 222 263 314
#     4   9  19  33  53  82 111 136 176 233 270 306
#
# _framework density 19.160748999999999
#
# number of rings (size 3 to 8) (size 9 to 14) (size 15 to 20)
#    0.000    2.286    2.857    0.429    2.000    1.143 
#    0.000    0.000    0.000   10.286    0.000    0.000 
#    0.000    0.000    0.000    0.000    0.000    0.000 
#
# Total GULP energy -346949.318037 kJ/mol
# GULP energy per Si atom -12391.047073 kJ/mol
# Density = 1.911714 g / cm^3
# Si number density = 19.160749 Si / 1000 Ang^3
#
#
#
# Elastic Constant Matrix: (Units=GPa)
#
#
# Indices 1 2 3 4 5 6 
#
# 1 104.5346 7.6009 40.8520 0.0038 -13.0818 0.0042
# 2 7.6009 26.1125 21.7780 0.0024 -13.1599 0.0035
# 3 40.8520 21.7780 107.9648 0.0264 -8.0803 -0.0028
# 4 0.0038 0.0024 0.0264 17.7677 -0.0116 1.8521
# 5 -13.0818 -13.1599 -8.0803 -0.0116 25.7620 0.0035
# 6 0.0042 0.0035 -0.0028 1.8521 0.0035 22.7076
#
#
#
# Elastic Compliance Matrix: (Units=1/GPa)
#
#
# Indices 1 2 3 4 5 6 
#
# 1 0.011988 0.003818 -0.004818 0.000009 0.006527 -0.000005
# 2 0.003818 0.062061 -0.011720 0.000030 0.029965 -0.000019
# 3 -0.004818 -0.011720 0.013126 -0.000020 -0.004316 0.000007
# 4 0.000009 0.000030 -0.000020 0.056764 0.000039 -0.004630
# 5 0.006527 0.029965 -0.004316 0.000039 0.056084 -0.000018
# 6 -0.000005 -0.000019 0.000007 -0.004630 -0.000018 0.044416
#
#
# Mechanical properties :
#
#
# Convention : Reuss Voigt Hill
#
# Bulk Modulus (GPa) = 16.19845 42.11929 29.15887
# Shear Modulus (GPa) = 17.21416 24.47287 20.84351
#
# Velocity S-wave (km/s) = 3.00060 3.57773 3.30180
# Velocity P-wave (km/s) = 4.52516 6.25273 5.45773
#
# Compressibility (1/GPa) = 0.06173428
#
# Stress axis : x y z
#
# Youngs Moduli (GPa) = 83.41573 16.11322 76.18260
#
# Poissons Ratio (x) = -0.06151 0.36703
# Poissons Ratio (y) = -0.31845 0.89290
# Poissons Ratio (z) = 0.40187 0.18885
#
# Static dielectric constant tensor:
#      x y z
#    x 3.780820 0.000000 0.016250 
#    y 0.000000 3.113660 0.000020 
#    z 0.016250 0.000020 3.642720 
# 
# 
# High freq. dielectric constant tensor:
#      x y z
#    x 1.763830 0.000000 -0.008730 
#    y 0.000000 1.696040 0.000000 
#    z -0.008730 0.000000 1.743280 
# 
# From -- ./inp_files/192878.got.cif
#   From: 2010.06.25/outbox.cif.g09.slc.cpg/sg15_97_cif.got.tgz:192878.got - 2010.06.28 07:06:18.
