data_PCOD8133880
_publ_section_title
;
Structure prediction by ZEFSAII (Michael W. Deem and Ramdas Pophale) SiO2 
 PCOD8133880
Probable space group: C 2/C
;
_chemical_formula_sum "Si O2"
_cell_formula_units_Z 44
_cell_length_a 8.720352
_cell_length_b 27.269649
_cell_length_c 14.788221
_cell_angle_alpha 90.000000
_cell_angle_beta 139.533731
_cell_angle_gamma 90.000000
_cell_volume 2282.308642
_symmetry_space_group_name_H-M "C 2/C"
_symmetry_group_IT_number 15
_symmetry_cell_setting 'monoclinic'
loop_
_space_group_symop_operation_xyz
x,y,z
-x,y,1/2-z
-x,-y,-z
x,-y,1/2+z
1/2+x,1/2+y,z
1/2-x,1/2+y,1/2-z
1/2-x,1/2-y,-z
1/2+x,1/2-y,1/2+z
loop_
_atom_site_type_symbol
_atom_site_label
_atom_site_fract_x
_atom_site_fract_y
_atom_site_fract_z
Si Si1 0.865569 0.940214 0.773584
Si Si2 0.374278 0.802364 0.952610
Si Si3 0.593156 0.284862 0.651232
Si Si4 0.500000 0.466601 0.250000
Si Si5 0.884708 0.401846 0.496550
Si Si6 0.271535 0.622984 0.390162
O O1 0.586732 0.936750 0.627952
O O2 0.924846 0.913759 0.895227
O O3 0.000000 0.912653 0.750000
O O4 0.955400 0.996963 0.816428
O O5 0.297518 0.781424 0.819538
O O6 0.500885 0.854609 0.999668
O O7 0.145004 0.806439 0.912449
O O8 0.559094 0.767127 0.086868
O O9 0.667897 0.321308 0.605362
O O10 0.733964 0.433681 0.359207
O O11 0.692400 0.386357 0.487276
O O12 0.000000 0.612867 0.250000
#
# Coordination Sequence:
#
# PCOD8133880 Si02
#       6
#     8   8   8   4   8   8
#     4   9  19  37  61  79 108 155 196 236 288 351
#     4  10  21  36  63  81 120 155 198 240 287 361
#     4  10  20  38  57  90 110 160 199 232 296 356
#     4  10  24  36  58  88 116 154 198 246 294 348
#     4  11  21  38  57  87 118 151 194 244 298 343
#     4  10  19  34  59  84 112 147 196 237 290 354
#
# _framework density 19.278725000000001
#
# number of rings (size 3 to 8) (size 9 to 14) (size 15 to 20)
#    0.545    1.455    3.636    1.636    0.000    2.909 
#    1.636    0.000    0.000    0.000    0.000    0.000 
#    0.000    0.000    0.000    0.000    0.000    0.000 
#
# Total GULP energy -272590.577334 kJ/mol
# GULP energy per Si atom -12390.480788 kJ/mol
# Density = 1.923485 g / cm^3
# Si number density = 19.278725 Si / 1000 Ang^3
#
#
#
# Elastic Constant Matrix: (Units=GPa)
#
#
# Indices 1 2 3 4 5 6 
#
# 1 83.7966 37.3800 9.7449 0.0000 -10.8990 0.0000
# 2 37.3800 116.8449 36.6984 0.0000 1.0365 0.0000
# 3 9.7449 36.6984 38.8536 0.0000 8.6862 0.0000
# 4 0.0000 0.0000 0.0000 19.3532 0.0000 9.1277
# 5 -10.8990 1.0365 8.6862 0.0000 19.6322 0.0000
# 6 0.0000 0.0000 0.0000 9.1277 0.0000 35.0162
#
#
#
# Elastic Compliance Matrix: (Units=1/GPa)
#
#
# Indices 1 2 3 4 5 6 
#
# 1 0.015365 -0.004434 -0.001804 0.000000 0.009562 0.000000
# 2 -0.004434 0.013893 -0.012536 0.000000 0.002352 0.000000
# 3 -0.001804 -0.012536 0.042290 0.000000 -0.019051 0.000000
# 4 0.000000 0.000000 0.000000 0.058914 0.000000 -0.015357
# 5 0.009562 0.002352 -0.019051 0.000000 0.064550 0.000000
# 6 0.000000 0.000000 0.000000 -0.015357 0.000000 0.032561
#
#
# Mechanical properties :
#
#
# Convention : Reuss Voigt Hill
#
# Bulk Modulus (GPa) = 29.41108 45.23797 37.32452
# Shear Modulus (GPa) = 18.08616 25.17844 21.63230
#
# Velocity S-wave (km/s) = 3.06623 3.61781 3.35338
# Velocity P-wave (km/s) = 5.27490 6.40059 5.86482
#
# Compressibility (1/GPa) = 0.03400079
#
# Stress axis : x y z
#
# Youngs Moduli (GPa) = 65.08347 71.97709 23.64622
#
# Poissons Ratio (x) = 0.31913 0.04265
# Poissons Ratio (y) = 0.28856 0.29644
# Poissons Ratio (z) = 0.11738 0.90233
#
# Static dielectric constant tensor:
#      x y z
#    x 4.011400 0.000000 -0.252450 
#    y 0.000000 3.396480 0.000000 
#    z -0.252450 0.000000 3.339580 
# 
# 
# High freq. dielectric constant tensor:
#      x y z
#    x 1.757570 0.000000 -0.001790 
#    y 0.000000 1.747750 0.000000 
#    z -0.001790 0.000000 1.715770 
# 
# From -- ./inp_files/25651.got.cif
#   From: 2010.06.25/outbox.cif.g09.slc.cpg/sg15_13_cif.got.tgz:25651.got - 2010.06.28 07:06:18.
