data_PCOD8133341
_publ_section_title
;
Structure prediction by ZEFSAII (Michael W. Deem and Ramdas Pophale) SiO2 
 PCOD8133341
Probable space group: C 2/C
;
_chemical_formula_sum "Si O2"
_cell_formula_units_Z 56
_cell_length_a 13.707329
_cell_length_b 8.585356
_cell_length_c 20.883879
_cell_angle_alpha 90.000000
_cell_angle_beta 84.986991
_cell_angle_gamma 90.000000
_cell_volume 2448.262052
_symmetry_space_group_name_H-M "C 2/C"
_symmetry_group_IT_number 15
_symmetry_cell_setting 'monoclinic'
loop_
_space_group_symop_operation_xyz
x,y,z
-x,y,1/2-z
-x,-y,-z
x,-y,1/2+z
1/2+x,1/2+y,z
1/2-x,1/2+y,1/2-z
1/2-x,1/2-y,-z
1/2+x,1/2-y,1/2+z
loop_
_atom_site_type_symbol
_atom_site_label
_atom_site_fract_x
_atom_site_fract_y
_atom_site_fract_z
Si Si1 0.736846 0.707038 0.771901
Si Si2 0.251645 0.961502 0.879836
Si Si3 0.959557 0.946061 0.904703
Si Si4 0.394986 0.764255 0.162661
Si Si5 0.095446 0.761541 0.161591
Si Si6 0.379819 0.350974 0.035216
Si Si7 0.899633 0.618129 0.139097
O O1 0.737900 0.546488 0.811663
O O2 0.845460 0.734104 0.736260
O O3 0.652292 0.703585 0.723434
O O4 0.705816 0.847492 0.821532
O O5 0.180266 0.811246 0.883353
O O6 0.359378 0.887193 0.879588
O O7 0.228079 0.079757 0.939767
O O8 0.003354 0.833707 0.846297
O O9 0.891884 0.078941 0.878611
O O10 0.893879 0.843668 0.957970
O O11 0.048001 0.024036 0.937640
O O12 0.420725 0.936540 0.137326
O O13 0.981368 0.714398 0.175650
O O14 0.397219 0.181860 0.066055
#
# Coordination Sequence:
#
# PCOD8133341 Si02
#       7
#     8   8   8   8   8   8   8
#     4  10  20  37  54  74 108 148 188 227 281 338
#     4   9  19  36  57  77 107 149 188 228 278 334
#     4   9  18  34  56  81 112 146 186 228 269 331
#     4  10  19  33  53  80 108 142 181 225 285 333
#     4  10  20  35  55  81 109 141 184 230 278 332
#     4   8  17  35  56  79 109 151 187 219 277 334
#     4  10  20  34  56  82 111 143 183 235 277 327
#
# _framework density 22.873367999999999
#
# number of rings (size 3 to 8) (size 9 to 14) (size 15 to 20)
#    0.000    2.571    0.000    3.000    0.000    1.143 
#    0.000   14.286    0.000    4.286    0.000    0.000 
#    0.000    0.000    0.000    0.000    0.000    2.000 
#
# Total GULP energy -346943.563463 kJ/mol
# GULP energy per Si atom -12390.841552 kJ/mol
# Density = 2.282131 g / cm^3
# Si number density = 22.873368 Si / 1000 Ang^3
#
#
#
# Elastic Constant Matrix: (Units=GPa)
#
#
# Indices 1 2 3 4 5 6 
#
# 1 48.6093 34.5487 42.0535 0.0000 -18.0059 0.0000
# 2 34.5487 110.5662 29.6736 0.0000 -14.1289 0.0000
# 3 42.0535 29.6736 99.7131 0.0000 -34.4882 0.0000
# 4 0.0000 0.0000 0.0000 23.5484 0.0000 -10.1137
# 5 -18.0059 -14.1289 -34.4882 0.0000 26.1394 0.0000
# 6 0.0000 0.0000 0.0000 -10.1137 0.0000 39.9151
#
#
#
# Elastic Compliance Matrix: (Units=1/GPa)
#
#
# Indices 1 2 3 4 5 6 
#
# 1 0.039044 -0.008180 -0.011514 0.000000 0.007283 0.000000
# 2 -0.008180 0.011646 0.000391 0.000000 0.001176 0.000000
# 3 -0.011514 0.000391 0.022253 0.000000 0.021641 0.000000
# 4 0.000000 0.000000 0.000000 0.047651 0.000000 0.012074
# 5 0.007283 0.001176 0.021641 0.000000 0.072463 0.000000
# 6 0.000000 0.000000 0.000000 0.012074 0.000000 0.028112
#
#
# Mechanical properties :
#
#
# Convention : Reuss Voigt Hill
#
# Bulk Modulus (GPa) = 29.12152 52.38224 40.75188
# Shear Modulus (GPa) = 18.43519 28.09477 23.26498
#
# Velocity S-wave (km/s) = 2.84204 3.50848 3.19269
# Velocity P-wave (km/s) = 4.85065 6.27401 5.60768
#
# Compressibility (1/GPa) = 0.03433886
#
# Stress axis : x y z
#
# Youngs Moduli (GPa) = 25.61191 85.86935 44.93688
#
# Poissons Ratio (x) = 0.70237 0.51738
# Poissons Ratio (y) = 0.20949 -0.01756
# Poissons Ratio (z) = 0.29488 -0.03356
#
# Static dielectric constant tensor:
#      x y z
#    x 4.008210 0.000000 -0.528670 
#    y 0.000000 4.060430 0.000000 
#    z -0.528670 0.000000 4.200740 
# 
# 
# High freq. dielectric constant tensor:
#      x y z
#    x 1.879960 0.000000 -0.031120 
#    y 0.000000 1.906740 0.000000 
#    z -0.031120 0.000000 1.885400 
# 
# From -- ./inp_files/272636.got.cif
#   From: 2010.06.25/outbox.cif.g09.slc.cpg/sg15_137_cif.got.tgz:272636.got - 2010.06.28 07:06:18.
