data_PCOD8133017
_publ_section_title
;
Structure prediction by ZEFSAII (Michael W. Deem and Ramdas Pophale) SiO2 
 PCOD8133017
Probable space group: C 2/C
;
_chemical_formula_sum "Si O2"
_cell_formula_units_Z 64
_cell_length_a 12.682119
_cell_length_b 29.398325
_cell_length_c 8.972321
_cell_angle_alpha 90.000000
_cell_angle_beta 87.144012
_cell_angle_gamma 90.000000
_cell_volume 3341.022899
_symmetry_space_group_name_H-M "C 2/C"
_symmetry_group_IT_number 15
_symmetry_cell_setting 'monoclinic'
loop_
_space_group_symop_operation_xyz
x,y,z
-x,y,1/2-z
-x,-y,-z
x,-y,1/2+z
1/2+x,1/2+y,z
1/2-x,1/2+y,1/2-z
1/2-x,1/2-y,-z
1/2+x,1/2-y,1/2+z
loop_
_atom_site_type_symbol
_atom_site_label
_atom_site_fract_x
_atom_site_fract_y
_atom_site_fract_z
Si Si1 0.106266 0.683666 0.672259
Si Si2 0.681369 0.634413 0.776043
Si Si3 0.105511 0.851741 0.604265
Si Si4 0.608854 0.547683 0.157757
Si Si5 0.069132 0.727964 0.370608
Si Si6 0.206543 0.772506 0.765590
Si Si7 0.579033 0.689493 0.516710
Si Si8 0.384296 0.537374 0.691162
O O1 0.198619 0.649591 0.708966
O O2 0.094810 0.691270 0.495580
O O3 0.123992 0.732710 0.743215
O O4 0.000000 0.662914 0.750000
O O5 0.620541 0.657801 0.644170
O O6 0.686410 0.580178 0.752697
O O7 0.613339 0.645931 0.925064
O O8 0.142230 0.899600 0.675141
O O9 0.184817 0.813412 0.653309
O O10 0.978384 0.839074 0.617431
O O11 0.500000 0.541772 0.250000
O O12 0.675467 0.508230 0.239535
O O13 0.604266 0.533797 0.986727
O O14 0.175661 0.745303 0.278077
O O15 0.000000 0.702111 0.250000
O O16 0.005424 0.772399 0.427849
O O17 0.185188 0.788570 0.936768
O O18 0.500000 0.545270 0.750000
#
# Coordination Sequence:
#
# PCOD8133017 Si02
#       8
#     8   8   8   8   8   8   8   8
#     4  12  23  41  59  79 114 151 198 241 282 332
#     4  11  24  38  58  83 113 153 191 234 287 340
#     4  11  20  37  55  84 115 158 184 235 279 340
#     4  10  19  31  54  80 114 149 185 224 283 340
#     4  12  25  39  57  79 115 154 195 244 281 328
#     4  12  23  37  57  82 116 155 196 233 285 333
#     4  12  23  37  56  82 118 154 200 229 282 342
#     4  10  20  35  55  83 118 150 184 228 285 344
#
# _framework density 19.155812000000001
#
# number of rings (size 3 to 8) (size 9 to 14) (size 15 to 20)
#    0.000    0.750    3.750    7.125    1.750    2.000 
#    0.000    0.000    0.000    0.000    0.000    4.375 
#    0.000    0.000    0.000    0.000    0.000    0.000 
#
# Total GULP energy -396575.568683 kJ/mol
# GULP energy per Si atom -12392.986521 kJ/mol
# Density = 1.911221 g / cm^3
# Si number density = 19.155812 Si / 1000 Ang^3
#
#
#
# Elastic Constant Matrix: (Units=GPa)
#
#
# Indices 1 2 3 4 5 6 
#
# 1 93.6534 37.8392 24.1573 0.0000 -2.4298 0.0000
# 2 37.8392 126.5455 35.9872 0.0000 7.2975 0.0000
# 3 24.1573 35.9872 73.5742 0.0000 -5.4329 0.0000
# 4 0.0000 0.0000 0.0000 24.0799 0.0000 -0.9909
# 5 -2.4298 7.2975 -5.4329 0.0000 26.7651 0.0000
# 6 0.0000 0.0000 0.0000 -0.9909 0.0000 18.8490
#
#
#
# Elastic Compliance Matrix: (Units=1/GPa)
#
#
# Indices 1 2 3 4 5 6 
#
# 1 0.012635 -0.003155 -0.002494 0.000000 0.001501 0.000000
# 2 -0.003155 0.010295 -0.004292 0.000000 -0.003965 0.000000
# 3 -0.002494 -0.004292 0.016832 0.000000 0.004361 0.000000
# 4 0.000000 0.000000 0.000000 0.041618 0.000000 0.002188
# 5 0.001501 -0.003965 0.004361 0.000000 0.039465 0.000000
# 6 0.000000 0.000000 0.000000 0.002188 0.000000 0.053168
#
#
# Mechanical properties :
#
#
# Convention : Reuss Voigt Hill
#
# Bulk Modulus (GPa) = 50.30641 54.41563 52.36102
# Shear Modulus (GPa) = 24.93477 26.99142 25.96309
#
# Velocity S-wave (km/s) = 3.61180 3.75780 3.68552
# Velocity P-wave (km/s) = 6.61152 6.87725 6.74569
#
# Compressibility (1/GPa) = 0.01987818
#
# Stress axis : x y z
#
# Youngs Moduli (GPa) = 79.14618 97.13388 59.40982
#
# Poissons Ratio (x) = 0.30648 0.14819
# Poissons Ratio (y) = 0.24973 0.25501
# Poissons Ratio (z) = 0.19742 0.41694
#
# Static dielectric constant tensor:
#      x y z
#    x 3.300690 0.000000 0.022360 
#    y 0.000000 4.268990 0.000000 
#    z 0.022360 0.000000 3.852390 
# 
# 
# High freq. dielectric constant tensor:
#      x y z
#    x 1.709970 0.000000 -0.004970 
#    y 0.000000 1.734870 0.000000 
#    z -0.004970 0.000000 1.773190 
# 
# From -- ./inp_files/35661.got.cif
#   From: 2010.06.25/outbox.cif.g09.slc.cpg/sg15_18_cif.got.tgz:35661.got - 2010.06.28 07:06:18.
