data_PCOD8133121
_publ_section_title
;
Structure prediction by ZEFSAII (Michael W. Deem and Ramdas Pophale) SiO2 
 PCOD8133121
Probable space group: C 2/C
;
_chemical_formula_sum "Si O2"
_cell_formula_units_Z 60
_cell_length_a 31.833520
_cell_length_b 12.183205
_cell_length_c 8.936196
_cell_angle_alpha 90.000000
_cell_angle_beta 102.918841
_cell_angle_gamma 90.000000
_cell_volume 3378.036978
_symmetry_space_group_name_H-M "C 2/C"
_symmetry_group_IT_number 15
_symmetry_cell_setting 'monoclinic'
loop_
_space_group_symop_operation_xyz
x,y,z
-x,y,1/2-z
-x,-y,-z
x,-y,1/2+z
1/2+x,1/2+y,z
1/2-x,1/2+y,1/2-z
1/2-x,1/2-y,-z
1/2+x,1/2-y,1/2+z
loop_
_atom_site_type_symbol
_atom_site_label
_atom_site_fract_x
_atom_site_fract_y
_atom_site_fract_z
Si Si1 0.807177 0.372240 0.077516
Si Si2 0.980506 0.086556 0.590415
Si Si3 0.595395 0.132762 0.337967
Si Si4 0.614939 0.380200 0.420074
Si Si5 0.500000 0.796458 0.750000
Si Si6 0.206207 0.128201 0.499308
Si Si7 0.642784 0.004408 0.628112
Si Si8 0.337569 0.494743 0.789604
O O1 0.815484 0.245349 0.050318
O O2 0.821798 0.443636 0.946130
O O3 0.756676 0.380608 0.068883
O O4 0.832818 0.408817 0.246350
O O5 0.929516 0.081625 0.544358
O O6 0.000000 0.030147 0.750000
O O7 0.997012 0.215144 0.600587
O O8 0.000000 0.000000 0.500000
O O9 0.614346 0.254436 0.369553
O O10 0.543275 0.130354 0.276834
O O11 0.607982 0.065451 0.496173
O O12 0.616488 0.082231 0.206560
O O13 0.648021 0.399890 0.582761
O O14 0.624349 0.454542 0.281752
O O15 0.198173 0.053386 0.348811
O O16 0.183390 0.092019 0.633044
#
# Coordination Sequence:
#
# PCOD8133121 Si02
#       8
#     8   8   8   8   4   8   8   8
#     4  10  20  36  53  79 100 141 172 226 255 315
#     4   9  17  31  51  74 104 140 168 205 250 311
#     4  10  20  37  54  76 102 138 172 227 254 313
#     4  10  19  32  52  75 109 134 173 207 260 309
#     4   8  20  34  56  74 108 136 172 210 268 302
#     4  10  20  34  53  74 113 132 176 212 267 308
#     4  10  21  35  58  75 101 136 187 215 269 302
#     4  10  20  32  50  81 103 145 164 210 257 325
#
# _framework density 17.761796
#
# number of rings (size 3 to 8) (size 9 to 14) (size 15 to 20)
#    0.400    1.867    0.000    3.200    0.000    0.533 
#    0.000    0.000    5.867   12.800    0.000    0.000 
#    0.000    0.000    0.000    0.000    0.000    0.000 
#
# Total GULP energy -371652.527908 kJ/mol
# GULP energy per Si atom -12388.417597 kJ/mol
# Density = 1.772137 g / cm^3
# Si number density = 17.761796 Si / 1000 Ang^3
#
#
#
# Elastic Constant Matrix: (Units=GPa)
#
#
# Indices 1 2 3 4 5 6 
#
# 1 85.3197 43.7975 33.8989 0.0000 1.5539 0.0000
# 2 43.7975 88.6593 35.5819 0.0000 -2.3833 0.0000
# 3 33.8989 35.5819 95.2518 0.0000 -3.5017 0.0000
# 4 0.0000 0.0000 0.0000 32.1369 0.0000 -1.3291
# 5 1.5539 -2.3833 -3.5017 0.0000 20.3417 0.0000
# 6 0.0000 0.0000 0.0000 -1.3291 0.0000 33.6954
#
#
#
# Elastic Compliance Matrix: (Units=1/GPa)
#
#
# Indices 1 2 3 4 5 6 
#
# 1 0.016702 -0.006938 -0.003451 0.000000 -0.002683 0.000000
# 2 -0.006938 0.016160 -0.003501 0.000000 0.001821 0.000000
# 3 -0.003451 -0.003501 0.013112 0.000000 0.002111 0.000000
# 4 0.000000 0.000000 0.000000 0.031168 0.000000 0.001229
# 5 -0.002683 0.001821 0.002111 0.000000 0.049942 0.000000
# 6 0.000000 0.000000 0.000000 0.001229 0.000000 0.029726
#
#
# Mechanical properties :
#
#
# Convention : Reuss Voigt Hill
#
# Bulk Modulus (GPa) = 54.95984 55.08751 55.02368
# Shear Modulus (GPa) = 26.22547 27.63162 26.92855
#
# Velocity S-wave (km/s) = 3.84671 3.94849 3.89793
# Velocity P-wave (km/s) = 7.12316 7.20204 7.16271
#
# Compressibility (1/GPa) = 0.01819510
#
# Stress axis : x y z
#
# Youngs Moduli (GPa) = 59.87278 61.87979 76.26623
#
# Poissons Ratio (x) = 0.42932 0.26319
# Poissons Ratio (y) = 0.41539 0.26699
# Poissons Ratio (z) = 0.20662 0.21663
#
# Static dielectric constant tensor:
#      x y z
#    x 3.263400 0.000000 0.068150 
#    y 0.000000 3.335310 0.000000 
#    z 0.068150 0.000000 3.277370 
# 
# 
# High freq. dielectric constant tensor:
#      x y z
#    x 1.689160 0.000000 0.004870 
#    y 0.000000 1.687740 0.000000 
#    z 0.004870 0.000000 1.693030 
# 
# From -- ./inp_files/69123.got.cif
#   From: 2010.06.25/outbox.cif.g09.slc.cpg/sg15_35_cif.got.tgz:69123.got - 2010.06.28 07:06:18.
