data_PCOD8133769
_publ_section_title
;
Structure prediction by ZEFSAII (Michael W. Deem and Ramdas Pophale) SiO2 
 PCOD8133769
Probable space group: C 2/C
;
_chemical_formula_sum "Si O2"
_cell_formula_units_Z 48
_cell_length_a 14.381651
_cell_length_b 13.045248
_cell_length_c 12.553230
_cell_angle_alpha 90.000000
_cell_angle_beta 97.758505
_cell_angle_gamma 90.000000
_cell_volume 2333.579895
_symmetry_space_group_name_H-M "C 2/C"
_symmetry_group_IT_number 15
_symmetry_cell_setting 'monoclinic'
loop_
_space_group_symop_operation_xyz
x,y,z
-x,y,1/2-z
-x,-y,-z
x,-y,1/2+z
1/2+x,1/2+y,z
1/2-x,1/2+y,1/2-z
1/2-x,1/2-y,-z
1/2+x,1/2-y,1/2+z
loop_
_atom_site_type_symbol
_atom_site_label
_atom_site_fract_x
_atom_site_fract_y
_atom_site_fract_z
Si Si1 0.136444 0.854050 0.715886
Si Si2 0.705114 0.493679 0.067401
Si Si3 0.841356 0.368358 0.212775
Si Si4 0.643351 0.968504 0.075067
Si Si5 0.540084 0.149963 0.966278
Si Si6 0.939270 0.874648 0.573065
O O1 0.164740 0.734372 0.715714
O O2 0.135550 0.878342 0.841455
O O3 0.040376 0.884868 0.641457
O O4 0.209632 0.923516 0.663417
O O5 0.754594 0.389083 0.118275
O O6 0.762816 0.545852 0.979953
O O7 0.598785 0.464035 0.011994
O O8 0.838378 0.460819 0.296445
O O9 0.936155 0.368172 0.156027
O O10 0.567348 0.882011 0.028899
O O11 0.605162 0.083064 0.052703
O O12 0.560398 0.268898 0.994160
#
# Coordination Sequence:
#
# PCOD8133769 Si02
#       6
#     8   8   8   8   8   8
#     4  10  21  38  60  79 111 157 193 228 287 354
#     4  11  23  34  57  91 115 143 192 250 287 325
#     4  10  20  36  58  83 115 152 191 234 286 345
#     4  10  19  34  56  88 113 143 186 242 288 332
#     4   9  19  35  60  82 110 152 195 227 283 351
#     4  10  20  39  60  80 110 157 197 227 279 359
#
# _framework density 20.569254999999998
#
# number of rings (size 3 to 8) (size 9 to 14) (size 15 to 20)
#    0.000    2.000    1.667    2.000    0.000    8.000 
#    0.000    0.000    0.000    0.000    0.000    0.000 
#    0.000    0.000    0.000    0.000    0.000    0.000 
#
# Total GULP energy -297348.995150 kJ/mol
# GULP energy per Si atom -12389.541465 kJ/mol
# Density = 2.052244 g / cm^3
# Si number density = 20.569255 Si / 1000 Ang^3
#
#
#
# Elastic Constant Matrix: (Units=GPa)
#
#
# Indices 1 2 3 4 5 6 
#
# 1 65.2703 21.6846 10.5334 0.0000 0.5145 0.0000
# 2 21.6846 89.6390 43.2220 0.0000 -5.6457 0.0000
# 3 10.5334 43.2220 55.3482 0.0000 6.2937 0.0000
# 4 0.0000 0.0000 0.0000 40.0595 0.0000 2.8625
# 5 0.5145 -5.6457 6.2937 0.0000 26.3385 0.0000
# 6 0.0000 0.0000 0.0000 2.8625 0.0000 24.5196
#
#
#
# Elastic Compliance Matrix: (Units=1/GPa)
#
#
# Indices 1 2 3 4 5 6 
#
# 1 0.016701 -0.004270 0.000306 0.000000 -0.001315 0.000000
# 2 -0.004270 0.020497 -0.016141 0.000000 0.008334 0.000000
# 3 0.000306 -0.016141 0.031874 0.000000 -0.011082 0.000000
# 4 0.000000 0.000000 0.000000 0.025173 0.000000 -0.002939
# 5 -0.001315 0.008334 -0.011082 0.000000 0.042427 0.000000
# 6 0.000000 0.000000 0.000000 -0.002939 0.000000 0.041127
#
#
# Mechanical properties :
#
#
# Convention : Reuss Voigt Hill
#
# Bulk Modulus (GPa) = 34.64945 40.12640 37.38793
# Shear Modulus (GPa) = 21.96550 27.17134 24.56842
#
# Velocity S-wave (km/s) = 3.27139 3.63846 3.45979
# Velocity P-wave (km/s) = 5.58132 6.09930 5.84605
#
# Compressibility (1/GPa) = 0.02886049
#
# Stress axis : x y z
#
# Youngs Moduli (GPa) = 59.87797 48.78841 31.37345
#
# Poissons Ratio (x) = 0.20835 -0.00960
# Poissons Ratio (y) = 0.25570 0.50640
# Poissons Ratio (z) = -0.01832 0.78749
#
# Static dielectric constant tensor:
#      x y z
#    x 3.606550 0.000000 -0.049250 
#    y 0.000000 3.599570 0.000000 
#    z -0.049250 0.000000 3.746150 
# 
# 
# High freq. dielectric constant tensor:
#      x y z
#    x 1.796200 0.000000 0.007930 
#    y 0.000000 1.790180 0.000000 
#    z 0.007930 0.000000 1.801010 
# 
# From -- ./inp_files/96370.got.cif
#   From: 2010.06.25/outbox.cif.g09.slc.cpg/sg15_49_cif.got.tgz:96370.got - 2010.06.28 07:06:18.
