data_PCOD8133338
_publ_section_title
;
Structure prediction by ZEFSAII (Michael W. Deem and Ramdas Pophale) SiO2 
 PCOD8133338
Probable space group: C 2/C
;
_chemical_formula_sum "Si O2"
_cell_formula_units_Z 40
_cell_length_a 22.836638
_cell_length_b 7.546693
_cell_length_c 8.865538
_cell_angle_alpha 90.000000
_cell_angle_beta 95.260170
_cell_angle_gamma 90.000000
_cell_volume 1521.462061
_symmetry_space_group_name_H-M "C 2/C"
_symmetry_group_IT_number 15
_symmetry_cell_setting 'monoclinic'
loop_
_space_group_symop_operation_xyz
x,y,z
-x,y,1/2-z
-x,-y,-z
x,-y,1/2+z
1/2+x,1/2+y,z
1/2-x,1/2+y,1/2-z
1/2-x,1/2-y,-z
1/2+x,1/2-y,1/2+z
loop_
_atom_site_type_symbol
_atom_site_label
_atom_site_fract_x
_atom_site_fract_y
_atom_site_fract_z
Si Si1 0.950170 0.294282 0.450616
Si Si2 0.771220 0.992778 0.284487
Si Si3 0.836476 0.797069 0.043563
Si Si4 0.694461 0.100474 0.009625
Si Si5 0.428168 0.837978 0.099689
O O1 0.904897 0.157768 0.521021
O O2 0.924210 0.336165 0.278845
O O3 0.947765 0.467325 0.554084
O O4 0.017120 0.217769 0.451394
O O5 0.796617 0.152536 0.390003
O O6 0.747481 0.843337 0.402222
O O7 0.819965 0.908273 0.188125
O O8 0.715276 0.071860 0.184176
O O9 0.826154 0.588873 0.065394
O O10 0.635609 0.223491 0.984786
#
# Coordination Sequence:
#
# PCOD8133338 Si02
#       5
#     8   8   8   8   8
#     4   9  18  34  55  82 111 138 178 230 282 317
#     4  10  19  33  53  79 117 150 175 215 276 341
#     4  10  21  37  53  79 117 149 181 228 274 327
#     4  10  19  34  53  82 115 139 180 233 275 320
#     4   9  17  32  57  81 107 139 177 232 278 319
#
# _framework density 26.290502
#
# number of rings (size 3 to 8) (size 9 to 14) (size 15 to 20)
#    0.000    2.400    0.000    4.800    0.000    0.000 
#    0.000   33.000    0.000    4.800    0.000    5.600 
#    0.000    1.600    0.000    0.000    0.000    0.000 
#
# Total GULP energy -247846.122412 kJ/mol
# GULP energy per Si atom -12392.306121 kJ/mol
# Density = 2.623066 g / cm^3
# Si number density = 26.290502 Si / 1000 Ang^3
#
#
#
# Elastic Constant Matrix: (Units=GPa)
#
#
# Indices 1 2 3 4 5 6 
#
# 1 205.3190 0.8976 72.8796 0.0000 -28.7886 0.0000
# 2 0.8976 22.1401 19.7729 0.0000 -8.9283 0.0000
# 3 72.8796 19.7729 162.0906 0.0000 -25.5773 0.0000
# 4 0.0000 0.0000 0.0000 26.1937 0.0000 -11.6751
# 5 -28.7886 -8.9283 -25.5773 0.0000 35.2743 0.0000
# 6 0.0000 0.0000 0.0000 -11.6751 0.0000 33.5076
#
#
#
# Elastic Compliance Matrix: (Units=1/GPa)
#
#
# Indices 1 2 3 4 5 6 
#
# 1 0.006400 0.003846 -0.002675 0.000000 0.004257 0.000000
# 2 0.003846 0.055936 -0.006576 0.000000 0.012529 0.000000
# 3 -0.002675 -0.006576 0.008545 0.000000 0.002348 0.000000
# 4 0.000000 0.000000 0.000000 0.045196 0.000000 0.015748
# 5 0.004257 0.012529 0.002348 0.000000 0.036698 0.000000
# 6 0.000000 0.000000 0.000000 0.015748 0.000000 0.035331
#
#
# Mechanical properties :
#
#
# Convention : Reuss Voigt Hill
#
# Bulk Modulus (GPa) = 16.64666 64.07220 40.35943
# Shear Modulus (GPa) = 22.83739 38.72845 30.78292
#
# Velocity S-wave (km/s) = 2.95049 3.84226 3.42552
# Velocity P-wave (km/s) = 4.23707 6.64136 5.57048
#
# Compressibility (1/GPa) = 0.06007211
#
# Stress axis : x y z
#
# Youngs Moduli (GPa) = 156.24733 17.87752 117.02946
#
# Poissons Ratio (x) = -0.06876 0.31306
# Poissons Ratio (y) = -0.60098 0.76956
# Poissons Ratio (z) = 0.41797 0.11756
#
# Static dielectric constant tensor:
#      x y z
#    x 6.244930 0.000000 -0.530700 
#    y 0.000000 4.447780 0.000000 
#    z -0.530700 0.000000 4.814190 
# 
# 
# High freq. dielectric constant tensor:
#      x y z
#    x 2.076400 0.000000 -0.021450 
#    y 0.000000 2.018890 0.000000 
#    z -0.021450 0.000000 2.072470 
# 
# From -- ./inp_files/64582.got.cif
#   From: 2010.06.25/outbox.cif.g09.slc.cpg/sg15_33_cif.got.tgz:64582.got - 2010.06.28 07:06:18.
