data_PCOD8133638
_publ_section_title
;
Structure prediction by ZEFSAII (Michael W. Deem and Ramdas Pophale) SiO2 
 PCOD8133638
Probable space group: C 2/C
;
_chemical_formula_sum "Si O2"
_cell_formula_units_Z 56
_cell_length_a 18.650986
_cell_length_b 33.244701
_cell_length_c 5.230764
_cell_angle_alpha 90.000000
_cell_angle_beta 112.965257
_cell_angle_gamma 90.000000
_cell_volume 2986.256626
_symmetry_space_group_name_H-M "C 2/C"
_symmetry_group_IT_number 15
_symmetry_cell_setting 'monoclinic'
loop_
_space_group_symop_operation_xyz
x,y,z
-x,y,1/2-z
-x,-y,-z
x,-y,1/2+z
1/2+x,1/2+y,z
1/2-x,1/2+y,1/2-z
1/2-x,1/2-y,-z
1/2+x,1/2-y,1/2+z
loop_
_atom_site_type_symbol
_atom_site_label
_atom_site_fract_x
_atom_site_fract_y
_atom_site_fract_z
Si Si1 0.524941 0.616444 0.534767
Si Si2 0.330646 0.335177 0.265196
Si Si3 0.954066 0.282479 0.435998
Si Si4 0.411165 0.981541 0.075785
Si Si5 0.913018 0.611492 0.542605
Si Si6 0.347260 0.850225 0.434322
Si Si7 0.905836 0.192069 0.369759
O O1 0.500000 0.591275 0.750000
O O2 0.616635 0.624475 0.664597
O O3 0.474202 0.658508 0.462903
O O4 0.500000 0.591275 0.250000
O O5 0.242428 0.348263 0.112827
O O6 0.346222 0.312118 0.551164
O O7 0.355256 0.308125 0.057979
O O8 0.873363 0.306455 0.362825
O O9 0.945328 0.234993 0.400225
O O10 0.000000 0.298420 0.250000
O O11 0.000000 0.294576 0.750000
O O12 0.500000 0.995054 0.250000
O O13 0.404498 0.935634 0.978216
O O14 0.370944 0.991910 0.293290
O O15 0.856823 0.620435 0.704838
O O16 0.000000 0.623385 0.750000
O O17 0.893007 0.634816 0.251399
#
# Coordination Sequence:
#
# PCOD8133638 Si02
#       7
#     8   8   8   8   8   8   8
#     4   8  14  27  46  64  82 109 150 197 251 297
#     4  10  20  33  49  71  94 119 161 206 258 305
#     4  12  23  36  52  68  89 124 175 219 254 303
#     4   9  17  31  54  80  97 118 162 211 236 256
#     4  11  22  38  54  71 103 139 168 196 236 291
#     4  12  24  35  49  72 103 136 163 196 250 308
#     4  10  19  34  53  68  86 118 164 220 265 296
#
# _framework density 18.752575
#
# number of rings (size 3 to 8) (size 9 to 14) (size 15 to 20)
#    0.000    1.714    0.000    7.714    0.000    3.429 
#    0.000    0.000    0.000    0.000    0.000    0.000 
#    0.000    0.000    0.000    0.000    0.000  450.000 
#
# Total GULP energy -346963.303543 kJ/mol
# GULP energy per Si atom -12391.546555 kJ/mol
# Density = 1.870989 g / cm^3
# Si number density = 18.752575 Si / 1000 Ang^3
#
#
#
# Elastic Constant Matrix: (Units=GPa)
#
#
# Indices 1 2 3 4 5 6 
#
# 1 97.2167 11.4953 48.2293 0.0000 -4.3445 0.0000
# 2 11.4953 31.7704 14.9145 0.0000 -2.0001 0.0000
# 3 48.2293 14.9145 132.8598 0.0000 -32.8404 0.0000
# 4 0.0000 0.0000 0.0000 19.7743 0.0000 -7.6203
# 5 -4.3445 -2.0001 -32.8404 0.0000 41.0549 0.0000
# 6 0.0000 0.0000 0.0000 -7.6203 0.0000 10.3540
#
#
#
# Elastic Compliance Matrix: (Units=1/GPa)
#
#
# Indices 1 2 3 4 5 6 
#
# 1 0.013006 -0.002467 -0.005153 0.000000 -0.002866 0.000000
# 2 -0.002467 0.033791 -0.003185 0.000000 -0.001163 0.000000
# 3 -0.005153 -0.003185 0.011943 0.000000 0.008853 0.000000
# 4 0.000000 0.000000 0.000000 0.070592 0.000000 0.051954
# 5 -0.002866 -0.001163 0.008853 0.000000 0.031079 0.000000
# 6 0.000000 0.000000 0.000000 0.051954 0.000000 0.134818
#
#
# Mechanical properties :
#
#
# Convention : Reuss Voigt Hill
#
# Bulk Modulus (GPa) = 26.93259 45.68057 36.30658
# Shear Modulus (GPa) = 15.18760 26.71715 20.95237
#
# Velocity S-wave (km/s) = 2.84895 3.77864 3.34624
# Velocity P-wave (km/s) = 5.02148 6.59166 5.85941
#
# Compressibility (1/GPa) = 0.03712974
#
# Stress axis : x y z
#
# Youngs Moduli (GPa) = 76.88591 29.59401 83.73087
#
# Poissons Ratio (x) = 0.07302 0.43144
# Poissons Ratio (y) = 0.18971 0.26667
# Poissons Ratio (z) = 0.39617 0.09425
#
# Static dielectric constant tensor:
#      x y z
#    x 3.548660 0.000000 -0.630200 
#    y 0.000000 2.937110 0.000000 
#    z -0.630200 0.000000 4.201710 
# 
# 
# High freq. dielectric constant tensor:
#      x y z
#    x 1.717290 0.000000 -0.032970 
#    y 0.000000 1.677070 0.000000 
#    z -0.032970 0.000000 1.753020 
# 
# From -- ./inp_files/11958.got.cif
#   From: 2010.06.25/outbox.cif.g09.slc.cpg/sg15_6_cif.got.tgz:11958.got - 2010.06.28 07:06:18.
