data_PCOD8133985
_publ_section_title
;
Structure prediction by ZEFSAII (Michael W. Deem and Ramdas Pophale) SiO2 
 PCOD8133985
Probable space group: C 2/C
;
_chemical_formula_sum "Si O2"
_cell_formula_units_Z 44
_cell_length_a 14.400968
_cell_length_b 20.643988
_cell_length_c 7.692470
_cell_angle_alpha 90.000000
_cell_angle_beta 116.323865
_cell_angle_gamma 90.000000
_cell_volume 2049.771096
_symmetry_space_group_name_H-M "C 2/C"
_symmetry_group_IT_number 15
_symmetry_cell_setting 'monoclinic'
loop_
_space_group_symop_operation_xyz
x,y,z
-x,y,1/2-z
-x,-y,-z
x,-y,1/2+z
1/2+x,1/2+y,z
1/2-x,1/2+y,1/2-z
1/2-x,1/2-y,-z
1/2+x,1/2-y,1/2+z
loop_
_atom_site_type_symbol
_atom_site_label
_atom_site_fract_x
_atom_site_fract_y
_atom_site_fract_z
Si Si1 0.741791 0.178921 0.067885
Si Si2 0.544166 0.151119 0.113389
Si Si3 0.661154 0.038776 0.363939
Si Si4 0.500000 0.475446 0.250000
Si Si5 0.367517 0.572073 0.343449
Si Si6 0.859977 0.406169 0.282480
O O1 0.726545 0.135388 0.885379
O O2 0.750000 0.250000 0.000000
O O3 0.644775 0.185366 0.119009
O O4 0.840886 0.145415 0.249645
O O5 0.500000 0.188740 0.250000
O O6 0.571832 0.079121 0.197542
O O7 0.458060 0.141289 0.892803
O O8 0.764317 0.041678 0.335764
O O9 0.684619 0.066475 0.574234
O O10 0.617307 0.965497 0.330962
O O11 0.404924 0.522795 0.224301
O O12 0.540490 0.427570 0.436188
#
# Coordination Sequence:
#
# PCOD8133985 Si02
#       6
#     8   8   8   4   8   8
#     4  11  24  42  61  82 127 170 210 242 305 373
#     4   9  20  38  62  93 121 153 198 252 303 361
#     4  10  19  34  63  95 126 150 191 251 323 364
#     4  10  20  38  66  92 124 150 220 272 314 364
#     4  10  21  38  62  92 123 164 201 267 317 363
#     4  11  20  34  62  93 124 155 192 249 304 372
#
# _framework density 21.465812
#
# number of rings (size 3 to 8) (size 9 to 14) (size 15 to 20)
#    0.000    1.818    0.000    5.455    0.000    4.364 
#    3.273    8.182    6.000    0.000    0.000    0.000 
#    0.000    0.000    0.000    0.000    0.000    0.000 
#
# Total GULP energy -272591.685082 kJ/mol
# GULP energy per Si atom -12390.531140 kJ/mol
# Density = 2.141696 g / cm^3
# Si number density = 21.465812 Si / 1000 Ang^3
#
#
#
# Elastic Constant Matrix: (Units=GPa)
#
#
# Indices 1 2 3 4 5 6 
#
# 1 115.4803 32.8494 30.5450 0.0000 -11.7843 0.0000
# 2 32.8494 119.0371 55.8865 0.0000 -4.7706 0.0000
# 3 30.5450 55.8865 116.4237 0.0000 -9.2259 0.0000
# 4 0.0000 0.0000 0.0000 26.1761 0.0000 -4.0966
# 5 -11.7843 -4.7706 -9.2259 0.0000 31.0584 0.0000
# 6 0.0000 0.0000 0.0000 -4.0966 0.0000 19.1322
#
#
#
# Elastic Compliance Matrix: (Units=1/GPa)
#
#
# Indices 1 2 3 4 5 6 
#
# 1 0.009898 -0.001941 -0.001425 0.000000 0.003034 0.000000
# 2 -0.001941 0.011226 -0.004917 0.000000 -0.000473 0.000000
# 3 -0.001425 -0.004917 0.011491 0.000000 0.002118 0.000000
# 4 0.000000 0.000000 0.000000 0.039527 0.000000 0.008464
# 5 0.003034 -0.000473 0.002118 0.000000 0.033905 0.000000
# 6 0.000000 0.000000 0.000000 0.008464 0.000000 0.054080
#
#
# Mechanical properties :
#
#
# Convention : Reuss Voigt Hill
#
# Bulk Modulus (GPa) = 62.30575 65.50031 63.90303
# Shear Modulus (GPa) = 27.46604 30.71735 29.09169
#
# Velocity S-wave (km/s) = 3.58093 3.78695 3.68538
# Velocity P-wave (km/s) = 6.79602 7.04992 6.92413
#
# Compressibility (1/GPa) = 0.01604988
#
# Stress axis : x y z
#
# Youngs Moduli (GPa) = 101.02962 89.07986 87.02326
#
# Poissons Ratio (x) = 0.17290 0.12398
# Poissons Ratio (y) = 0.19610 0.42789
# Poissons Ratio (z) = 0.14394 0.43800
#
# Static dielectric constant tensor:
#      x y z
#    x 4.399130 0.000000 -0.272390 
#    y 0.000000 3.470890 0.000000 
#    z -0.272390 0.000000 4.199220 
# 
# 
# High freq. dielectric constant tensor:
#      x y z
#    x 1.849010 0.000000 -0.010550 
#    y 0.000000 1.794140 0.000000 
#    z -0.010550 0.000000 1.861500 
# 
# From -- ./inp_files/41007.got.cif
#   From: 2010.06.25/outbox.cif.g09.slc.cpg/sg15_21_cif.got.tgz:41007.got - 2010.06.28 07:06:18.
