data_PCOD8133449
_publ_section_title
;
Structure prediction by ZEFSAII (Michael W. Deem and Ramdas Pophale) SiO2 
 PCOD8133449
Probable space group: C 2/C
;
_chemical_formula_sum "Si O2"
_cell_formula_units_Z 56
_cell_length_a 11.187005
_cell_length_b 16.682535
_cell_length_c 20.096375
_cell_angle_alpha 90.000000
_cell_angle_beta 126.279836
_cell_angle_gamma 90.000000
_cell_volume 3023.446100
_symmetry_space_group_name_H-M "C 2/C"
_symmetry_group_IT_number 15
_symmetry_cell_setting 'monoclinic'
loop_
_space_group_symop_operation_xyz
x,y,z
-x,y,1/2-z
-x,-y,-z
x,-y,1/2+z
1/2+x,1/2+y,z
1/2-x,1/2+y,1/2-z
1/2-x,1/2-y,-z
1/2+x,1/2-y,1/2+z
loop_
_atom_site_type_symbol
_atom_site_label
_atom_site_fract_x
_atom_site_fract_y
_atom_site_fract_z
Si Si1 0.415356 0.486129 0.864104
Si Si2 0.601639 0.960213 0.224067
Si Si3 0.879414 0.280967 0.494383
Si Si4 0.431534 0.608274 0.497567
Si Si5 0.588652 0.101452 0.391861
Si Si6 0.265719 0.349078 0.183442
Si Si7 0.500000 0.518752 0.750000
Si Si8 0.000000 0.720833 0.250000
O O1 0.237240 0.488574 0.799443
O O2 0.470747 0.420894 0.935661
O O3 0.481619 0.467227 0.812094
O O4 0.468502 0.571699 0.910555
O O5 0.500000 0.928621 0.250000
O O6 0.653345 0.879550 0.203420
O O7 0.507154 0.020978 0.146679
O O8 0.750000 0.250000 0.500000
O O9 0.974743 0.201897 0.510792
O O10 0.970350 0.350977 0.562104
O O11 0.824139 0.317395 0.408032
O O12 0.262612 0.582497 0.458115
O O13 0.578429 0.163362 0.327904
O O14 0.355714 0.427390 0.191307
O O15 0.376318 0.278100 0.244389
#
# Coordination Sequence:
#
# PCOD8133449 Si02
#       8
#     8   8   8   8   8   8   4   4
#     4  10  20  34  57  85 118 153 193 244 296 358
#     4  11  22  38  56  87 119 161 192 235 295 366
#     4  10  19  33  55  86 110 144 185 251 293 336
#     4  10  19  34  57  88 114 151 193 246 301 347
#     4  11  20  34  62  88 117 144 207 240 296 342
#     4  10  21  33  57  86 123 144 192 249 298 338
#     4   9  18  32  52  84 113 146 192 237 292 336
#     4  11  18  34  60  96 113 150 196 261 286 340
#
# _framework density 18.521910999999999
#
# number of rings (size 3 to 8) (size 9 to 14) (size 15 to 20)
#    0.000    1.714    5.000    1.714    4.000    0.571 
#    0.000    0.000    1.571    0.857    0.000    0.000 
#    0.000    0.000    0.000    0.000    0.000    0.000 
#
# Total GULP energy -346989.591493 kJ/mol
# GULP energy per Si atom -12392.485410 kJ/mol
# Density = 1.847975 g / cm^3
# Si number density = 18.521911 Si / 1000 Ang^3
#
#
#
# Elastic Constant Matrix: (Units=GPa)
#
#
# Indices 1 2 3 4 5 6 
#
# 1 93.9180 31.2583 25.7094 0.0000 -14.9887 0.0000
# 2 31.2583 81.3787 21.2534 0.0000 -7.0744 0.0000
# 3 25.7094 21.2534 68.1145 0.0000 -7.3071 0.0000
# 4 0.0000 0.0000 0.0000 35.3210 0.0000 -6.5669
# 5 -14.9887 -7.0744 -7.3071 0.0000 34.5513 0.0000
# 6 0.0000 0.0000 0.0000 -6.5669 0.0000 15.2412
#
#
#
# Elastic Compliance Matrix: (Units=1/GPa)
#
#
# Indices 1 2 3 4 5 6 
#
# 1 0.013597 -0.003947 -0.003432 0.000000 0.004365 0.000000
# 2 -0.003947 0.014647 -0.003011 0.000000 0.000650 0.000000
# 3 -0.003432 -0.003011 0.017078 0.000000 0.001506 0.000000
# 4 0.000000 0.000000 0.000000 0.030777 0.000000 0.013261
# 5 0.004365 0.000650 0.001506 0.000000 0.031287 0.000000
# 6 0.000000 0.000000 0.000000 0.013261 0.000000 0.071325
#
#
# Mechanical properties :
#
#
# Convention : Reuss Voigt Hill
#
# Bulk Modulus (GPa) = 40.74679 44.42814 42.58746
# Shear Modulus (GPa) = 24.07627 28.03539 26.05583
#
# Velocity S-wave (km/s) = 3.60930 3.89477 3.75474
# Velocity P-wave (km/s) = 6.27824 6.65315 6.46842
#
# Compressibility (1/GPa) = 0.02454181
#
# Stress axis : x y z
#
# Youngs Moduli (GPa) = 73.54329 68.27278 58.55579
#
# Poissons Ratio (x) = 0.26947 0.20099
# Poissons Ratio (y) = 0.29028 0.17630
# Poissons Ratio (z) = 0.25243 0.20555
#
# Static dielectric constant tensor:
#      x y z
#    x 3.350430 0.000000 -0.101140 
#    y 0.000000 3.603380 0.000000 
#    z -0.101140 0.000000 3.665400 
# 
# 
# High freq. dielectric constant tensor:
#      x y z
#    x 1.684850 0.000000 -0.008750 
#    y 0.000000 1.707700 0.000000 
#    z -0.008750 0.000000 1.735470 
# 
# From -- ./inp_files/199318.got.cif
#   From: 2010.06.25/outbox.cif.g09.slc.cpg/sg15_100_cif.got.tgz:199318.got - 2010.06.28 07:06:18.
