data_PCOD8133283
_publ_section_title
;
Structure prediction by ZEFSAII (Michael W. Deem and Ramdas Pophale) SiO2 
 PCOD8133283
Probable space group: C 2/C
;
_chemical_formula_sum "Si O2"
_cell_formula_units_Z 60
_cell_length_a 21.814235
_cell_length_b 12.606293
_cell_length_c 13.973346
_cell_angle_alpha 90.000000
_cell_angle_beta 59.368255
_cell_angle_gamma 90.000000
_cell_volume 3306.422989
_symmetry_space_group_name_H-M "C 2/C"
_symmetry_group_IT_number 15
_symmetry_cell_setting 'monoclinic'
loop_
_space_group_symop_operation_xyz
x,y,z
-x,y,1/2-z
-x,-y,-z
x,-y,1/2+z
1/2+x,1/2+y,z
1/2-x,1/2+y,1/2-z
1/2-x,1/2-y,-z
1/2+x,1/2-y,1/2+z
loop_
_atom_site_type_symbol
_atom_site_label
_atom_site_fract_x
_atom_site_fract_y
_atom_site_fract_z
Si Si1 0.870426 0.295364 0.666236
Si Si2 0.136286 0.532627 0.182413
Si Si3 0.693703 0.412994 0.210042
Si Si4 0.270264 0.366945 0.514292
Si Si5 0.500000 0.072691 0.750000
Si Si6 0.285237 0.364114 0.724515
Si Si7 0.494297 0.120008 0.541139
Si Si8 0.340433 0.852974 0.178853
O O1 0.887499 0.356335 0.750643
O O2 0.857065 0.170362 0.694020
O O3 0.798835 0.352882 0.682683
O O4 0.939043 0.308407 0.543680
O O5 0.069603 0.497426 0.172148
O O6 0.158253 0.444113 0.242570
O O7 0.202886 0.553551 0.061332
O O8 0.675817 0.410720 0.110248
O O9 0.680059 0.530502 0.259583
O O10 0.776386 0.378266 0.156415
O O11 0.250000 0.250000 0.500000
O O12 0.300111 0.367604 0.598210
O O13 0.488748 0.136754 0.660793
O O14 0.325161 0.262541 0.737698
O O15 0.416840 0.156924 0.563579
O O16 0.500000 0.000000 0.500000
#
# Coordination Sequence:
#
# PCOD8133283 Si02
#       8
#     8   8   8   8   4   8   8   8
#     4  10  19  34  54  79 111 137 187 226 278 323
#     4  10  19  33  50  88 107 138 180 224 277 337
#     4  11  20  36  55  81 112 148 182 233 271 336
#     4  11  19  31  56  81 109 140 185 228 277 316
#     4  10  22  30  54  80 120 138 178 226 290 330
#     4  10  21  37  54  80 114 150 180 228 280 334
#     4  11  20  35  53  82 110 147 179 236 284 333
#     4  10  19  35  55  76 116 139 185 221 280 335
#
# _framework density 18.146497
#
# number of rings (size 3 to 8) (size 9 to 14) (size 15 to 20)
#    0.000    1.600    9.333    0.000    3.733    0.000 
#    0.000    4.000    0.000    0.000    0.000    0.933 
#    0.000    0.000    0.000    0.000    0.000    0.000 
#
# Total GULP energy -371656.767607 kJ/mol
# GULP energy per Si atom -12388.558920 kJ/mol
# Density = 1.810520 g / cm^3
# Si number density = 18.146497 Si / 1000 Ang^3
#
#
#
# Elastic Constant Matrix: (Units=GPa)
#
#
# Indices 1 2 3 4 5 6 
#
# 1 50.0544 14.1757 19.6903 0.0000 -17.3758 0.0000
# 2 14.1757 113.5830 34.6316 0.0000 -8.5318 0.0000
# 3 19.6903 34.6316 92.6499 0.0000 -8.5463 0.0000
# 4 0.0000 0.0000 0.0000 27.2846 0.0000 -7.5323
# 5 -17.3758 -8.5318 -8.5463 0.0000 31.9049 0.0000
# 6 0.0000 0.0000 0.0000 -7.5323 0.0000 18.7675
#
#
#
# Elastic Compliance Matrix: (Units=1/GPa)
#
#
# Indices 1 2 3 4 5 6 
#
# 1 0.026373 -0.001097 -0.003996 0.000000 0.013000 0.000000
# 2 -0.001097 0.010073 -0.003423 0.000000 0.001179 0.000000
# 3 -0.003996 -0.003423 0.012957 0.000000 0.000379 0.000000
# 4 0.000000 0.000000 0.000000 0.041217 0.000000 0.016542
# 5 0.013000 0.001179 0.000379 0.000000 0.038840 0.000000
# 6 0.000000 0.000000 0.000000 0.016542 0.000000 0.059923
#
#
# Mechanical properties :
#
#
# Convention : Reuss Voigt Hill
#
# Bulk Modulus (GPa) = 30.89106 43.69807 37.29456
# Shear Modulus (GPa) = 23.01952 28.11071 25.56512
#
# Velocity S-wave (km/s) = 3.56552 3.94013 3.75749
# Velocity P-wave (km/s) = 5.83187 6.69571 6.27866
#
# Compressibility (1/GPa) = 0.03237183
#
# Stress axis : x y z
#
# Youngs Moduli (GPa) = 37.91696 99.27109 77.17729
#
# Poissons Ratio (x) = 0.10887 0.30840
# Poissons Ratio (y) = 0.04158 0.26421
# Poissons Ratio (z) = 0.15151 0.33985
#
# Static dielectric constant tensor:
#      x y z
#    x 3.425880 0.000000 -0.042170 
#    y 0.000000 3.412860 0.000000 
#    z -0.042170 0.000000 3.716910 
# 
# 
# High freq. dielectric constant tensor:
#      x y z
#    x 1.680760 0.000000 -0.001640 
#    y 0.000000 1.695460 0.000000 
#    z -0.001640 0.000000 1.693510 
# 
# From -- ./inp_files/172952.got.cif
#   From: 2010.06.25/outbox.cif.g09.slc.cpg/sg15_87_cif.got.tgz:172952.got - 2010.06.28 07:06:18.
