data_PCOD8133586
_publ_section_title
;
Structure prediction by ZEFSAII (Michael W. Deem and Ramdas Pophale) SiO2 
 PCOD8133586
Probable space group: C 2/C
;
_chemical_formula_sum "Si O2"
_cell_formula_units_Z 56
_cell_length_a 10.219017
_cell_length_b 15.777309
_cell_length_c 20.283051
_cell_angle_alpha 90.000000
_cell_angle_beta 59.047208
_cell_angle_gamma 90.000000
_cell_volume 2804.501886
_symmetry_space_group_name_H-M "C 2/C"
_symmetry_group_IT_number 15
_symmetry_cell_setting 'monoclinic'
loop_
_space_group_symop_operation_xyz
x,y,z
-x,y,1/2-z
-x,-y,-z
x,-y,1/2+z
1/2+x,1/2+y,z
1/2-x,1/2+y,1/2-z
1/2-x,1/2-y,-z
1/2+x,1/2-y,1/2+z
loop_
_atom_site_type_symbol
_atom_site_label
_atom_site_fract_x
_atom_site_fract_y
_atom_site_fract_z
Si Si1 0.721274 0.803392 0.336477
Si Si2 0.323680 0.108739 0.787283
Si Si3 0.304646 0.065915 0.226974
Si Si4 0.000000 0.870333 0.750000
Si Si5 0.438635 0.300042 0.899816
Si Si6 0.041894 0.537238 0.920216
Si Si7 0.736679 0.131463 0.554944
Si Si8 0.500000 0.795653 0.750000
O O1 0.741839 0.837866 0.256499
O O2 0.616678 0.718927 0.365187
O O3 0.652705 0.880142 0.398126
O O4 0.884650 0.768104 0.319177
O O5 0.500000 0.137197 0.750000
O O6 0.220476 0.129337 0.878565
O O7 0.317267 0.008028 0.777579
O O8 0.124423 0.078409 0.260290
O O9 0.396881 0.148701 0.227162
O O10 0.376019 0.037572 0.139634
O O11 0.907371 0.819041 0.830378
O O12 0.351025 0.215818 0.941443
O O13 0.380897 0.373126 0.966708
O O14 0.883422 0.555839 0.924179
O O15 0.000000 0.500000 0.000000
#
# Coordination Sequence:
#
# PCOD8133586 Si02
#       8
#     8   8   8   4   8   8   8   4
#     4  10  22  37  63  87 124 163 215 259 317 380
#     4  11  18  39  61  87 120 176 207 249 317 400
#     4  11  23  37  67  86 127 167 218 254 326 385
#     4  12  22  37  59  94 118 160 208 262 310 381
#     4  10  19  34  58  92 115 152 206 264 304 372
#     4  10  20  39  59  89 126 175 204 254 321 393
#     4  10  19  33  61  87 119 155 209 252 308 377
#     4  12  22  41  63 100 124 162 212 286 310 371
#
# _framework density 19.967897000000001
#
# number of rings (size 3 to 8) (size 9 to 14) (size 15 to 20)
#    0.000    1.429    6.429    1.714    0.000    2.286 
#    0.000    1.429    3.143    0.000    0.000    0.000 
#    0.000    0.000    0.000    0.000    0.000    0.000 
#
# Total GULP energy -346954.893770 kJ/mol
# GULP energy per Si atom -12391.246206 kJ/mol
# Density = 1.992245 g / cm^3
# Si number density = 19.967897 Si / 1000 Ang^3
#
#
#
# Elastic Constant Matrix: (Units=GPa)
#
#
# Indices 1 2 3 4 5 6 
#
# 1 85.6146 37.2964 31.5991 0.0000 -14.9414 0.0000
# 2 37.2964 65.8889 32.4373 0.0000 -11.5184 0.0000
# 3 31.5991 32.4373 140.5921 0.0000 6.7362 0.0000
# 4 0.0000 0.0000 0.0000 31.8902 0.0000 0.7732
# 5 -14.9414 -11.5184 6.7362 0.0000 26.2381 0.0000
# 6 0.0000 0.0000 0.0000 0.7732 0.0000 18.0279
#
#
#
# Elastic Compliance Matrix: (Units=1/GPa)
#
#
# Indices 1 2 3 4 5 6 
#
# 1 0.016958 -0.007104 -0.002516 0.000000 0.007184 0.000000
# 2 -0.007104 0.022277 -0.003865 0.000000 0.006726 0.000000
# 3 -0.002516 -0.003865 0.008829 0.000000 -0.005397 0.000000
# 4 0.000000 0.000000 0.000000 0.031390 0.000000 -0.001346
# 5 0.007184 0.006726 -0.005397 0.000000 0.046542 0.000000
# 6 0.000000 0.000000 0.000000 -0.001346 0.000000 0.055527
#
#
# Mechanical properties :
#
#
# Convention : Reuss Voigt Hill
#
# Bulk Modulus (GPa) = 47.41224 54.97345 51.19284
# Shear Modulus (GPa) = 23.19917 27.94878 25.57397
#
# Velocity S-wave (km/s) = 3.41225 3.74530 3.58265
# Velocity P-wave (km/s) = 6.27060 6.80395 6.54271
#
# Compressibility (1/GPa) = 0.02109160
#
# Stress axis : x y z
#
# Youngs Moduli (GPa) = 58.97083 44.88910 113.26633
#
# Poissons Ratio (x) = 0.31889 0.28503
# Poissons Ratio (y) = 0.41893 0.43781
# Poissons Ratio (z) = 0.14840 0.17351
#
# Static dielectric constant tensor:
#      x y z
#    x 2.915330 0.000000 -0.231310 
#    y 0.000000 3.795550 0.000000 
#    z -0.231310 0.000000 3.936930 
# 
# 
# High freq. dielectric constant tensor:
#      x y z
#    x 1.751040 0.000000 -0.007280 
#    y 0.000000 1.775690 0.000000 
#    z -0.007280 0.000000 1.783440 
# 
# From -- ./inp_files/232616.got.cif
#   From: 2010.06.25/outbox.cif.g09.slc.cpg/sg15_117_cif.got.tgz:232616.got - 2010.06.28 07:06:18.
