data_PCOD8133393
_publ_section_title
;
Structure prediction by ZEFSAII (Michael W. Deem and Ramdas Pophale) SiO2 
 PCOD8133393
Probable space group: C 2/C
;
_chemical_formula_sum "Si O2"
_cell_formula_units_Z 64
_cell_length_a 21.905786
_cell_length_b 27.872003
_cell_length_c 11.008094
_cell_angle_alpha 90.000000
_cell_angle_beta 150.554858
_cell_angle_gamma 90.000000
_cell_volume 3304.016435
_symmetry_space_group_name_H-M "C 2/C"
_symmetry_group_IT_number 15
_symmetry_cell_setting 'monoclinic'
loop_
_space_group_symop_operation_xyz
x,y,z
-x,y,1/2-z
-x,-y,-z
x,-y,1/2+z
1/2+x,1/2+y,z
1/2-x,1/2+y,1/2-z
1/2-x,1/2-y,-z
1/2+x,1/2-y,1/2+z
loop_
_atom_site_type_symbol
_atom_site_label
_atom_site_fract_x
_atom_site_fract_y
_atom_site_fract_z
Si Si1 0.644334 0.860167 0.521169
Si Si2 0.130192 0.525743 0.708406
Si Si3 0.389631 0.293791 0.322003
Si Si4 0.345396 0.185716 0.218146
Si Si5 0.160047 0.802219 0.759216
Si Si6 0.758058 0.789928 0.334656
Si Si7 0.938562 0.626466 0.015981
Si Si8 0.354964 0.970045 0.994584
O O1 0.693404 0.825910 0.712481
O O2 0.736224 0.844059 0.572032
O O3 0.667671 0.915785 0.586299
O O4 0.500000 0.848683 0.250000
O O5 0.112472 0.581654 0.648658
O O6 0.202548 0.502219 0.716542
O O7 0.199575 0.520780 0.961930
O O8 0.000000 0.500000 0.500000
O O9 0.391701 0.239588 0.273307
O O10 0.517011 0.320169 0.502486
O O11 0.369106 0.290152 0.430317
O O12 0.276417 0.324614 0.072312
O O13 0.454174 0.148885 0.378752
O O14 0.176154 0.758823 0.689887
O O15 0.171284 0.785480 0.916545
O O16 0.671718 0.835696 0.157754
O O17 0.000000 0.610308 0.250000
O O18 0.500000 0.982080 0.250000
#
# Coordination Sequence:
#
# PCOD8133393 Si02
#       8
#     8   8   8   8   8   8   8   8
#     4  11  22  37  59  84 118 151 191 236 293 355
#     4  10  19  33  54  85 118 147 183 240 302 365
#     4  11  23  38  51  80 115 158 204 241 282 331
#     4  11  22  35  55  78 117 158 194 239 284 342
#     4  11  23  36  59  76 114 160 199 242 282 345
#     4  11  22  37  53  82 111 155 203 239 288 339
#     4  12  21  35  57  84 121 153 190 241 304 346
#     4   9  18  34  54  83 119 143 183 234 297 361
#
# _framework density 19.370363999999999
#
# number of rings (size 3 to 8) (size 9 to 14) (size 15 to 20)
#    0.000    1.250    3.750    5.250    1.750    0.500 
#    0.000    0.000    0.000    0.000    0.000    0.875 
#   11.250    0.000    0.000    0.000    0.000    0.000 
#
# Total GULP energy -396511.101002 kJ/mol
# GULP energy per Si atom -12390.971906 kJ/mol
# Density = 1.932628 g / cm^3
# Si number density = 19.370364 Si / 1000 Ang^3
#
#
#
# Elastic Constant Matrix: (Units=GPa)
#
#
# Indices 1 2 3 4 5 6 
#
# 1 110.5004 35.7342 41.2151 0.0000 -3.2461 0.0000
# 2 35.7342 85.7873 33.0356 0.0000 4.8612 0.0000
# 3 41.2151 33.0356 69.0440 0.0000 14.9556 0.0000
# 4 0.0000 0.0000 0.0000 9.6617 0.0000 -4.4184
# 5 -3.2461 4.8612 14.9556 0.0000 38.0803 0.0000
# 6 0.0000 0.0000 0.0000 -4.4184 0.0000 31.3062
#
#
#
# Elastic Compliance Matrix: (Units=1/GPa)
#
#
# Indices 1 2 3 4 5 6 
#
# 1 0.012767 -0.002781 -0.007217 0.000000 0.004278 0.000000
# 2 -0.002781 0.014926 -0.005484 0.000000 0.000011 0.000000
# 3 -0.007217 -0.005484 0.023387 0.000000 -0.009100 0.000000
# 4 0.000000 0.000000 0.000000 0.110642 0.000000 0.015616
# 5 0.004278 0.000011 -0.009100 0.000000 0.030197 0.000000
# 6 0.000000 0.000000 0.000000 0.015616 0.000000 0.034147
#
#
# Mechanical properties :
#
#
# Convention : Reuss Voigt Hill
#
# Bulk Modulus (GPa) = 49.71278 53.92238 51.81758
# Shear Modulus (GPa) = 18.95842 26.16609 22.56225
#
# Velocity S-wave (km/s) = 3.13187 3.67935 3.41659
# Velocity P-wave (km/s) = 6.22882 6.77851 6.50947
#
# Compressibility (1/GPa) = 0.02011555
#
# Stress axis : x y z
#
# Youngs Moduli (GPa) = 78.32991 66.99521 42.75946
#
# Poissons Ratio (x) = 0.18632 0.30858
# Poissons Ratio (y) = 0.21785 0.23450
# Poissons Ratio (z) = 0.56528 0.36741
#
# Static dielectric constant tensor:
#      x y z
#    x 4.060170 0.000000 -0.276250 
#    y 0.000000 3.413390 0.000000 
#    z -0.276250 0.000000 3.286870 
# 
# 
# High freq. dielectric constant tensor:
#      x y z
#    x 1.774190 0.000000 -0.021610 
#    y 0.000000 1.737980 0.000000 
#    z -0.021610 0.000000 1.713180 
# 
# From -- ./inp_files/115023.got.cif
#   From: 2010.06.25/outbox.cif.g09.slc.cpg/sg15_58_cif.got.tgz:115023.got - 2010.06.28 07:06:18.
