data_PCOD8133303
_publ_section_title
;
Structure prediction by ZEFSAII (Michael W. Deem and Ramdas Pophale) SiO2 
 PCOD8133303
Probable space group: C 2/C
;
_chemical_formula_sum "Si O2"
_cell_formula_units_Z 64
_cell_length_a 18.570590
_cell_length_b 22.977941
_cell_length_c 11.564647
_cell_angle_alpha 90.000000
_cell_angle_beta 48.241501
_cell_angle_gamma 90.000000
_cell_volume 3681.153384
_symmetry_space_group_name_H-M "C 2/C"
_symmetry_group_IT_number 15
_symmetry_cell_setting 'monoclinic'
loop_
_space_group_symop_operation_xyz
x,y,z
-x,y,1/2-z
-x,-y,-z
x,-y,1/2+z
1/2+x,1/2+y,z
1/2-x,1/2+y,1/2-z
1/2-x,1/2-y,-z
1/2+x,1/2-y,1/2+z
loop_
_atom_site_type_symbol
_atom_site_label
_atom_site_fract_x
_atom_site_fract_y
_atom_site_fract_z
Si Si1 0.587147 0.424819 0.905457
Si Si2 0.366261 0.620226 0.894843
Si Si3 0.938937 0.777364 0.163680
Si Si4 0.605308 0.333009 0.691732
Si Si5 0.780179 0.299467 0.879609
Si Si6 0.855390 0.247121 0.155809
Si Si7 0.704475 0.660104 0.852837
Si Si8 0.872503 0.949143 0.167787
O O1 0.624913 0.381617 0.767581
O O2 0.652728 0.483181 0.826685
O O3 0.588504 0.396249 0.030635
O O4 0.475722 0.438167 0.997080
O O5 0.425425 0.676065 0.782141
O O6 0.374153 0.564458 0.803318
O O7 0.252347 0.638405 0.031513
O O8 0.893363 0.713073 0.239179
O O9 0.885478 0.805851 0.110254
O O10 0.049117 0.760397 0.023783
O O11 0.500000 0.338387 0.750000
O O12 0.620381 0.271211 0.738943
O O13 0.687924 0.338642 0.507358
O O14 0.724149 0.294410 0.817533
O O15 0.750000 0.250000 0.000000
O O16 0.808605 0.311933 0.209510
O O17 0.705881 0.593145 0.808331
#
# Coordination Sequence:
#
# PCOD8133303 Si02
#       8
#     8   8   8   8   8   8   8   8
#     4  11  22  32  53  75 104 152 178 216 277 320
#     4  10  19  33  52  75 107 138 175 223 265 317
#     4   9  19  34  53  79 109 140 173 220 270 327
#     4  12  20  34  52  75 115 149 181 220 266 333
#     4   9  19  31  49  78 107 134 177 217 267 328
#     4  11  20  34  53  79 107 153 174 218 284 318
#     4  10  21  36  52  76 115 142 184 223 265 330
#     4  10  22  34  49  76 109 141 185 224 260 326
#
# _framework density 17.385856
#
# number of rings (size 3 to 8) (size 9 to 14) (size 15 to 20)
#    0.000    1.750    3.750    2.250    3.500    1.500 
#    0.000    0.000    0.000    0.000    0.000    0.875 
#    3.750    0.000    0.000    0.000    0.000    0.000 
#
# Total GULP energy -396454.153883 kJ/mol
# GULP energy per Si atom -12389.192309 kJ/mol
# Density = 1.734628 g / cm^3
# Si number density = 17.385856 Si / 1000 Ang^3
#
#
#
# Elastic Constant Matrix: (Units=GPa)
#
#
# Indices 1 2 3 4 5 6 
#
# 1 65.5180 38.5761 41.5551 0.0000 9.0473 0.0000
# 2 38.5761 97.5801 45.5946 0.0000 -7.0639 0.0000
# 3 41.5551 45.5946 87.0365 0.0000 7.9164 0.0000
# 4 0.0000 0.0000 0.0000 27.6528 0.0000 -2.8085
# 5 9.0473 -7.0639 7.9164 0.0000 28.0233 0.0000
# 6 0.0000 0.0000 0.0000 -2.8085 0.0000 19.8319
#
#
#
# Elastic Compliance Matrix: (Units=1/GPa)
#
#
# Indices 1 2 3 4 5 6 
#
# 1 0.025347 -0.006959 -0.007751 0.000000 -0.007748 0.000000
# 2 -0.006959 0.016384 -0.005994 0.000000 0.008070 0.000000
# 3 -0.007751 -0.005994 0.018721 0.000000 -0.004297 0.000000
# 4 0.000000 0.000000 0.000000 0.036690 0.000000 0.005196
# 5 -0.007748 0.008070 -0.004297 0.000000 0.041434 0.000000
# 6 0.000000 0.000000 0.000000 0.005196 0.000000 0.051160
#
#
# Mechanical properties :
#
#
# Convention : Reuss Voigt Hill
#
# Bulk Modulus (GPa) = 52.51443 55.73180 54.12311
# Shear Modulus (GPa) = 21.05319 23.39551 22.22435
#
# Velocity S-wave (km/s) = 3.48363 3.67231 3.57921
# Velocity P-wave (km/s) = 6.81555 7.07860 6.94832
#
# Compressibility (1/GPa) = 0.01904239
#
# Stress axis : x y z
#
# Youngs Moduli (GPa) = 39.45294 61.03410 53.41522
#
# Poissons Ratio (x) = 0.42475 0.41403
# Poissons Ratio (y) = 0.27456 0.32019
# Poissons Ratio (z) = 0.30581 0.36586
#
# Static dielectric constant tensor:
#      x y z
#    x 3.269920 0.000000 0.142990 
#    y 0.000000 3.340760 0.000000 
#    z 0.142990 0.000000 3.540170 
# 
# 
# High freq. dielectric constant tensor:
#      x y z
#    x 1.657580 0.000000 0.028340 
#    y 0.000000 1.644900 0.000000 
#    z 0.028340 0.000000 1.670170 
# 
# From -- ./inp_files/107947.got.cif
#   From: 2010.06.25/outbox.cif.g09.slc.cpg/sg15_54_cif.got.tgz:107947.got - 2010.06.28 07:06:18.
