data_PCOD8133421
_publ_section_title
;
Structure prediction by ZEFSAII (Michael W. Deem and Ramdas Pophale) SiO2 
 PCOD8133421
Probable space group: C 2/C
;
_chemical_formula_sum "Si O2"
_cell_formula_units_Z 40
_cell_length_a 13.380567
_cell_length_b 10.083584
_cell_length_c 14.841869
_cell_angle_alpha 90.000000
_cell_angle_beta 89.364270
_cell_angle_gamma 90.000000
_cell_volume 2002.402125
_symmetry_space_group_name_H-M "C 2/C"
_symmetry_group_IT_number 15
_symmetry_cell_setting 'monoclinic'
loop_
_space_group_symop_operation_xyz
x,y,z
-x,y,1/2-z
-x,-y,-z
x,-y,1/2+z
1/2+x,1/2+y,z
1/2-x,1/2+y,1/2-z
1/2-x,1/2-y,-z
1/2+x,1/2-y,1/2+z
loop_
_atom_site_type_symbol
_atom_site_label
_atom_site_fract_x
_atom_site_fract_y
_atom_site_fract_z
Si Si1 0.375431 0.311291 0.090068
Si Si2 0.690346 0.413531 0.227209
Si Si3 0.099830 0.594398 0.694052
Si Si4 0.820097 0.843819 0.897817
Si Si5 0.438162 0.808732 0.842072
O O1 0.363347 0.413235 0.174052
O O2 0.297613 0.189915 0.104488
O O3 0.487217 0.250720 0.083341
O O4 0.351770 0.389836 0.997910
O O5 0.809591 0.411076 0.235224
O O6 0.654420 0.543479 0.174523
O O7 0.658300 0.284803 0.169473
O O8 0.115740 0.712735 0.623840
O O9 0.097093 0.458208 0.635535
O O10 0.000000 0.620744 0.750000
O O11 0.500000 0.814715 0.750000
#
# Coordination Sequence:
#
# PCOD8133421 Si02
#       5
#     8   8   8   8   8
#     4   9  20  37  57  81 111 145 180 220 277 326
#     4  10  19  35  57  79 109 146 180 220 272 325
#     4  10  19  33  55  80 107 143 183 223 269 318
#     4  10  20  35  59  83 107 142 185 227 265 319
#     4   9  18  34  54  75 109 147 176 217 273 321
#
# _framework density 19.976006999999999
#
# number of rings (size 3 to 8) (size 9 to 14) (size 15 to 20)
#    0.000    2.400    0.000    4.800    0.000    4.000 
#    0.000    2.000    0.000   24.000    0.000    0.000 
#    0.000    0.000    0.000    0.000    0.000    0.000 
#
# Total GULP energy -247967.663790 kJ/mol
# GULP energy per Si atom -12398.383189 kJ/mol
# Density = 1.993054 g / cm^3
# Si number density = 19.976007 Si / 1000 Ang^3
#
#
#
# Elastic Constant Matrix: (Units=GPa)
#
#
# Indices 1 2 3 4 5 6 
#
# 1 122.7747 43.7605 31.1261 0.0000 14.0592 0.0000
# 2 43.7605 120.9192 62.7505 0.0000 0.4473 0.0000
# 3 31.1261 62.7505 115.1346 0.0000 15.3141 0.0000
# 4 0.0000 0.0000 0.0000 27.1473 0.0000 -2.5491
# 5 14.0592 0.4473 15.3141 0.0000 18.1029 0.0000
# 6 0.0000 0.0000 0.0000 -2.5491 0.0000 24.4941
#
#
#
# Elastic Compliance Matrix: (Units=1/GPa)
#
#
# Indices 1 2 3 4 5 6 
#
# 1 0.010403 -0.003978 0.000470 0.000000 -0.008379 0.000000
# 2 -0.003978 0.013593 -0.007549 0.000000 0.009139 0.000000
# 3 0.000470 -0.007549 0.014306 0.000000 -0.012281 0.000000
# 4 0.000000 0.000000 0.000000 0.037200 0.000000 0.003871
# 5 -0.008379 0.009139 -0.012281 0.000000 0.071910 0.000000
# 6 0.000000 0.000000 0.000000 0.003871 0.000000 0.041229
#
#
# Mechanical properties :
#
#
# Convention : Reuss Voigt Hill
#
# Bulk Modulus (GPa) = 61.76944 70.45585 66.11264
# Shear Modulus (GPa) = 23.13205 28.69494 25.91350
#
# Velocity S-wave (km/s) = 3.40662 3.79419 3.60562
# Velocity P-wave (km/s) = 6.81633 7.38521 7.10646
#
# Compressibility (1/GPa) = 0.01618924
#
# Stress axis : x y z
#
# Youngs Moduli (GPa) = 96.12527 73.56663 69.90022
#
# Poissons Ratio (x) = 0.29263 -0.03285
# Poissons Ratio (y) = 0.38236 0.52766
# Poissons Ratio (z) = -0.04518 0.55534
#
# Static dielectric constant tensor:
#      x y z
#    x 3.801370 0.000000 0.252370 
#    y 0.000000 3.669490 0.000000 
#    z 0.252370 0.000000 3.524940 
# 
# 
# High freq. dielectric constant tensor:
#      x y z
#    x 1.782930 0.000000 0.023420 
#    y 0.000000 1.769040 0.000000 
#    z 0.023420 0.000000 1.756300 
# 
# From -- ./inp_files/150689.got.cif
#   From: 2010.06.25/outbox.cif.g09.slc.cpg/sg15_76_cif.got.tgz:150689.got - 2010.06.28 07:06:18.
