data_PCOD8133245
_publ_section_title
;
Structure prediction by ZEFSAII (Michael W. Deem and Ramdas Pophale) SiO2 
 PCOD8133245
Probable space group: C 2/C
;
_chemical_formula_sum "Si O2"
_cell_formula_units_Z 52
_cell_length_a 13.286083
_cell_length_b 17.070647
_cell_length_c 19.554642
_cell_angle_alpha 90.000000
_cell_angle_beta 144.206679
_cell_angle_gamma 90.000000
_cell_volume 2593.887001
_symmetry_space_group_name_H-M "C 2/C"
_symmetry_group_IT_number 15
_symmetry_cell_setting 'monoclinic'
loop_
_space_group_symop_operation_xyz
x,y,z
-x,y,1/2-z
-x,-y,-z
x,-y,1/2+z
1/2+x,1/2+y,z
1/2-x,1/2+y,1/2-z
1/2-x,1/2-y,-z
1/2+x,1/2-y,1/2+z
loop_
_atom_site_type_symbol
_atom_site_label
_atom_site_fract_x
_atom_site_fract_y
_atom_site_fract_z
Si Si1 0.341139 0.969026 0.804482
Si Si2 0.322384 0.804568 0.191838
Si Si3 0.795681 0.470280 0.141508
Si Si4 0.236310 0.499027 0.525660
Si Si5 0.296835 0.858121 0.326399
Si Si6 0.500000 0.608403 0.750000
Si Si7 0.161524 0.641436 0.079869
O O1 0.271498 0.897887 0.812359
O O2 0.266782 0.964949 0.685765
O O3 0.274238 0.050397 0.797566
O O4 0.547035 0.964341 0.923470
O O5 0.500000 0.805880 0.250000
O O6 0.218331 0.884556 0.117422
O O7 0.336414 0.803608 0.282413
O O8 0.229126 0.728771 0.111573
O O9 0.000000 0.458557 0.250000
O O10 0.706463 0.495969 0.022204
O O11 0.371483 0.554010 0.636680
O O12 0.230756 0.411562 0.554970
O O13 0.117151 0.835628 0.265640
O O14 0.455792 0.850694 0.465751
#
# Coordination Sequence:
#
# PCOD8133245 Si02
#       7
#     8   8   8   8   8   4   8
#     4   9  16  36  59  83 112 149 194 239 291 346
#     4  10  22  37  56  86 119 155 189 240 300 351
#     4   8  17  34  56  82 118 148 185 233 299 342
#     4  10  19  32  59  88 109 154 194 244 287 341
#     4  10  21  38  58  82 118 157 192 239 295 345
#     4  12  20  36  60  86 114 152 210 238 280 350
#     4  11  19  35  60  87 116 151 199 238 293 354
#
# _framework density 20.047132999999999
#
# number of rings (size 3 to 8) (size 9 to 14) (size 15 to 20)
#    0.000    2.154    3.077    3.692    1.077    2.462 
#    0.000    5.385    5.077    0.000    0.000    0.000 
#    0.000    0.000    0.000    0.000    0.000    0.000 
#
# Total GULP energy -322136.751952 kJ/mol
# GULP energy per Si atom -12389.875075 kJ/mol
# Density = 2.000150 g / cm^3
# Si number density = 20.047133 Si / 1000 Ang^3
#
#
#
# Elastic Constant Matrix: (Units=GPa)
#
#
# Indices 1 2 3 4 5 6 
#
# 1 132.7723 23.7335 58.7363 0.0003 -16.9638 0.0002
# 2 23.7335 30.7237 25.4581 0.0003 -8.2527 0.0001
# 3 58.7363 25.4581 65.1954 0.0014 -23.0350 0.0009
# 4 0.0003 0.0003 0.0014 7.8591 0.0005 -9.6196
# 5 -16.9638 -8.2527 -23.0350 0.0005 37.6270 0.0003
# 6 0.0002 0.0001 0.0009 -9.6196 0.0003 14.0079
#
#
#
# Elastic Compliance Matrix: (Units=1/GPa)
#
#
# Indices 1 2 3 4 5 6 
#
# 1 0.012603 -0.000426 -0.011757 0.000016 -0.001609 0.000011
# 2 -0.000426 0.048175 -0.018837 0.000016 -0.001158 0.000012
# 3 -0.011757 -0.018837 0.038221 -0.000059 0.013967 -0.000043
# 4 0.000016 0.000016 -0.000059 0.798014 -0.000040 0.548017
# 5 -0.001609 -0.001158 0.013967 -0.000040 0.034148 -0.000029
# 6 0.000011 0.000012 -0.000043 0.548017 -0.000029 0.447726
#
#
# Mechanical properties :
#
#
# Convention : Reuss Voigt Hill
#
# Bulk Modulus (GPa) = 27.05668 49.39413 38.22540
# Shear Modulus (GPa) = 3.44057 19.94971 11.69514
#
# Velocity S-wave (km/s) = 1.31148 3.15801 2.41795
# Velocity P-wave (km/s) = 3.97733 6.16359 5.18695
#
# Compressibility (1/GPa) = 0.03695945
#
# Stress axis : x y z
#
# Youngs Moduli (GPa) = 79.34453 20.75770 26.16388
#
# Poissons Ratio (x) = 0.00885 0.30760
# Poissons Ratio (y) = 0.03382 0.49285
# Poissons Ratio (z) = 0.93282 0.39101
#
# Static dielectric constant tensor:
#      x y z
#    x 4.134760 0.000000 -0.248360 
#    y 0.000000 3.426080 0.000000 
#    z -0.248360 0.000000 3.558270 
# 
# 
# High freq. dielectric constant tensor:
#      x y z
#    x 1.790150 0.000000 -0.017340 
#    y 0.000000 1.744590 0.000000 
#    z -0.017340 0.000000 1.769520 
# 
# From -- ./inp_files/245053.got.cif
#   From: 2010.06.25/outbox.cif.g09.slc.cpg/sg15_123_cif.got.tgz:245053.got - 2010.06.28 07:06:18.
