data_PCOD8133427
_publ_section_title
;
Structure prediction by ZEFSAII (Michael W. Deem and Ramdas Pophale) SiO2 
 PCOD8133427
Probable space group: C 2/C
;
_chemical_formula_sum "Si O2"
_cell_formula_units_Z 64
_cell_length_a 9.275402
_cell_length_b 20.800619
_cell_length_c 18.938340
_cell_angle_alpha 90.000000
_cell_angle_beta 87.877067
_cell_angle_gamma 90.000000
_cell_volume 3651.343809
_symmetry_space_group_name_H-M "C 2/C"
_symmetry_group_IT_number 15
_symmetry_cell_setting 'monoclinic'
loop_
_space_group_symop_operation_xyz
x,y,z
-x,y,1/2-z
-x,-y,-z
x,-y,1/2+z
1/2+x,1/2+y,z
1/2-x,1/2+y,1/2-z
1/2-x,1/2-y,-z
1/2+x,1/2-y,1/2+z
loop_
_atom_site_type_symbol
_atom_site_label
_atom_site_fract_x
_atom_site_fract_y
_atom_site_fract_z
Si Si1 0.885498 0.278172 0.379424
Si Si2 0.040464 0.670962 0.470770
Si Si3 0.354257 0.354365 0.935005
Si Si4 0.594897 0.054259 0.964868
Si Si5 0.931919 0.801853 0.086468
Si Si6 0.403986 0.497293 0.932918
Si Si7 0.910073 0.102273 0.822164
Si Si8 0.429111 0.112849 0.681281
O O1 0.905390 0.200347 0.377727
O O2 0.718603 0.296810 0.366977
O O3 0.909772 0.296827 0.458689
O O4 0.998862 0.315517 0.327035
O O5 0.914015 0.618561 0.485730
O O6 0.181372 0.637760 0.435622
O O7 0.994230 0.731300 0.423399
O O8 0.406509 0.423620 0.907449
O O9 0.410822 0.339125 0.012866
O O10 0.531108 0.070909 0.888378
O O11 0.754543 0.028449 0.959899
O O12 0.500000 0.000000 0.000000
O O13 0.048280 0.837581 0.131163
O O14 0.454035 0.538025 0.864357
O O15 0.500000 0.500000 0.000000
O O16 0.742560 0.112941 0.806963
O O17 0.000000 0.099429 0.750000
O O18 0.500000 0.081056 0.750000
#
# Coordination Sequence:
#
# PCOD8133427 Si02
#       8
#     8   8   8   8   8   8   8   8
#     4   8  16  30  53  79  98 133 173 213 257 309
#     4   8  15  29  52  80 102 132 172 210 260 304
#     4   9  15  30  53  78 108 135 169 209 265 319
#     4  10  19  33  55  82 109 138 182 226 258 319
#     4   9  16  31  54  76 104 136 168 215 264 315
#     4  11  21  33  51  81 113 144 178 218 272 323
#     4  11  23  36  52  76 106 144 182 222 272 324
#     4  10  21  36  53  79 103 139 185 222 271 324
#
# _framework density 17.527794
#
# number of rings (size 3 to 8) (size 9 to 14) (size 15 to 20)
#    0.000    2.500    2.500    2.250    0.000    1.000 
#    2.250    3.125    0.000    0.750    3.250    0.000 
#    0.000    0.000    0.000    0.000    0.000    0.000 
#
# Total GULP energy -396453.462849 kJ/mol
# GULP energy per Si atom -12389.170714 kJ/mol
# Density = 1.748790 g / cm^3
# Si number density = 17.527794 Si / 1000 Ang^3
#
#
#
# Elastic Constant Matrix: (Units=GPa)
#
#
# Indices 1 2 3 4 5 6 
#
# 1 68.1217 39.0840 41.4515 0.0000 8.7238 0.0000
# 2 39.0840 131.9460 44.8798 0.0000 1.2816 0.0000
# 3 41.4515 44.8798 85.0111 0.0000 1.0567 0.0000
# 4 0.0000 0.0000 0.0000 17.6322 0.0000 0.6826
# 5 8.7238 1.2816 1.0567 0.0000 26.6825 0.0000
# 6 0.0000 0.0000 0.0000 0.6826 0.0000 28.1652
#
#
#
# Elastic Compliance Matrix: (Units=1/GPa)
#
#
# Indices 1 2 3 4 5 6 
#
# 1 0.023408 -0.003672 -0.009387 0.000000 -0.007105 0.000000
# 2 -0.003672 0.009815 -0.003402 0.000000 0.000864 0.000000
# 3 -0.009387 -0.003402 0.018105 0.000000 0.002515 0.000000
# 4 0.000000 0.000000 0.000000 0.056768 0.000000 -0.001376
# 5 -0.007105 0.000864 0.002515 0.000000 0.039660 0.000000
# 6 0.000000 0.000000 0.000000 -0.001376 0.000000 0.035538
#
#
# Mechanical properties :
#
#
# Convention : Reuss Voigt Hill
#
# Bulk Modulus (GPa) = 54.32860 59.54548 56.93704
# Shear Modulus (GPa) = 22.48693 25.14022 23.81357
#
# Velocity S-wave (km/s) = 3.58569 3.79133 3.68994
# Velocity P-wave (km/s) = 6.94304 7.29461 7.12100
#
# Compressibility (1/GPa) = 0.01840651
#
# Stress axis : x y z
#
# Youngs Moduli (GPa) = 42.72019 101.88174 55.23303
#
# Poissons Ratio (x) = 0.37410 0.51847
# Poissons Ratio (y) = 0.15686 0.18791
# Poissons Ratio (z) = 0.40102 0.34661
#
# Static dielectric constant tensor:
#      x y z
#    x 2.980000 0.000000 -0.007110 
#    y 0.000000 6.897180 0.000000 
#    z -0.007110 0.000000 3.062680 
# 
# 
# High freq. dielectric constant tensor:
#      x y z
#    x 1.669270 0.000000 -0.004550 
#    y 0.000000 1.685400 0.000000 
#    z -0.004550 0.000000 1.649630 
# 
# From -- ./inp_files/233508.got.cif
#   From: 2010.06.25/outbox.cif.g09.slc.cpg/sg15_117_cif.got.tgz:233508.got - 2010.06.28 07:06:18.
