data_PCOD8133028
_publ_section_title
;
Structure prediction by ZEFSAII (Michael W. Deem and Ramdas Pophale) SiO2 
 PCOD8133028
Probable space group: C 2/C
;
_chemical_formula_sum "Si O2"
_cell_formula_units_Z 64
_cell_length_a 20.625732
_cell_length_b 21.324760
_cell_length_c 12.618099
_cell_angle_alpha 90.000000
_cell_angle_beta 139.398721
_cell_angle_gamma 90.000000
_cell_volume 3611.844980
_symmetry_space_group_name_H-M "C 2/C"
_symmetry_group_IT_number 15
_symmetry_cell_setting 'monoclinic'
loop_
_space_group_symop_operation_xyz
x,y,z
-x,y,1/2-z
-x,-y,-z
x,-y,1/2+z
1/2+x,1/2+y,z
1/2-x,1/2+y,1/2-z
1/2-x,1/2-y,-z
1/2+x,1/2-y,1/2+z
loop_
_atom_site_type_symbol
_atom_site_label
_atom_site_fract_x
_atom_site_fract_y
_atom_site_fract_z
Si Si1 0.205661 0.585893 0.576841
Si Si2 0.882943 0.424010 0.895203
Si Si3 0.564771 0.587989 0.633306
Si Si4 0.594511 0.706516 0.806078
Si Si5 0.300988 0.172197 0.126384
Si Si6 0.614215 0.938239 0.176794
Si Si7 0.784458 0.550521 0.484683
Si Si8 0.550083 0.454978 0.702899
O O1 0.319928 0.581308 0.753921
O O2 0.180359 0.642585 0.466651
O O3 0.143946 0.599520 0.607536
O O4 0.177246 0.521239 0.481753
O O5 0.846295 0.369297 0.774251
O O6 0.855679 0.489817 0.807642
O O7 0.826324 0.412111 0.935439
O O8 0.000341 0.423494 0.060226
O O9 0.548004 0.651745 0.676360
O O10 0.528000 0.528520 0.656373
O O11 0.499952 0.589623 0.446679
O O12 0.500000 0.735054 0.750000
O O13 0.644438 0.760908 0.797658
O O14 0.681118 0.679356 0.991448
O O15 0.673115 0.918559 0.355362
O O16 0.666838 0.557777 0.346272
O O17 0.500000 0.434882 0.750000
#
# Coordination Sequence:
#
# PCOD8133028 Si02
#       8
#     8   8   8   8   8   8   8   8
#     4   9  18  32  52  76 111 141 174 227 266 324
#     4  10  21  32  52  76 110 145 178 225 270 325
#     4   9  19  34  49  83 111 138 178 219 269 322
#     4  10  22  36  58  79 108 145 179 231 266 321
#     4  10  21  38  54  84 108 142 187 222 278 317
#     4  10  19  32  51  78 108 146 180 219 271 326
#     4  10  19  32  49  78 112 143 175 216 275 328
#     4  10  19  31  55  81 110 146 173 215 274 327
#
# _framework density 17.719476
#
# number of rings (size 3 to 8) (size 9 to 14) (size 15 to 20)
#    0.000    2.250    1.250    1.500    3.500    1.000 
#    0.000    0.000    0.000    1.500    0.000    4.375 
#    0.000    0.000    0.000    0.000    0.000    0.000 
#
# Total GULP energy -396773.046086 kJ/mol
# GULP energy per Si atom -12399.157690 kJ/mol
# Density = 1.767915 g / cm^3
# Si number density = 17.719476 Si / 1000 Ang^3
#
#
#
# Elastic Constant Matrix: (Units=GPa)
#
#
# Indices 1 2 3 4 5 6 
#
# 1 111.9794 9.9153 41.1492 0.0000 -2.2110 0.0000
# 2 9.9153 55.9913 29.3446 0.0000 -0.4094 0.0000
# 3 41.1492 29.3446 102.4481 0.0000 -13.9474 0.0000
# 4 0.0000 0.0000 0.0000 26.3881 0.0000 1.2603
# 5 -2.2110 -0.4094 -13.9474 0.0000 20.9844 0.0000
# 6 0.0000 0.0000 0.0000 1.2603 0.0000 14.6545
#
#
#
# Elastic Compliance Matrix: (Units=1/GPa)
#
#
# Indices 1 2 3 4 5 6 
#
# 1 0.010558 0.000565 -0.004672 0.000000 -0.001982 0.000000
# 2 0.000565 0.021347 -0.006901 0.000000 -0.004111 0.000000
# 3 -0.004672 -0.006901 0.014875 0.000000 0.009260 0.000000
# 4 0.000000 0.000000 0.000000 0.038052 0.000000 -0.003272
# 5 -0.001982 -0.004111 0.009260 0.000000 0.053520 0.000000
# 6 0.000000 0.000000 0.000000 -0.003272 0.000000 0.068520
#
#
# Mechanical properties :
#
#
# Convention : Reuss Voigt Hill
#
# Bulk Modulus (GPa) = 40.38361 47.91523 44.14942
# Shear Modulus (GPa) = 21.08435 25.07271 23.07853
#
# Velocity S-wave (km/s) = 3.45323 3.76570 3.61285
# Velocity P-wave (km/s) = 6.22412 6.78285 6.50948
#
# Compressibility (1/GPa) = 0.02476252
#
# Stress axis : x y z
#
# Youngs Moduli (GPa) = 94.71483 46.84606 67.22719
#
# Poissons Ratio (x) = -0.02644 0.31410
# Poissons Ratio (y) = -0.05347 0.46392
# Poissons Ratio (z) = 0.44253 0.32327
#
# Static dielectric constant tensor:
#      x y z
#    x 3.316670 0.000000 0.059260 
#    y 0.000000 3.026900 0.000000 
#    z 0.059260 0.000000 3.271310 
# 
# 
# High freq. dielectric constant tensor:
#      x y z
#    x 1.691080 0.000000 0.008790 
#    y 0.000000 1.649780 0.000000 
#    z 0.008790 0.000000 1.690720 
# 
# From -- ./inp_files/107528.got.cif
#   From: 2010.06.25/outbox.cif.g09.slc.cpg/sg15_54_cif.got.tgz:107528.got - 2010.06.28 07:06:18.
