data_PCOD8133975
_publ_section_title
;
Structure prediction by ZEFSAII (Michael W. Deem and Ramdas Pophale) SiO2 
 PCOD8133975
Probable space group: C 2/C
;
_chemical_formula_sum "Si O2"
_cell_formula_units_Z 52
_cell_length_a 28.514560
_cell_length_b 9.324016
_cell_length_c 14.938363
_cell_angle_alpha 90.000000
_cell_angle_beta 137.470898
_cell_angle_gamma 90.000000
_cell_volume 2684.705469
_symmetry_space_group_name_H-M "C 2/C"
_symmetry_group_IT_number 15
_symmetry_cell_setting 'monoclinic'
loop_
_space_group_symop_operation_xyz
x,y,z
-x,y,1/2-z
-x,-y,-z
x,-y,1/2+z
1/2+x,1/2+y,z
1/2-x,1/2+y,1/2-z
1/2-x,1/2-y,-z
1/2+x,1/2-y,1/2+z
loop_
_atom_site_type_symbol
_atom_site_label
_atom_site_fract_x
_atom_site_fract_y
_atom_site_fract_z
Si Si1 0.638198 0.287520 0.104843
Si Si2 0.155834 0.184480 0.334383
Si Si3 0.852985 0.959022 0.021277
Si Si4 0.243335 0.708196 0.592355
Si Si5 0.500000 0.467280 0.250000
Si Si6 0.008918 0.127499 0.081730
Si Si7 0.296427 0.110179 0.454043
O O1 0.681321 0.303355 0.256768
O O2 0.666752 0.156295 0.086392
O O3 0.646428 0.434091 0.061376
O O4 0.557222 0.264801 0.019315
O O5 0.218150 0.173485 0.350139
O O6 0.161233 0.328616 0.401212
O O7 0.084928 0.199054 0.176363
O O8 0.163270 0.044067 0.409298
O O9 0.928739 0.879228 0.135811
O O10 0.798630 0.836749 0.919984
O O11 0.250000 0.750000 0.500000
O O12 0.201171 0.561058 0.541964
O O13 0.512512 0.574422 0.187071
O O14 0.000000 0.000000 0.000000
#
# Coordination Sequence:
#
# PCOD8133975 Si02
#       7
#     8   8   8   8   4   8   8
#     4  10  22  37  58  87 116 151 197 245 298 348
#     4   9  18  36  60  85 110 152 196 240 297 342
#     4   9  18  36  57  83 113 145 193 244 286 355
#     4  12  22  34  57  84 115 152 196 242 297 355
#     4   8  18  34  54  84 112 142 194 242 290 328
#     4  10  19  34  63  89 116 151 205 250 285 353
#     4  10  20  36  57  87 118 152 192 246 301 357
#
# _framework density 19.368977999999998
#
# number of rings (size 3 to 8) (size 9 to 14) (size 15 to 20)
#    0.000    2.154    1.538    2.769    2.154    1.231 
#    0.000    1.538    0.000    0.923    0.000    0.000 
#    0.000    0.000    0.000    0.000    0.000    0.000 
#
# Total GULP energy -322223.246051 kJ/mol
# GULP energy per Si atom -12393.201771 kJ/mol
# Density = 1.932489 g / cm^3
# Si number density = 19.368978 Si / 1000 Ang^3
#
#
#
# Elastic Constant Matrix: (Units=GPa)
#
#
# Indices 1 2 3 4 5 6 
#
# 1 77.9250 20.8002 46.5822 0.0000 16.2409 0.0000
# 2 20.8002 94.4419 39.9166 0.0000 11.1047 0.0000
# 3 46.5822 39.9166 145.6759 0.0000 26.0622 0.0000
# 4 0.0000 0.0000 0.0000 19.1615 0.0000 1.5573
# 5 16.2409 11.1047 26.0622 0.0000 41.7221 0.0000
# 6 0.0000 0.0000 0.0000 1.5573 0.0000 20.6181
#
#
#
# Elastic Compliance Matrix: (Units=1/GPa)
#
#
# Indices 1 2 3 4 5 6 
#
# 1 0.016469 -0.001425 -0.004274 0.000000 -0.003361 0.000000
# 2 -0.001425 0.012160 -0.002698 0.000000 -0.000996 0.000000
# 3 -0.004274 -0.002698 0.009619 0.000000 -0.003627 0.000000
# 4 0.000000 0.000000 0.000000 0.052510 0.000000 -0.003966
# 5 -0.003361 -0.000996 -0.003627 0.000000 0.027807 0.000000
# 6 0.000000 0.000000 0.000000 -0.003966 0.000000 0.048801
#
#
# Mechanical properties :
#
#
# Convention : Reuss Voigt Hill
#
# Bulk Modulus (GPa) = 46.61300 59.18230 52.89765
# Shear Modulus (GPa) = 26.13522 30.34994 28.24258
#
# Velocity S-wave (km/s) = 3.67731 3.96275 3.82270
# Velocity P-wave (km/s) = 6.49217 7.18048 6.84498
#
# Compressibility (1/GPa) = 0.02145324
#
# Stress axis : x y z
#
# Youngs Moduli (GPa) = 60.72017 82.23759 103.95592
#
# Poissons Ratio (x) = 0.11722 0.44434
# Poissons Ratio (y) = 0.08655 0.28046
# Poissons Ratio (z) = 0.25953 0.22187
#
# Static dielectric constant tensor:
#      x y z
#    x 3.874990 0.000000 0.406130 
#    y 0.000000 3.375900 0.000000 
#    z 0.406130 0.000000 3.942310 
# 
# 
# High freq. dielectric constant tensor:
#      x y z
#    x 1.761020 0.000000 0.006970 
#    y 0.000000 1.710910 0.000000 
#    z 0.006970 0.000000 1.765530 
# 
# From -- ./inp_files/181246.got.cif
#   From: 2010.06.25/outbox.cif.g09.slc.cpg/sg15_91_cif.got.tgz:181246.got - 2010.06.28 07:06:18.
