data_PCOD8133349
_publ_section_title
;
Structure prediction by ZEFSAII (Michael W. Deem and Ramdas Pophale) SiO2 
 PCOD8133349
Probable space group: C 2/C
;
_chemical_formula_sum "Si O2"
_cell_formula_units_Z 60
_cell_length_a 21.672393
_cell_length_b 12.608217
_cell_length_c 19.374221
_cell_angle_alpha 90.000000
_cell_angle_beta 35.645102
_cell_angle_gamma 90.000000
_cell_volume 3085.152574
_symmetry_space_group_name_H-M "C 2/C"
_symmetry_group_IT_number 15
_symmetry_cell_setting 'monoclinic'
loop_
_space_group_symop_operation_xyz
x,y,z
-x,y,1/2-z
-x,-y,-z
x,-y,1/2+z
1/2+x,1/2+y,z
1/2-x,1/2+y,1/2-z
1/2-x,1/2-y,-z
1/2+x,1/2-y,1/2+z
loop_
_atom_site_type_symbol
_atom_site_label
_atom_site_fract_x
_atom_site_fract_y
_atom_site_fract_z
Si Si1 0.352829 0.649322 0.470343
Si Si2 0.500000 0.186479 0.250000
Si Si3 0.703155 0.422556 0.952484
Si Si4 0.809620 0.588595 0.497836
Si Si5 0.763482 0.136881 0.403013
Si Si6 0.163870 0.755947 0.204826
Si Si7 0.558978 0.394254 0.861587
Si Si8 0.496647 0.369216 0.065492
O O1 0.292412 0.549867 0.562239
O O2 0.308415 0.759548 0.538461
O O3 0.341807 0.643701 0.397706
O O4 0.474759 0.639869 0.380180
O O5 0.430636 0.113952 0.366102
O O6 0.580692 0.261204 0.217501
O O7 0.791989 0.364061 0.824725
O O8 0.728403 0.394536 0.008436
O O9 0.589671 0.371341 0.037752
O O10 0.809642 0.467183 0.523939
O O11 0.763445 0.665960 0.599226
O O12 0.828064 0.132826 0.273276
O O13 0.097724 0.787396 0.332382
O O14 0.558311 0.516689 0.883271
O O15 0.540722 0.333555 0.950592
#
# Coordination Sequence:
#
# PCOD8133349 Si02
#       8
#     8   4   8   8   8   8   8   8
#     4   9  20  36  54  80 101 138 179 223 274 309
#     4  10  20  32  50  84 122 132 168 220 278 324
#     4   9  19  33  52  78 109 135 175 216 269 316
#     4  10  19  33  53  83 107 144 171 218 269 321
#     4  10  19  37  57  78 105 138 182 221 267 319
#     4  11  18  32  54  80 110 141 172 212 268 327
#     4  10  20  36  54  77 106 139 182 228 257 312
#     4  10  20  33  54  79 106 142 180 218 263 313
#
# _framework density 19.447984000000002
#
# number of rings (size 3 to 8) (size 9 to 14) (size 15 to 20)
#    0.000    2.133    1.333    3.600    0.000    1.067 
#    9.600    0.000    0.000    0.800    0.000    0.000 
#    0.000    0.000    0.000    0.000    0.000    0.000 
#
# Total GULP energy -371828.599003 kJ/mol
# GULP energy per Si atom -12394.286633 kJ/mol
# Density = 1.940372 g / cm^3
# Si number density = 19.447984 Si / 1000 Ang^3
#
#
#
# Elastic Constant Matrix: (Units=GPa)
#
#
# Indices 1 2 3 4 5 6 
#
# 1 18.2187 14.2215 13.4262 0.0000 2.0921 0.0000
# 2 14.2215 102.7964 59.4025 0.0000 2.8600 0.0000
# 3 13.4262 59.4025 145.7508 0.0000 13.5706 0.0000
# 4 0.0000 0.0000 0.0000 33.7622 0.0000 -1.9360
# 5 2.0921 2.8600 13.5706 0.0000 24.7454 0.0000
# 6 0.0000 0.0000 0.0000 -1.9360 0.0000 16.7378
#
#
#
# Elastic Compliance Matrix: (Units=1/GPa)
#
#
# Indices 1 2 3 4 5 6 
#
# 1 0.062687 -0.007083 -0.002603 0.000000 -0.003053 0.000000
# 2 -0.007083 0.013575 -0.005047 0.000000 0.001798 0.000000
# 3 -0.002603 -0.005047 0.009572 0.000000 -0.004446 0.000000
# 4 0.000000 0.000000 0.000000 0.029817 0.000000 0.003449
# 5 -0.003053 0.001798 -0.004446 0.000000 0.042900 0.000000
# 6 0.000000 0.000000 0.000000 0.003449 0.000000 0.060144
#
#
# Mechanical properties :
#
#
# Convention : Reuss Voigt Hill
#
# Bulk Modulus (GPa) = 17.74131 48.98514 33.36323
# Shear Modulus (GPa) = 18.73005 27.03014 22.88010
#
# Velocity S-wave (km/s) = 3.10673 3.73214 3.43370
# Velocity P-wave (km/s) = 4.69162 6.61923 5.73696
#
# Compressibility (1/GPa) = 0.05636562
#
# Stress axis : x y z
#
# Youngs Moduli (GPa) = 15.95224 73.66702 104.47209
#
# Poissons Ratio (x) = 0.52179 0.27199
# Poissons Ratio (y) = 0.11299 0.52731
# Poissons Ratio (z) = 0.04153 0.37183
#
# Static dielectric constant tensor:
#      x y z
#    x 3.348100 0.000000 0.047080 
#    y 0.000000 3.604780 0.000000 
#    z 0.047080 0.000000 3.559400 
# 
# 
# High freq. dielectric constant tensor:
#      x y z
#    x 1.730700 0.000000 -0.003400 
#    y 0.000000 1.752260 0.000000 
#    z -0.003400 0.000000 1.752170 
# 
# From -- ./inp_files/255541.got.cif
#   From: 2010.06.25/outbox.cif.g09.slc.cpg/sg15_128_cif.got.tgz:255541.got - 2010.06.28 07:06:18.
