data_PCOD8133301
_publ_section_title
;
Structure prediction by ZEFSAII (Michael W. Deem and Ramdas Pophale) SiO2 
 PCOD8133301
Probable space group: C 2/C
;
_chemical_formula_sum "Si O2"
_cell_formula_units_Z 64
_cell_length_a 14.272918
_cell_length_b 28.237564
_cell_length_c 13.804446
_cell_angle_alpha 90.000000
_cell_angle_beta 140.141564
_cell_angle_gamma 90.000000
_cell_volume 3565.697267
_symmetry_space_group_name_H-M "C 2/C"
_symmetry_group_IT_number 15
_symmetry_cell_setting 'monoclinic'
loop_
_space_group_symop_operation_xyz
x,y,z
-x,y,1/2-z
-x,-y,-z
x,-y,1/2+z
1/2+x,1/2+y,z
1/2-x,1/2+y,1/2-z
1/2-x,1/2-y,-z
1/2+x,1/2-y,1/2+z
loop_
_atom_site_type_symbol
_atom_site_label
_atom_site_fract_x
_atom_site_fract_y
_atom_site_fract_z
Si Si1 0.690300 0.063563 0.004146
Si Si2 0.196465 0.293454 0.816638
Si Si3 0.126954 0.605934 0.550904
Si Si4 0.141959 0.441269 0.251815
Si Si5 0.293795 0.112297 0.292151
Si Si6 0.830778 0.968645 0.106863
Si Si7 0.134513 0.292728 0.988513
Si Si8 0.158073 0.977863 0.606294
O O1 0.709513 0.109152 0.091395
O O2 0.795691 0.020644 0.124798
O O3 0.526141 0.043096 0.873063
O O4 0.718856 0.076272 0.913442
O O5 0.251805 0.337351 0.792575
O O6 0.203572 0.302685 0.937522
O O7 0.035066 0.280042 0.654723
O O8 0.298262 0.247488 0.887946
O O9 0.152170 0.601763 0.685402
O O10 0.229856 0.571759 0.571246
O O11 0.170883 0.659553 0.571681
O O12 0.956633 0.598069 0.385160
O O13 0.224703 0.484186 0.262497
O O14 0.174430 0.073535 0.166480
O O15 0.000000 0.955104 0.250000
O O16 0.794853 0.971736 0.966553
O O17 0.000000 0.000000 0.500000
#
# Coordination Sequence:
#
# PCOD8133301 Si02
#       8
#     8   8   8   8   8   8   8   8
#     4   9  18  32  51  70  97 135 172 207 242 297
#     4   9  18  34  53  75  99 130 166 209 264 310
#     4  10  19  33  52  74  99 133 174 210 252 302
#     4   9  18  32  49  72  98 131 172 206 247 292
#     4  10  19  33  54  72  98 136 175 207 248 309
#     4  11  21  32  46  72 106 138 169 209 252 299
#     4   9  18  34  52  75 101 128 165 213 260 314
#     4  11  21  32  46  72 107 137 170 206 247 299
#
# _framework density 17.948805
#
# number of rings (size 3 to 8) (size 9 to 14) (size 15 to 20)
#    0.000    2.250    0.000    3.750    0.000    4.500 
#    9.000    0.000    0.000    0.750    0.000    0.000 
#    0.000    0.000    0.000    0.000    0.000    0.000 
#
# Total GULP energy -396427.606502 kJ/mol
# GULP energy per Si atom -12388.362703 kJ/mol
# Density = 1.790795 g / cm^3
# Si number density = 17.948805 Si / 1000 Ang^3
#
#
#
# Elastic Constant Matrix: (Units=GPa)
#
#
# Indices 1 2 3 4 5 6 
#
# 1 74.9281 54.0213 29.6502 0.0000 -2.6208 0.0000
# 2 54.0213 131.6397 60.5327 0.0000 -10.5906 0.0000
# 3 29.6502 60.5327 60.1866 0.0000 -3.3198 0.0000
# 4 0.0000 0.0000 0.0000 32.7073 0.0000 -1.9173
# 5 -2.6208 -10.5906 -3.3198 0.0000 19.9398 0.0000
# 6 0.0000 0.0000 0.0000 -1.9173 0.0000 27.6852
#
#
#
# Elastic Compliance Matrix: (Units=1/GPa)
#
#
# Indices 1 2 3 4 5 6 
#
# 1 0.019258 -0.006742 -0.002790 0.000000 -0.001514 0.000000
# 2 -0.006742 0.017045 -0.013495 0.000000 0.005920 0.000000
# 3 -0.002790 -0.013495 0.031436 0.000000 -0.002301 0.000000
# 4 0.000000 0.000000 0.000000 0.030699 0.000000 0.002126
# 5 -0.001514 0.005920 -0.002301 0.000000 0.052713 0.000000
# 6 0.000000 0.000000 0.000000 0.002126 0.000000 0.036268
#
#
# Mechanical properties :
#
#
# Convention : Reuss Voigt Hill
#
# Bulk Modulus (GPa) = 46.11677 61.68473 53.90075
# Shear Modulus (GPa) = 20.77270 24.23647 22.50459
#
# Velocity S-wave (km/s) = 3.40565 3.67864 3.54477
# Velocity P-wave (km/s) = 6.41980 7.24464 6.84466
#
# Compressibility (1/GPa) = 0.02168408
#
# Stress axis : x y z
#
# Youngs Moduli (GPa) = 51.92683 58.66833 31.81114
#
# Poissons Ratio (x) = 0.39552 0.08876
# Poissons Ratio (y) = 0.35007 0.42930
# Poissons Ratio (z) = 0.14489 0.79174
#
# Static dielectric constant tensor:
#      x y z
#    x 3.393020 0.000000 -0.105440 
#    y 0.000000 3.215660 0.000000 
#    z -0.105440 0.000000 3.384810 
# 
# 
# High freq. dielectric constant tensor:
#      x y z
#    x 1.691590 0.000000 -0.007050 
#    y 0.000000 1.667760 0.000000 
#    z -0.007050 0.000000 1.700410 
# 
# From -- ./inp_files/157097.got.cif
#   From: 2010.06.25/outbox.cif.g09.slc.cpg/sg15_79_cif.got.tgz:157097.got - 2010.06.28 07:06:18.
