data_PCOD8133911
_publ_section_title
;
Structure prediction by ZEFSAII (Michael W. Deem and Ramdas Pophale) SiO2 
 PCOD8133911
Probable space group: C 2/C
;
_chemical_formula_sum "Si O2"
_cell_formula_units_Z 56
_cell_length_a 20.472017
_cell_length_b 26.386540
_cell_length_c 5.530812
_cell_angle_alpha 90.000000
_cell_angle_beta 59.332527
_cell_angle_gamma 90.000000
_cell_volume 2569.816511
_symmetry_space_group_name_H-M "C 2/C"
_symmetry_group_IT_number 15
_symmetry_cell_setting 'monoclinic'
loop_
_space_group_symop_operation_xyz
x,y,z
-x,y,1/2-z
-x,-y,-z
x,-y,1/2+z
1/2+x,1/2+y,z
1/2-x,1/2+y,1/2-z
1/2-x,1/2-y,-z
1/2+x,1/2-y,1/2+z
loop_
_atom_site_type_symbol
_atom_site_label
_atom_site_fract_x
_atom_site_fract_y
_atom_site_fract_z
Si Si1 0.042035 0.325099 0.428173
Si Si2 0.701663 0.869337 0.162588
Si Si3 0.709299 0.979541 0.299886
Si Si4 0.846389 0.133139 0.067763
Si Si5 0.291041 0.706522 0.783433
Si Si6 0.428730 0.284626 0.720798
Si Si7 0.619735 0.519306 0.538314
O O1 0.116713 0.358595 0.234940
O O2 0.053962 0.265443 0.468990
O O3 0.000000 0.329838 0.250000
O O4 0.000000 0.346881 0.750000
O O5 0.703797 0.918955 0.327460
O O6 0.724172 0.819229 0.262463
O O7 0.762721 0.876875 0.834359
O O8 0.670104 0.001541 0.620339
O O9 0.795747 0.997360 0.129587
O O10 0.905145 0.165414 0.117481
O O11 0.884657 0.079805 0.937845
O O12 0.835633 0.163728 0.844383
O O13 0.355006 0.733865 0.506574
O O14 0.250000 0.750000 0.000000
O O15 0.500000 0.300533 0.750000
O O16 0.579631 0.498302 0.860964
#
# Coordination Sequence:
#
# PCOD8133911 Si02
#       7
#     8   8   8   8   8   8   8
#     4  11  27  45  65  89 130 181 218 262 323 397
#     4  11  23  38  64  96 128 165 222 270 326 384
#     4  10  19  34  59  93 123 164 202 264 325 383
#     4  11  22  36  66  97 126 167 218 271 323 385
#     4  11  23  37  64  98 128 163 218 281 322 374
#     4  10  25  42  61  91 132 179 215 261 328 397
#     4  10  19  35  58  94 127 160 203 264 325 382
#
# _framework density 21.791437999999999
#
# number of rings (size 3 to 8) (size 9 to 14) (size 15 to 20)
#    0.000    1.429    2.857    3.429   12.000    2.286 
#    0.000    0.000    0.000    3.429    0.000    0.000 
#    0.000    0.000    0.000    0.000    0.000    0.000 
#
# Total GULP energy -346983.998847 kJ/mol
# GULP energy per Si atom -12392.285673 kJ/mol
# Density = 2.174184 g / cm^3
# Si number density = 21.791438 Si / 1000 Ang^3
#
#
#
# Elastic Constant Matrix: (Units=GPa)
#
#
# Indices 1 2 3 4 5 6 
#
# 1 104.6362 7.0285 76.2451 0.0000 -42.2096 0.0000
# 2 7.0285 50.7800 1.6396 0.0000 -3.1285 0.0000
# 3 76.2451 1.6396 151.8195 0.0000 -16.6976 0.0000
# 4 0.0000 0.0000 0.0000 34.7533 0.0000 15.8801
# 5 -42.2096 -3.1285 -16.6976 0.0000 67.6961 0.0000
# 6 0.0000 0.0000 0.0000 15.8801 0.0000 31.5425
#
#
#
# Elastic Compliance Matrix: (Units=1/GPa)
#
#
# Indices 1 2 3 4 5 6 
#
# 1 0.020602 -0.001909 -0.009172 0.000000 0.010495 0.000000
# 2 -0.001909 0.019928 0.000734 0.000000 -0.000088 0.000000
# 3 -0.009172 0.000734 0.010854 0.000000 -0.003007 0.000000
# 4 0.000000 0.000000 0.000000 0.037371 0.000000 -0.018815
# 5 0.010495 -0.000088 -0.003007 0.000000 0.020570 0.000000
# 6 0.000000 0.000000 0.000000 -0.018815 0.000000 0.041176
#
#
# Mechanical properties :
#
#
# Convention : Reuss Voigt Hill
#
# Bulk Modulus (GPa) = 32.58329 53.00689 42.79509
# Shear Modulus (GPa) = 27.55973 41.61987 34.58980
#
# Velocity S-wave (km/s) = 3.56013 4.37500 3.98843
# Velocity P-wave (km/s) = 5.64660 7.06387 6.39462
#
# Compressibility (1/GPa) = 0.03069058
#
# Stress axis : x y z
#
# Youngs Moduli (GPa) = 48.53939 50.18099 92.13109
#
# Poissons Ratio (x) = 0.09578 0.84498
# Poissons Ratio (y) = 0.09265 -0.06760
# Poissons Ratio (z) = 0.44518 -0.03682
#
# Static dielectric constant tensor:
#      x y z
#    x 3.933200 0.000000 0.525900 
#    y 0.000000 2.874930 0.000000 
#    z 0.525900 0.000000 4.596590 
# 
# 
# High freq. dielectric constant tensor:
#      x y z
#    x 1.838510 0.000000 0.019940 
#    y 0.000000 1.861320 0.000000 
#    z 0.019940 0.000000 1.856310 
# 
# From -- ./inp_files/11499.got.cif
#   From: 2010.06.25/outbox.cif.g09.slc.cpg/sg15_6_cif.got.tgz:11499.got - 2010.06.28 07:06:18.
