data_PCOD8133365
_publ_section_title
;
Structure prediction by ZEFSAII (Michael W. Deem and Ramdas Pophale) SiO2 
 PCOD8133365
Probable space group: C 2/C
;
_chemical_formula_sum "Si O2"
_cell_formula_units_Z 40
_cell_length_a 8.115544
_cell_length_b 31.681565
_cell_length_c 10.841184
_cell_angle_alpha 90.000000
_cell_angle_beta 134.310453
_cell_angle_gamma 90.000000
_cell_volume 1994.574457
_symmetry_space_group_name_H-M "C 2/C"
_symmetry_group_IT_number 15
_symmetry_cell_setting 'monoclinic'
loop_
_space_group_symop_operation_xyz
x,y,z
-x,y,1/2-z
-x,-y,-z
x,-y,1/2+z
1/2+x,1/2+y,z
1/2-x,1/2+y,1/2-z
1/2-x,1/2-y,-z
1/2+x,1/2-y,1/2+z
loop_
_atom_site_type_symbol
_atom_site_label
_atom_site_fract_x
_atom_site_fract_y
_atom_site_fract_z
Si Si1 0.856064 0.196661 0.798961
Si Si2 0.499556 0.954041 0.555374
Si Si3 0.008195 0.771380 0.884541
Si Si4 0.885557 0.045675 0.439017
Si Si5 0.306229 0.602862 0.753045
O O1 0.677219 0.234274 0.705714
O O2 0.734713 0.150996 0.744450
O O3 0.000000 0.200546 0.750000
O O4 0.017834 0.200160 0.006295
O O5 0.308437 0.952322 0.559652
O O6 0.756331 0.944243 0.741868
O O7 0.427981 0.920462 0.412480
O O8 0.500000 0.000000 0.500000
O O9 0.000000 0.797585 0.750000
O O10 0.250000 0.750000 0.000000
O O11 0.086037 0.079992 0.569841
O O12 0.000000 0.000000 0.500000
O O13 0.500000 0.601763 0.750000
#
# Coordination Sequence:
#
# PCOD8133365 Si02
#       5
#     8   8   8   8   8
#     4  10  19  36  61  86 109 145 195 238 279 347
#     4  10  19  33  54  77 107 148 185 226 283 329
#     4   9  19  37  58  79 115 150 175 225 299 350
#     4  10  19  33  54  77 108 146 187 228 278 333
#     4   9  19  35  54  80 113 141 183 242 281 322
#
# _framework density 20.054402
#
# number of rings (size 3 to 8) (size 9 to 14) (size 15 to 20)
#    0.000    2.400    2.000    0.600    0.000    0.000 
#    7.200    6.000    0.000    0.000    0.000    0.000 
#    0.000    0.000    0.000    0.000    0.000    0.000 
#
# Total GULP energy -247763.040052 kJ/mol
# GULP energy per Si atom -12388.152003 kJ/mol
# Density = 2.000876 g / cm^3
# Si number density = 20.054402 Si / 1000 Ang^3
#
#
#
# Elastic Constant Matrix: (Units=GPa)
#
#
# Indices 1 2 3 4 5 6 
#
# 1 51.1585 21.4590 38.5045 0.0000 -17.1511 0.0000
# 2 21.4590 126.2018 69.5251 0.0000 -15.4097 0.0000
# 3 38.5045 69.5251 186.7371 0.0000 -24.0188 0.0000
# 4 0.0000 0.0000 0.0000 35.2296 0.0000 3.2160
# 5 -17.1511 -15.4097 -24.0188 0.0000 33.4395 0.0000
# 6 0.0000 0.0000 0.0000 3.2160 0.0000 17.1820
#
#
#
# Elastic Compliance Matrix: (Units=1/GPa)
#
#
# Indices 1 2 3 4 5 6 
#
# 1 0.026240 -0.001200 -0.003640 0.000000 0.010291 0.000000
# 2 -0.001200 0.010162 -0.003320 0.000000 0.001683 0.000000
# 3 -0.003640 -0.003320 0.007608 0.000000 0.002067 0.000000
# 4 0.000000 0.000000 0.000000 0.028879 0.000000 -0.005405
# 5 0.010291 0.001683 0.002067 0.000000 0.037444 0.000000
# 6 0.000000 0.000000 0.000000 -0.005405 0.000000 0.059212
#
#
# Mechanical properties :
#
#
# Convention : Reuss Voigt Hill
#
# Bulk Modulus (GPa) = 36.11327 69.23051 52.67189
# Shear Modulus (GPa) = 25.62862 32.81081 29.21971
#
# Velocity S-wave (km/s) = 3.57873 4.04925 3.82124
# Velocity P-wave (km/s) = 5.92648 7.51387 6.76688
#
# Compressibility (1/GPa) = 0.02769065
#
# Stress axis : x y z
#
# Youngs Moduli (GPa) = 38.10923 98.40432 131.44722
#
# Poissons Ratio (x) = 0.11807 0.47851
# Poissons Ratio (y) = 0.04572 0.43636
# Poissons Ratio (z) = 0.13873 0.32667
#
# Static dielectric constant tensor:
#      x y z
#    x 3.667970 0.000000 -0.526800 
#    y 0.000000 3.571910 0.000000 
#    z -0.526800 0.000000 4.907300 
# 
# 
# High freq. dielectric constant tensor:
#      x y z
#    x 1.766730 0.000000 -0.011730 
#    y 0.000000 1.765750 0.000000 
#    z -0.011730 0.000000 1.804020 
# 
# From -- ./inp_files/24517.got.cif
#   From: 2010.06.25/outbox.cif.g09.slc.cpg/sg15_13_cif.got.tgz:24517.got - 2010.06.28 07:06:18.
