data_PCOD8133250
_publ_section_title
;
Structure prediction by ZEFSAII (Michael W. Deem and Ramdas Pophale) SiO2 
 PCOD8133250
Probable space group: C 2/C
;
_chemical_formula_sum "Si O2"
_cell_formula_units_Z 48
_cell_length_a 25.237832
_cell_length_b 18.456597
_cell_length_c 16.794409
_cell_angle_alpha 90.000000
_cell_angle_beta 161.492779
_cell_angle_gamma 90.000000
_cell_volume 2483.181103
_symmetry_space_group_name_H-M "C 2/C"
_symmetry_group_IT_number 15
_symmetry_cell_setting 'monoclinic'
loop_
_space_group_symop_operation_xyz
x,y,z
-x,y,1/2-z
-x,-y,-z
x,-y,1/2+z
1/2+x,1/2+y,z
1/2-x,1/2+y,1/2-z
1/2-x,1/2-y,-z
1/2+x,1/2-y,1/2+z
loop_
_atom_site_type_symbol
_atom_site_label
_atom_site_fract_x
_atom_site_fract_y
_atom_site_fract_z
Si Si1 0.283579 0.382380 0.009474
Si Si2 0.500000 0.506281 0.250000
Si Si3 0.556662 0.237357 0.745448
Si Si4 0.989635 0.309508 0.982230
Si Si5 0.000000 0.234145 0.750000
Si Si6 0.661823 0.628722 0.577837
Si Si7 0.708665 0.329803 0.312275
O O1 0.373605 0.458029 0.121458
O O2 0.411360 0.315647 0.188510
O O3 0.233633 0.379196 0.030945
O O4 0.132374 0.369073 0.732214
O O5 0.620492 0.552333 0.478703
O O6 0.500000 0.201098 0.750000
O O7 0.472820 0.189631 0.555106
O O8 0.492195 0.319059 0.656899
O O9 0.750000 0.250000 0.000000
O O10 0.943580 0.227293 0.888531
O O11 0.176238 0.331737 0.226512
O O12 0.868222 0.281955 0.513372
O O13 0.674746 0.615656 0.691254
#
# Coordination Sequence:
#
# PCOD8133250 Si02
#       7
#     8   4   8   8   4   8   8
#     4  10  21  36  55  84 117 152 189 243 291 357
#     4  11  24  40  52  72 122 165 200 238 288 361
#     4  11  20  37  61  91 123 152 194 241 297 351
#     4  10  20  35  62  91 113 149 191 250 305 346
#     4   9  16  34  56  86 118 137 176 246 312 339
#     4  11  21  37  59  83 117 161 191 240 298 352
#     4  10  19  32  61  88 113 144 193 248 300 354
#
# _framework density 19.330044999999998
#
# number of rings (size 3 to 8) (size 9 to 14) (size 15 to 20)
#    0.000    1.667    2.500    4.000    0.000    2.667 
#    0.000    0.000    3.667    0.000    0.000    0.000 
#    0.000    0.000    0.000    0.000    0.000    0.000 
#
# Total GULP energy -297362.187128 kJ/mol
# GULP energy per Si atom -12390.091130 kJ/mol
# Density = 1.928605 g / cm^3
# Si number density = 19.330045 Si / 1000 Ang^3
#
#
#
# Elastic Constant Matrix: (Units=GPa)
#
#
# Indices 1 2 3 4 5 6 
#
# 1 134.3076 45.4476 64.1469 0.0000 -22.6562 0.0000
# 2 45.4476 86.2950 49.7581 0.0000 -7.1639 0.0000
# 3 64.1469 49.7581 118.5335 0.0000 -1.2651 0.0000
# 4 0.0000 0.0000 0.0000 18.0291 0.0000 3.9781
# 5 -22.6562 -7.1639 -1.2651 0.0000 42.7351 0.0000
# 6 0.0000 0.0000 0.0000 3.9781 0.0000 11.7046
#
#
#
# Elastic Compliance Matrix: (Units=1/GPa)
#
#
# Indices 1 2 3 4 5 6 
#
# 1 0.011800 -0.002769 -0.005163 0.000000 0.005639 0.000000
# 2 -0.002769 0.016183 -0.005283 0.000000 0.001088 0.000000
# 3 -0.005163 -0.005283 0.013414 0.000000 -0.003226 0.000000
# 4 0.000000 0.000000 0.000000 0.059962 0.000000 -0.020379
# 5 0.005639 0.001088 -0.003226 0.000000 0.026476 0.000000
# 6 0.000000 0.000000 0.000000 -0.020379 0.000000 0.092363
#
#
# Mechanical properties :
#
#
# Convention : Reuss Voigt Hill
#
# Bulk Modulus (GPa) = 66.81828 73.09349 69.95588
# Shear Modulus (GPa) = 19.87138 26.47933 23.17536
#
# Velocity S-wave (km/s) = 3.20973 3.70517 3.46631
# Velocity P-wave (km/s) = 6.95547 7.49666 7.23113
#
# Compressibility (1/GPa) = 0.01496597
#
# Stress axis : x y z
#
# Youngs Moduli (GPa) = 84.74741 61.79227 74.54975
#
# Poissons Ratio (x) = 0.17112 0.38490
# Poissons Ratio (y) = 0.23469 0.39386
# Poissons Ratio (z) = 0.43755 0.32646
#
# Static dielectric constant tensor:
#      x y z
#    x -24.839690 0.000000 -2.059300 
#    y 0.000000 3.151850 0.000000 
#    z -2.059300 0.000000 3.601510 
# 
# 
# High freq. dielectric constant tensor:
#      x y z
#    x 1.765180 0.000000 -0.009300 
#    y 0.000000 1.703620 0.000000 
#    z -0.009300 0.000000 1.768560 
# 
# From -- ./inp_files/222901.got.cif
#   From: 2010.06.25/outbox.cif.g09.slc.cpg/sg15_112_cif.got.tgz:222901.got - 2010.06.28 07:06:18.
