data_PCOD8133340
_publ_section_title
;
Structure prediction by ZEFSAII (Michael W. Deem and Ramdas Pophale) SiO2 
 PCOD8133340
Probable space group: C 2/C
;
_chemical_formula_sum "Si O2"
_cell_formula_units_Z 48
_cell_length_a 18.191040
_cell_length_b 18.492701
_cell_length_c 15.971250
_cell_angle_alpha 90.000000
_cell_angle_beta 28.643233
_cell_angle_gamma 90.000000
_cell_volume 2575.451235
_symmetry_space_group_name_H-M "C 2/C"
_symmetry_group_IT_number 15
_symmetry_cell_setting 'monoclinic'
loop_
_space_group_symop_operation_xyz
x,y,z
-x,y,1/2-z
-x,-y,-z
x,-y,1/2+z
1/2+x,1/2+y,z
1/2-x,1/2+y,1/2-z
1/2-x,1/2-y,-z
1/2+x,1/2-y,1/2+z
loop_
_atom_site_type_symbol
_atom_site_label
_atom_site_fract_x
_atom_site_fract_y
_atom_site_fract_z
Si Si1 0.417817 0.575873 0.064708
Si Si2 0.461114 0.329119 0.193464
Si Si3 0.379174 0.293124 0.708662
Si Si4 0.359119 0.202279 0.566452
Si Si5 0.569519 0.829250 0.092209
Si Si6 0.556855 0.920010 0.947368
O O1 0.466824 0.636115 0.084686
O O2 0.234634 0.576142 0.246572
O O3 0.500000 0.500000 0.000000
O O4 0.472713 0.600909 0.919255
O O5 0.500000 0.344951 0.250000
O O6 0.282669 0.322738 0.348251
O O7 0.539873 0.254624 0.090361
O O8 0.307952 0.244927 0.702892
O O9 0.502494 0.248433 0.635932
O O10 0.252188 0.317605 0.903576
O O11 0.463415 0.131924 0.478701
O O12 0.500000 0.854509 0.250000
O O13 0.524525 0.892059 0.073123
O O14 0.500000 0.000000 0.000000
#
# Coordination Sequence:
#
# PCOD8133340 Si02
#       6
#     8   8   8   8   8   8
#     4  10  20  37  56  77 107 145 183 220 268 332
#     4  11  21  35  56  84 110 138 180 233 275 316
#     4   9  18  33  55  78 104 141 176 211 266 324
#     4  10  19  35  57  80 110 146 182 218 269 334
#     4  10  19  33  53  80 106 131 174 226 265 307
#     4  10  21  37  56  77 106 149 185 214 267 333
#
# _framework density 18.637512000000001
#
# number of rings (size 3 to 8) (size 9 to 14) (size 15 to 20)
#    0.000    2.000    0.000    7.000    0.000    1.333 
#    0.000    6.667    0.000    0.000    0.000    0.000 
#    0.000    0.000    0.000    0.000    0.000    0.000 
#
# Total GULP energy -297488.292085 kJ/mol
# GULP energy per Si atom -12395.345504 kJ/mol
# Density = 1.859509 g / cm^3
# Si number density = 18.637512 Si / 1000 Ang^3
#
#
#
# Elastic Constant Matrix: (Units=GPa)
#
#
# Indices 1 2 3 4 5 6 
#
# 1 109.5870 59.8921 67.5089 -0.0036 0.5569 0.0017
# 2 59.8921 156.4527 62.3617 -0.0076 4.7271 0.0046
# 3 67.5089 62.3617 115.6092 -0.0093 7.7853 0.0064
# 4 -0.0036 -0.0076 -0.0093 26.6961 0.0077 -8.4809
# 5 0.5569 4.7271 7.7853 0.0077 26.7802 -0.0044
# 6 0.0017 0.0046 0.0064 -8.4809 -0.0044 21.7361
#
#
#
# Elastic Compliance Matrix: (Units=1/GPa)
#
#
# Indices 1 2 3 4 5 6 
#
# 1 0.015375 -0.002949 -0.007548 -0.000002 0.002395 0.000001
# 2 -0.002949 0.008709 -0.002934 0.000001 -0.000623 0.000000
# 3 -0.007548 -0.002934 0.014886 0.000004 -0.003653 -0.000002
# 4 -0.000002 0.000001 0.000004 0.042759 -0.000011 0.016683
# 5 0.002395 -0.000623 -0.003653 -0.000011 0.038463 0.000005
# 6 0.000001 0.000000 -0.000002 0.016683 0.000005 0.052516
#
#
# Mechanical properties :
#
#
# Convention : Reuss Voigt Hill
#
# Bulk Modulus (GPa) = 82.59489 84.57493 83.58491
# Shear Modulus (GPa) = 24.55724 27.83490 26.19607
#
# Velocity S-wave (km/s) = 3.63385 3.86876 3.75314
# Velocity P-wave (km/s) = 7.87522 8.08912 7.98289
#
# Compressibility (1/GPa) = 0.01210729
#
# Stress axis : x y z
#
# Youngs Moduli (GPa) = 65.04093 114.82548 67.17688
#
# Poissons Ratio (x) = 0.33865 0.50708
# Poissons Ratio (y) = 0.19182 0.19707
# Poissons Ratio (z) = 0.49096 0.33685
#
# Static dielectric constant tensor:
#      x y z
#    x 3.119680 -0.000010 0.068050 
#    y -0.000010 3.716040 0.000010 
#    z 0.068050 0.000010 3.511100 
# 
# 
# High freq. dielectric constant tensor:
#      x y z
#    x 1.707570 0.000000 -0.007360 
#    y 0.000000 1.725380 0.000000 
#    z -0.007360 0.000000 1.734550 
# 
# From -- ./inp_files/48354.got.cif
#   From: 2010.06.25/outbox.cif.g09.slc.cpg/sg15_25_cif.got.tgz:48354.got - 2010.06.28 07:06:18.
