data_PCOD8133556
_publ_section_title
;
Structure prediction by ZEFSAII (Michael W. Deem and Ramdas Pophale) SiO2 
 PCOD8133556
Probable space group: C 2/C
;
_chemical_formula_sum "Si O2"
_cell_formula_units_Z 64
_cell_length_a 11.189243
_cell_length_b 16.323166
_cell_length_c 28.591449
_cell_angle_alpha 90.000000
_cell_angle_beta 147.569970
_cell_angle_gamma 90.000000
_cell_volume 2800.426416
_symmetry_space_group_name_H-M "C 2/C"
_symmetry_group_IT_number 15
_symmetry_cell_setting 'monoclinic'
loop_
_space_group_symop_operation_xyz
x,y,z
-x,y,1/2-z
-x,-y,-z
x,-y,1/2+z
1/2+x,1/2+y,z
1/2-x,1/2+y,1/2-z
1/2-x,1/2-y,-z
1/2+x,1/2-y,1/2+z
loop_
_atom_site_type_symbol
_atom_site_label
_atom_site_fract_x
_atom_site_fract_y
_atom_site_fract_z
Si Si1 0.627873 0.979954 0.678661
Si Si2 0.764564 0.413953 0.690457
Si Si3 0.035623 0.335139 0.584037
Si Si4 0.807716 0.716248 0.613896
Si Si5 0.703696 0.461679 0.093052
Si Si6 0.157299 0.227027 0.899564
Si Si7 0.974211 0.771034 0.929104
Si Si8 0.263155 0.158586 0.787122
O O1 0.743982 0.924739 0.756764
O O2 0.601761 0.926619 0.622618
O O3 0.399229 0.014404 0.622935
O O4 0.768091 0.061690 0.715531
O O5 0.731692 0.501380 0.654207
O O6 0.560723 0.352234 0.613442
O O7 0.000000 0.375507 0.750000
O O8 0.246087 0.293340 0.626401
O O9 0.984228 0.282097 0.612448
O O10 0.812511 0.339604 0.478200
O O11 0.678149 0.635945 0.590183
O O12 0.730073 0.736466 0.533742
O O13 0.069870 0.692685 0.698913
O O14 0.500000 0.500000 0.000000
O O15 0.329321 0.285013 0.928648
O O16 0.985250 0.187049 0.806405
O O17 0.868476 0.691423 0.870129
#
# Coordination Sequence:
#
# PCOD8133556 Si02
#       8
#     8   8   8   8   8   8   8   8
#     4  10  23  37  56  92 125 170 213 260 318 380
#     4  10  19  33  59  88 117 150 205 257 310 364
#     4  10  22  41  65  92 129 165 216 260 320 403
#     4  10  23  38  62  96 127 165 201 264 336 375
#     4  10  19  34  59  91 125 154 204 272 323 372
#     4  10  22  38  68  92 116 169 213 259 318 382
#     4  11  20  40  66  89 120 166 211 258 312 395
#     4  11  23  40  62  92 130 164 216 266 319 377
#
# _framework density 22.853660999999999
#
# number of rings (size 3 to 8) (size 9 to 14) (size 15 to 20)
#    0.000    1.750    1.250    3.750    5.250    0.500 
#    0.000    2.500   11.000    0.000    0.000    0.000 
#    0.000    0.000    0.000    0.000    0.000    0.000 
#
# Total GULP energy -396680.956630 kJ/mol
# GULP energy per Si atom -12396.279895 kJ/mol
# Density = 2.280165 g / cm^3
# Si number density = 22.853661 Si / 1000 Ang^3
#
#
#
# Elastic Constant Matrix: (Units=GPa)
#
#
# Indices 1 2 3 4 5 6 
#
# 1 29.7518 11.7793 -3.4650 0.0001 -9.3016 0.0000
# 2 11.7793 105.8069 31.1326 0.0001 -8.2428 0.0000
# 3 -3.4650 31.1326 103.0529 0.0006 -7.8068 0.0003
# 4 0.0001 0.0001 0.0006 35.3076 0.0003 -6.0846
# 5 -9.3016 -8.2428 -7.8068 0.0003 28.9005 0.0001
# 6 0.0000 0.0000 0.0003 -6.0846 0.0001 28.6346
#
#
#
# Elastic Compliance Matrix: (Units=1/GPa)
#
#
# Indices 1 2 3 4 5 6 
#
# 1 0.039730 -0.004524 0.003648 0.000000 0.012482 0.000000
# 2 -0.004524 0.011022 -0.003424 0.000000 0.000763 0.000000
# 3 0.003648 -0.003424 0.011103 0.000000 0.003197 0.000000
# 4 0.000000 0.000000 0.000000 0.029399 0.000000 0.006247
# 5 0.012482 0.000763 0.003197 0.000000 0.039700 0.000000
# 6 0.000000 0.000000 0.000000 0.006247 0.000000 0.036250
#
#
# Mechanical properties :
#
#
# Convention : Reuss Voigt Hill
#
# Bulk Modulus (GPa) = 18.77771 35.27839 27.02805
# Shear Modulus (GPa) = 25.83243 31.84619 28.83931
#
# Velocity S-wave (km/s) = 3.36570 3.73699 3.55619
# Velocity P-wave (km/s) = 4.83097 5.83869 5.35857
#
# Compressibility (1/GPa) = 0.05325462
#
# Stress axis : x y z
#
# Youngs Moduli (GPa) = 25.17004 90.72992 90.06573
#
# Poissons Ratio (x) = 0.41047 -0.32857
# Poissons Ratio (y) = 0.11387 0.30839
# Poissons Ratio (z) = -0.09182 0.31066
#
# Static dielectric constant tensor:
#      x y z
#    x 3.994170 0.000000 -0.183440 
#    y 0.000000 4.022220 0.000000 
#    z -0.183440 0.000000 4.042130 
# 
# 
# High freq. dielectric constant tensor:
#      x y z
#    x 1.892790 0.000000 -0.005170 
#    y 0.000000 1.886250 0.000000 
#    z -0.005170 0.000000 1.914290 
# 
# From -- ./inp_files/311676.got.cif
#   From: 2010.06.25/outbox.cif.g09.slc.cpg/sg15_156_cif.got.tgz:311676.got - 2010.06.28 07:06:18.
