data_PCOD8133371
_publ_section_title
;
Structure prediction by ZEFSAII (Michael W. Deem and Ramdas Pophale) SiO2 
 PCOD8133371
Probable space group: C 2/C
;
_chemical_formula_sum "Si O2"
_cell_formula_units_Z 56
_cell_length_a 9.012257
_cell_length_b 27.262561
_cell_length_c 14.693509
_cell_angle_alpha 90.000000
_cell_angle_beta 55.224029
_cell_angle_gamma 90.000000
_cell_volume 2965.339018
_symmetry_space_group_name_H-M "C 2/C"
_symmetry_group_IT_number 15
_symmetry_cell_setting 'monoclinic'
loop_
_space_group_symop_operation_xyz
x,y,z
-x,y,1/2-z
-x,-y,-z
x,-y,1/2+z
1/2+x,1/2+y,z
1/2-x,1/2+y,1/2-z
1/2-x,1/2-y,-z
1/2+x,1/2-y,1/2+z
loop_
_atom_site_type_symbol
_atom_site_label
_atom_site_fract_x
_atom_site_fract_y
_atom_site_fract_z
Si Si1 0.903263 0.551678 0.026007
Si Si2 0.642360 0.335486 0.280525
Si Si3 0.163505 0.540993 0.256725
Si Si4 0.472211 0.587193 0.366442
Si Si5 0.870259 0.426090 0.212505
Si Si6 0.387605 0.684535 0.505684
Si Si7 0.498952 0.774341 0.146855
O O1 0.886434 0.571332 0.134454
O O2 0.698106 0.550400 0.058422
O O3 0.000000 0.500000 0.000000
O O4 0.023436 0.585543 0.918567
O O5 0.500000 0.328127 0.250000
O O6 0.691795 0.392946 0.275734
O O7 0.560156 0.317743 0.405643
O O8 0.821113 0.305897 0.190121
O O9 0.353230 0.560356 0.151928
O O10 0.185603 0.482819 0.262900
O O11 0.000000 0.554529 0.250000
O O12 0.500000 0.598844 0.250000
O O13 0.443076 0.636276 0.432672
O O14 0.000000 0.410812 0.250000
O O15 0.499642 0.729221 0.423322
O O16 0.172889 0.691438 0.569138
O O17 0.500000 0.754228 0.250000
#
# Coordination Sequence:
#
# PCOD8133371 Si02
#       7
#     8   8   8   8   8   8   8
#     4   9  18  32  51  73 101 138 175 217 261 302
#     4  11  23  35  53  83 111 136 171 218 271 318
#     4   9  20  35  51  76 109 143 180 221 264 313
#     4  10  19  33  54  80 107 138 181 222 264 315
#     4  10  19  36  55  73 104 144 184 219 254 309
#     4  10  20  37  59  79 104 140 179 218 262 316
#     4   9  19  38  61  81 102 135 179 219 261 319
#
# _framework density 18.884855999999999
#
# number of rings (size 3 to 8) (size 9 to 14) (size 15 to 20)
#    0.000    2.286    0.000    3.429    0.000    4.571 
#    0.000   10.714    0.000    0.000    0.000    0.000 
#    0.000    0.000    0.000    0.000    0.000    0.000 
#
# Total GULP energy -347043.227288 kJ/mol
# GULP energy per Si atom -12394.400975 kJ/mol
# Density = 1.884187 g / cm^3
# Si number density = 18.884856 Si / 1000 Ang^3
#
#
#
# Elastic Constant Matrix: (Units=GPa)
#
#
# Indices 1 2 3 4 5 6 
#
# 1 132.4170 62.2687 47.5575 0.0000 2.2368 0.0000
# 2 62.2687 84.8628 55.6863 0.0000 -1.3494 0.0000
# 3 47.5575 55.6863 98.6215 0.0000 0.3103 0.0000
# 4 0.0000 0.0000 0.0000 33.2202 0.0000 -5.1230
# 5 2.2368 -1.3494 0.3103 0.0000 25.6128 0.0000
# 6 0.0000 0.0000 0.0000 -5.1230 0.0000 16.5648
#
#
#
# Elastic Compliance Matrix: (Units=1/GPa)
#
#
# Indices 1 2 3 4 5 6 
#
# 1 0.011678 -0.007783 -0.001233 0.000000 -0.001415 0.000000
# 2 -0.007783 0.023938 -0.009770 0.000000 0.002059 0.000000
# 3 -0.001233 -0.009770 0.016253 0.000000 -0.000604 0.000000
# 4 0.000000 0.000000 0.000000 0.031610 0.000000 0.009776
# 5 -0.001415 0.002059 -0.000604 0.000000 0.039282 0.000000
# 6 0.000000 0.000000 0.000000 0.009776 0.000000 0.063392
#
#
# Mechanical properties :
#
#
# Convention : Reuss Voigt Hill
#
# Bulk Modulus (GPa) = 69.93806 71.88069 70.90937
# Shear Modulus (GPa) = 21.88276 25.10548 23.49412
#
# Velocity S-wave (km/s) = 3.40773 3.65005 3.53097
# Velocity P-wave (km/s) = 7.25244 7.47723 7.36569
#
# Compressibility (1/GPa) = 0.01429837
#
# Stress axis : x y z
#
# Youngs Moduli (GPa) = 85.62902 41.77435 61.52822
#
# Poissons Ratio (x) = 0.32512 0.07584
# Poissons Ratio (y) = 0.66643 0.60114
# Poissons Ratio (z) = 0.10555 0.40814
#
# Static dielectric constant tensor:
#      x y z
#    x 3.411170 0.000000 -0.014230 
#    y 0.000000 3.293220 0.000000 
#    z -0.014230 0.000000 4.060990 
# 
# 
# High freq. dielectric constant tensor:
#      x y z
#    x 1.720750 0.000000 -0.000810 
#    y 0.000000 1.717640 0.000000 
#    z -0.000810 0.000000 1.754390 
# 
# From -- ./inp_files/138529.got.cif
#   From: 2010.06.25/outbox.cif.g09.slc.cpg/sg15_70_cif.got.tgz:138529.got - 2010.06.28 07:06:18.
