data_PCOD8133379
_publ_section_title
;
Structure prediction by ZEFSAII (Michael W. Deem and Ramdas Pophale) SiO2 
 PCOD8133379
Probable space group: C 2/C
;
_chemical_formula_sum "Si O2"
_cell_formula_units_Z 48
_cell_length_a 15.795880
_cell_length_b 17.153943
_cell_length_c 12.549086
_cell_angle_alpha 90.000000
_cell_angle_beta 54.842628
_cell_angle_gamma 90.000000
_cell_volume 2780.012252
_symmetry_space_group_name_H-M "C 2/C"
_symmetry_group_IT_number 15
_symmetry_cell_setting 'monoclinic'
loop_
_space_group_symop_operation_xyz
x,y,z
-x,y,1/2-z
-x,-y,-z
x,-y,1/2+z
1/2+x,1/2+y,z
1/2-x,1/2+y,1/2-z
1/2-x,1/2-y,-z
1/2+x,1/2-y,1/2+z
loop_
_atom_site_type_symbol
_atom_site_label
_atom_site_fract_x
_atom_site_fract_y
_atom_site_fract_z
Si Si1 0.836655 0.020409 0.126157
Si Si2 0.251314 0.374035 0.077154
Si Si3 0.751441 0.643814 0.164643
Si Si4 0.919251 0.266363 0.214855
Si Si5 0.086855 0.231691 0.937213
Si Si6 0.510501 0.408343 0.367376
O O1 0.755248 0.067319 0.257791
O O2 0.771995 0.961651 0.099497
O O3 0.912999 0.975965 0.150249
O O4 0.899780 0.079634 0.004596
O O5 0.160697 0.337998 0.216463
O O6 0.354334 0.320582 0.015234
O O7 0.215324 0.375870 0.980570
O O8 0.639595 0.684120 0.242133
O O9 0.836969 0.699873 0.156782
O O10 0.000000 0.269340 0.250000
O O11 0.983160 0.271209 0.058753
O O12 0.056803 0.176723 0.860088
O O13 0.500000 0.416287 0.250000
#
# Coordination Sequence:
#
# PCOD8133379 Si02
#       6
#     8   8   8   8   8   8
#     4  10  21  33  51  78 107 137 167 210 260 306
#     4  10  20  31  52  81 107 133 171 214 256 303
#     4  11  19  32  55  80 105 131 172 216 257 303
#     4  11  17  31  56  80 102 132 169 218 260 291
#     4  10  19  33  54  81 101 133 175 215 254 300
#     4  10  20  35  54  76 105 136 171 212 260 305
#
# _framework density 17.266112
#
# number of rings (size 3 to 8) (size 9 to 14) (size 15 to 20)
#    0.000    1.667    5.000    2.000    0.000    0.667 
#    0.000    1.667    3.667    0.000    0.000    0.000 
#    0.000    0.000    0.000    0.000    0.000    0.000 
#
# Total GULP energy -297628.663433 kJ/mol
# GULP energy per Si atom -12401.194310 kJ/mol
# Density = 1.722681 g / cm^3
# Si number density = 17.266112 Si / 1000 Ang^3
#
#
#
# Elastic Constant Matrix: (Units=GPa)
#
#
# Indices 1 2 3 4 5 6 
#
# 1 61.2125 36.8111 34.0676 0.0000 -0.4995 0.0000
# 2 36.8111 101.9543 47.9295 0.0000 -3.3045 0.0000
# 3 34.0676 47.9295 94.4428 0.0000 3.3681 0.0000
# 4 0.0000 0.0000 0.0000 25.0210 0.0000 -2.1482
# 5 -0.4995 -3.3045 3.3681 0.0000 25.0824 0.0000
# 6 0.0000 0.0000 0.0000 -2.1482 0.0000 21.2923
#
#
#
# Elastic Compliance Matrix: (Units=1/GPa)
#
#
# Indices 1 2 3 4 5 6 
#
# 1 0.022724 -0.005687 -0.005326 0.000000 0.000418 0.000000
# 2 -0.005687 0.014474 -0.005384 0.000000 0.002517 0.000000
# 3 -0.005326 -0.005384 0.015344 0.000000 -0.002876 0.000000
# 4 0.000000 0.000000 0.000000 0.040316 0.000000 0.004067
# 5 0.000418 0.002517 -0.002876 0.000000 0.040595 0.000000
# 6 0.000000 0.000000 0.000000 0.004067 0.000000 0.047376
#
#
# Mechanical properties :
#
#
# Convention : Reuss Voigt Hill
#
# Bulk Modulus (GPa) = 50.63570 55.02513 52.83042
# Shear Modulus (GPa) = 22.70602 23.53256 23.11929
#
# Velocity S-wave (km/s) = 3.63031 3.69580 3.66320
# Velocity P-wave (km/s) = 6.85292 7.08166 6.96823
#
# Compressibility (1/GPa) = 0.01974891
#
# Stress axis : x y z
#
# Youngs Moduli (GPa) = 44.00601 69.08759 65.17050
#
# Poissons Ratio (x) = 0.39294 0.34707
# Poissons Ratio (y) = 0.25028 0.35087
# Poissons Ratio (z) = 0.23436 0.37196
#
# Static dielectric constant tensor:
#      x y z
#    x 3.113440 0.000000 -0.186160 
#    y 0.000000 3.190630 0.000000 
#    z -0.186160 0.000000 3.238290 
# 
# 
# High freq. dielectric constant tensor:
#      x y z
#    x 1.647290 0.000000 -0.010080 
#    y 0.000000 1.657290 0.000000 
#    z -0.010080 0.000000 1.662700 
# 
# From -- ./inp_files/106276.got.cif
#   From: 2010.06.25/outbox.cif.g09.slc.cpg/sg15_54_cif.got.tgz:106276.got - 2010.06.28 07:06:18.
