data_PCOD8133592
_publ_section_title
;
Structure prediction by ZEFSAII (Michael W. Deem and Ramdas Pophale) SiO2 
 PCOD8133592
Probable space group: C 2/C
;
_chemical_formula_sum "Si O2"
_cell_formula_units_Z 48
_cell_length_a 26.594537
_cell_length_b 8.522394
_cell_length_c 15.522468
_cell_angle_alpha 90.000000
_cell_angle_beta 32.719028
_cell_angle_gamma 90.000000
_cell_volume 1901.631613
_symmetry_space_group_name_H-M "C 2/C"
_symmetry_group_IT_number 15
_symmetry_cell_setting 'monoclinic'
loop_
_space_group_symop_operation_xyz
x,y,z
-x,y,1/2-z
-x,-y,-z
x,-y,1/2+z
1/2+x,1/2+y,z
1/2-x,1/2+y,1/2-z
1/2-x,1/2-y,-z
1/2+x,1/2-y,1/2+z
loop_
_atom_site_type_symbol
_atom_site_label
_atom_site_fract_x
_atom_site_fract_y
_atom_site_fract_z
Si Si1 0.601221 0.050097 0.888659
Si Si2 0.393731 0.082271 0.929663
Si Si3 0.388826 0.560932 0.419082
Si Si4 0.174845 0.613988 0.126957
Si Si5 0.608642 0.584894 0.415295
Si Si6 0.598704 0.583015 0.769237
O O1 0.679625 0.998604 0.704600
O O2 0.612953 0.235659 0.881927
O O3 0.622998 0.971653 0.948819
O O4 0.500000 0.000000 0.000000
O O5 0.500000 0.066404 0.750000
O O6 0.358716 0.260360 0.975242
O O7 0.335843 0.980555 0.945563
O O8 0.500000 0.540054 0.250000
O O9 0.344867 0.454672 0.559511
O O10 0.344491 0.493088 0.394063
O O11 0.086996 0.728513 0.276652
O O12 0.250000 0.750000 0.000000
O O13 0.504739 0.514844 0.577148
O O14 0.654199 0.477232 0.274386
#
# Coordination Sequence:
#
# PCOD8133592 Si02
#       6
#     8   8   8   8   8   8
#     4  12  22  39  70 103 137 185 248 305 361 432
#     4  11  21  40  70 102 135 180 246 306 360 436
#     4   9  19  32  58  96 131 163 220 297 353 403
#     4  12  26  44  64 102 150 191 235 300 375 438
#     4  10  19  33  61  97 125 162 234 297 342 409
#     4  10  19  35  58  86 128 173 220 286 355 412
#
# _framework density 25.241482000000001
#
# number of rings (size 3 to 8) (size 9 to 14) (size 15 to 20)
#    0.000    1.333    3.333    3.000    4.667    1.333 
#    0.000    8.333    0.000    0.000    0.000    0.000 
#    0.000    0.000    0.000    0.000    0.000    0.000 
#
# Total GULP energy -297419.544250 kJ/mol
# GULP energy per Si atom -12392.481010 kJ/mol
# Density = 2.518403 g / cm^3
# Si number density = 25.241482 Si / 1000 Ang^3
#
#
#
# Elastic Constant Matrix: (Units=GPa)
#
#
# Indices 1 2 3 4 5 6 
#
# 1 135.7557 82.6939 56.9095 -0.0001 76.8934 0.0000
# 2 82.6939 199.1290 51.8397 0.0002 47.3077 0.0002
# 3 56.9095 51.8397 121.1931 -0.0001 49.2122 0.0001
# 4 -0.0001 0.0002 -0.0001 40.5556 0.0001 24.1352
# 5 76.8934 47.3077 49.2122 0.0001 57.5891 -0.0001
# 6 0.0000 0.0002 0.0001 24.1352 -0.0001 44.8044
#
#
#
# Elastic Compliance Matrix: (Units=1/GPa)
#
#
# Indices 1 2 3 4 5 6 
#
# 1 0.034035 -0.004462 0.004428 0.000001 -0.045561 0.000000
# 2 -0.004462 0.006889 -0.001490 0.000000 0.001572 0.000000
# 3 0.004428 -0.001490 0.013343 0.000000 -0.016090 0.000000
# 4 0.000001 0.000000 0.000000 0.036292 -0.000001 -0.019550
# 5 -0.045561 0.001572 -0.016090 -0.000001 0.090657 0.000001
# 6 0.000000 0.000000 0.000000 -0.019550 0.000001 0.032850
#
#
# Mechanical properties :
#
#
# Convention : Reuss Voigt Hill
#
# Bulk Modulus (GPa) = 19.52430 93.21820 56.37125
# Shear Modulus (GPa) = 21.35041 46.23213 33.79127
#
# Velocity S-wave (km/s) = 2.91150 4.28435 3.66282
# Velocity P-wave (km/s) = 4.36512 7.84124 6.34583
#
# Compressibility (1/GPa) = 0.05121824
#
# Stress axis : x y z
#
# Youngs Moduli (GPa) = 29.38183 145.15038 74.94523
#
# Poissons Ratio (x) = 0.64772 -0.33183
# Poissons Ratio (y) = 0.13111 0.11165
# Poissons Ratio (z) = -0.13009 0.21624
#
# Static dielectric constant tensor:
#      x y z
#    x 4.562950 0.000000 1.154240 
#    y 0.000000 4.912040 0.000000 
#    z 1.154240 0.000000 2.449180 
# 
# 
# High freq. dielectric constant tensor:
#      x y z
#    x 2.000520 0.000000 0.024430 
#    y 0.000000 2.016010 0.000000 
#    z 0.024430 0.000000 2.027890 
# 
# From -- ./inp_files/176903.got.cif
#   From: 2010.06.25/outbox.cif.g09.slc.cpg/sg15_89_cif.got.tgz:176903.got - 2010.06.28 07:06:18.
