data_PCOD8133469
_publ_section_title
;
Structure prediction by ZEFSAII (Michael W. Deem and Ramdas Pophale) SiO2 
 PCOD8133469
Probable space group: C 2/C
;
_chemical_formula_sum "Si O2"
_cell_formula_units_Z 56
_cell_length_a 22.199570
_cell_length_b 26.902416
_cell_length_c 5.491688
_cell_angle_alpha 90.000000
_cell_angle_beta 128.201995
_cell_angle_gamma 90.000000
_cell_volume 2577.349227
_symmetry_space_group_name_H-M "C 2/C"
_symmetry_group_IT_number 15
_symmetry_cell_setting 'monoclinic'
loop_
_space_group_symop_operation_xyz
x,y,z
-x,y,1/2-z
-x,-y,-z
x,-y,1/2+z
1/2+x,1/2+y,z
1/2-x,1/2+y,1/2-z
1/2-x,1/2-y,-z
1/2+x,1/2-y,1/2+z
loop_
_atom_site_type_symbol
_atom_site_label
_atom_site_fract_x
_atom_site_fract_y
_atom_site_fract_z
Si Si1 0.000000 0.245527 0.250000
Si Si2 0.737143 0.019886 0.924137
Si Si3 0.267208 0.875483 0.939704
Si Si4 0.910411 0.981230 0.394572
Si Si5 0.374162 0.372952 0.203186
Si Si6 0.846572 0.298525 0.871541
Si Si7 0.288653 0.696934 0.829982
Si Si8 0.000000 0.816550 0.250000
O O1 0.068154 0.283566 0.486485
O O2 0.983229 0.214393 0.457466
O O3 0.717343 0.078501 0.843976
O O4 0.698500 0.996763 0.584710
O O5 0.826898 0.007372 0.168089
O O6 0.216879 0.832198 0.934481
O O7 0.208583 0.894548 0.586136
O O8 0.343909 0.849888 0.021585
O O9 0.911661 0.921319 0.422112
O O10 0.951794 0.000750 0.746565
O O11 0.358638 0.327059 0.347764
O O12 0.427363 0.352086 0.119210
O O13 0.794627 0.306698 0.504132
O O14 0.809421 0.253844 0.937418
#
# Coordination Sequence:
#
# PCOD8133469 Si02
#       8
#     4   8   8   8   8   8   8   4
#     4  12  26  48  62  85 132 165 208 250 312 368
#     4  10  19  34  55  89 120 156 190 249 313 357
#     4  11  21  34  65  88 124 157 207 256 311 367
#     4  10  19  33  56  81 116 158 197 258 306 349
#     4  11  22  37  59  86 120 164 217 251 308 364
#     4  10  23  37  61  91 121 163 200 260 307 372
#     4  10  20  38  58  92 120 157 206 263 307 361
#     4  12  28  42  62  85 116 177 212 254 300 372
#
# _framework density 21.727751999999999
#
# number of rings (size 3 to 8) (size 9 to 14) (size 15 to 20)
#    0.000    1.429    4.286    3.000    4.000    0.000 
#    0.000    0.714    0.000    0.000    0.000    1.000 
#    0.000    0.000    0.000    0.000    0.000    0.000 
#
# Total GULP energy -346976.709869 kJ/mol
# GULP energy per Si atom -12392.025352 kJ/mol
# Density = 2.167830 g / cm^3
# Si number density = 21.727752 Si / 1000 Ang^3
#
#
#
# Elastic Constant Matrix: (Units=GPa)
#
#
# Indices 1 2 3 4 5 6 
#
# 1 78.2168 45.8124 34.2157 0.0000 -2.9799 0.0000
# 2 45.8124 116.2842 27.7006 0.0000 -0.1655 0.0000
# 3 34.2157 27.7006 71.0683 0.0000 -15.4669 0.0000
# 4 0.0000 0.0000 0.0000 8.1783 0.0000 -8.8698
# 5 -2.9799 -0.1655 -15.4669 0.0000 33.3854 0.0000
# 6 0.0000 0.0000 0.0000 -8.8698 0.0000 33.1021
#
#
#
# Elastic Compliance Matrix: (Units=1/GPa)
#
#
# Indices 1 2 3 4 5 6 
#
# 1 0.019415 -0.005880 -0.007434 0.000000 -0.001740 0.000000
# 2 -0.005880 0.011365 -0.001891 0.000000 -0.001345 0.000000
# 3 -0.007434 -0.001891 0.020286 0.000000 0.008725 0.000000
# 4 0.000000 0.000000 0.000000 0.172366 0.000000 0.046186
# 5 -0.001740 -0.001345 0.008725 0.000000 0.033834 0.000000
# 6 0.000000 0.000000 0.000000 0.046186 0.000000 0.042585
#
#
# Mechanical properties :
#
#
# Convention : Reuss Voigt Hill
#
# Bulk Modulus (GPa) = 48.41542 53.44740 50.93141
# Shear Modulus (GPa) = 14.83032 25.45585 20.14308
#
# Velocity S-wave (km/s) = 2.61540 3.42655 3.04808
# Velocity P-wave (km/s) = 5.60817 6.34879 5.98994
#
# Compressibility (1/GPa) = 0.02065457
#
# Stress axis : x y z
#
# Youngs Moduli (GPa) = 51.50680 87.98968 49.29473
#
# Poissons Ratio (x) = 0.51742 0.36646
# Poissons Ratio (y) = 0.30288 0.09323
# Poissons Ratio (z) = 0.38290 0.16641
#
# Static dielectric constant tensor:
#      x y z
#    x 4.004130 0.000000 -0.463590 
#    y 0.000000 3.991460 0.000000 
#    z -0.463590 0.000000 4.063250 
# 
# 
# High freq. dielectric constant tensor:
#      x y z
#    x 1.835750 0.000000 -0.032570 
#    y 0.000000 1.857040 0.000000 
#    z -0.032570 0.000000 1.835090 
# 
# From -- ./inp_files/11977.got.cif
#   From: 2010.06.25/outbox.cif.g09.slc.cpg/sg15_6_cif.got.tgz:11977.got - 2010.06.28 07:06:18.
