data_PCOD8133584
_publ_section_title
;
Structure prediction by ZEFSAII (Michael W. Deem and Ramdas Pophale) SiO2 
 PCOD8133584
Probable space group: C 2/C
;
_chemical_formula_sum "Si O2"
_cell_formula_units_Z 60
_cell_length_a 8.238825
_cell_length_b 17.865072
_cell_length_c 21.257607
_cell_angle_alpha 90.000000
_cell_angle_beta 124.026644
_cell_angle_gamma 90.000000
_cell_volume 2593.118392
_symmetry_space_group_name_H-M "C 2/C"
_symmetry_group_IT_number 15
_symmetry_cell_setting 'monoclinic'
loop_
_space_group_symop_operation_xyz
x,y,z
-x,y,1/2-z
-x,-y,-z
x,-y,1/2+z
1/2+x,1/2+y,z
1/2-x,1/2+y,1/2-z
1/2-x,1/2-y,-z
1/2+x,1/2-y,1/2+z
loop_
_atom_site_type_symbol
_atom_site_label
_atom_site_fract_x
_atom_site_fract_y
_atom_site_fract_z
Si Si1 0.110396 0.353651 0.370844
Si Si2 0.000000 0.239889 0.250000
Si Si3 0.014478 0.176973 0.004296
Si Si4 0.784234 0.052248 0.519235
Si Si5 0.506501 0.152567 0.514503
Si Si6 0.234153 0.889198 0.840068
Si Si7 0.937439 0.517231 0.145433
Si Si8 0.060682 0.927184 0.624444
O O1 0.342698 0.338922 0.415704
O O2 0.092252 0.341898 0.440583
O O3 0.036415 0.432069 0.325324
O O4 0.983030 0.290857 0.308064
O O5 0.804781 0.188615 0.204418
O O6 0.190475 0.126470 0.017702
O O7 0.079212 0.263270 0.015713
O O8 0.980310 0.145490 0.068418
O O9 0.674672 0.087880 0.555960
O O10 0.652799 0.002611 0.443866
O O11 0.973024 0.004820 0.578023
O O12 0.359162 0.122220 0.429885
O O13 0.350717 0.942627 0.816489
O O14 0.018783 0.919100 0.820088
O O15 0.796376 0.561309 0.165424
#
# Coordination Sequence:
#
# PCOD8133584 Si02
#       8
#     8   4   8   8   8   8   8   8
#     4  12  21  41  65  90 127 170 215 263 326 390
#     4  12  28  44  64  88 134 174 222 272 320 392
#     4  11  18  33  58  94 130 160 204 253 328 377
#     4  10  19  33  61 103 132 150 203 279 320 384
#     4  11  21  35  65  94 124 169 212 259 330 389
#     4  11  23  42  65  94 125 170 216 271 321 384
#     4  10  21  39  66  98 129 162 214 266 330 388
#     4  11  19  37  65  96 129 161 206 271 320 387
#
# _framework density 23.138165999999998
#
# number of rings (size 3 to 8) (size 9 to 14) (size 15 to 20)
#    0.000    1.067    5.333    3.200    0.000    2.133 
#    2.400    0.000    2.933    0.000    0.000    0.000 
#    0.000    0.000    0.000    0.000    0.000    0.000 
#
# Total GULP energy -371653.416001 kJ/mol
# GULP energy per Si atom -12388.447200 kJ/mol
# Density = 2.308550 g / cm^3
# Si number density = 23.138166 Si / 1000 Ang^3
#
#
#
# Elastic Constant Matrix: (Units=GPa)
#
#
# Indices 1 2 3 4 5 6 
#
# 1 110.7114 40.9673 27.9227 0.0000 4.0891 0.0000
# 2 40.9673 114.0193 18.0087 0.0000 -1.9201 0.0000
# 3 27.9227 18.0087 33.9932 0.0000 -4.4748 0.0000
# 4 0.0000 0.0000 0.0000 29.9070 0.0000 3.9649
# 5 4.0891 -1.9201 -4.4748 0.0000 20.1831 0.0000
# 6 0.0000 0.0000 0.0000 3.9649 0.0000 32.4582
#
#
#
# Elastic Compliance Matrix: (Units=1/GPa)
#
#
# Indices 1 2 3 4 5 6 
#
# 1 0.012783 -0.003181 -0.009472 0.000000 -0.004993 0.000000
# 2 -0.003181 0.010364 -0.002743 0.000000 0.001022 0.000000
# 3 -0.009472 -0.002743 0.040038 0.000000 0.010535 0.000000
# 4 0.000000 0.000000 0.000000 0.033987 0.000000 -0.004152
# 5 -0.004993 0.001022 0.010535 0.000000 0.052991 0.000000
# 6 0.000000 0.000000 0.000000 -0.004152 0.000000 0.031316
#
#
# Mechanical properties :
#
#
# Convention : Reuss Voigt Hill
#
# Bulk Modulus (GPa) = 30.87113 48.05793 39.46453
# Shear Modulus (GPa) = 22.41457 27.96468 25.18962
#
# Velocity S-wave (km/s) = 3.11581 3.48026 3.30307
# Velocity P-wave (km/s) = 5.12986 6.07986 5.62495
#
# Compressibility (1/GPa) = 0.03239272
#
# Stress axis : x y z
#
# Youngs Moduli (GPa) = 78.22923 96.48958 24.97608
#
# Poissons Ratio (x) = 0.30693 0.23658
# Poissons Ratio (y) = 0.24884 0.06851
# Poissons Ratio (z) = 0.74100 0.26468
#
# Static dielectric constant tensor:
#      x y z
#    x 4.313310 0.000000 -0.118590 
#    y 0.000000 4.380180 0.000000 
#    z -0.118590 0.000000 3.893920 
# 
# 
# High freq. dielectric constant tensor:
#      x y z
#    x 1.908640 0.000000 -0.006870 
#    y 0.000000 1.928100 0.000000 
#    z -0.006870 0.000000 1.889830 
# 
# From -- ./inp_files/232758.got.cif
#   From: 2010.06.25/outbox.cif.g09.slc.cpg/sg15_117_cif.got.tgz:232758.got - 2010.06.28 07:06:18.
