data_PCOD8133239
_publ_section_title
;
Structure prediction by ZEFSAII (Michael W. Deem and Ramdas Pophale) SiO2 
 PCOD8133239
Probable space group: C 2/C
;
_chemical_formula_sum "Si O2"
_cell_formula_units_Z 56
_cell_length_a 11.215478
_cell_length_b 21.986060
_cell_length_c 23.521615
_cell_angle_alpha 90.000000
_cell_angle_beta 30.499069
_cell_angle_gamma 90.000000
_cell_volume 2943.670720
_symmetry_space_group_name_H-M "C 2/C"
_symmetry_group_IT_number 15
_symmetry_cell_setting 'monoclinic'
loop_
_space_group_symop_operation_xyz
x,y,z
-x,y,1/2-z
-x,-y,-z
x,-y,1/2+z
1/2+x,1/2+y,z
1/2-x,1/2+y,1/2-z
1/2-x,1/2-y,-z
1/2+x,1/2-y,1/2+z
loop_
_atom_site_type_symbol
_atom_site_label
_atom_site_fract_x
_atom_site_fract_y
_atom_site_fract_z
Si Si1 0.029039 0.484604 0.421905
Si Si2 0.082546 0.652156 0.524920
Si Si3 0.717431 0.739133 0.730031
Si Si4 0.224065 0.154753 0.579204
Si Si5 0.000000 0.943991 0.250000
Si Si6 0.535197 0.899456 0.619656
Si Si7 0.000000 0.340688 0.750000
Si Si8 0.415574 0.331362 0.721255
O O1 0.309462 0.485320 0.296380
O O2 0.915582 0.531955 0.423452
O O3 0.000000 0.500000 0.500000
O O4 0.926737 0.417958 0.451719
O O5 0.356057 0.669347 0.413788
O O6 0.922714 0.691328 0.633354
O O7 0.973693 0.666603 0.507458
O O8 0.459354 0.709407 0.837871
O O9 0.704492 0.796318 0.691101
O O10 0.778067 0.767953 0.766492
O O11 0.119560 0.095480 0.651847
O O12 0.285639 0.144467 0.488159
O O13 0.594354 0.886121 0.661503
O O14 0.260563 0.886611 0.720191
O O15 0.500000 0.337545 0.750000
#
# Coordination Sequence:
#
# PCOD8133239 Si02
#       8
#     8   8   8   8   4   8   4   8
#     4  11  20  33  60  89 118 150 192 259 301 352
#     4  11  20  37  57  89 121 148 197 247 310 350
#     4  11  21  39  62  83 118 160 201 252 299 365
#     4  11  18  36  61  89 116 150 207 246 294 360
#     4  10  19  32  58  92 116 141 196 254 300 340
#     4  11  24  37  59  92 122 161 201 249 302 363
#     4  10  23  40  58  84 124 163 206 242 298 364
#     4  11  23  36  55  89 123 152 194 250 309 352
#
# _framework density 19.023866999999999
#
# number of rings (size 3 to 8) (size 9 to 14) (size 15 to 20)
#    0.000    1.143    8.571    0.429    3.000    3.429 
#    0.000    0.000    1.571    7.714    0.000    0.000 
#    0.000    0.000    0.000    0.000    0.000    0.000 
#
# Total GULP energy -346913.676846 kJ/mol
# GULP energy per Si atom -12389.774173 kJ/mol
# Density = 1.898057 g / cm^3
# Si number density = 19.023867 Si / 1000 Ang^3
#
#
#
# Elastic Constant Matrix: (Units=GPa)
#
#
# Indices 1 2 3 4 5 6 
#
# 1 66.5679 33.4650 28.2086 -0.0357 9.7807 -0.0347
# 2 33.4650 108.1220 23.1624 -0.1299 4.6071 0.0461
# 3 28.2086 23.1624 87.6437 -0.0842 -1.9866 -0.1856
# 4 -0.0357 -0.1299 -0.0842 15.1918 -0.0666 4.3287
# 5 9.7807 4.6071 -1.9866 -0.0666 34.7288 0.0570
# 6 -0.0347 0.0461 -0.1856 4.3287 0.0570 24.8996
#
#
#
# Elastic Compliance Matrix: (Units=1/GPa)
#
#
# Indices 1 2 3 4 5 6 
#
# 1 0.020642 -0.004989 -0.005449 -0.000054 -0.005463 0.000019
# 2 -0.004989 0.011083 -0.001327 0.000090 -0.000141 -0.000053
# 3 -0.005449 -0.001327 0.013571 0.000038 0.002487 0.000084
# 4 -0.000054 0.000090 0.000038 0.069257 0.000158 -0.012040
# 5 -0.005463 -0.000141 0.002487 0.000158 0.030495 -0.000086
# 6 0.000019 -0.000053 0.000084 -0.012040 -0.000086 0.042255
#
#
# Mechanical properties :
#
#
# Convention : Reuss Voigt Hill
#
# Bulk Modulus (GPa) = 45.94130 48.00063 46.97096
# Shear Modulus (GPa) = 22.92645 26.79719 24.86182
#
# Velocity S-wave (km/s) = 3.47528 3.75722 3.61899
# Velocity P-wave (km/s) = 6.34863 6.64145 6.49669
#
# Compressibility (1/GPa) = 0.02176691
#
# Stress axis : x y z
#
# Youngs Moduli (GPa) = 48.44466 90.22625 73.68733
#
# Poissons Ratio (x) = 0.45013 0.40153
# Poissons Ratio (y) = 0.24168 0.09775
# Poissons Ratio (z) = 0.26398 0.11969
#
# Static dielectric constant tensor:
#      x y z
#    x 3.520920 0.007940 -0.252430 
#    y 0.007940 2.605240 -0.007370 
#    z -0.252430 -0.007370 3.770840 
# 
# 
# High freq. dielectric constant tensor:
#      x y z
#    x 1.707710 -0.000010 -0.007120 
#    y -0.000010 1.739400 0.000030 
#    z -0.007120 0.000030 1.746740 
# 
# From -- ./inp_files/270937.got.cif
#   From: 2010.06.25/outbox.cif.g09.slc.cpg/sg15_136_cif.got.tgz:270937.got - 2010.06.28 07:06:18.
