data_PCOD8133764
_publ_section_title
;
Structure prediction by ZEFSAII (Michael W. Deem and Ramdas Pophale) SiO2 
 PCOD8133764
Probable space group: C 2/C
;
_chemical_formula_sum "Si O2"
_cell_formula_units_Z 56
_cell_length_a 23.061946
_cell_length_b 14.210038
_cell_length_c 14.431668
_cell_angle_alpha 90.000000
_cell_angle_beta 143.644146
_cell_angle_gamma 90.000000
_cell_volume 2803.592238
_symmetry_space_group_name_H-M "C 2/C"
_symmetry_group_IT_number 15
_symmetry_cell_setting 'monoclinic'
loop_
_space_group_symop_operation_xyz
x,y,z
-x,y,1/2-z
-x,-y,-z
x,-y,1/2+z
1/2+x,1/2+y,z
1/2-x,1/2+y,1/2-z
1/2-x,1/2-y,-z
1/2+x,1/2-y,1/2+z
loop_
_atom_site_type_symbol
_atom_site_label
_atom_site_fract_x
_atom_site_fract_y
_atom_site_fract_z
Si Si1 0.760934 0.309916 0.730205
Si Si2 0.119708 0.070241 0.143246
Si Si3 0.388128 0.023365 0.334728
Si Si4 0.615060 0.693448 0.874248
Si Si5 0.242953 0.405583 0.207457
Si Si6 0.110976 0.400829 0.859400
Si Si7 0.540061 0.526643 0.701171
O O1 0.702760 0.349614 0.745476
O O2 0.857272 0.374849 0.839236
O O3 0.685863 0.323230 0.550328
O O4 0.782402 0.200402 0.773206
O O5 0.160687 0.967002 0.172397
O O6 0.037920 0.085451 0.960050
O O7 0.076556 0.065664 0.192314
O O8 0.372076 0.027515 0.203028
O O9 0.500000 0.000000 0.500000
O O10 0.322220 0.938444 0.288626
O O11 0.500000 0.685908 0.750000
O O12 0.636375 0.794603 0.854898
O O13 0.630596 0.602710 0.827556
O O14 0.178661 0.423468 0.033311
O O15 0.000000 0.405190 0.750000
O O16 0.500000 0.493150 0.750000
#
# Coordination Sequence:
#
# PCOD8133764 Si02
#       7
#     8   8   8   8   8   8   8
#     4  10  21  39  58  89 123 151 199 250 307 352
#     4  10  21  34  57  89 114 161 183 237 307 355
#     4  11  23  38  60  91 122 164 199 247 302 362
#     4   9  17  32  58  88 117 143 184 259 312 345
#     4  10  23  39  59  91 120 152 201 249 299 357
#     4  10  20  35  59  89 118 150 194 247 309 341
#     4  10  19  34  56  86 123 142 188 242 301 353
#
# _framework density 19.974374000000001
#
# number of rings (size 3 to 8) (size 9 to 14) (size 15 to 20)
#    0.000    2.000    4.286    0.000    4.000    1.143 
#    2.571    0.000    0.000    8.571    0.000    0.000 
#    0.000    0.000    0.000    0.000    0.000    0.000 
#
# Total GULP energy -346929.526902 kJ/mol
# GULP energy per Si atom -12390.340247 kJ/mol
# Density = 1.992891 g / cm^3
# Si number density = 19.974374 Si / 1000 Ang^3
#
#
#
# Elastic Constant Matrix: (Units=GPa)
#
#
# Indices 1 2 3 4 5 6 
#
# 1 103.7575 33.7710 26.8677 0.0000 -18.5092 0.0000
# 2 33.7710 103.7213 33.9343 0.0000 -6.4317 0.0000
# 3 26.8677 33.9343 56.7386 0.0000 -4.3375 0.0000
# 4 0.0000 0.0000 0.0000 27.0071 0.0000 -2.5369
# 5 -18.5092 -6.4317 -4.3375 0.0000 29.0269 0.0000
# 6 0.0000 0.0000 0.0000 -2.5369 0.0000 28.1865
#
#
#
# Elastic Compliance Matrix: (Units=1/GPa)
#
#
# Indices 1 2 3 4 5 6 
#
# 1 0.012706 -0.002376 -0.004063 0.000000 0.006969 0.000000
# 2 -0.002376 0.012505 -0.006330 0.000000 0.000310 0.000000
# 3 -0.004063 -0.006330 0.023296 0.000000 -0.000513 0.000000
# 4 0.000000 0.000000 0.000000 0.037343 0.000000 0.003361
# 5 0.006969 0.000310 -0.000513 0.000000 0.038887 0.000000
# 6 0.000000 0.000000 0.000000 0.003361 0.000000 0.035780
#
#
# Mechanical properties :
#
#
# Convention : Reuss Voigt Hill
#
# Bulk Modulus (GPa) = 43.53801 50.37371 46.95586
# Shear Modulus (GPa) = 25.81150 28.15374 26.98262
#
# Velocity S-wave (km/s) = 3.59866 3.75839 3.67939
# Velocity P-wave (km/s) = 6.25391 6.64138 6.45056
#
# Compressibility (1/GPa) = 0.02296844
#
# Stress axis : x y z
#
# Youngs Moduli (GPa) = 78.70033 79.96784 42.92629
#
# Poissons Ratio (x) = 0.18997 0.17443
# Poissons Ratio (y) = 0.18696 0.27174
# Poissons Ratio (z) = 0.31979 0.50623
#
# Static dielectric constant tensor:
#      x y z
#    x 4.008440 0.000000 0.057990 
#    y 0.000000 3.824480 0.000000 
#    z 0.057990 0.000000 3.604600 
# 
# 
# High freq. dielectric constant tensor:
#      x y z
#    x 1.788460 0.000000 0.015310 
#    y 0.000000 1.759180 0.000000 
#    z 0.015310 0.000000 1.772750 
# 
# From -- ./inp_files/168488.got.cif
#   From: 2010.06.25/outbox.cif.g09.slc.cpg/sg15_85_cif.got.tgz:168488.got - 2010.06.28 07:06:18.
