data_PCOD8133593
_publ_section_title
;
Structure prediction by ZEFSAII (Michael W. Deem and Ramdas Pophale) SiO2 
 PCOD8133593
Probable space group: C 2/C
;
_chemical_formula_sum "Si O2"
_cell_formula_units_Z 48
_cell_length_a 14.464877
_cell_length_b 26.130030
_cell_length_c 11.237802
_cell_angle_alpha 90.000000
_cell_angle_beta 31.059097
_cell_angle_gamma 90.000000
_cell_volume 2191.391664
_symmetry_space_group_name_H-M "C 2/C"
_symmetry_group_IT_number 15
_symmetry_cell_setting 'monoclinic'
loop_
_space_group_symop_operation_xyz
x,y,z
-x,y,1/2-z
-x,-y,-z
x,-y,1/2+z
1/2+x,1/2+y,z
1/2-x,1/2+y,1/2-z
1/2-x,1/2-y,-z
1/2+x,1/2-y,1/2+z
loop_
_atom_site_type_symbol
_atom_site_label
_atom_site_fract_x
_atom_site_fract_y
_atom_site_fract_z
Si Si1 0.132686 0.909195 0.357657
Si Si2 0.346621 0.196419 0.258500
Si Si3 0.745977 0.693432 0.629771
Si Si4 0.584270 0.936731 0.270385
Si Si5 0.247540 0.407315 0.727117
Si Si6 0.697019 0.530492 0.557882
O O1 0.127134 0.852289 0.311421
O O2 0.245680 0.909876 0.354986
O O3 0.218170 0.949896 0.170334
O O4 0.922988 0.922878 0.611793
O O5 0.325714 0.253964 0.230768
O O6 0.221990 0.194854 0.513666
O O7 0.285909 0.153837 0.229556
O O8 0.549909 0.183077 0.062862
O O9 0.500000 0.905206 0.250000
O O10 0.419888 0.941355 0.544032
O O11 0.648619 0.990347 0.143798
O O12 0.280161 0.420479 0.552969
O O13 0.500000 0.506552 0.750000
#
# Coordination Sequence:
#
# PCOD8133593 Si02
#       6
#     8   8   8   8   8   8
#     4  11  24  43  66  94 135 166 214 275 329 380
#     4  10  19  33  62 100 134 165 203 255 337 395
#     4  10  19  34  61 100 136 164 200 264 328 401
#     4  12  29  42  64  91 127 178 231 263 318 385
#     4  11  23  42  65  97 131 171 212 267 329 391
#     4  10  25  42  67  96 130 167 216 271 336 388
#
# _framework density 21.903887999999998
#
# number of rings (size 3 to 8) (size 9 to 14) (size 15 to 20)
#    0.000    1.333    3.333    1.500    7.000    2.667 
#    0.000    0.000    0.000    1.000    0.000    0.000 
#    0.000    0.000    0.000    0.000    0.000    0.000 
#
# Total GULP energy -297532.134398 kJ/mol
# GULP energy per Si atom -12397.172267 kJ/mol
# Density = 2.185403 g / cm^3
# Si number density = 21.903888 Si / 1000 Ang^3
#
#
#
# Elastic Constant Matrix: (Units=GPa)
#
#
# Indices 1 2 3 4 5 6 
#
# 1 118.0560 22.3940 22.5485 0.0070 -16.5765 -0.0023
# 2 22.3940 115.1496 38.9296 0.0061 -2.8573 -0.0034
# 3 22.5485 38.9296 95.0906 0.0303 -23.4968 -0.0043
# 4 0.0070 0.0061 0.0303 23.4180 -0.0009 -9.0948
# 5 -16.5765 -2.8573 -23.4968 -0.0009 24.6551 0.0000
# 6 -0.0023 -0.0034 -0.0043 -9.0948 0.0000 15.5253
#
#
#
# Elastic Compliance Matrix: (Units=1/GPa)
#
#
# Indices 1 2 3 4 5 6 
#
# 1 0.009684 -0.001712 -0.000047 -0.000002 0.006268 0.000000
# 2 -0.001712 0.010635 -0.005138 0.000006 -0.004815 0.000004
# 3 -0.000047 -0.005138 0.016319 -0.000023 0.014925 -0.000010
# 4 -0.000002 0.000006 -0.000023 0.055278 -0.000021 0.032382
# 5 0.006268 -0.004815 0.014925 -0.000021 0.058440 -0.000008
# 6 0.000000 0.000004 -0.000010 0.032382 -0.000008 0.083381
#
#
# Mechanical properties :
#
#
# Convention : Reuss Voigt Hill
#
# Bulk Modulus (GPa) = 43.77283 55.11558 49.44421
# Shear Modulus (GPa) = 19.59675 29.01463 24.30569
#
# Velocity S-wave (km/s) = 2.99435 3.64350 3.33476
# Velocity P-wave (km/s) = 5.65529 6.55112 6.11962
#
# Compressibility (1/GPa) = 0.02284522
#
# Stress axis : x y z
#
# Youngs Moduli (GPa) = 103.25917 94.03140 61.27960
#
# Poissons Ratio (x) = 0.16099 0.00286
# Poissons Ratio (y) = 0.17679 0.31483
# Poissons Ratio (z) = 0.00481 0.48309
#
# Static dielectric constant tensor:
#      x y z
#    x 3.886000 0.000000 -0.178570 
#    y 0.000000 3.791880 0.000000 
#    z -0.178570 0.000000 3.988740 
# 
# 
# High freq. dielectric constant tensor:
#      x y z
#    x 1.843730 0.000000 -0.034300 
#    y 0.000000 1.850400 0.000000 
#    z -0.034300 0.000000 1.858840 
# 
# From -- ./inp_files/101201.got.cif
#   From: 2010.06.25/outbox.cif.g09.slc.cpg/sg15_51_cif.got.tgz:101201.got - 2010.06.28 07:06:18.
