data_PCOD8133386
_publ_section_title
;
Structure prediction by ZEFSAII (Michael W. Deem and Ramdas Pophale) SiO2 
 PCOD8133386
Probable space group: C 2/C
;
_chemical_formula_sum "Si O2"
_cell_formula_units_Z 60
_cell_length_a 16.592014
_cell_length_b 14.596691
_cell_length_c 30.431527
_cell_angle_alpha 90.000000
_cell_angle_beta 27.125780
_cell_angle_gamma 90.000000
_cell_volume 3360.393313
_symmetry_space_group_name_H-M "C 2/C"
_symmetry_group_IT_number 15
_symmetry_cell_setting 'monoclinic'
loop_
_space_group_symop_operation_xyz
x,y,z
-x,y,1/2-z
-x,-y,-z
x,-y,1/2+z
1/2+x,1/2+y,z
1/2-x,1/2+y,1/2-z
1/2-x,1/2-y,-z
1/2+x,1/2-y,1/2+z
loop_
_atom_site_type_symbol
_atom_site_label
_atom_site_fract_x
_atom_site_fract_y
_atom_site_fract_z
Si Si1 0.753997 0.527073 0.575710
Si Si2 0.192626 0.895924 0.528158
Si Si3 0.319680 0.213674 0.813924
Si Si4 0.163351 0.740468 0.876913
Si Si5 0.579159 0.877902 0.948283
Si Si6 0.000000 0.154442 0.750000
Si Si7 0.936904 0.091733 0.507049
Si Si8 0.026048 0.721285 0.851473
O O1 0.694976 0.484504 0.558082
O O2 0.784904 0.453011 0.599246
O O3 0.594741 0.592828 0.667342
O O4 0.940201 0.581747 0.480074
O O5 0.121803 0.925904 0.514682
O O6 0.389860 0.858540 0.428922
O O7 0.075270 0.817122 0.608528
O O8 0.500000 0.243452 0.750000
O O9 0.191672 0.299910 0.870582
O O10 0.228443 0.131994 0.885364
O O11 0.362722 0.184043 0.743572
O O12 0.362943 0.722563 0.793650
O O13 0.160091 0.739297 0.826029
O O14 0.031834 0.660700 0.956756
O O15 0.099512 0.837087 0.928109
O O16 0.000000 0.000000 0.500000
#
# Coordination Sequence:
#
# PCOD8133386 Si02
#       8
#     8   8   8   8   8   4   8   8
#     4  10  19  33  54  83 115 143 179 220 278 340
#     4  10  19  35  55  83 112 145 180 235 279 320
#     4  11  20  34  58  84 106 141 192 230 271 330
#     4   9  19  40  56  76 116 148 179 226 286 331
#     4   9  19  33  53  81 115 142 169 229 286 324
#     4  10  22  34  56  86 112 154 180 216 286 350
#     4  10  22  40  58  79 110 152 189 232 277 323
#     4  10  19  33  57  81 108 141 188 232 282 309
#
# _framework density 17.855053000000002
#
# number of rings (size 3 to 8) (size 9 to 14) (size 15 to 20)
#    0.000    2.133    2.667    0.800    2.800    1.067 
#    1.200    4.000    0.000    4.800    0.000    0.000 
#    0.000    0.000    0.000    0.000    0.000    0.000 
#
# Total GULP energy -371982.479853 kJ/mol
# GULP energy per Si atom -12399.415995 kJ/mol
# Density = 1.781441 g / cm^3
# Si number density = 17.855053 Si / 1000 Ang^3
#
#
#
# Elastic Constant Matrix: (Units=GPa)
#
#
# Indices 1 2 3 4 5 6 
#
# 1 107.5528 56.7472 64.2737 -0.0022 -0.1290 -0.0052
# 2 56.7472 91.9994 38.2586 -0.0016 -6.9584 -0.0035
# 3 64.2737 38.2586 97.4505 -0.0042 -2.6724 -0.0134
# 4 -0.0022 -0.0016 -0.0042 20.3170 -0.0006 -0.2503
# 5 -0.1290 -6.9584 -2.6724 -0.0006 29.7107 0.0042
# 6 -0.0052 -0.0035 -0.0134 -0.2503 0.0042 34.0413
#
#
#
# Elastic Compliance Matrix: (Units=1/GPa)
#
#
# Indices 1 2 3 4 5 6 
#
# 1 0.019343 -0.008125 -0.009642 -0.000001 -0.002686 -0.000001
# 2 -0.008125 0.016605 -0.001057 0.000000 0.003759 0.000000
# 3 -0.009642 -0.001057 0.017070 0.000002 0.001246 0.000005
# 4 -0.000001 0.000000 0.000002 0.049224 0.000001 0.000362
# 5 -0.002686 0.003759 0.001246 0.000001 0.034639 -0.000004
# 6 -0.000001 0.000000 0.000005 0.000362 -0.000004 0.029379
#
#
# Mechanical properties :
#
#
# Convention : Reuss Voigt Hill
#
# Bulk Modulus (GPa) = 65.05867 68.39575 66.72721
# Shear Modulus (GPa) = 23.91977 25.99535 24.95756
#
# Velocity S-wave (km/s) = 3.66411 3.81978 3.74276
# Velocity P-wave (km/s) = 7.37680 7.60549 7.49202
#
# Compressibility (1/GPa) = 0.01537074
#
# Stress axis : x y z
#
# Youngs Moduli (GPa) = 51.69713 60.22200 58.58172
#
# Poissons Ratio (x) = 0.48930 0.56484
# Poissons Ratio (y) = 0.42004 0.06193
# Poissons Ratio (z) = 0.49846 0.06367
#
# Static dielectric constant tensor:
#      x y z
#    x 3.286240 0.000000 -0.064600 
#    y 0.000000 3.227110 0.000010 
#    z -0.064600 0.000010 3.303460 
# 
# 
# High freq. dielectric constant tensor:
#      x y z
#    x 1.688680 0.000000 -0.004160 
#    y 0.000000 1.679890 0.000000 
#    z -0.004160 0.000000 1.687670 
# 
# From -- ./inp_files/154818.got.cif
#   From: 2010.06.25/outbox.cif.g09.slc.cpg/sg15_78_cif.got.tgz:154818.got - 2010.06.28 07:06:18.
