data_PCOD8133346
_publ_section_title
;
Structure prediction by ZEFSAII (Michael W. Deem and Ramdas Pophale) SiO2 
 PCOD8133346
Probable space group: C 2/C
;
_chemical_formula_sum "Si O2"
_cell_formula_units_Z 56
_cell_length_a 10.083007
_cell_length_b 21.576441
_cell_length_c 14.324622
_cell_angle_alpha 90.000000
_cell_angle_beta 114.512819
_cell_angle_gamma 90.000000
_cell_volume 2835.513136
_symmetry_space_group_name_H-M "C 2/C"
_symmetry_group_IT_number 15
_symmetry_cell_setting 'monoclinic'
loop_
_space_group_symop_operation_xyz
x,y,z
-x,y,1/2-z
-x,-y,-z
x,-y,1/2+z
1/2+x,1/2+y,z
1/2-x,1/2+y,1/2-z
1/2-x,1/2-y,-z
1/2+x,1/2-y,1/2+z
loop_
_atom_site_type_symbol
_atom_site_label
_atom_site_fract_x
_atom_site_fract_y
_atom_site_fract_z
Si Si1 0.021977 0.058702 0.940841
Si Si2 0.878271 0.570427 0.397170
Si Si3 0.158555 0.821155 0.078632
Si Si4 0.088666 0.690461 0.998068
Si Si5 0.622884 0.859228 0.208922
Si Si6 0.232300 0.019087 0.731590
Si Si7 0.323309 0.014640 0.052315
O O1 0.956542 0.122145 0.966008
O O2 0.936406 0.041670 0.819763
O O3 0.196509 0.061259 0.975704
O O4 0.000000 0.000000 0.000000
O O5 0.879282 0.644182 0.406629
O O6 0.750314 0.545877 0.290980
O O7 0.853306 0.542501 0.492328
O O8 0.030748 0.553548 0.393902
O O9 0.276120 0.819460 0.031006
O O10 0.238377 0.824646 0.203047
O O11 0.070713 0.757165 0.041306
O O12 0.936965 0.676831 0.899198
O O13 0.500000 0.865495 0.250000
O O14 0.669296 0.928391 0.189117
O O15 0.716791 0.015570 0.860881
#
# Coordination Sequence:
#
# PCOD8133346 Si02
#       7
#     8   8   8   8   8   8   8
#     4   9  18  35  55  77 108 147 180 228 287 328
#     4  11  20  32  55  85 110 142 189 232 277 336
#     4   9  19  35  54  76 110 148 184 226 283 339
#     4  10  19  33  53  81 110 141 188 233 270 335
#     4   9  15  29  52  73 101 142 177 216 271 323
#     4  10  19  33  56  83 110 144 181 227 282 332
#     4  10  20  34  53  82 115 146 184 235 284 332
#
# _framework density 19.749510999999998
#
# number of rings (size 3 to 8) (size 9 to 14) (size 15 to 20)
#    0.000    2.286    0.000    6.429    0.000    0.571 
#    5.143    0.714    3.143    0.000    3.714    0.000 
#    0.000    0.000    0.000    0.000    0.000    0.000 
#
# Total GULP energy -346974.563805 kJ/mol
# GULP energy per Si atom -12391.948707 kJ/mol
# Density = 1.970456 g / cm^3
# Si number density = 19.749511 Si / 1000 Ang^3
#
#
#
# Elastic Constant Matrix: (Units=GPa)
#
#
# Indices 1 2 3 4 5 6 
#
# 1 20.1270 15.8790 8.6780 0.0000 7.0177 0.0000
# 2 15.8790 151.6352 56.1750 0.0000 15.1267 0.0000
# 3 8.6780 56.1750 90.2373 0.0000 15.6474 0.0000
# 4 0.0000 0.0000 0.0000 36.5736 0.0000 1.5250
# 5 7.0177 15.1267 15.6474 0.0000 22.7125 0.0000
# 6 0.0000 0.0000 0.0000 1.5250 0.0000 22.4140
#
#
#
# Elastic Compliance Matrix: (Units=1/GPa)
#
#
# Indices 1 2 3 4 5 6 
#
# 1 0.058579 -0.004572 -0.000201 0.000000 -0.014916 0.000000
# 2 -0.004572 0.009036 -0.004982 0.000000 -0.001173 0.000000
# 3 -0.000201 -0.004982 0.015464 0.000000 -0.007273 0.000000
# 4 0.000000 0.000000 0.000000 0.027420 0.000000 -0.001866
# 5 -0.014916 -0.001173 -0.007273 0.000000 0.054430 0.000000
# 6 0.000000 0.000000 0.000000 -0.001866 0.000000 0.044742
#
#
# Mechanical properties :
#
#
# Convention : Reuss Voigt Hill
#
# Bulk Modulus (GPa) = 15.73090 47.05152 31.39121
# Shear Modulus (GPa) = 19.97045 28.42453 24.19749
#
# Velocity S-wave (km/s) = 3.18337 3.79786 3.50411
# Velocity P-wave (km/s) = 4.63619 6.56563 5.68339
#
# Compressibility (1/GPa) = 0.06356916
#
# Stress axis : x y z
#
# Youngs Moduli (GPa) = 17.07105 110.66496 64.66645
#
# Poissons Ratio (x) = 0.50594 0.01299
# Poissons Ratio (y) = 0.07805 0.32218
# Poissons Ratio (z) = 0.00343 0.55136
#
# Static dielectric constant tensor:
#      x y z
#    x 3.735810 0.000000 0.545760 
#    y 0.000000 3.603910 0.000000 
#    z 0.545760 0.000000 3.989040 
# 
# 
# High freq. dielectric constant tensor:
#      x y z
#    x 1.750630 0.000000 0.016280 
#    y 0.000000 1.751860 0.000000 
#    z 0.016280 0.000000 1.773660 
# 
# From -- ./inp_files/200680.got.cif
#   From: 2010.06.25/outbox.cif.g09.slc.cpg/sg15_101_cif.got.tgz:200680.got - 2010.06.28 07:06:18.
