data_PCOD8133084
_publ_section_title
;
Structure prediction by ZEFSAII (Michael W. Deem and Ramdas Pophale) SiO2 
 PCOD8133084
Probable space group: C 2/C
;
_chemical_formula_sum "Si O2"
_cell_formula_units_Z 64
_cell_length_a 20.507441
_cell_length_b 8.528896
_cell_length_c 20.535101
_cell_angle_alpha 90.000000
_cell_angle_beta 94.149369
_cell_angle_gamma 90.000000
_cell_volume 3582.294353
_symmetry_space_group_name_H-M "C 2/C"
_symmetry_group_IT_number 15
_symmetry_cell_setting 'monoclinic'
loop_
_space_group_symop_operation_xyz
x,y,z
-x,y,1/2-z
-x,-y,-z
x,-y,1/2+z
1/2+x,1/2+y,z
1/2-x,1/2+y,1/2-z
1/2-x,1/2-y,-z
1/2+x,1/2-y,1/2+z
loop_
_atom_site_type_symbol
_atom_site_label
_atom_site_fract_x
_atom_site_fract_y
_atom_site_fract_z
Si Si1 0.830941 0.805719 0.317814
Si Si2 0.756382 0.912311 0.605471
Si Si3 0.865750 0.600988 0.944181
Si Si4 0.584071 0.281606 0.432532
Si Si5 0.814815 0.212742 0.667136
Si Si6 0.308142 0.605189 0.383962
Si Si7 0.858410 0.081603 0.006431
Si Si8 0.934235 0.693943 0.419360
O O1 0.771029 0.732253 0.354841
O O2 0.824895 0.751762 0.243451
O O3 0.900263 0.744868 0.349561
O O4 0.828864 0.994755 0.324883
O O5 0.810757 0.849790 0.558780
O O6 0.698850 0.993843 0.559918
O O7 0.787882 0.037127 0.657054
O O8 0.857194 0.745685 0.892826
O O9 0.927179 0.494126 0.926661
O O10 0.877615 0.664161 0.017215
O O11 0.616099 0.267041 0.363822
O O12 0.590376 0.458635 0.459335
O O13 0.509056 0.238542 0.421183
O O14 0.765395 0.336928 0.631733
O O15 0.312485 0.503337 0.450064
O O16 0.899579 0.222210 0.978288
#
# Coordination Sequence:
#
# PCOD8133084 Si02
#       8
#     8   8   8   8   8   8   8   8
#     4  10  20  32  49  72  98 131 163 198 241 289
#     4   9  18  32  50  73  97 121 158 205 250 291
#     4   9  18  32  50  73  98 123 159 205 250 287
#     4  10  19  32  50  72  99 131 162 197 240 291
#     4  10  19  32  50  72  98 129 162 198 240 291
#     4   9  18  32  51  73  97 123 159 205 251 289
#     4   9  18  32  51  74  98 123 157 204 253 291
#     4  10  20  32  49  73 100 131 163 198 239 290
#
# _framework density 17.865644
#
# number of rings (size 3 to 8) (size 9 to 14) (size 15 to 20)
#    0.000    2.500    0.000    2.250    0.000    9.000 
#    0.000    0.000    0.000    0.000    0.000   14.000 
#    0.000    0.000    0.000    0.000    0.000    0.000 
#
# Total GULP energy -396742.575193 kJ/mol
# GULP energy per Si atom -12398.205475 kJ/mol
# Density = 1.782498 g / cm^3
# Si number density = 17.865644 Si / 1000 Ang^3
#
#
#
# Elastic Constant Matrix: (Units=GPa)
#
#
# Indices 1 2 3 4 5 6 
#
# 1 109.7273 43.2612 59.4391 0.0000 -5.8646 0.0000
# 2 43.2612 95.1497 41.2390 0.0000 -8.6638 0.0000
# 3 59.4391 41.2390 103.9318 0.0000 -5.8138 0.0000
# 4 0.0000 0.0000 0.0000 16.0160 0.0000 -0.7438
# 5 -5.8646 -8.6638 -5.8138 0.0000 13.4860 0.0000
# 6 0.0000 0.0000 0.0000 -0.7438 0.0000 22.1762
#
#
#
# Elastic Compliance Matrix: (Units=1/GPa)
#
#
# Indices 1 2 3 4 5 6 
#
# 1 0.014135 -0.003444 -0.006658 0.000000 0.001064 0.000000
# 2 -0.003444 0.014047 -0.003261 0.000000 0.006120 0.000000
# 3 -0.006658 -0.003261 0.014801 0.000000 0.001390 0.000000
# 4 0.000000 0.000000 0.000000 0.062535 0.000000 0.002097
# 5 0.001064 0.006120 0.001390 0.000000 0.079145 0.000000
# 6 0.000000 0.000000 0.000000 0.002097 0.000000 0.045164
#
#
# Mechanical properties :
#
#
# Convention : Reuss Voigt Hill
#
# Bulk Modulus (GPa) = 61.51603 66.29862 63.90732
# Shear Modulus (GPa) = 19.08611 21.32694 20.20652
#
# Velocity S-wave (km/s) = 3.27205 3.45880 3.36672
# Velocity P-wave (km/s) = 6.98444 7.28980 7.13876
#
# Compressibility (1/GPa) = 0.01625593
#
# Stress axis : x y z
#
# Youngs Moduli (GPa) = 70.74806 71.19208 67.56284
#
# Poissons Ratio (x) = 0.24520 0.44980
# Poissons Ratio (y) = 0.24367 0.22035
# Poissons Ratio (z) = 0.47101 0.23219
#
# Static dielectric constant tensor:
#      x y z
#    x 3.154070 0.000000 0.113160 
#    y 0.000000 3.518700 0.000000 
#    z 0.113160 0.000000 3.188650 
# 
# 
# High freq. dielectric constant tensor:
#      x y z
#    x 1.676500 0.000000 0.011480 
#    y 0.000000 1.699340 0.000000 
#    z 0.011480 0.000000 1.677430 
# 
# From -- ./inp_files/247478.got.cif
#   From: 2010.06.25/outbox.cif.g09.slc.cpg/sg15_124_cif.got.tgz:247478.got - 2010.06.28 07:06:18.
