data_PCOD8133745
_publ_section_title
;
Structure prediction by ZEFSAII (Michael W. Deem and Ramdas Pophale) SiO2 
 PCOD8133745
Probable space group: C 2/C
;
_chemical_formula_sum "Si O2"
_cell_formula_units_Z 56
_cell_length_a 9.317698
_cell_length_b 30.301298
_cell_length_c 13.854655
_cell_angle_alpha 90.000000
_cell_angle_beta 131.289778
_cell_angle_gamma 90.000000
_cell_volume 2939.180724
_symmetry_space_group_name_H-M "C 2/C"
_symmetry_group_IT_number 15
_symmetry_cell_setting 'monoclinic'
loop_
_space_group_symop_operation_xyz
x,y,z
-x,y,1/2-z
-x,-y,-z
x,-y,1/2+z
1/2+x,1/2+y,z
1/2-x,1/2+y,1/2-z
1/2-x,1/2-y,-z
1/2+x,1/2-y,1/2+z
loop_
_atom_site_type_symbol
_atom_site_label
_atom_site_fract_x
_atom_site_fract_y
_atom_site_fract_z
Si Si1 0.995287 0.713485 0.134960
Si Si2 0.032321 0.902683 0.119109
Si Si3 0.075725 0.195209 0.973371
Si Si4 0.985319 0.080983 0.381064
Si Si5 0.205041 0.455602 0.621544
Si Si6 0.707597 0.060165 0.611591
Si Si7 0.111317 0.179149 0.208337
O O1 0.039147 0.762525 0.115112
O O2 0.000000 0.716014 0.250000
O O3 0.160995 0.681107 0.168245
O O4 0.785522 0.694984 0.015355
O O5 0.025825 0.849645 0.106646
O O6 0.852453 0.922720 0.095231
O O7 0.229691 0.916559 0.259758
O O8 0.023060 0.924673 0.010445
O O9 0.077876 0.202365 0.090128
O O10 0.786068 0.058018 0.262472
O O11 0.970957 0.130650 0.338777
O O12 0.159222 0.058203 0.404973
O O13 0.202389 0.507965 0.621270
O O14 0.007714 0.429005 0.516481
O O15 0.000000 0.201546 0.250000
#
# Coordination Sequence:
#
# PCOD8133745 Si02
#       7
#     8   8   8   8   8   8   8
#     4   9  19  35  55  80 111 144 182 234 285 330
#     4  10  21  36  57  85 113 143 192 233 279 335
#     4   9  20  35  55  81 109 146 187 232 283 333
#     4  10  20  36  60  80 110 153 189 228 278 335
#     4  10  21  39  57  81 116 149 188 227 290 333
#     4  10  23  37  55  87 115 145 187 239 279 339
#     4  10  19  34  56  81 109 144 190 232 275 339
#
# _framework density 19.052927
#
# number of rings (size 3 to 8) (size 9 to 14) (size 15 to 20)
#    0.000    2.286    1.429    1.714    4.000    4.000 
#    0.000    2.857    6.286    0.000    0.000    0.000 
#    0.000    0.000    0.000    0.000    0.000    0.000 
#
# Total GULP energy -346966.598522 kJ/mol
# GULP energy per Si atom -12391.664233 kJ/mol
# Density = 1.900956 g / cm^3
# Si number density = 19.052927 Si / 1000 Ang^3
#
#
#
# Elastic Constant Matrix: (Units=GPa)
#
#
# Indices 1 2 3 4 5 6 
#
# 1 43.3777 -6.3039 2.4910 0.0000 -6.1751 0.0000
# 2 -6.3039 44.6363 3.2214 0.0000 2.2396 0.0000
# 3 2.4910 3.2214 38.7125 0.0000 10.2219 0.0000
# 4 0.0000 0.0000 0.0000 20.4910 0.0000 -3.3081
# 5 -6.1751 2.2396 10.2219 0.0000 27.6423 0.0000
# 6 0.0000 0.0000 0.0000 -3.3081 0.0000 -24.0608
#
#
#
# Elastic Compliance Matrix: (Units=1/GPa)
#
#
# Indices 1 2 3 4 5 6 
#
# 1 0.024693 0.003418 -0.003609 0.000000 0.006574 0.000000
# 2 0.003418 0.023051 -0.002046 0.000000 -0.000347 0.000000
# 3 -0.003609 -0.002046 0.029260 0.000000 -0.011461 0.000000
# 4 0.000000 0.000000 0.000000 0.047742 0.000000 -0.006564
# 5 0.006574 -0.000347 -0.011461 0.000000 0.041911 0.000000
# 6 0.000000 0.000000 0.000000 -0.006564 0.000000 -0.040659
#
#
# Mechanical properties :
#
#
# Convention : Reuss Voigt Hill
#
# Bulk Modulus (GPa) = 13.78753 13.94927 13.86840
# Shear Modulus (GPa) = 32.33097 13.30236 22.81667
#
# Velocity S-wave (km/s) = 4.12382 2.64518 3.46431
# Velocity P-wave (km/s) = 5.47052 4.08246 4.82665
#
# Compressibility (1/GPa) = 0.07252929
#
# Stress axis : x y z
#
# Youngs Moduli (GPa) = 40.49709 43.38187 34.17619
#
# Poissons Ratio (x) = -0.14828 0.12335
# Poissons Ratio (y) = -0.13842 0.06994
# Poissons Ratio (z) = 0.14616 0.08878
#
# Static dielectric constant tensor:
#      x y z
#    x 3.940220 0.000000 0.000530 
#    y 0.000000 3.417340 0.000000 
#    z 0.000530 0.000000 3.909170 
# 
# 
# High freq. dielectric constant tensor:
#      x y z
#    x 1.731970 0.000000 -0.003760 
#    y 0.000000 1.739490 0.000000 
#    z -0.003760 0.000000 1.747470 
# 
# From -- ./inp_files/139581.got.cif
#   From: 2010.06.25/outbox.cif.g09.slc.cpg/sg15_70_cif.got.tgz:139581.got - 2010.06.28 07:06:18.
