data_PCOD8133199
_publ_section_title
;
Structure prediction by ZEFSAII (Michael W. Deem and Ramdas Pophale) SiO2 
 PCOD8133199
Probable space group: C 2/C
;
_chemical_formula_sum "Si O2"
_cell_formula_units_Z 64
_cell_length_a 12.108459
_cell_length_b 15.992761
_cell_length_c 20.114586
_cell_angle_alpha 90.000000
_cell_angle_beta 109.695619
_cell_angle_gamma 90.000000
_cell_volume 3667.262914
_symmetry_space_group_name_H-M "C 2/C"
_symmetry_group_IT_number 15
_symmetry_cell_setting 'monoclinic'
loop_
_space_group_symop_operation_xyz
x,y,z
-x,y,1/2-z
-x,-y,-z
x,-y,1/2+z
1/2+x,1/2+y,z
1/2-x,1/2+y,1/2-z
1/2-x,1/2-y,-z
1/2+x,1/2-y,1/2+z
loop_
_atom_site_type_symbol
_atom_site_label
_atom_site_fract_x
_atom_site_fract_y
_atom_site_fract_z
Si Si1 0.581544 0.000052 0.677951
Si Si2 0.035526 0.041420 0.907784
Si Si3 0.657126 0.656945 0.686342
Si Si4 0.523225 0.817133 0.676979
Si Si5 0.647471 0.571128 0.070758
Si Si6 0.838138 0.453286 0.166175
Si Si7 0.285316 0.593118 0.658877
Si Si8 0.773414 0.262012 0.581635
O O1 0.551882 0.906035 0.649963
O O2 0.643460 0.994671 0.762301
O O3 0.463995 0.057856 0.656258
O O4 0.667747 0.039137 0.641589
O O5 0.962197 0.955070 0.903821
O O6 0.122954 0.035594 0.863043
O O7 0.946589 0.117121 0.877615
O O8 0.111186 0.064540 0.987116
O O9 0.634243 0.755863 0.686950
O O10 0.780232 0.636731 0.673544
O O11 0.655877 0.615922 0.759068
O O12 0.500000 0.826418 0.750000
O O13 0.409717 0.781979 0.617588
O O14 0.754031 0.506812 0.102089
O O15 0.690768 0.664926 0.095470
O O16 0.245034 0.676777 0.613658
O O17 0.750000 0.250000 0.500000
#
# Coordination Sequence:
#
# PCOD8133199 Si02
#       8
#     8   8   8   8   8   8   8   8
#     4  10  20  34  53  78 109 144 180 220 271 329
#     4  10  19  34  53  80 109 139 175 221 276 320
#     4  10  19  32  56  80 106 139 182 228 268 312
#     4  12  18  33  56  80 103 138 188 218 259 320
#     4  10  19  33  55  78 106 141 179 220 269 325
#     4   9  18  34  52  76 107 144 178 217 271 328
#     4  11  21  34  54  82 112 139 178 230 275 314
#     4  12  21  34  54  82 108 134 184 228 263 316
#
# _framework density 17.451706999999999
#
# number of rings (size 3 to 8) (size 9 to 14) (size 15 to 20)
#    0.000    1.500    6.250    0.375    0.000    0.000 
#    0.000    3.750    0.000    0.000    0.000    7.000 
#    0.000    0.000    0.000    0.000    0.000    0.000 
#
# Total GULP energy -396723.802787 kJ/mol
# GULP energy per Si atom -12397.618837 kJ/mol
# Density = 1.741199 g / cm^3
# Si number density = 17.451707 Si / 1000 Ang^3
#
#
#
# Elastic Constant Matrix: (Units=GPa)
#
#
# Indices 1 2 3 4 5 6 
#
# 1 131.1501 65.9239 25.4865 0.0000 0.7461 0.0000
# 2 65.9239 111.4487 17.6370 0.0000 -2.6214 0.0000
# 3 25.4865 17.6370 72.4998 0.0000 19.6393 0.0000
# 4 0.0000 0.0000 0.0000 15.9009 0.0000 0.1614
# 5 0.7461 -2.6214 19.6393 0.0000 14.1306 0.0000
# 6 0.0000 0.0000 0.0000 0.1614 0.0000 39.5710
#
#
#
# Elastic Compliance Matrix: (Units=1/GPa)
#
#
# Indices 1 2 3 4 5 6 
#
# 1 0.011312 -0.006113 -0.003240 0.000000 0.002772 0.000000
# 2 -0.006113 0.013210 -0.002912 0.000000 0.006821 0.000000
# 3 -0.003240 -0.002912 0.025245 0.000000 -0.035456 0.000000
# 4 0.000000 0.000000 0.000000 0.062892 0.000000 -0.000257
# 5 0.002772 0.006821 -0.035456 0.000000 0.121166 0.000000
# 6 0.000000 0.000000 0.000000 -0.000257 0.000000 0.025272
#
#
# Mechanical properties :
#
#
# Convention : Reuss Voigt Hill
#
# Bulk Modulus (GPa) = 39.62659 59.24372 49.43516
# Shear Modulus (GPa) = 17.12092 27.65726 22.38909
#
# Velocity S-wave (km/s) = 3.13556 3.98526 3.58567
# Velocity P-wave (km/s) = 5.98872 7.42949 6.74767
#
# Compressibility (1/GPa) = 0.02523558
#
# Stress axis : x y z
#
# Youngs Moduli (GPa) = 88.40545 75.70021 39.61114
#
# Poissons Ratio (x) = 0.46275 0.12835
# Poissons Ratio (y) = 0.54042 0.11536
# Poissons Ratio (z) = 0.28646 0.22047
#
# Static dielectric constant tensor:
#      x y z
#    x 3.353050 0.000000 0.119830 
#    y 0.000000 3.637460 0.000000 
#    z 0.119830 0.000000 3.297360 
# 
# 
# High freq. dielectric constant tensor:
#      x y z
#    x 1.669540 0.000000 0.019850 
#    y 0.000000 1.661170 0.000000 
#    z 0.019850 0.000000 1.676470 
# 
# From -- ./inp_files/238741.got.cif
#   From: 2010.06.25/outbox.cif.g09.slc.cpg/sg15_120_cif.got.tgz:238741.got - 2010.06.28 07:06:18.
