data_PCOD8133070
_publ_section_title
;
Structure prediction by ZEFSAII (Michael W. Deem and Ramdas Pophale) SiO2 
 PCOD8133070
Probable space group: C 2/C
;
_chemical_formula_sum "Si O2"
_cell_formula_units_Z 48
_cell_length_a 13.456772
_cell_length_b 34.493317
_cell_length_c 5.084745
_cell_angle_alpha 90.000000
_cell_angle_beta 64.109388
_cell_angle_gamma 90.000000
_cell_volume 2123.286710
_symmetry_space_group_name_H-M "C 2/C"
_symmetry_group_IT_number 15
_symmetry_cell_setting 'monoclinic'
loop_
_space_group_symop_operation_xyz
x,y,z
-x,y,1/2-z
-x,-y,-z
x,-y,1/2+z
1/2+x,1/2+y,z
1/2-x,1/2+y,1/2-z
1/2-x,1/2-y,-z
1/2+x,1/2-y,1/2+z
loop_
_atom_site_type_symbol
_atom_site_label
_atom_site_fract_x
_atom_site_fract_y
_atom_site_fract_z
Si Si1 0.569457 0.229478 0.927660
Si Si2 0.750367 0.666869 0.867395
Si Si3 0.678446 0.484848 0.531184
Si Si4 0.322012 0.918496 0.356308
Si Si5 0.880387 0.186144 0.985308
Si Si6 0.612318 0.960638 0.731213
O O1 0.500000 0.242178 0.750000
O O2 0.660638 0.200808 0.705782
O O3 0.500000 0.209916 0.250000
O O4 0.624654 0.267186 0.998410
O O5 0.811845 0.627367 0.872139
O O6 0.706455 0.668366 0.620702
O O7 0.649550 0.671406 0.188677
O O8 0.611416 0.493525 0.340523
O O9 0.701833 0.439456 0.553150
O O10 0.797458 0.505913 0.315276
O O11 0.405266 0.934336 0.485927
O O12 0.354120 0.929605 0.025872
O O13 0.000000 0.171625 0.750000
O O14 0.500000 0.981072 0.750000
#
# Coordination Sequence:
#
# PCOD8133070 Si02
#       6
#     8   8   8   8   8   8
#     4  11  23  40  61  89 120 154 192 226 280 360
#     4  12  23  39  61  87 121 152 186 242 303 338
#     4   8  16  29  45  66  99 139 190 226 255 310
#     4  10  21  32  47  76 108 143 185 225 275 327
#     4  11  23  42  64  85 108 147 201 248 291 346
#     4  10  19  32  49  71 108 156 198 227 257 319
#
# _framework density 22.606462000000001
#
# number of rings (size 3 to 8) (size 9 to 14) (size 15 to 20)
#    0.000    1.667    0.000    6.000    0.000    8.000 
#    0.000    0.000    0.000    0.000    0.000    0.000 
#    0.000  120.000    0.000    0.000    0.000    0.000 
#
# Total GULP energy -297372.057384 kJ/mol
# GULP energy per Si atom -12390.502391 kJ/mol
# Density = 2.255501 g / cm^3
# Si number density = 22.606462 Si / 1000 Ang^3
#
#
#
# Elastic Constant Matrix: (Units=GPa)
#
#
# Indices 1 2 3 4 5 6 
#
# 1 56.8782 22.1306 21.8427 0.0000 15.0039 0.0000
# 2 22.1306 82.0069 9.7117 0.0000 3.6679 0.0000
# 3 21.8427 9.7117 111.7964 0.0000 23.5524 0.0000
# 4 0.0000 0.0000 0.0000 11.0577 0.0000 9.9726
# 5 15.0039 3.6679 23.5524 0.0000 43.1420 0.0000
# 6 0.0000 0.0000 0.0000 9.9726 0.0000 18.8891
#
#
#
# Elastic Compliance Matrix: (Units=1/GPa)
#
#
# Indices 1 2 3 4 5 6 
#
# 1 0.022249 -0.005430 -0.002647 0.000000 -0.005831 0.000000
# 2 -0.005430 0.013656 -0.000315 0.000000 0.000899 0.000000
# 3 -0.002647 -0.000315 0.010497 0.000000 -0.004783 0.000000
# 4 0.000000 0.000000 0.000000 0.172632 0.000000 -0.091142
# 5 -0.005831 0.000899 -0.004783 0.000000 0.027742 0.000000
# 6 0.000000 0.000000 0.000000 -0.091142 0.000000 0.101059
#
#
# Mechanical properties :
#
#
# Convention : Reuss Voigt Hill
#
# Bulk Modulus (GPa) = 33.76196 39.78350 36.77273
# Shear Modulus (GPa) = 13.35142 27.75085 20.55114
#
# Velocity S-wave (km/s) = 2.43287 3.50746 3.01837
# Velocity P-wave (km/s) = 4.78109 5.83434 5.33378
#
# Compressibility (1/GPa) = 0.02961913
#
# Stress axis : x y z
#
# Youngs Moduli (GPa) = 44.94634 73.22529 95.26497
#
# Poissons Ratio (x) = 0.39760 0.25215
# Poissons Ratio (y) = 0.24405 0.03000
# Poissons Ratio (z) = 0.11896 0.02306
#
# Static dielectric constant tensor:
#      x y z
#    x 3.961450 0.000000 0.402730 
#    y 0.000000 3.814060 0.000000 
#    z 0.402730 0.000000 4.517790 
# 
# 
# High freq. dielectric constant tensor:
#      x y z
#    x 1.870440 0.000000 0.034190 
#    y 0.000000 1.868290 0.000000 
#    z 0.034190 0.000000 1.919250 
# 
# From -- ./inp_files/8927.got.cif
#   From: 2010.06.25/outbox.cif.g09.slc.cpg/sg15_5_cif.got.tgz:8927.got - 2010.06.28 07:06:18.
