data_PCOD8133604
_publ_section_title
;
Structure prediction by ZEFSAII (Michael W. Deem and Ramdas Pophale) SiO2 
 PCOD8133604
Probable space group: C 2/C
;
_chemical_formula_sum "Si O2"
_cell_formula_units_Z 60
_cell_length_a 14.766248
_cell_length_b 22.390944
_cell_length_c 16.116573
_cell_angle_alpha 90.000000
_cell_angle_beta 36.988691
_cell_angle_gamma 90.000000
_cell_volume 3206.007307
_symmetry_space_group_name_H-M "C 2/C"
_symmetry_group_IT_number 15
_symmetry_cell_setting 'monoclinic'
loop_
_space_group_symop_operation_xyz
x,y,z
-x,y,1/2-z
-x,-y,-z
x,-y,1/2+z
1/2+x,1/2+y,z
1/2-x,1/2+y,1/2-z
1/2-x,1/2-y,-z
1/2+x,1/2-y,1/2+z
loop_
_atom_site_type_symbol
_atom_site_label
_atom_site_fract_x
_atom_site_fract_y
_atom_site_fract_z
Si Si1 0.899567 0.926471 0.159268
Si Si2 0.144415 0.505815 0.537322
Si Si3 0.175152 0.889387 0.863666
Si Si4 0.000000 0.801558 0.250000
Si Si5 0.550650 0.812361 0.801891
Si Si6 0.691053 0.012173 0.688784
Si Si7 0.278856 0.874763 0.065317
Si Si8 0.099714 0.048911 0.255759
O O1 0.816312 0.946563 0.137318
O O2 0.783617 0.887296 0.296996
O O3 0.960871 0.985449 0.163300
O O4 0.038563 0.885184 0.029397
O O5 0.200584 0.528438 0.585354
O O6 0.173718 0.435079 0.515183
O O7 0.230297 0.538578 0.400221
O O8 0.971750 0.524282 0.652307
O O9 0.281562 0.831138 0.791843
O O10 0.108349 0.899675 0.819466
O O11 0.281098 0.943537 0.811808
O O12 0.950860 0.759713 0.207860
O O13 0.859442 0.842597 0.381968
O O14 0.500000 0.841582 0.750000
O O15 0.425265 0.831992 0.961360
O O16 0.000000 0.069081 0.250000
#
# Coordination Sequence:
#
# PCOD8133604 Si02
#       8
#     8   8   8   4   8   8   8   8
#     4  10  23  31  54  76 114 145 190 224 272 332
#     4  10  20  30  55  75 112 154 186 224 274 330
#     4  11  20  34  53  74 109 149 185 230 279 330
#     4  10  26  38  58  78 114 138 198 240 286 330
#     4  10  23  38  55  76 108 145 184 237 287 328
#     4  10  19  34  48  79 113 150 186 226 270 330
#     4  11  22  36  55  79 104 153 187 225 280 340
#     4  10  20  32  49  76 111 145 189 223 267 330
#
# _framework density 18.714867000000002
#
# number of rings (size 3 to 8) (size 9 to 14) (size 15 to 20)
#    0.400    1.333    1.333    4.400    9.333    1.600 
#    0.000    0.000    0.000    0.000    0.000    0.000 
#    4.000    3.200    0.000    0.000    0.000    0.000 
#
# Total GULP energy -371887.759688 kJ/mol
# GULP energy per Si atom -12396.258656 kJ/mol
# Density = 1.867227 g / cm^3
# Si number density = 18.714867 Si / 1000 Ang^3
#
#
#
# Elastic Constant Matrix: (Units=GPa)
#
#
# Indices 1 2 3 4 5 6 
#
# 1 70.0068 11.3126 18.7587 -0.0203 -6.0872 0.0119
# 2 11.3126 44.7931 12.2024 -0.0216 -3.9264 0.0129
# 3 18.7587 12.2024 92.9855 -0.0180 -5.2596 0.0106
# 4 -0.0203 -0.0216 -0.0180 12.7609 0.0128 -4.3854
# 5 -6.0872 -3.9264 -5.2596 0.0128 26.4536 -0.0090
# 6 0.0119 0.0129 0.0106 -4.3854 -0.0090 26.9063
#
#
#
# Elastic Compliance Matrix: (Units=1/GPa)
#
#
# Indices 1 2 3 4 5 6 
#
# 1 0.015705 -0.003020 -0.002622 0.000013 0.002644 -0.000001
# 2 -0.003020 0.023950 -0.002399 0.000029 0.002383 -0.000004
# 3 -0.002622 -0.002399 0.011675 0.000007 0.001362 -0.000001
# 4 0.000013 0.000029 0.000007 0.083014 -0.000027 0.013530
# 5 0.002644 0.002383 0.001362 -0.000027 0.039035 0.000006
# 6 -0.000001 -0.000004 -0.000001 0.013530 0.000006 0.039371
#
#
# Mechanical properties :
#
#
# Convention : Reuss Voigt Hill
#
# Bulk Modulus (GPa) = 28.37090 32.48143 30.42617
# Shear Modulus (GPa) = 20.78288 24.25826 22.52057
#
# Velocity S-wave (km/s) = 3.33603 3.60419 3.47270
# Velocity P-wave (km/s) = 5.48008 5.89185 5.68969
#
# Compressibility (1/GPa) = 0.03524738
#
# Stress axis : x y z
#
# Youngs Moduli (GPa) = 63.67412 41.75360 85.65144
#
# Poissons Ratio (x) = 0.12610 0.22461
# Poissons Ratio (y) = 0.19231 0.20547
# Poissons Ratio (z) = 0.16698 0.10016
#
# Static dielectric constant tensor:
#      x y z
#    x 3.321420 -0.000020 -0.061360 
#    y -0.000020 3.094520 0.000030 
#    z -0.061360 0.000030 3.644880 
# 
# 
# High freq. dielectric constant tensor:
#      x y z
#    x 1.712390 0.000000 -0.010650 
#    y 0.000000 1.671140 0.000000 
#    z -0.010650 0.000000 1.753550 
# 
# From -- ./inp_files/156345.got.cif
#   From: 2010.06.25/outbox.cif.g09.slc.cpg/sg15_79_cif.got.tgz:156345.got - 2010.06.28 07:06:18.
