data_PCOD8133574
_publ_section_title
;
Structure prediction by ZEFSAII (Michael W. Deem and Ramdas Pophale) SiO2 
 PCOD8133574
Probable space group: C 2/C
;
_chemical_formula_sum "Si O2"
_cell_formula_units_Z 36
_cell_length_a 19.075290
_cell_length_b 17.582552
_cell_length_c 14.029085
_cell_angle_alpha 90.000000
_cell_angle_beta 156.682588
_cell_angle_gamma 90.000000
_cell_volume 1862.452412
_symmetry_space_group_name_H-M "C 2/C"
_symmetry_group_IT_number 15
_symmetry_cell_setting 'monoclinic'
loop_
_space_group_symop_operation_xyz
x,y,z
-x,y,1/2-z
-x,-y,-z
x,-y,1/2+z
1/2+x,1/2+y,z
1/2-x,1/2+y,1/2-z
1/2-x,1/2-y,-z
1/2+x,1/2-y,1/2+z
loop_
_atom_site_type_symbol
_atom_site_label
_atom_site_fract_x
_atom_site_fract_y
_atom_site_fract_z
Si Si1 0.500000 0.276674 0.750000
Si Si2 0.500000 0.783744 0.750000
Si Si3 0.500000 0.532084 0.750000
Si Si4 0.425196 0.860477 0.028673
Si Si5 0.726373 0.842285 0.863190
Si Si6 0.226134 0.906652 0.948137
O O1 0.434792 0.224475 0.582072
O O2 0.653620 0.328327 0.899671
O O3 0.599107 0.836958 0.796772
O O4 0.352735 0.731668 0.513637
O O5 0.348422 0.583371 0.514676
O O6 0.594057 0.477724 0.790608
O O7 0.399545 0.851895 0.884528
O O8 0.260062 0.899952 0.877102
O O9 0.593196 0.914310 0.264238
#
# Coordination Sequence:
#
# PCOD8133574 Si02
#       6
#     4   4   4   8   8   8
#     4   9  18  33  55  90 115 144 178 252 281 334
#     4   9  22  41  55  88 111 150 192 244 275 322
#     4  10  22  42  52  78 126 156 190 226 276 338
#     4  10  19  33  60  87 109 148 193 234 285 333
#     4  10  22  38  62  81 114 153 191 235 283 334
#     4   9  20  36  55  86 121 146 182 238 284 341
#
# _framework density 19.329353000000001
#
# number of rings (size 3 to 8) (size 9 to 14) (size 15 to 20)
#    0.000    2.667    0.000    2.667    6.222    3.556 
#    0.000    0.000    0.000    0.000    0.000    0.000 
#    0.000    0.000    0.000    0.000    0.000    0.000 
#
# Total GULP energy -223058.326796 kJ/mol
# GULP energy per Si atom -12392.129266 kJ/mol
# Density = 1.928536 g / cm^3
# Si number density = 19.329353 Si / 1000 Ang^3
#
#
#
# Elastic Constant Matrix: (Units=GPa)
#
#
# Indices 1 2 3 4 5 6 
#
# 1 129.4789 55.7456 65.2466 0.0000 4.2741 0.0000
# 2 55.7456 106.5990 36.1567 0.0000 8.0632 0.0000
# 3 65.2466 36.1567 73.3539 0.0000 1.0264 0.0000
# 4 0.0000 0.0000 0.0000 16.9046 0.0000 10.5238
# 5 4.2741 8.0632 1.0264 0.0000 39.5411 0.0000
# 6 0.0000 0.0000 0.0000 10.5238 0.0000 16.4102
#
#
#
# Elastic Compliance Matrix: (Units=1/GPa)
#
#
# Indices 1 2 3 4 5 6 
#
# 1 0.015354 -0.004033 -0.011661 0.000000 -0.000534 0.000000
# 2 -0.004033 0.012510 -0.002550 0.000000 -0.002049 0.000000
# 3 -0.011661 -0.002550 0.025246 0.000000 0.001125 0.000000
# 4 0.000000 0.000000 0.000000 0.098467 0.000000 -0.063147
# 5 -0.000534 -0.002049 0.001125 0.000000 0.025736 0.000000
# 6 0.000000 0.000000 0.000000 -0.063147 0.000000 0.101433
#
#
# Mechanical properties :
#
#
# Convention : Reuss Voigt Hill
#
# Bulk Modulus (GPa) = 60.16618 69.30329 64.73473
# Shear Modulus (GPa) = 15.58719 24.72339 20.15529
#
# Velocity S-wave (km/s) = 2.84280 3.58027 3.23264
# Velocity P-wave (km/s) = 6.47841 7.28168 6.89176
#
# Compressibility (1/GPa) = 0.01662063
#
# Stress axis : x y z
#
# Youngs Moduli (GPa) = 65.13072 79.93518 39.61009
#
# Poissons Ratio (x) = 0.32242 0.46190
# Poissons Ratio (y) = 0.26270 0.10101
# Poissons Ratio (z) = 0.75950 0.20384
#
# Static dielectric constant tensor:
#      x y z
#    x 3.570140 0.000000 0.353200 
#    y 0.000000 3.505150 0.000000 
#    z 0.353200 0.000000 3.466510 
# 
# 
# High freq. dielectric constant tensor:
#      x y z
#    x 1.755020 0.000000 0.027490 
#    y 0.000000 1.746030 0.000000 
#    z 0.027490 0.000000 1.743660 
# 
# From -- ./inp_files/28771.got.cif
#   From: 2010.06.25/outbox.cif.g09.slc.cpg/sg15_15_cif.got.tgz:28771.got - 2010.06.28 07:06:18.
