data_PCOD8133181
_publ_section_title
;
Structure prediction by ZEFSAII (Michael W. Deem and Ramdas Pophale) SiO2 
 PCOD8133181
Probable space group: C 2/C
;
_chemical_formula_sum "Si O2"
_cell_formula_units_Z 36
_cell_length_a 7.585637
_cell_length_b 31.546541
_cell_length_c 8.833885
_cell_angle_alpha 90.000000
_cell_angle_beta 54.748962
_cell_angle_gamma 90.000000
_cell_volume 1726.320625
_symmetry_space_group_name_H-M "C 2/C"
_symmetry_group_IT_number 15
_symmetry_cell_setting 'monoclinic'
loop_
_space_group_symop_operation_xyz
x,y,z
-x,y,1/2-z
-x,-y,-z
x,-y,1/2+z
1/2+x,1/2+y,z
1/2-x,1/2+y,1/2-z
1/2-x,1/2-y,-z
1/2+x,1/2-y,1/2+z
loop_
_atom_site_type_symbol
_atom_site_label
_atom_site_fract_x
_atom_site_fract_y
_atom_site_fract_z
Si Si1 0.654462 0.704328 0.875668
Si Si2 0.651704 0.642771 0.320040
Si Si3 0.251420 0.951237 0.859912
Si Si4 0.500000 0.494187 0.250000
Si Si5 0.958113 0.295828 0.514961
O O1 0.543571 0.749991 0.903554
O O2 0.798906 0.692565 0.657587
O O3 0.472528 0.668807 0.988130
O O4 0.802094 0.706651 0.949323
O O5 0.500000 0.636125 0.250000
O O6 0.720330 0.598449 0.354577
O O7 0.870656 0.668045 0.170365
O O8 0.500000 0.963301 0.750000
O O9 0.164425 0.976083 0.758052
O O10 0.130816 0.964237 0.072429
#
# Coordination Sequence:
#
# PCOD8133181 Si02
#       5
#     8   8   8   4   8
#     4   9  15  25  44  77 116 161 207 251 296 351
#     4  10  19  32  54  87 126 160 207 259 302 366
#     4  11  23  43  69  97 128 164 206 260 321 385
#     4  10  24  46  70  96 124 164 206 260 322 394
#     4   9  15  25  45  76 116 162 207 250 298 348
#
# _framework density 20.8536
#
# number of rings (size 3 to 8) (size 9 to 14) (size 15 to 20)
#    0.000    2.222    3.333    0.667    0.000    1.778 
#    0.000    0.000    0.000    1.333    0.000    0.000 
#    0.000    0.000    0.000    0.000    0.000    0.000 
#
# Total GULP energy -223218.715807 kJ/mol
# GULP energy per Si atom -12401.039767 kJ/mol
# Density = 2.080614 g / cm^3
# Si number density = 20.853600 Si / 1000 Ang^3
#
#
#
# Elastic Constant Matrix: (Units=GPa)
#
#
# Indices 1 2 3 4 5 6 
#
# 1 75.3213 50.8920 63.0051 0.0000 -4.6374 0.0000
# 2 50.8920 164.7063 87.9101 0.0000 -11.0704 0.0000
# 3 63.0051 87.9101 159.9821 0.0000 -33.1532 0.0000
# 4 0.0000 0.0000 0.0000 30.4985 0.0000 5.9293
# 5 -4.6374 -11.0704 -33.1532 0.0000 29.1992 0.0000
# 6 0.0000 0.0000 0.0000 5.9293 0.0000 -51.9265
#
#
#
# Elastic Compliance Matrix: (Units=1/GPa)
#
#
# Indices 1 2 3 4 5 6 
#
# 1 0.021873 -0.002602 -0.008721 0.000000 -0.007414 0.000000
# 2 -0.002602 0.009073 -0.004359 0.000000 -0.001923 0.000000
# 3 -0.008721 -0.004359 0.014974 0.000000 0.013964 0.000000
# 4 0.000000 0.000000 0.000000 0.032076 0.000000 0.003663
# 5 -0.007414 -0.001923 0.013964 0.000000 0.048196 0.000000
# 6 0.000000 0.000000 0.000000 0.003663 0.000000 -0.018840
#
#
# Mechanical properties :
#
#
# Convention : Reuss Voigt Hill
#
# Bulk Modulus (GPa) = 68.70053 89.29156 78.99605
# Shear Modulus (GPa) = 34.82633 14.76774 24.79704
#
# Velocity S-wave (km/s) = 4.09104 2.66402 3.45208
# Velocity P-wave (km/s) = 7.43850 7.23698 7.33843
#
# Compressibility (1/GPa) = 0.01455593
#
# Stress axis : x y z
#
# Youngs Moduli (GPa) = 45.71865 110.21826 66.78057
#
# Poissons Ratio (x) = 0.28681 0.58237
# Poissons Ratio (y) = 0.11897 0.29111
# Poissons Ratio (z) = 0.39870 0.48047
#
# Static dielectric constant tensor:
#      x y z
#    x 3.341910 0.000000 -0.210420 
#    y 0.000000 3.678970 0.000000 
#    z -0.210420 0.000000 4.010680 
# 
# 
# High freq. dielectric constant tensor:
#      x y z
#    x 1.812860 0.000000 -0.007740 
#    y 0.000000 1.810130 0.000000 
#    z -0.007740 0.000000 1.827110 
# 
# From -- ./inp_files/25290.got.cif
#   From: 2010.06.25/outbox.cif.g09.slc.cpg/sg15_13_cif.got.tgz:25290.got - 2010.06.28 07:06:18.
