data_PCOD8133835
_publ_section_title
;
Structure prediction by ZEFSAII (Michael W. Deem and Ramdas Pophale) SiO2 
 PCOD8133835
Probable space group: C 2/C
;
_chemical_formula_sum "Si O2"
_cell_formula_units_Z 56
_cell_length_a 22.059788
_cell_length_b 17.536259
_cell_length_c 13.352824
_cell_angle_alpha 90.000000
_cell_angle_beta 148.190673
_cell_angle_gamma 90.000000
_cell_volume 2722.698789
_symmetry_space_group_name_H-M "C 2/C"
_symmetry_group_IT_number 15
_symmetry_cell_setting 'monoclinic'
loop_
_space_group_symop_operation_xyz
x,y,z
-x,y,1/2-z
-x,-y,-z
x,-y,1/2+z
1/2+x,1/2+y,z
1/2-x,1/2+y,1/2-z
1/2-x,1/2-y,-z
1/2+x,1/2-y,1/2+z
loop_
_atom_site_type_symbol
_atom_site_label
_atom_site_fract_x
_atom_site_fract_y
_atom_site_fract_z
Si Si1 0.893334 0.708769 0.165561
Si Si2 0.958383 0.858941 0.919759
Si Si3 0.115559 0.027588 0.354940
Si Si4 0.790167 0.648415 0.634858
Si Si5 0.532095 0.194856 0.002533
Si Si6 0.276242 0.192321 0.386216
Si Si7 0.336305 0.367107 0.145157
O O1 0.909948 0.696575 0.307402
O O2 0.873412 0.799515 0.120554
O O3 0.000000 0.680270 0.250000
O O4 0.784002 0.660125 0.973807
O O5 0.927073 0.926958 0.801926
O O6 0.844430 0.841019 0.826633
O O7 0.987174 0.778648 0.904344
O O8 0.066247 0.883661 0.136244
O O9 0.209627 0.076478 0.548891
O O10 0.000000 0.007745 0.250000
O O11 0.182190 0.948241 0.432245
O O12 0.731022 0.716627 0.613443
O O13 0.795093 0.657926 0.522356
O O14 0.923075 0.637508 0.854647
O O15 0.623417 0.166867 0.048327
#
# Coordination Sequence:
#
# PCOD8133835 Si02
#       7
#     8   8   8   8   8   8   8
#     4  10  23  41  59  79 103 140 190 233 267 311
#     4   9  20  34  54  82 110 142 179 223 271 315
#     4  11  21  34  55  84 113 139 173 219 275 330
#     4   9  19  32  52  83 117 145 174 216 270 327
#     4  10  19  34  58  81 109 147 184 223 266 317
#     4   9  17  32  54  84 114 143 180 219 266 324
#     4  10  22  39  58  78 105 142 183 225 268 317
#
# _framework density 20.567827000000001
#
# number of rings (size 3 to 8) (size 9 to 14) (size 15 to 20)
#    0.000    2.286    0.000    3.000    0.000   12.571 
#    0.000    3.571    0.000    0.000    0.000    0.000 
#    0.000    0.000    0.000    0.000    0.000    0.000 
#
# Total GULP energy -347011.976792 kJ/mol
# GULP energy per Si atom -12393.284885 kJ/mol
# Density = 2.052101 g / cm^3
# Si number density = 20.567827 Si / 1000 Ang^3
#
#
#
# Elastic Constant Matrix: (Units=GPa)
#
#
# Indices 1 2 3 4 5 6 
#
# 1 66.3488 11.0295 21.6523 0.0000 20.2705 0.0000
# 2 11.0295 101.4796 41.4956 0.0000 2.9758 0.0000
# 3 21.6523 41.4956 119.2141 0.0000 19.9467 0.0000
# 4 0.0000 0.0000 0.0000 22.6559 0.0000 0.7269
# 5 20.2705 2.9758 19.9467 0.0000 32.6599 0.0000
# 6 0.0000 0.0000 0.0000 0.7269 0.0000 11.1994
#
#
#
# Elastic Compliance Matrix: (Units=1/GPa)
#
#
# Indices 1 2 3 4 5 6 
#
# 1 0.019018 -0.001263 -0.001179 0.000000 -0.010968 0.000000
# 2 -0.001263 0.011645 -0.004207 0.000000 0.002293 0.000000
# 3 -0.001179 -0.004207 0.011005 0.000000 -0.005606 0.000000
# 4 0.000000 0.000000 0.000000 0.044231 0.000000 -0.002871
# 5 -0.010968 0.002293 -0.005606 0.000000 0.040641 0.000000
# 6 0.000000 0.000000 0.000000 -0.002871 0.000000 0.089476
#
#
# Mechanical properties :
#
#
# Convention : Reuss Voigt Hill
#
# Bulk Modulus (GPa) = 35.25151 48.37748 41.81450
# Shear Modulus (GPa) = 20.94059 27.49404 24.21732
#
# Velocity S-wave (km/s) = 3.19427 3.66013 3.43510
# Velocity P-wave (km/s) = 5.54805 6.43693 6.00895
#
# Compressibility (1/GPa) = 0.02836758
#
# Stress axis : x y z
#
# Youngs Moduli (GPa) = 52.58296 85.87605 90.86838
#
# Poissons Ratio (x) = 0.10847 0.10716
# Poissons Ratio (y) = 0.06642 0.38232
# Poissons Ratio (z) = 0.06201 0.36132
#
# Static dielectric constant tensor:
#      x y z
#    x 3.371570 0.000000 0.200490 
#    y 0.000000 3.617010 0.000000 
#    z 0.200490 0.000000 4.090520 
# 
# 
# High freq. dielectric constant tensor:
#      x y z
#    x 1.780830 0.000000 0.016700 
#    y 0.000000 1.777330 0.000000 
#    z 0.016700 0.000000 1.824120 
# 
# From -- ./inp_files/169174.got.cif
#   From: 2010.06.25/outbox.cif.g09.slc.cpg/sg15_85_cif.got.tgz:169174.got - 2010.06.28 07:06:18.
