data_PCOD8133862
_publ_section_title
;
Structure prediction by ZEFSAII (Michael W. Deem and Ramdas Pophale) SiO2 
 PCOD8133862
Probable space group: C 2/C
;
_chemical_formula_sum "Si O2"
_cell_formula_units_Z 60
_cell_length_a 10.022656
_cell_length_b 23.522980
_cell_length_c 18.531102
_cell_angle_alpha 90.000000
_cell_angle_beta 137.064402
_cell_angle_gamma 90.000000
_cell_volume 2976.018759
_symmetry_space_group_name_H-M "C 2/C"
_symmetry_group_IT_number 15
_symmetry_cell_setting 'monoclinic'
loop_
_space_group_symop_operation_xyz
x,y,z
-x,y,1/2-z
-x,-y,-z
x,-y,1/2+z
1/2+x,1/2+y,z
1/2-x,1/2+y,1/2-z
1/2-x,1/2-y,-z
1/2+x,1/2-y,1/2+z
loop_
_atom_site_type_symbol
_atom_site_label
_atom_site_fract_x
_atom_site_fract_y
_atom_site_fract_z
Si Si1 0.494648 0.555357 0.163296
Si Si2 0.475740 0.201627 0.375047
Si Si3 0.665115 0.965283 0.024165
Si Si4 0.279495 0.335047 0.528000
Si Si5 0.919095 0.420091 0.798447
Si Si6 0.309100 0.767006 0.138571
Si Si7 0.652233 0.154290 0.580090
Si Si8 0.000000 0.226298 0.750000
O O1 0.500000 0.569326 0.250000
O O2 0.366355 0.499837 0.095554
O O3 0.399441 0.607545 0.082918
O O4 0.715143 0.545102 0.222003
O O5 0.370403 0.143376 0.307690
O O6 0.327712 0.245617 0.352083
O O7 0.643870 0.185594 0.498873
O O8 0.563491 0.233571 0.341065
O O9 0.715951 0.910450 0.092474
O O10 0.584095 0.949236 0.913276
O O11 0.500000 0.000000 0.000000
O O12 0.375504 0.285974 0.614822
O O13 0.294391 0.315608 0.450505
O O14 0.054889 0.343736 0.462005
O O15 0.000000 0.419441 0.750000
O O16 0.500000 0.794573 0.250000
O O17 0.813291 0.186121 0.692860
#
# Coordination Sequence:
#
# PCOD8133862 Si02
#       8
#     8   8   8   8   8   8   8   4
#     4  12  22  40  74  95 123 179 221 265 340 393
#     4  10  21  40  58  89 126 169 209 261 324 406
#     4  11  22  43  68  96 131 167 228 282 323 406
#     4  10  20  36  58  93 125 162 214 274 313 398
#     4  11  24  43  68  99 132 170 223 279 335 405
#     4  10  19  34  58  88 127 161 209 267 327 382
#     4  10  22  37  60  92 125 159 218 267 322 396
#     4  12  22  36  62  86 124 174 202 262 342 382
#
# _framework density 20.161162999999998
#
# number of rings (size 3 to 8) (size 9 to 14) (size 15 to 20)
#    0.000    1.333    3.333    4.000    0.933    2.667 
#    4.800    0.667    0.000    0.000    0.000    0.000 
#    0.000    0.000    0.000    0.000    0.000    0.000 
#
# Total GULP energy -372027.365341 kJ/mol
# GULP energy per Si atom -12400.912178 kJ/mol
# Density = 2.011528 g / cm^3
# Si number density = 20.161163 Si / 1000 Ang^3
#
#
#
# Elastic Constant Matrix: (Units=GPa)
#
#
# Indices 1 2 3 4 5 6 
#
# 1 101.2308 31.6429 35.8036 0.0000 -8.1091 0.0000
# 2 31.6429 108.1992 45.1179 0.0000 -2.6606 0.0000
# 3 35.8036 45.1179 86.8716 0.0001 9.0705 0.0001
# 4 0.0000 0.0000 0.0001 28.1696 0.0000 5.5269
# 5 -8.1091 -2.6606 9.0705 0.0000 31.1683 0.0000
# 6 0.0000 0.0000 0.0001 5.5269 0.0000 23.9988
#
#
#
# Elastic Compliance Matrix: (Units=1/GPa)
#
#
# Indices 1 2 3 4 5 6 
#
# 1 0.012409 -0.001519 -0.004795 0.000000 0.004494 0.000000
# 2 -0.001519 0.012239 -0.005980 0.000000 0.002390 0.000000
# 3 -0.004795 -0.005980 0.017302 0.000000 -0.006793 0.000000
# 4 0.000000 0.000000 0.000000 0.037179 0.000000 -0.008562
# 5 0.004494 0.002390 -0.006793 0.000000 0.035434 0.000000
# 6 0.000000 0.000000 0.000000 -0.008562 0.000000 0.043641
#
#
# Mechanical properties :
#
#
# Convention : Reuss Voigt Hill
#
# Bulk Modulus (GPa) = 57.59361 57.93670 57.76515
# Shear Modulus (GPa) = 26.51418 28.91650 27.71534
#
# Velocity S-wave (km/s) = 3.63038 3.79128 3.71170
# Velocity P-wave (km/s) = 6.79717 6.92562 6.86170
#
# Compressibility (1/GPa) = 0.01736304
#
# Stress axis : x y z
#
# Youngs Moduli (GPa) = 80.58633 81.70768 57.79609
#
# Poissons Ratio (x) = 0.12414 0.27710
# Poissons Ratio (y) = 0.12243 0.34560
# Poissons Ratio (z) = 0.38637 0.48859
#
# Static dielectric constant tensor:
#      x y z
#    x 3.503900 0.000000 -0.126610 
#    y 0.000000 3.762520 0.000000 
#    z -0.126610 0.000000 3.784220 
# 
# 
# High freq. dielectric constant tensor:
#      x y z
#    x 1.772220 0.000000 -0.005550 
#    y 0.000000 1.783390 0.000000 
#    z -0.005550 0.000000 1.793810 
# 
# From -- ./inp_files/234571.got.cif
#   From: 2010.06.25/outbox.cif.g09.slc.cpg/sg15_118_cif.got.tgz:234571.got - 2010.06.28 07:06:18.
