data_PCOD8133845
_publ_section_title
;
Structure prediction by ZEFSAII (Michael W. Deem and Ramdas Pophale) SiO2 
 PCOD8133845
Probable space group: C 2/C
;
_chemical_formula_sum "Si O2"
_cell_formula_units_Z 48
_cell_length_a 18.653941
_cell_length_b 8.575656
_cell_length_c 15.813642
_cell_angle_alpha 90.000000
_cell_angle_beta 89.999611
_cell_angle_gamma 90.000000
_cell_volume 2529.704848
_symmetry_space_group_name_H-M "C 2/C"
_symmetry_group_IT_number 15
_symmetry_cell_setting 'monoclinic'
loop_
_space_group_symop_operation_xyz
x,y,z
-x,y,1/2-z
-x,-y,-z
x,-y,1/2+z
1/2+x,1/2+y,z
1/2-x,1/2+y,1/2-z
1/2-x,1/2-y,-z
1/2+x,1/2-y,1/2+z
loop_
_atom_site_type_symbol
_atom_site_label
_atom_site_fract_x
_atom_site_fract_y
_atom_site_fract_z
Si Si1 0.825816 0.821794 0.727726
Si Si2 0.421852 0.889663 0.669841
Si Si3 0.431011 0.197098 0.595986
Si Si4 0.674184 0.321793 0.227724
Si Si5 0.078150 0.610339 0.669839
Si Si6 0.068991 0.697097 0.095985
O O1 0.878106 0.809829 0.647314
O O2 0.750000 0.750001 0.702392
O O3 0.857791 0.729171 0.808994
O O4 0.814826 0.000001 0.750001
O O5 0.357793 0.770830 0.691008
O O6 0.490986 0.790943 0.640464
O O7 0.402521 0.016474 0.596964
O O8 0.438793 0.000002 0.750001
O O9 0.509017 0.209059 0.640461
O O10 0.435009 0.256844 0.500000
O O11 0.621897 0.309829 0.147311
O O12 0.097482 0.483526 0.596963
#
# Coordination Sequence:
#
# PCOD8133845 Si02
#       6
#     8   8   8   8   8   8
#     4  11  22  37  56  77 106 145 185 221 261 316
#     4   9  17  33  57  82 107 143 181 211 257 321
#     4  10  19  34  58  84 111 138 171 220 270 316
#     4  11  22  37  56  77 106 145 185 221 261 316
#     4   9  17  33  57  82 107 143 181 211 257 321
#     4  10  19  34  58  84 111 138 171 220 270 316
#
# _framework density 18.974546
#
# number of rings (size 3 to 8) (size 9 to 14) (size 15 to 20)
#    0.000    2.000    0.000   12.000    0.000    3.333 
#    0.000    5.000    0.000    7.000    0.000    0.000 
#    0.000    0.000    0.000    0.000    0.000    0.000 
#
# Total GULP energy -297386.659379 kJ/mol
# GULP energy per Si atom -12391.110807 kJ/mol
# Density = 1.893136 g / cm^3
# Si number density = 18.974546 Si / 1000 Ang^3
#
#
#
# Elastic Constant Matrix: (Units=GPa)
#
#
# Indices 1 2 3 4 5 6 
#
# 1 84.4805 31.7468 34.5204 0.0000 -3.3411 0.0000
# 2 31.7468 83.9616 17.7540 0.0000 -1.2399 0.0000
# 3 34.5204 17.7540 90.5577 0.0000 3.8841 0.0000
# 4 0.0000 0.0000 0.0000 17.8549 0.0000 -1.4446
# 5 -3.3411 -1.2399 3.8841 0.0000 6.7686 0.0000
# 6 0.0000 0.0000 0.0000 -1.4446 0.0000 34.1518
#
#
#
# Elastic Compliance Matrix: (Units=1/GPa)
#
#
# Indices 1 2 3 4 5 6 
#
# 1 0.016427 -0.004837 -0.005765 0.000000 0.010531 0.000000
# 2 -0.004837 0.013944 -0.000920 0.000000 0.000695 0.000000
# 3 -0.005765 -0.000920 0.013892 0.000000 -0.010986 0.000000
# 4 0.000000 0.000000 0.000000 0.056199 0.000000 0.002377
# 5 0.010531 0.000695 -0.010986 0.000000 0.159372 0.000000
# 6 0.000000 0.000000 0.000000 0.002377 0.000000 0.029382
#
#
# Mechanical properties :
#
#
# Convention : Reuss Voigt Hill
#
# Bulk Modulus (GPa) = 47.12730 47.44913 47.28821
# Shear Modulus (GPa) = 15.65768 23.42029 19.53898
#
# Velocity S-wave (km/s) = 2.87574 3.51707 3.21245
# Velocity P-wave (km/s) = 5.99312 6.44625 6.22381
#
# Compressibility (1/GPa) = 0.02121913
#
# Stress axis : x y z
#
# Youngs Moduli (GPa) = 60.87566 71.71691 71.98407
#
# Poissons Ratio (x) = 0.34686 0.41502
# Poissons Ratio (y) = 0.29443 0.06621
# Poissons Ratio (z) = 0.35097 0.06596
#
# Static dielectric constant tensor:
#      x y z
#    x 3.431980 0.000000 0.034020 
#    y 0.000000 3.536880 0.000000 
#    z 0.034020 0.000000 3.815520 
# 
# 
# High freq. dielectric constant tensor:
#      x y z
#    x 1.734860 0.000000 -0.001190 
#    y 0.000000 1.720150 0.000000 
#    z -0.001190 0.000000 1.721420 
# 
# From -- ./inp_files/213088.got.cif
#   From: 2010.06.25/outbox.cif.g09.slc.cpg/sg15_107_cif.got.tgz:213088.got - 2010.06.28 07:06:18.
