data_PCOD8133016
_publ_section_title
;
Structure prediction by ZEFSAII (Michael W. Deem and Ramdas Pophale) SiO2 
 PCOD8133016
Probable space group: C 2/C
;
_chemical_formula_sum "Si O2"
_cell_formula_units_Z 60
_cell_length_a 24.540550
_cell_length_b 18.763273
_cell_length_c 14.765580
_cell_angle_alpha 90.000000
_cell_angle_beta 150.247192
_cell_angle_gamma 90.000000
_cell_volume 3374.052550
_symmetry_space_group_name_H-M "C 2/C"
_symmetry_group_IT_number 15
_symmetry_cell_setting 'monoclinic'
loop_
_space_group_symop_operation_xyz
x,y,z
-x,y,1/2-z
-x,-y,-z
x,-y,1/2+z
1/2+x,1/2+y,z
1/2-x,1/2+y,1/2-z
1/2-x,1/2-y,-z
1/2+x,1/2-y,1/2+z
loop_
_atom_site_type_symbol
_atom_site_label
_atom_site_fract_x
_atom_site_fract_y
_atom_site_fract_z
Si Si1 0.847066 0.596796 0.920906
Si Si2 0.717184 0.800239 0.587270
Si Si3 0.634861 0.239943 0.287665
Si Si4 0.852554 0.190256 0.877296
Si Si5 0.099660 0.442734 0.462807
Si Si6 0.014295 0.370637 0.509356
Si Si7 0.578814 0.735860 0.229977
Si Si8 0.500000 0.801746 0.750000
O O1 0.723122 0.621081 0.716538
O O2 0.837668 0.517973 0.948866
O O3 0.898471 0.649419 0.070265
O O4 0.920615 0.595516 0.936829
O O5 0.713792 0.758807 0.678201
O O6 0.682307 0.881501 0.549927
O O7 0.634908 0.755126 0.405364
O O8 0.837789 0.802357 0.718409
O O9 0.750000 0.250000 0.500000
O O10 0.624521 0.299877 0.196361
O O11 0.614087 0.161134 0.214252
O O12 0.540850 0.249732 0.228365
O O13 0.974173 0.183825 0.097566
O O14 0.058523 0.430923 0.506019
O O15 0.000000 0.446013 0.250000
O O16 0.963965 0.308282 0.375884
#
# Coordination Sequence:
#
# PCOD8133016 Si02
#       8
#     8   8   8   8   8   8   8   4
#     4  11  22  35  53  80 118 149 183 227 286 337
#     4  11  20  36  59  85 111 142 189 239 289 330
#     4  10  19  31  54  77 107 143 186 227 272 327
#     4  11  20  35  55  81 113 148 188 234 278 338
#     4  12  21  36  56  86 117 149 185 233 289 337
#     4  10  20  35  53  84 115 142 183 238 281 331
#     4  10  20  34  59  86 109 139 190 242 285 330
#     4  10  20  34  48  78 108 144 184 232 276 326
#
# _framework density 17.782771
#
# number of rings (size 3 to 8) (size 9 to 14) (size 15 to 20)
#    0.000    1.333    7.333    0.800    0.000    0.000 
#    0.000    0.667    0.000    0.000    0.000    0.000 
#    0.000    0.000    0.000    0.000    0.000    0.000 
#
# Total GULP energy -371908.925941 kJ/mol
# GULP energy per Si atom -12396.964198 kJ/mol
# Density = 1.774230 g / cm^3
# Si number density = 17.782771 Si / 1000 Ang^3
#
#
#
# Elastic Constant Matrix: (Units=GPa)
#
#
# Indices 1 2 3 4 5 6 
#
# 1 107.9090 37.9636 28.1859 0.0000 4.8933 0.0000
# 2 37.9636 83.1128 28.2096 0.0000 15.8371 0.0000
# 3 28.1859 28.2096 74.9629 0.0000 13.6881 0.0000
# 4 0.0000 0.0000 0.0000 20.2590 0.0000 6.7991
# 5 4.8933 15.8371 13.6881 0.0000 31.0371 0.0000
# 6 0.0000 0.0000 0.0000 6.7991 0.0000 19.8366
#
#
#
# Elastic Compliance Matrix: (Units=1/GPa)
#
#
# Indices 1 2 3 4 5 6 
#
# 1 0.011587 -0.004644 -0.002945 0.000000 0.001842 0.000000
# 2 -0.004644 0.016461 -0.003315 0.000000 -0.006205 0.000000
# 3 -0.002945 -0.003315 0.016641 0.000000 -0.005183 0.000000
# 4 0.000000 0.000000 0.000000 0.055777 0.000000 -0.019118
# 5 0.001842 -0.006205 -0.005183 0.000000 0.037381 0.000000
# 6 0.000000 0.000000 0.000000 -0.019118 0.000000 0.056965
#
#
# Mechanical properties :
#
#
# Convention : Reuss Voigt Hill
#
# Bulk Modulus (GPa) = 43.70650 50.52255 47.11452
# Shear Modulus (GPa) = 22.29687 25.66824 23.98255
#
# Velocity S-wave (km/s) = 3.54481 3.80338 3.67637
# Velocity P-wave (km/s) = 6.43316 6.91087 6.67629
#
# Compressibility (1/GPa) = 0.02287989
#
# Stress axis : x y z
#
# Youngs Moduli (GPa) = 86.30674 60.75125 60.09104
#
# Poissons Ratio (x) = 0.28211 0.17699
# Poissons Ratio (y) = 0.40078 0.19922
# Poissons Ratio (z) = 0.25420 0.20141
#
# Static dielectric constant tensor:
#      x y z
#    x 3.694020 0.000000 -0.103110 
#    y 0.000000 3.041400 0.000000 
#    z -0.103110 0.000000 3.506250 
# 
# 
# High freq. dielectric constant tensor:
#      x y z
#    x 1.707210 0.000000 -0.010540 
#    y 0.000000 1.645870 0.000000 
#    z -0.010540 0.000000 1.687260 
# 
# From -- ./inp_files/174107.got.cif
#   From: 2010.06.25/outbox.cif.g09.slc.cpg/sg15_88_cif.got.tgz:174107.got - 2010.06.28 07:06:18.
