data_PCOD8133058
_publ_section_title
;
Structure prediction by ZEFSAII (Michael W. Deem and Ramdas Pophale) SiO2 
 PCOD8133058
Probable space group: C 2/C
;
_chemical_formula_sum "Si O2"
_cell_formula_units_Z 32
_cell_length_a 12.070632
_cell_length_b 28.540725
_cell_length_c 13.689254
_cell_angle_alpha 90.000000
_cell_angle_beta 158.109036
_cell_angle_gamma 90.000000
_cell_volume 1758.324315
_symmetry_space_group_name_H-M "C 2/C"
_symmetry_group_IT_number 15
_symmetry_cell_setting 'monoclinic'
loop_
_space_group_symop_operation_xyz
x,y,z
-x,y,1/2-z
-x,-y,-z
x,-y,1/2+z
1/2+x,1/2+y,z
1/2-x,1/2+y,1/2-z
1/2-x,1/2-y,-z
1/2+x,1/2-y,1/2+z
loop_
_atom_site_type_symbol
_atom_site_label
_atom_site_fract_x
_atom_site_fract_y
_atom_site_fract_z
Si Si1 0.840513 0.018703 0.016602
Si Si2 0.630729 0.426520 0.588683
Si Si3 0.759820 0.878867 0.133167
Si Si4 0.375180 0.229544 0.000757
O O1 0.000000 0.013136 0.250000
O O2 0.005217 0.059614 0.091575
O O3 0.500000 0.033647 0.750000
O O4 0.867373 0.970093 0.982412
O O5 0.410481 0.387454 0.362155
O O6 0.965155 0.409030 0.876372
O O7 0.000000 0.894634 0.250000
O O8 0.675994 0.825121 0.051003
O O9 0.724077 0.242450 0.286848
O O10 0.250000 0.250000 0.000000
#
# Coordination Sequence:
#
# PCOD8133058 Si02
#       4
#     8   8   8   8
#     4  11  22  41  57  74 113 147 181 236 289 305
#     4  11  24  35  55  86 103 144 201 222 262 343
#     4  12  21  33  54  79 119 148 181 221 261 333
#     4  10  19  32  47  73 110 159 167 200 276 335
#
# _framework density 18.199145000000001
#
# number of rings (size 3 to 8) (size 9 to 14) (size 15 to 20)
#    0.000    1.000    2.500    7.500    3.500    4.000 
#    0.000    0.000    0.000    0.000    0.000    0.000 
#    0.000   70.000    0.000    0.000    0.000    0.000 
#
# Total GULP energy -198362.432413 kJ/mol
# GULP energy per Si atom -12397.652026 kJ/mol
# Density = 1.815772 g / cm^3
# Si number density = 18.199145 Si / 1000 Ang^3
#
#
#
# Elastic Constant Matrix: (Units=GPa)
#
#
# Indices 1 2 3 4 5 6 
#
# 1 81.5855 37.7397 52.0341 0.0004 2.3840 0.0014
# 2 37.7397 79.9896 41.3615 0.0007 11.5622 0.0017
# 3 52.0341 41.3615 176.8430 -0.0194 -11.5820 0.0257
# 4 0.0004 0.0007 -0.0194 33.6798 -0.0067 -12.8508
# 5 2.3840 11.5622 -11.5820 -0.0067 22.0464 0.0057
# 6 0.0014 0.0017 0.0257 -12.8508 0.0057 23.8438
#
#
#
# Elastic Compliance Matrix: (Units=1/GPa)
#
#
# Indices 1 2 3 4 5 6 
#
# 1 0.017557 -0.006268 -0.003738 -0.000001 -0.000575 0.000003
# 2 -0.006268 0.018699 -0.003239 -0.000003 -0.010830 0.000003
# 3 -0.003738 -0.003239 0.007922 0.000003 0.006265 -0.000008
# 4 -0.000001 -0.000003 0.000003 0.037378 0.000009 0.020145
# 5 -0.000575 -0.010830 0.006265 0.000009 0.054392 -0.000014
# 6 0.000003 0.000003 -0.000008 0.020145 -0.000014 0.052797
#
#
# Mechanical properties :
#
#
# Convention : Reuss Voigt Hill
#
# Bulk Modulus (GPa) = 56.52830 66.74319 61.63575
# Shear Modulus (GPa) = 22.61118 29.73284 26.17201
#
# Velocity S-wave (km/s) = 3.52864 4.04635 3.79633
# Velocity P-wave (km/s) = 6.90870 7.65402 7.29089
#
# Compressibility (1/GPa) = 0.01769025
#
# Stress axis : x y z
#
# Youngs Moduli (GPa) = 56.95725 53.47927 126.22682
#
# Poissons Ratio (x) = 0.33519 0.47180
# Poissons Ratio (y) = 0.35699 0.40879
# Poissons Ratio (z) = 0.21289 0.17319
#
# Static dielectric constant tensor:
#      x y z
#    x 3.177900 0.000000 0.003010 
#    y 0.000000 3.370670 -0.000020 
#    z 0.003010 -0.000020 3.535630 
# 
# 
# High freq. dielectric constant tensor:
#      x y z
#    x 1.662890 0.000000 -0.023160 
#    y 0.000000 1.704260 0.000000 
#    z -0.023160 0.000000 1.739340 
# 
# From -- ./inp_files/4057.got.cif
#   From: 2010.06.25/outbox.cif.g09.slc.cpg/sg15_3_cif.got.tgz:4057.got - 2010.06.28 07:06:18.
