data_PCOD8133809
_publ_section_title
;
Structure prediction by ZEFSAII (Michael W. Deem and Ramdas Pophale) SiO2 
 PCOD8133809
Probable space group: C 2/C
;
_chemical_formula_sum "Si O2"
_cell_formula_units_Z 60
_cell_length_a 26.167041
_cell_length_b 20.280169
_cell_length_c 5.219466
_cell_angle_alpha 90.000000
_cell_angle_beta 85.680768
_cell_angle_gamma 90.000000
_cell_volume 2761.957981
_symmetry_space_group_name_H-M "C 2/C"
_symmetry_group_IT_number 15
_symmetry_cell_setting 'monoclinic'
loop_
_space_group_symop_operation_xyz
x,y,z
-x,y,1/2-z
-x,-y,-z
x,-y,1/2+z
1/2+x,1/2+y,z
1/2-x,1/2+y,1/2-z
1/2-x,1/2-y,-z
1/2+x,1/2-y,1/2+z
loop_
_atom_site_type_symbol
_atom_site_label
_atom_site_fract_x
_atom_site_fract_y
_atom_site_fract_z
Si Si1 0.446371 0.542493 0.452707
Si Si2 0.939401 0.477164 0.913326
Si Si3 0.728141 0.538196 0.023469
Si Si4 0.842984 0.425181 0.437902
Si Si5 0.875841 0.640811 0.439484
Si Si6 0.000000 0.852926 0.250000
Si Si7 0.644058 0.635211 0.050779
Si Si8 0.106292 0.793913 0.076882
O O1 0.456936 0.515437 0.159450
O O2 0.482702 0.603939 0.511479
O O3 0.388409 0.568318 0.488394
O O4 0.969737 0.512508 0.134269
O O5 0.885327 0.517180 0.881567
O O6 0.928952 0.400041 0.963117
O O7 0.708669 0.503464 0.772828
O O8 0.789270 0.540864 0.013593
O O9 0.702948 0.611285 0.046610
O O10 0.854969 0.375717 0.666378
O O11 0.837580 0.381618 0.181064
O O12 0.887302 0.716861 0.466185
O O13 0.953755 0.807695 0.365451
O O14 0.638162 0.684798 0.815229
O O15 0.627310 0.668903 0.320586
#
# Coordination Sequence:
#
# PCOD8133809 Si02
#       8
#     8   8   8   8   8   4   8   8
#     4  11  21  37  59  85 109 140 185 241 296 332
#     4   8  14  26  48  77 102 126 169 226 270 307
#     4  12  22  37  60  87 117 153 191 240 290 335
#     4  10  19  34  57  87 111 140 190 240 276 325
#     4  10  19  35  56  80 112 149 188 231 281 335
#     4  10  24  40  62  86 112 146 196 248 286 348
#     4  11  24  40  55  82 120 156 191 233 285 345
#     4  11  24  42  58  79 114 156 194 234 284 348
#
# _framework density 21.723721000000001
#
# number of rings (size 3 to 8) (size 9 to 14) (size 15 to 20)
#    0.000    1.600    0.000    7.600    0.000    4.267 
#    0.000    4.000    0.000    0.000    0.000    8.400 
#    0.000    0.000    0.000    0.000    0.000    0.000 
#
# Total GULP energy -371963.933199 kJ/mol
# GULP energy per Si atom -12398.797773 kJ/mol
# Density = 2.167428 g / cm^3
# Si number density = 21.723721 Si / 1000 Ang^3
#
#
#
# Elastic Constant Matrix: (Units=GPa)
#
#
# Indices 1 2 3 4 5 6 
#
# 1 67.5145 31.1157 15.6887 0.0000 -4.7786 0.0000
# 2 31.1157 122.0308 41.6380 0.0000 -14.8238 0.0000
# 3 15.6887 41.6380 158.8182 0.0000 -16.1963 0.0000
# 4 0.0000 0.0000 0.0000 29.4117 0.0000 -0.1748
# 5 -4.7786 -14.8238 -16.1963 0.0000 18.2333 0.0000
# 6 0.0000 0.0000 0.0000 -0.1748 0.0000 14.2710
#
#
#
# Elastic Compliance Matrix: (Units=1/GPa)
#
#
# Indices 1 2 3 4 5 6 
#
# 1 0.016841 -0.004030 -0.000540 0.000000 0.000658 0.000000
# 2 -0.004030 0.010546 -0.001760 0.000000 0.005955 0.000000
# 3 -0.000540 -0.001760 0.007313 0.000000 0.004924 0.000000
# 4 0.000000 0.000000 0.000000 0.034003 0.000000 0.000416
# 5 0.000658 0.005955 0.004924 0.000000 0.064232 0.000000
# 6 0.000000 0.000000 0.000000 0.000416 0.000000 0.070077
#
#
# Mechanical properties :
#
#
# Convention : Reuss Voigt Hill
#
# Bulk Modulus (GPa) = 45.36945 58.36090 51.86518
# Shear Modulus (GPa) = 22.41963 29.71126 26.06544
#
# Velocity S-wave (km/s) = 3.21601 3.70224 3.46766
# Velocity P-wave (km/s) = 5.89240 6.72301 6.32136
#
# Compressibility (1/GPa) = 0.02204126
#
# Stress axis : x y z
#
# Youngs Moduli (GPa) = 59.37889 94.82299 136.73675
#
# Poissons Ratio (x) = 0.38214 0.07384
# Poissons Ratio (y) = 0.23930 0.24059
# Poissons Ratio (z) = 0.03206 0.16684
#
# Static dielectric constant tensor:
#      x y z
#    x 3.885950 0.000000 -0.009100 
#    y 0.000000 3.720000 0.000000 
#    z -0.009100 0.000000 4.595890 
# 
# 
# High freq. dielectric constant tensor:
#      x y z
#    x 1.853940 0.000000 -0.002910 
#    y 0.000000 1.833260 0.000000 
#    z -0.002910 0.000000 1.894130 
# 
# From -- ./inp_files/17187.got.cif
#   From: 2010.06.25/outbox.cif.g09.slc.cpg/sg15_9_cif.got.tgz:17187.got - 2010.06.28 07:06:18.
