data_PCOD8133581
_publ_section_title
;
Structure prediction by ZEFSAII (Michael W. Deem and Ramdas Pophale) SiO2 
 PCOD8133581
Probable space group: C 2/C
;
_chemical_formula_sum "Si O2"
_cell_formula_units_Z 60
_cell_length_a 18.783134
_cell_length_b 17.760047
_cell_length_c 18.062386
_cell_angle_alpha 90.000000
_cell_angle_beta 30.236547
_cell_angle_gamma 90.000000
_cell_volume 3034.227325
_symmetry_space_group_name_H-M "C 2/C"
_symmetry_group_IT_number 15
_symmetry_cell_setting 'monoclinic'
loop_
_space_group_symop_operation_xyz
x,y,z
-x,y,1/2-z
-x,-y,-z
x,-y,1/2+z
1/2+x,1/2+y,z
1/2-x,1/2+y,1/2-z
1/2-x,1/2-y,-z
1/2+x,1/2-y,1/2+z
loop_
_atom_site_type_symbol
_atom_site_label
_atom_site_fract_x
_atom_site_fract_y
_atom_site_fract_z
Si Si1 0.000000 0.822886 0.250000
Si Si2 0.011106 0.288624 0.602483
Si Si3 0.209179 0.765439 0.389538
Si Si4 0.739764 0.144026 0.244644
Si Si5 0.094289 0.534126 0.479864
Si Si6 0.958625 0.851075 0.062464
Si Si7 0.729576 0.395739 0.134614
Si Si8 0.496522 0.838134 0.168585
O O1 0.979698 0.766004 0.335697
O O2 0.867996 0.878717 0.350110
O O3 0.159696 0.328560 0.460466
O O4 0.877994 0.347520 0.716348
O O5 0.993334 0.236147 0.548113
O O6 0.256144 0.723029 0.272099
O O7 0.122329 0.841558 0.443229
O O8 0.352649 0.792245 0.296416
O O9 0.124158 0.715225 0.525619
O O10 0.705900 0.084977 0.338300
O O11 0.886764 0.111080 0.080199
O O12 0.183032 0.473402 0.448775
O O13 0.996167 0.584501 0.621539
O O14 0.000000 0.500000 0.500000
O O15 0.866507 0.895696 0.205467
O O16 0.500000 0.863678 0.250000
#
# Coordination Sequence:
#
# PCOD8133581 Si02
#       8
#     4   8   8   8   8   8   8   8
#     4  10  22  36  60  92 126 158 210 260 322 364
#     4  10  19  36  61  90 120 158 212 259 312 357
#     4  10  19  36  63  91 123 147 201 268 318 357
#     4  10  20  35  61  93 116 157 207 261 300 369
#     4  11  23  42  63  86 123 170 211 248 310 378
#     4  10  19  33  60  93 116 152 209 265 309 350
#     4  11  22  38  59  87 128 167 203 258 311 381
#     4  11  23  40  63  93 122 160 206 259 321 382
#
# _framework density 19.774391999999999
#
# number of rings (size 3 to 8) (size 9 to 14) (size 15 to 20)
#    0.000    1.600    2.667    4.000    1.867    1.600 
#    1.200    4.000    2.933    0.000    0.000    0.000 
#    0.000    0.000    0.000    0.000    0.000    0.000 
#
# Total GULP energy -371651.554498 kJ/mol
# GULP energy per Si atom -12388.385150 kJ/mol
# Density = 1.972938 g / cm^3
# Si number density = 19.774392 Si / 1000 Ang^3
#
#
#
# Elastic Constant Matrix: (Units=GPa)
#
#
# Indices 1 2 3 4 5 6 
#
# 1 98.8135 41.8802 48.0702 -0.0005 -3.8146 -0.0002
# 2 41.8802 56.3803 25.1300 0.0066 -1.7570 -0.0035
# 3 48.0702 25.1300 113.1896 -0.0011 -10.1363 -0.0016
# 4 -0.0005 0.0066 -0.0011 13.0491 -0.0016 1.3374
# 5 -3.8146 -1.7570 -10.1363 -0.0016 30.3052 0.0016
# 6 -0.0002 -0.0035 -0.0016 1.3374 0.0016 30.8103
#
#
#
# Elastic Compliance Matrix: (Units=1/GPa)
#
#
# Indices 1 2 3 4 5 6 
#
# 1 0.016884 -0.010371 -0.004878 0.000006 -0.000107 -0.000002
# 2 -0.010371 0.026058 -0.001405 -0.000014 -0.000264 0.000003
# 3 -0.004878 -0.001405 0.011500 0.000002 0.003151 0.000000
# 4 0.000006 -0.000014 0.000002 0.076976 0.000005 -0.003341
# 5 -0.000107 -0.000264 0.003151 0.000005 0.034023 -0.000002
# 6 -0.000002 0.000003 0.000000 -0.003341 -0.000002 0.032602
#
#
# Mechanical properties :
#
#
# Convention : Reuss Voigt Hill
#
# Bulk Modulus (GPa) = 47.31224 55.39380 51.35302
# Shear Modulus (GPa) = 20.97352 25.05312 23.01332
#
# Velocity S-wave (km/s) = 3.26028 3.56328 3.41514
# Velocity P-wave (km/s) = 6.17661 6.70843 6.44801
#
# Compressibility (1/GPa) = 0.02113618
#
# Stress axis : x y z
#
# Youngs Moduli (GPa) = 59.22611 38.37524 86.95489
#
# Poissons Ratio (x) = 0.39800 0.42413
# Poissons Ratio (y) = 0.61425 0.12213
# Poissons Ratio (z) = 0.28888 0.05390
#
# Static dielectric constant tensor:
#      x y z
#    x 4.088820 0.000000 -0.192630 
#    y 0.000000 4.751650 0.000010 
#    z -0.192630 0.000010 3.737660 
# 
# 
# High freq. dielectric constant tensor:
#      x y z
#    x 1.766970 0.000000 -0.016990 
#    y 0.000000 1.748390 0.000000 
#    z -0.016990 0.000000 1.777860 
# 
# From -- ./inp_files/211742.got.cif
#   From: 2010.06.25/outbox.cif.g09.slc.cpg/sg15_106_cif.got.tgz:211742.got - 2010.06.28 07:06:18.
