data_PCOD8133454
_publ_section_title
;
Structure prediction by ZEFSAII (Michael W. Deem and Ramdas Pophale) SiO2 
 PCOD8133454
Probable space group: C 2/C
;
_chemical_formula_sum "Si O2"
_cell_formula_units_Z 48
_cell_length_a 23.496411
_cell_length_b 13.662508
_cell_length_c 14.296191
_cell_angle_alpha 90.000000
_cell_angle_beta 28.711379
_cell_angle_gamma 90.000000
_cell_volume 2204.718833
_symmetry_space_group_name_H-M "C 2/C"
_symmetry_group_IT_number 15
_symmetry_cell_setting 'monoclinic'
loop_
_space_group_symop_operation_xyz
x,y,z
-x,y,1/2-z
-x,-y,-z
x,-y,1/2+z
1/2+x,1/2+y,z
1/2-x,1/2+y,1/2-z
1/2-x,1/2-y,-z
1/2+x,1/2-y,1/2+z
loop_
_atom_site_type_symbol
_atom_site_label
_atom_site_fract_x
_atom_site_fract_y
_atom_site_fract_z
Si Si1 0.986737 0.360340 0.535751
Si Si2 0.052260 0.847916 0.432125
Si Si3 0.687619 0.989100 0.282801
Si Si4 0.105386 0.356218 0.163505
Si Si5 0.122902 0.154193 0.038431
Si Si6 0.314895 0.534416 0.288219
O O1 0.077591 0.418218 0.473218
O O2 0.055661 0.346323 0.338572
O O3 0.955268 0.251714 0.618568
O O4 0.866110 0.422148 0.700420
O O5 0.113921 0.819813 0.441604
O O6 0.921064 0.888465 0.637629
O O7 0.133873 0.926896 0.260200
O O8 0.757535 0.034173 0.268357
O O9 0.776060 0.926185 0.090070
O O10 0.150532 0.251539 0.058379
O O11 0.000000 0.396823 0.250000
O O12 0.214826 0.432158 0.005467
O O13 0.000000 0.106271 0.250000
#
# Coordination Sequence:
#
# PCOD8133454 Si02
#       6
#     8   8   8   8   8   8
#     4  11  21  36  59  87 113 149 187 233 286 336
#     4  10  20  35  56  82 115 150 185 224 288 333
#     4  10  22  35  52  84 120 150 182 231 285 338
#     4  11  19  35  59  89 118 139 187 239 280 328
#     4  10  19  33  55  90 119 140 180 235 281 333
#     4  10  21  35  53  84 117 151 183 233 280 339
#
# _framework density 21.771484000000001
#
# number of rings (size 3 to 8) (size 9 to 14) (size 15 to 20)
#    0.000    1.667    5.000    1.000    2.333    2.667 
#    0.000    0.000    0.000    5.000    4.333    0.000 
#    0.000    0.000    0.000    0.000    0.000    0.000 
#
# Total GULP energy -297501.053814 kJ/mol
# GULP energy per Si atom -12395.877242 kJ/mol
# Density = 2.172193 g / cm^3
# Si number density = 21.771484 Si / 1000 Ang^3
#
#
#
# Elastic Constant Matrix: (Units=GPa)
#
#
# Indices 1 2 3 4 5 6 
#
# 1 55.8298 14.2281 6.6920 0.0000 -12.3445 0.0000
# 2 14.2281 153.2738 55.6491 0.0000 -25.0107 0.0000
# 3 6.6920 55.6491 98.4519 0.0000 -26.0261 0.0000
# 4 0.0000 0.0000 0.0000 37.6105 0.0000 -5.9853
# 5 -12.3445 -25.0107 -26.0261 0.0000 31.3549 0.0000
# 6 0.0000 0.0000 0.0000 -5.9853 0.0000 15.1580
#
#
#
# Elastic Compliance Matrix: (Units=1/GPa)
#
#
# Indices 1 2 3 4 5 6 
#
# 1 0.019802 -0.001010 0.001375 0.000000 0.008131 0.000000
# 2 -0.001010 0.008563 -0.003934 0.000000 0.003167 0.000000
# 3 0.001375 -0.003934 0.014862 0.000000 0.009739 0.000000
# 4 0.000000 0.000000 0.000000 0.028371 0.000000 0.011203
# 5 0.008131 0.003167 0.009739 0.000000 0.045704 0.000000
# 6 0.000000 0.000000 0.000000 0.011203 0.000000 0.070395
#
#
# Mechanical properties :
#
#
# Convention : Reuss Voigt Hill
#
# Bulk Modulus (GPa) = 27.71051 51.18820 39.44936
# Shear Modulus (GPa) = 24.16994 32.22377 28.19686
#
# Velocity S-wave (km/s) = 3.33553 3.85137 3.60269
# Velocity P-wave (km/s) = 5.25261 6.58331 5.95524
#
# Compressibility (1/GPa) = 0.03608739
#
# Stress axis : x y z
#
# Youngs Moduli (GPa) = 50.49943 116.77687 67.28413
#
# Poissons Ratio (x) = 0.11800 -0.09249
# Poissons Ratio (y) = 0.05103 0.26473
# Poissons Ratio (z) = -0.06942 0.45945
#
# Static dielectric constant tensor:
#      x y z
#    x 3.943630 0.000000 -0.453460 
#    y 0.000000 4.243200 0.000000 
#    z -0.453460 0.000000 3.940080 
# 
# 
# High freq. dielectric constant tensor:
#      x y z
#    x 1.846160 0.000000 -0.042480 
#    y 0.000000 1.857990 0.000000 
#    z -0.042480 0.000000 1.836610 
# 
# From -- ./inp_files/173620.got.cif
#   From: 2010.06.25/outbox.cif.g09.slc.cpg/sg15_87_cif.got.tgz:173620.got - 2010.06.28 07:06:18.
