data_PCOD8133774
_publ_section_title
;
Structure prediction by ZEFSAII (Michael W. Deem and Ramdas Pophale) SiO2 
 PCOD8133774
Probable space group: C 2/C
;
_chemical_formula_sum "Si O2"
_cell_formula_units_Z 64
_cell_length_a 29.908185
_cell_length_b 20.948536
_cell_length_c 13.510125
_cell_angle_alpha 90.000000
_cell_angle_beta 19.709107
_cell_angle_gamma 90.000000
_cell_volume 2854.621231
_symmetry_space_group_name_H-M "C 2/C"
_symmetry_group_IT_number 15
_symmetry_cell_setting 'monoclinic'
loop_
_space_group_symop_operation_xyz
x,y,z
-x,y,1/2-z
-x,-y,-z
x,-y,1/2+z
1/2+x,1/2+y,z
1/2-x,1/2+y,1/2-z
1/2-x,1/2-y,-z
1/2+x,1/2-y,1/2+z
loop_
_atom_site_type_symbol
_atom_site_label
_atom_site_fract_x
_atom_site_fract_y
_atom_site_fract_z
Si Si1 0.373240 0.161517 0.450510
Si Si2 0.396338 0.197693 0.878031
Si Si3 0.799246 0.931747 0.534961
Si Si4 0.192660 0.448668 0.557901
Si Si5 0.624699 0.303512 0.054108
Si Si6 0.600294 0.333256 0.631612
Si Si7 0.392001 0.940122 0.392234
Si Si8 0.004750 0.961164 0.622761
O O1 0.353369 0.115897 0.398385
O O2 0.396778 0.232564 0.355811
O O3 0.248290 0.156251 0.783511
O O4 0.500000 0.139574 0.250000
O O5 0.500000 0.194713 0.750000
O O6 0.415101 0.264456 0.777314
O O7 0.249008 0.202614 0.224285
O O8 0.410496 0.128318 0.795953
O O9 0.679220 0.941447 0.705207
O O10 0.850849 0.858571 0.414923
O O11 0.746591 0.942171 0.756635
O O12 0.920617 0.979300 0.256857
O O13 0.105238 0.507121 0.699167
O O14 0.345900 0.465185 0.223122
O O15 0.500000 0.325731 0.250000
O O16 0.500000 0.328109 0.750000
O O17 0.560605 0.394298 0.781072
O O18 0.500000 0.954902 0.250000
O O19 0.000000 0.960662 0.750000
#
# Coordination Sequence:
#
# PCOD8133774 Si02
#       8
#     8   8   8   8   8   8   8   8
#     4  10  19  34  56  89 115 151 195 237 298 355
#     4   8  16  30  55  83 105 145 194 230 279 348
#     4  11  23  37  58  88 119 154 200 248 292 346
#     4  12  23  36  59  89 118 156 197 249 294 351
#     4   9  19  34  57  84 117 151 187 242 295 346
#     4   9  15  31  58  81 106 147 194 237 280 341
#     4  10  21  39  58  83 117 157 194 237 301 361
#     4  11  19  36  59  84 114 153 198 245 292 341
#
# _framework density 22.419785999999998
#
# number of rings (size 3 to 8) (size 9 to 14) (size 15 to 20)
#    0.000    2.000    3.750    1.125    1.750    1.000 
#    0.000    0.000    0.000    0.750    0.000    0.000 
#    0.000    0.000    0.000    0.000    0.000    0.000 
#
# Total GULP energy -396418.070471 kJ/mol
# GULP energy per Si atom -12388.064702 kJ/mol
# Density = 2.236876 g / cm^3
# Si number density = 22.419786 Si / 1000 Ang^3
#
#
#
# Elastic Constant Matrix: (Units=GPa)
#
#
# Indices 1 2 3 4 5 6 
#
# 1 61.6309 32.6149 -8.3633 -0.0018 -16.1548 0.0013
# 2 32.6149 184.3963 -10.0823 -0.0028 -20.2641 0.0012
# 3 -8.3633 -10.0823 62.7916 -0.0059 -28.5249 0.0022
# 4 -0.0018 -0.0028 -0.0059 10.1803 0.0001 -2.7582
# 5 -16.1548 -20.2641 -28.5249 0.0001 26.9282 -0.0008
# 6 0.0013 0.0012 0.0022 -2.7582 -0.0008 11.5831
#
#
#
# Elastic Compliance Matrix: (Units=1/GPa)
#
#
# Indices 1 2 3 4 5 6 
#
# 1 0.031360 0.000954 0.025449 0.000020 0.046490 0.000000
# 2 0.000954 0.007244 0.007762 0.000007 0.014246 0.000000
# 3 0.025449 0.007762 0.058118 0.000040 0.082672 0.000001
# 4 0.000020 0.000007 0.000040 0.105003 0.000060 0.025004
# 5 0.046490 0.014246 0.082672 0.000060 0.163321 0.000003
# 6 0.000000 0.000000 0.000001 0.025004 0.000003 0.092287
#
#
# Mechanical properties :
#
#
# Convention : Reuss Voigt Hill
#
# Bulk Modulus (GPa) = 6.05870 37.46193 21.76031
# Shear Modulus (GPa) = 11.26072 29.38161 20.32117
#
# Velocity S-wave (km/s) = 2.24356 3.62404 3.01390
# Velocity P-wave (km/s) = 3.06915 5.85296 4.67316
#
# Compressibility (1/GPa) = 0.16505191
#
# Stress axis : x y z
#
# Youngs Moduli (GPa) = 31.88733 138.03913 17.20641
#
# Poissons Ratio (x) = -0.13164 -0.43789
# Poissons Ratio (y) = -0.03041 -0.13355
# Poissons Ratio (z) = -0.81151 -1.07141
#
# Static dielectric constant tensor:
#      x y z
#    x 3.717600 0.000000 -0.082050 
#    y 0.000000 5.211060 0.000000 
#    z -0.082050 0.000000 4.085040 
# 
# 
# High freq. dielectric constant tensor:
#      x y z
#    x 1.823560 0.000000 -0.027210 
#    y 0.000000 1.915190 0.000000 
#    z -0.027210 0.000000 1.892010 
# 
# From -- ./inp_files/183116.got.cif
#   From: 2010.06.25/outbox.cif.g09.slc.cpg/sg15_92_cif.got.tgz:183116.got - 2010.06.28 07:06:18.
