data_PCOD8133950
_publ_section_title
;
Structure prediction by ZEFSAII (Michael W. Deem and Ramdas Pophale) SiO2 
 PCOD8133950
Probable space group: C 2/C
;
_chemical_formula_sum "Si O2"
_cell_formula_units_Z 48
_cell_length_a 8.597047
_cell_length_b 19.582059
_cell_length_c 26.135931
_cell_angle_alpha 90.000000
_cell_angle_beta 29.391538
_cell_angle_gamma 90.000000
_cell_volume 2159.375314
_symmetry_space_group_name_H-M "C 2/C"
_symmetry_group_IT_number 15
_symmetry_cell_setting 'monoclinic'
loop_
_space_group_symop_operation_xyz
x,y,z
-x,y,1/2-z
-x,-y,-z
x,-y,1/2+z
1/2+x,1/2+y,z
1/2-x,1/2+y,1/2-z
1/2-x,1/2-y,-z
1/2+x,1/2-y,1/2+z
loop_
_atom_site_type_symbol
_atom_site_label
_atom_site_fract_x
_atom_site_fract_y
_atom_site_fract_z
Si Si1 0.190074 0.960010 0.903740
Si Si2 0.104416 0.964156 0.814653
Si Si3 0.358305 0.191637 0.734565
Si Si4 0.677036 0.682520 0.316532
Si Si5 0.654554 0.594761 0.652281
Si Si6 0.755018 0.163844 0.520586
O O1 0.134623 0.992371 0.863647
O O2 0.560804 0.967926 0.811364
O O3 0.067057 0.882601 0.939678
O O4 0.000000 0.000000 0.000000
O O5 0.999624 0.884280 0.843945
O O6 0.850825 0.013891 0.859439
O O7 0.500000 0.196731 0.750000
O O8 0.221094 0.265212 0.757048
O O9 0.626125 0.178939 0.614170
O O10 0.073417 0.137171 0.820854
O O11 0.433598 0.718545 0.429149
O O12 0.000000 0.655088 0.250000
O O13 0.500000 0.611381 0.750000
O O14 0.009848 0.622637 0.554191
#
# Coordination Sequence:
#
# PCOD8133950 Si02
#       6
#     8   8   8   8   8   8
#     4  10  19  34  61  94 121 160 203 247 315 368
#     4  10  21  38  64  91 125 164 208 253 312 378
#     4  11  25  40  64  93 126 166 215 266 313 373
#     4  11  21  43  65  88 128 174 211 253 317 379
#     4  10  22  40  63  94 128 163 208 261 317 368
#     4  10  21  41  65  93 120 173 209 255 318 376
#
# _framework density 22.228650999999999
#
# number of rings (size 3 to 8) (size 9 to 14) (size 15 to 20)
#    0.000    1.667    3.333    4.000    4.667    3.333 
#    0.000    5.000    0.000    0.000    0.000    0.000 
#    0.000    0.000    0.000    0.000    0.000    0.000 
#
# Total GULP energy -297315.322623 kJ/mol
# GULP energy per Si atom -12388.138443 kJ/mol
# Density = 2.217806 g / cm^3
# Si number density = 22.228651 Si / 1000 Ang^3
#
#
#
# Elastic Constant Matrix: (Units=GPa)
#
#
# Indices 1 2 3 4 5 6 
#
# 1 82.7297 36.8896 21.9355 -0.6432 4.9427 0.0367
# 2 36.8896 57.0931 11.8019 0.2374 6.3902 -0.3551
# 3 21.9355 11.8019 100.0773 -0.6845 17.4299 -0.1792
# 4 -0.6432 0.2374 -0.6845 29.1213 0.2657 1.0565
# 5 4.9427 6.3902 17.4299 0.2657 20.4761 0.0374
# 6 0.0367 -0.3551 -0.1792 1.0565 0.0374 34.5273
#
#
#
# Elastic Compliance Matrix: (Units=1/GPa)
#
#
# Indices 1 2 3 4 5 6 
#
# 1 0.017656 -0.011000 -0.002847 0.000404 0.001590 -0.000161
# 2 -0.011000 0.025162 0.000406 -0.000399 -0.005538 0.000291
# 3 -0.002847 0.000406 0.012297 0.000311 -0.009911 0.000072
# 4 0.000404 -0.000399 0.000311 0.034403 -0.000682 -0.001055
# 5 0.001590 -0.005538 -0.009911 -0.000682 0.058628 -0.000153
# 6 -0.000161 0.000291 0.000072 -0.001055 -0.000153 0.028999
#
#
# Mechanical properties :
#
#
# Convention : Reuss Voigt Hill
#
# Bulk Modulus (GPa) = 35.41976 42.35046 38.88511
# Shear Modulus (GPa) = 23.42616 28.10982 25.76799
#
# Velocity S-wave (km/s) = 3.24986 3.55995 3.40843
# Velocity P-wave (km/s) = 5.48188 5.99926 5.74640
#
# Compressibility (1/GPa) = 0.02823282
#
# Stress axis : x y z
#
# Youngs Moduli (GPa) = 56.63923 39.74234 81.32182
#
# Poissons Ratio (x) = 0.43716 0.23153
# Poissons Ratio (y) = 0.62303 -0.03303
# Poissons Ratio (z) = 0.16125 -0.01614
#
# Static dielectric constant tensor:
#      x y z
#    x 4.031620 -0.001900 0.001720 
#    y -0.001900 4.309540 -0.001340 
#    z 0.001720 -0.001340 4.389370 
# 
# 
# High freq. dielectric constant tensor:
#      x y z
#    x 1.840070 0.000120 0.005070 
#    y 0.000120 1.883970 -0.000050 
#    z 0.005070 -0.000050 1.896740 
# 
# From -- ./inp_files/290067.got.cif
#   From: 2010.06.25/outbox.cif.g09.slc.cpg/sg15_146_cif.got.tgz:290067.got - 2010.06.28 07:06:18.
