data_PCOD8133159
_publ_section_title
;
Structure prediction by ZEFSAII (Michael W. Deem and Ramdas Pophale) SiO2 
 PCOD8133159
Probable space group: C 2/C
;
_chemical_formula_sum "Si O2"
_cell_formula_units_Z 64
_cell_length_a 25.583414
_cell_length_b 12.437543
_cell_length_c 11.641869
_cell_angle_alpha 90.000000
_cell_angle_beta 80.545741
_cell_angle_gamma 90.000000
_cell_volume 3654.065874
_symmetry_space_group_name_H-M "C 2/C"
_symmetry_group_IT_number 15
_symmetry_cell_setting 'monoclinic'
loop_
_space_group_symop_operation_xyz
x,y,z
-x,y,1/2-z
-x,-y,-z
x,-y,1/2+z
1/2+x,1/2+y,z
1/2-x,1/2+y,1/2-z
1/2-x,1/2-y,-z
1/2+x,1/2-y,1/2+z
loop_
_atom_site_type_symbol
_atom_site_label
_atom_site_fract_x
_atom_site_fract_y
_atom_site_fract_z
Si Si1 0.557401 0.827577 0.720770
Si Si2 0.608456 0.157456 0.961893
Si Si3 0.729750 0.016724 0.185559
Si Si4 0.271859 0.347078 0.330068
Si Si5 0.058576 0.571262 0.752480
Si Si6 0.150762 0.558635 0.538801
Si Si7 0.807739 0.827429 0.553593
Si Si8 0.341443 0.194274 0.184892
O O1 0.500000 0.769933 0.750000
O O2 0.568570 0.831646 0.581862
O O3 0.602563 0.768574 0.779706
O O4 0.554047 0.945042 0.780789
O O5 0.577890 0.133818 0.856888
O O6 0.636270 0.274069 0.932702
O O7 0.647123 0.056806 0.976521
O O8 0.786359 0.070980 0.134305
O O9 0.682584 0.101047 0.225254
O O10 0.740525 0.951025 0.297712
O O11 0.705169 0.941947 0.093864
O O12 0.231714 0.269804 0.408653
O O13 0.312522 0.369702 0.419983
O O14 0.301906 0.295897 0.209127
O O15 0.099209 0.588213 0.632720
O O16 0.000000 0.618374 0.750000
O O17 0.154930 0.656266 0.447071
#
# Coordination Sequence:
#
# PCOD8133159 Si02
#       8
#     8   8   8   8   8   8   8   8
#     4  10  20  30  50  77 101 134 168 209 251 297
#     4  11  18  34  51  72 104 136 176 201 245 313
#     4  11  20  33  48  76 102 138 168 211 251 296
#     4  10  20  33  51  73 101 134 177 206 250 299
#     4  10  21  30  47  75 106 143 167 200 254 305
#     4  11  19  30  48  70 110 139 165 206 252 298
#     4  10  19  32  54  72  97 139 172 206 248 301
#     4  11  19  33  49  75 104 134 171 208 248 304
#
# _framework density 17.514737
#
# number of rings (size 3 to 8) (size 9 to 14) (size 15 to 20)
#    0.000    1.500    5.000    3.750    1.750    2.000 
#    0.000    1.250    0.000    0.000    0.000    1.750 
#    0.000    0.000    0.000    0.000    0.000    0.000 
#
# Total GULP energy -396530.435277 kJ/mol
# GULP energy per Si atom -12391.576102 kJ/mol
# Density = 1.747487 g / cm^3
# Si number density = 17.514737 Si / 1000 Ang^3
#
#
#
# Elastic Constant Matrix: (Units=GPa)
#
#
# Indices 1 2 3 4 5 6 
#
# 1 98.5317 31.1167 39.6905 0.0000 4.7182 0.0000
# 2 31.1167 32.0369 25.4226 0.0000 1.2934 0.0000
# 3 39.6905 25.4226 87.0727 0.0000 7.7501 0.0000
# 4 0.0000 0.0000 0.0000 11.9095 0.0000 0.4543
# 5 4.7182 1.2934 7.7501 0.0000 28.8595 0.0000
# 6 0.0000 0.0000 0.0000 0.4543 0.0000 12.6239
#
#
#
# Elastic Compliance Matrix: (Units=1/GPa)
#
#
# Indices 1 2 3 4 5 6 
#
# 1 0.015430 -0.012284 -0.003351 0.000000 -0.001072 0.000000
# 2 -0.012284 0.050461 -0.009334 0.000000 0.002253 0.000000
# 3 -0.003351 -0.009334 0.016035 0.000000 -0.003340 0.000000
# 4 0.000000 0.000000 0.000000 0.084082 0.000000 -0.003026
# 5 -0.001072 0.002253 -0.003340 0.000000 0.035622 0.000000
# 6 0.000000 0.000000 0.000000 -0.003026 0.000000 0.079324
#
#
# Mechanical properties :
#
#
# Convention : Reuss Voigt Hill
#
# Bulk Modulus (GPa) = 31.26302 45.56677 38.41490
# Shear Modulus (GPa) = 14.63895 18.77266 16.70581
#
# Velocity S-wave (km/s) = 2.89417 3.27742 3.09174
# Velocity P-wave (km/s) = 5.39042 6.35568 5.89285
#
# Compressibility (1/GPa) = 0.03198667
#
# Stress axis : x y z
#
# Youngs Moduli (GPa) = 64.81054 19.81732 62.36365
#
# Poissons Ratio (x) = 0.24343 0.20901
# Poissons Ratio (y) = 0.79611 0.58213
# Poissons Ratio (z) = 0.21721 0.18498
#
# Static dielectric constant tensor:
#      x y z
#    x 3.359000 0.000000 -0.076790 
#    y 0.000000 2.936180 0.000000 
#    z -0.076790 0.000000 3.303790 
# 
# 
# High freq. dielectric constant tensor:
#      x y z
#    x 1.669600 0.000000 -0.005150 
#    y 0.000000 1.619480 0.000000 
#    z -0.005150 0.000000 1.688420 
# 
# From -- ./inp_files/117597.got.cif
#   From: 2010.06.25/outbox.cif.g09.slc.cpg/sg15_59_cif.got.tgz:117597.got - 2010.06.28 07:06:18.
