data_PCOD8133979
_publ_section_title
;
Structure prediction by ZEFSAII (Michael W. Deem and Ramdas Pophale) SiO2 
 PCOD8133979
Probable space group: C 2/C
;
_chemical_formula_sum "Si O2"
_cell_formula_units_Z 56
_cell_length_a 17.994105
_cell_length_b 8.738418
_cell_length_c 30.184016
_cell_angle_alpha 90.000000
_cell_angle_beta 37.267950
_cell_angle_gamma 90.000000
_cell_volume 2873.990422
_symmetry_space_group_name_H-M "C 2/C"
_symmetry_group_IT_number 15
_symmetry_cell_setting 'monoclinic'
loop_
_space_group_symop_operation_xyz
x,y,z
-x,y,1/2-z
-x,-y,-z
x,-y,1/2+z
1/2+x,1/2+y,z
1/2-x,1/2+y,1/2-z
1/2-x,1/2-y,-z
1/2+x,1/2-y,1/2+z
loop_
_atom_site_type_symbol
_atom_site_label
_atom_site_fract_x
_atom_site_fract_y
_atom_site_fract_z
Si Si1 0.377121 0.878783 0.981953
Si Si2 0.725758 0.541672 0.474240
Si Si3 0.492238 0.585590 0.050551
Si Si4 0.236170 0.075440 0.805221
Si Si5 0.858222 0.415076 0.824272
Si Si6 0.159056 0.414883 0.829214
Si Si7 0.671020 0.147994 0.897851
O O1 0.286277 0.978412 0.993827
O O2 0.513870 0.899187 0.900307
O O3 0.346872 0.700344 0.993873
O O4 0.361101 0.932988 0.040195
O O5 0.624921 0.410212 0.511767
O O6 0.833411 0.536454 0.386636
O O7 0.398850 0.496874 0.126901
O O8 0.448440 0.759261 0.063068
O O9 0.500000 0.500000 0.000000
O O10 0.228040 0.254063 0.799044
O O11 0.311288 0.051429 0.815034
O O12 0.309840 0.993396 0.731562
O O13 0.786452 0.260195 0.846640
O O14 0.000000 0.381484 0.750000
O O15 0.208644 0.516468 0.846100
#
# Coordination Sequence:
#
# PCOD8133979 Si02
#       7
#     8   8   8   8   8   8   8
#     4  10  20  36  60  94 117 159 203 257 299 367
#     4  10  19  34  63  90 123 158 207 246 311 363
#     4  11  17  38  61  91 116 158 204 247 299 374
#     4  11  22  36  62  86 118 159 200 255 306 363
#     4  10  20  38  62  89 123 163 201 249 309 373
#     4  12  23  40  59  90 122 158 210 258 305 368
#     4  10  22  38  63  89 123 164 210 249 310 363
#
# _framework density 19.485104
#
# number of rings (size 3 to 8) (size 9 to 14) (size 15 to 20)
#    0.000    1.429    5.714    3.000    0.000    0.000 
#    2.571    1.429    3.143    0.000    0.000    0.000 
#    0.000    0.000    0.000    0.000    0.000    0.000 
#
# Total GULP energy -347269.287103 kJ/mol
# GULP energy per Si atom -12402.474539 kJ/mol
# Density = 1.944076 g / cm^3
# Si number density = 19.485104 Si / 1000 Ang^3
#
#
#
# Elastic Constant Matrix: (Units=GPa)
#
#
# Indices 1 2 3 4 5 6 
#
# 1 108.4477 34.7569 38.4145 -0.0019 -2.6749 0.0052
# 2 34.7569 77.0670 27.3251 -0.0079 6.5596 0.0041
# 3 38.4145 27.3251 101.9341 -0.0009 -10.4359 0.0035
# 4 -0.0019 -0.0079 -0.0009 29.1666 -0.0014 5.0454
# 5 -2.6749 6.5596 -10.4359 -0.0014 39.2515 0.0000
# 6 0.0052 0.0041 0.0035 5.0454 0.0000 16.3672
#
#
#
# Elastic Compliance Matrix: (Units=1/GPa)
#
#
# Indices 1 2 3 4 5 6 
#
# 1 0.011726 -0.004199 -0.003228 0.000000 0.000643 -0.000002
# 2 -0.004199 0.016329 -0.003191 0.000004 -0.003863 -0.000003
# 3 -0.003228 -0.003191 0.012247 0.000000 0.003569 -0.000001
# 4 0.000000 0.000004 0.000000 0.036217 0.000000 -0.011164
# 5 0.000643 -0.003863 0.003569 0.000000 0.027115 0.000000
# 6 -0.000002 -0.000003 -0.000001 -0.011164 0.000000 0.064539
#
#
# Mechanical properties :
#
#
# Convention : Reuss Voigt Hill
#
# Bulk Modulus (GPa) = 52.44159 54.27130 53.35644
# Shear Modulus (GPa) = 25.54094 29.42056 27.48075
#
# Velocity S-wave (km/s) = 3.62442 3.88996 3.75953
# Velocity P-wave (km/s) = 6.66988 6.93461 6.80353
#
# Compressibility (1/GPa) = 0.01906884
#
# Stress axis : x y z
#
# Youngs Moduli (GPa) = 85.28193 61.23929 81.65028
#
# Poissons Ratio (x) = 0.25712 0.26354
# Poissons Ratio (y) = 0.35806 0.26051
# Poissons Ratio (z) = 0.27526 0.19539
#
# Static dielectric constant tensor:
#      x y z
#    x 3.722780 -0.000010 0.116840 
#    y -0.000010 3.409690 0.000000 
#    z 0.116840 0.000000 3.781620 
# 
# 
# High freq. dielectric constant tensor:
#      x y z
#    x 1.757370 0.000000 0.006350 
#    y 0.000000 1.736750 0.000000 
#    z 0.006350 0.000000 1.773580 
# 
# From -- ./inp_files/298500.got.cif
#   From: 2010.06.25/outbox.cif.g09.slc.cpg/sg15_150_cif.got.tgz:298500.got - 2010.06.28 07:06:18.
