data_PCOD8133075
_publ_section_title
;
Structure prediction by ZEFSAII (Michael W. Deem and Ramdas Pophale) SiO2 
 PCOD8133075
Probable space group: C 2/C
;
_chemical_formula_sum "Si O2"
_cell_formula_units_Z 56
_cell_length_a 13.018301
_cell_length_b 24.833548
_cell_length_c 17.137797
_cell_angle_alpha 90.000000
_cell_angle_beta 148.326671
_cell_angle_gamma 90.000000
_cell_volume 2909.175132
_symmetry_space_group_name_H-M "C 2/C"
_symmetry_group_IT_number 15
_symmetry_cell_setting 'monoclinic'
loop_
_space_group_symop_operation_xyz
x,y,z
-x,y,1/2-z
-x,-y,-z
x,-y,1/2+z
1/2+x,1/2+y,z
1/2-x,1/2+y,1/2-z
1/2-x,1/2-y,-z
1/2+x,1/2-y,1/2+z
loop_
_atom_site_type_symbol
_atom_site_label
_atom_site_fract_x
_atom_site_fract_y
_atom_site_fract_z
Si Si1 0.557445 0.791375 0.597654
Si Si2 0.226167 0.406076 0.875498
Si Si3 0.690444 0.526397 0.928097
Si Si4 0.431039 0.084637 0.385487
Si Si5 0.777334 0.087903 0.089296
Si Si6 0.718210 0.214316 0.360466
Si Si7 0.724060 0.294027 0.917613
O O1 0.499890 0.853574 0.568973
O O2 0.718311 0.777500 0.767079
O O3 0.361290 0.758234 0.489567
O O4 0.648252 0.775633 0.573600
O O5 0.232479 0.424976 0.788790
O O6 0.301946 0.345052 0.935269
O O7 0.000000 0.408708 0.750000
O O8 0.347056 0.444406 0.012757
O O9 0.500000 0.531246 0.750000
O O10 0.739988 0.463404 0.979559
O O11 0.873670 0.550426 0.000190
O O12 0.331871 0.069331 0.402524
O O13 0.700422 0.145773 0.006547
O O14 0.000000 0.099885 0.250000
O O15 0.500000 0.222935 0.250000
O O16 0.500000 0.295974 0.750000
O O17 0.750000 0.250000 0.000000
#
# Coordination Sequence:
#
# PCOD8133075 Si02
#       7
#     8   8   8   8   8   8   8
#     4  10  20  32  52  78 102 136 176 206 254 311
#     4   8  17  33  51  73 104 140 171 204 253 308
#     4  10  19  33  53  80 105 132 170 213 256 304
#     4   9  18  34  54  74 103 138 171 208 255 305
#     4   9  19  35  56  77 100 136 175 209 252 305
#     4  10  19  32  49  75 107 139 169 206 253 308
#     4  10  20  37  57  77 103 135 171 216 256 297
#
# _framework density 19.249442999999999
#
# number of rings (size 3 to 8) (size 9 to 14) (size 15 to 20)
#    0.000    2.571    0.000    2.571    0.000    2.857 
#    0.000    5.000    0.000    1.714    0.000    0.000 
#    0.000    0.000    0.000    0.000    0.000    0.000 
#
# Total GULP energy -346958.522971 kJ/mol
# GULP energy per Si atom -12391.375820 kJ/mol
# Density = 1.920563 g / cm^3
# Si number density = 19.249443 Si / 1000 Ang^3
#
#
#
# Elastic Constant Matrix: (Units=GPa)
#
#
# Indices 1 2 3 4 5 6 
#
# 1 77.8746 50.2574 26.1713 -0.0001 -8.8945 0.0000
# 2 50.2574 138.3710 60.6230 -0.0002 -21.3352 0.0000
# 3 26.1713 60.6230 71.7837 -0.0002 -12.0470 0.0000
# 4 -0.0001 -0.0002 -0.0002 30.8291 -0.0002 -3.6018
# 5 -8.8945 -21.3352 -12.0470 -0.0002 29.9704 0.0000
# 6 0.0000 0.0000 0.0000 -3.6018 0.0000 28.6418
#
#
#
# Elastic Compliance Matrix: (Units=1/GPa)
#
#
# Indices 1 2 3 4 5 6 
#
# 1 0.016889 -0.005382 -0.001517 0.000000 0.000572 0.000000
# 2 -0.005382 0.013804 -0.008916 0.000000 0.004646 0.000000
# 3 -0.001517 -0.008916 0.022383 0.000000 0.002200 0.000000
# 4 0.000000 0.000000 0.000000 0.032921 0.000000 0.004140
# 5 0.000572 0.004646 0.002200 0.000000 0.037727 0.000000
# 6 0.000000 0.000000 0.000000 0.004140 0.000000 0.035435
#
#
# Mechanical properties :
#
#
# Convention : Reuss Voigt Hill
#
# Bulk Modulus (GPa) = 46.62633 62.45918 54.54276
# Shear Modulus (GPa) = 25.26049 27.95343 26.60696
#
# Velocity S-wave (km/s) = 3.62646 3.81487 3.72186
# Velocity P-wave (km/s) = 6.46604 7.20569 6.84586
#
# Compressibility (1/GPa) = 0.02144711
#
# Stress axis : x y z
#
# Youngs Moduli (GPa) = 59.20912 72.44077 44.67692
#
# Poissons Ratio (x) = 0.38985 0.06776
# Poissons Ratio (y) = 0.31865 0.39836
# Poissons Ratio (z) = 0.08980 0.64591
#
# Static dielectric constant tensor:
#      x y z
#    x 3.683920 0.000000 -0.176540 
#    y 0.000000 3.863500 0.000000 
#    z -0.176540 0.000000 3.235940 
# 
# 
# High freq. dielectric constant tensor:
#      x y z
#    x 1.751700 0.000000 -0.005030 
#    y 0.000000 1.760540 0.000000 
#    z -0.005030 0.000000 1.716760 
# 
# From -- ./inp_files/42286.got.cif
#   From: 2010.06.25/outbox.cif.g09.slc.cpg/sg15_22_cif.got.tgz:42286.got - 2010.06.28 07:06:18.
