data_PCOD8133679
_publ_section_title
;
Structure prediction by ZEFSAII (Michael W. Deem and Ramdas Pophale) SiO2 
 PCOD8133679
Probable space group: C 2/C
;
_chemical_formula_sum "Si O2"
_cell_formula_units_Z 52
_cell_length_a 12.562861
_cell_length_b 20.423159
_cell_length_c 14.609024
_cell_angle_alpha 90.000000
_cell_angle_beta 55.169409
_cell_angle_gamma 90.000000
_cell_volume 3076.759179
_symmetry_space_group_name_H-M "C 2/C"
_symmetry_group_IT_number 15
_symmetry_cell_setting 'monoclinic'
loop_
_space_group_symop_operation_xyz
x,y,z
-x,y,1/2-z
-x,-y,-z
x,-y,1/2+z
1/2+x,1/2+y,z
1/2-x,1/2+y,1/2-z
1/2-x,1/2-y,-z
1/2+x,1/2-y,1/2+z
loop_
_atom_site_type_symbol
_atom_site_label
_atom_site_fract_x
_atom_site_fract_y
_atom_site_fract_z
Si Si1 0.391240 0.421562 0.878804
Si Si2 0.000000 0.145618 0.750000
Si Si3 0.025625 0.242543 0.895656
Si Si4 0.535579 0.120990 0.129072
Si Si5 0.419575 0.638446 0.076149
Si Si6 0.810575 0.064650 0.960823
Si Si7 0.212388 0.348978 0.835005
O O1 0.500000 0.437694 0.750000
O O2 0.451318 0.387690 0.938326
O O3 0.320903 0.487340 0.943803
O O4 0.283643 0.372031 0.891591
O O5 0.059571 0.189338 0.801826
O O6 0.118260 0.100988 0.657483
O O7 0.158481 0.274417 0.871039
O O8 0.937265 0.300435 0.894146
O O9 0.947557 0.208127 0.015613
O O10 0.500000 0.102469 0.250000
O O11 0.410372 0.103339 0.127285
O O12 0.658991 0.081633 0.033194
O O13 0.306550 0.650205 0.202744
O O14 0.374954 0.584481 0.025061
#
# Coordination Sequence:
#
# PCOD8133679 Si02
#       7
#     8   4   8   8   8   8   8
#     4  10  21  38  52  75 108 143 185 211 257 320
#     4  10  20  30  54  84 110 128 170 236 270 304
#     4   9  19  32  51  82 106 133 176 212 273 313
#     4  10  19  34  54  82 105 139 169 221 270 319
#     4  10  20  33  57  77 104 146 171 223 263 308
#     4  11  20  34  57  80 108 135 179 224 266 311
#     4   9  20  36  53  78 106 143 174 216 265 320
#
# _framework density 16.900901000000001
#
# number of rings (size 3 to 8) (size 9 to 14) (size 15 to 20)
#    0.923    1.231    3.077    0.462    2.154    2.462 
#    0.000    0.000    0.000    1.846    0.000    0.000 
#    0.000    0.000    0.000    0.000    0.000    0.000 
#
# Total GULP energy -322270.117713 kJ/mol
# GULP energy per Si atom -12395.004527 kJ/mol
# Density = 1.686243 g / cm^3
# Si number density = 16.900901 Si / 1000 Ang^3
#
#
#
# Elastic Constant Matrix: (Units=GPa)
#
#
# Indices 1 2 3 4 5 6 
#
# 1 117.0670 30.0116 39.6295 0.0000 -10.1574 0.0000
# 2 30.0116 66.4192 29.5920 0.0000 -11.2404 0.0000
# 3 39.6295 29.5920 75.3156 0.0000 -13.5488 0.0000
# 4 0.0000 0.0000 0.0000 11.3526 0.0000 -3.1723
# 5 -10.1574 -11.2404 -13.5488 0.0000 24.4528 0.0000
# 6 0.0000 0.0000 0.0000 -3.1723 0.0000 18.4010
#
#
#
# Elastic Compliance Matrix: (Units=1/GPa)
#
#
# Indices 1 2 3 4 5 6 
#
# 1 0.010833 -0.002775 -0.004476 0.000000 0.000744 0.000000
# 2 -0.002775 0.019507 -0.005330 0.000000 0.004861 0.000000
# 3 -0.004476 -0.005330 0.018828 0.000000 0.006123 0.000000
# 4 0.000000 0.000000 0.000000 0.092544 0.000000 0.015954
# 5 0.000744 0.004861 0.006123 0.000000 0.046831 0.000000
# 6 0.000000 0.000000 0.000000 0.015954 0.000000 0.057095
#
#
# Mechanical properties :
#
#
# Convention : Reuss Voigt Hill
#
# Bulk Modulus (GPa) = 41.65446 50.80756 46.23101
# Shear Modulus (GPa) = 17.93382 21.47921 19.70651
#
# Velocity S-wave (km/s) = 3.26101 3.56882 3.41838
# Velocity P-wave (km/s) = 6.23528 6.86362 6.55698
#
# Compressibility (1/GPa) = 0.02400703
#
# Stress axis : x y z
#
# Youngs Moduli (GPa) = 92.30784 51.26363 53.11135
#
# Poissons Ratio (x) = 0.14225 0.23773
# Poissons Ratio (y) = 0.25614 0.28308
# Poissons Ratio (z) = 0.41318 0.27323
#
# Static dielectric constant tensor:
#      x y z
#    x 3.217670 0.000000 0.048880 
#    y 0.000000 3.025380 0.000000 
#    z 0.048880 0.000000 3.145390 
# 
# 
# High freq. dielectric constant tensor:
#      x y z
#    x 1.648160 0.000000 -0.000450 
#    y 0.000000 1.639020 0.000000 
#    z -0.000450 0.000000 1.651270 
# 
# From -- ./inp_files/147631.got.cif
#   From: 2010.06.25/outbox.cif.g09.slc.cpg/sg15_74_cif.got.tgz:147631.got - 2010.06.28 07:06:18.
