data_PCOD8133406
_publ_section_title
;
Structure prediction by ZEFSAII (Michael W. Deem and Ramdas Pophale) SiO2 
 PCOD8133406
Probable space group: C 2/C
;
_chemical_formula_sum "Si O2"
_cell_formula_units_Z 60
_cell_length_a 20.054944
_cell_length_b 19.993912
_cell_length_c 8.149215
_cell_angle_alpha 90.000000
_cell_angle_beta 67.924040
_cell_angle_gamma 90.000000
_cell_volume 3028.083155
_symmetry_space_group_name_H-M "C 2/C"
_symmetry_group_IT_number 15
_symmetry_cell_setting 'monoclinic'
loop_
_space_group_symop_operation_xyz
x,y,z
-x,y,1/2-z
-x,-y,-z
x,-y,1/2+z
1/2+x,1/2+y,z
1/2-x,1/2+y,1/2-z
1/2-x,1/2-y,-z
1/2+x,1/2-y,1/2+z
loop_
_atom_site_type_symbol
_atom_site_label
_atom_site_fract_x
_atom_site_fract_y
_atom_site_fract_z
Si Si1 0.674584 0.468940 0.625260
Si Si2 0.249546 0.414895 0.249609
Si Si3 0.566465 0.234284 0.074481
Si Si4 0.506148 0.659020 0.053776
Si Si5 0.000000 0.514357 0.750000
Si Si6 0.357539 0.678499 0.775181
Si Si7 0.582507 0.083073 0.959485
Si Si8 0.403632 0.570449 0.992500
O O1 0.725540 0.425707 0.460314
O O2 0.721213 0.529745 0.653163
O O3 0.606789 0.496722 0.577977
O O4 0.646396 0.423038 0.798534
O O5 0.278253 0.340847 0.279529
O O6 0.164357 0.419311 0.330038
O O7 0.500000 0.253063 0.250000
O O8 0.637467 0.252903 0.120781
O O9 0.553436 0.282803 0.930313
O O10 0.564792 0.157953 0.026935
O O11 0.500000 0.644211 0.250000
O O12 0.484456 0.590440 0.974381
O O13 0.587213 0.679261 0.929987
O O14 0.030643 0.563220 0.859140
O O15 0.065050 0.467274 0.625166
O O16 0.379216 0.621561 0.879779
#
# Coordination Sequence:
#
# PCOD8133406 Si02
#       8
#     8   8   8   8   4   8   8   8
#     4   9  18  32  51  76 111 151 185 222 274 324
#     4  10  19  33  55  79 112 148 183 226 280 330
#     4   9  19  36  57  80 109 145 182 227 277 321
#     4  10  19  33  55  77 107 145 187 231 266 311
#     4  10  24  38  60  88 112 136 184 230 280 332
#     4   9  19  35  53  80 110 145 187 224 272 329
#     4  11  21  39  60  84 112 139 178 230 281 339
#     4   9  17  32  50  73 106 148 192 226 261 313
#
# _framework density 19.814516000000001
#
# number of rings (size 3 to 8) (size 9 to 14) (size 15 to 20)
#    0.000    2.400    0.667    2.800    0.933    0.533 
#    0.000   16.667    0.000    7.200    0.000    0.000 
#    0.000    0.000    0.000    0.000    0.000    0.000 
#
# Total GULP energy -371688.289282 kJ/mol
# GULP energy per Si atom -12389.609643 kJ/mol
# Density = 1.976942 g / cm^3
# Si number density = 19.814516 Si / 1000 Ang^3
#
#
#
# Elastic Constant Matrix: (Units=GPa)
#
#
# Indices 1 2 3 4 5 6 
#
# 1 56.6470 25.9048 20.2591 0.0000 -2.4395 0.0000
# 2 25.9048 66.4670 26.0946 0.0000 -0.8839 0.0000
# 3 20.2591 26.0946 82.0437 0.0000 13.1911 0.0000
# 4 0.0000 0.0000 0.0000 24.5485 0.0000 -0.4586
# 5 -2.4395 -0.8839 13.1911 0.0000 29.1620 0.0000
# 6 0.0000 0.0000 0.0000 -0.4586 0.0000 11.8724
#
#
#
# Elastic Compliance Matrix: (Units=1/GPa)
#
#
# Indices 1 2 3 4 5 6 
#
# 1 0.022456 -0.007218 -0.003792 0.000000 0.003375 0.000000
# 2 -0.007218 0.019799 -0.004868 0.000000 0.002198 0.000000
# 3 -0.003792 -0.004868 0.015905 0.000000 -0.007659 0.000000
# 4 0.000000 0.000000 0.000000 0.040765 0.000000 0.001575
# 5 0.003375 0.002198 -0.007659 0.000000 0.038105 0.000000
# 6 0.000000 0.000000 0.000000 0.001575 0.000000 0.084290
#
#
# Mechanical properties :
#
#
# Convention : Reuss Voigt Hill
#
# Bulk Modulus (GPa) = 37.87508 38.85274 38.36391
# Shear Modulus (GPa) = 19.09303 21.97655 20.53479
#
# Velocity S-wave (km/s) = 3.10754 3.33395 3.22273
# Velocity P-wave (km/s) = 5.65969 5.87121 5.76642
#
# Compressibility (1/GPa) = 0.02640258
#
# Stress axis : x y z
#
# Youngs Moduli (GPa) = 44.53245 50.50818 62.87448
#
# Poissons Ratio (x) = 0.36458 0.23840
# Poissons Ratio (y) = 0.32145 0.30608
# Poissons Ratio (z) = 0.16886 0.24588
#
# Static dielectric constant tensor:
#      x y z
#    x 3.713080 0.000000 0.152990 
#    y 0.000000 3.587450 0.000000 
#    z 0.152990 0.000000 3.681380 
# 
# 
# High freq. dielectric constant tensor:
#      x y z
#    x 1.759390 0.000000 0.016830 
#    y 0.000000 1.755670 0.000000 
#    z 0.016830 0.000000 1.778520 
# 
# From -- ./inp_files/58086.got.cif
#   From: 2010.06.25/outbox.cif.g09.slc.cpg/sg15_30_cif.got.tgz:58086.got - 2010.06.28 07:06:18.
