data_PCOD8133244
_publ_section_title
;
Structure prediction by ZEFSAII (Michael W. Deem and Ramdas Pophale) SiO2 
 PCOD8133244
Probable space group: C 2/C
;
_chemical_formula_sum "Si O2"
_cell_formula_units_Z 52
_cell_length_a 14.478114
_cell_length_b 30.715710
_cell_length_c 9.031703
_cell_angle_alpha 90.000000
_cell_angle_beta 136.679564
_cell_angle_gamma 90.000000
_cell_volume 2755.596476
_symmetry_space_group_name_H-M "C 2/C"
_symmetry_group_IT_number 15
_symmetry_cell_setting 'monoclinic'
loop_
_space_group_symop_operation_xyz
x,y,z
-x,y,1/2-z
-x,-y,-z
x,-y,1/2+z
1/2+x,1/2+y,z
1/2-x,1/2+y,1/2-z
1/2-x,1/2-y,-z
1/2+x,1/2-y,1/2+z
loop_
_atom_site_type_symbol
_atom_site_label
_atom_site_fract_x
_atom_site_fract_y
_atom_site_fract_z
Si Si1 0.500000 0.688513 0.250000
Si Si2 0.007015 0.939200 0.100634
Si Si3 0.804303 0.202127 0.440794
Si Si4 0.710050 0.510842 0.673508
Si Si5 0.344384 0.947980 0.044808
Si Si6 0.169233 0.872100 0.752806
Si Si7 0.577313 0.731144 0.637127
O O1 0.379386 0.660147 0.176397
O O2 0.575603 0.716619 0.463970
O O3 0.000000 0.914400 0.250000
O O4 0.157792 0.952144 0.227085
O O5 0.948334 0.907306 0.908586
O O6 0.918333 0.982562 0.023408
O O7 0.800915 0.154706 0.362439
O O8 0.656516 0.223085 0.242722
O O9 0.840691 0.197523 0.658720
O O10 0.921018 0.233519 0.507033
O O11 0.769539 0.534451 0.601278
O O12 0.820249 0.480272 0.879068
O O13 0.500000 0.945787 0.250000
O O14 0.299980 0.898631 0.956290
#
# Coordination Sequence:
#
# PCOD8133244 Si02
#       7
#     4   8   8   8   8   8   8
#     4  10  20  36  56  90 108 146 182 246 274 338
#     4  10  19  32  59  84 104 140 184 242 283 324
#     4   9  19  39  57  83 111 154 184 235 273 355
#     4  10  20  36  58  79 105 143 197 231 275 337
#     4  11  22  39  53  80 114 157 187 233 281 344
#     4  10  22  34  55  82 117 137 186 234 297 322
#     4   9  19  35  61  81 111 145 198 221 285 335
#
# _framework density 18.870687
#
# number of rings (size 3 to 8) (size 9 to 14) (size 15 to 20)
#    0.000    2.154    1.538    1.385    4.308    2.462 
#    4.154    0.000    0.000    0.000    0.000    0.000 
#    0.000    0.000    0.000    0.000    0.000    0.000 
#
# Total GULP energy -322274.682022 kJ/mol
# GULP energy per Si atom -12395.180078 kJ/mol
# Density = 1.882774 g / cm^3
# Si number density = 18.870687 Si / 1000 Ang^3
#
#
#
# Elastic Constant Matrix: (Units=GPa)
#
#
# Indices 1 2 3 4 5 6 
#
# 1 65.3814 31.9425 42.0889 0.0000 -11.2115 0.0000
# 2 31.9425 75.2420 41.4444 0.0000 -0.4163 0.0000
# 3 42.0889 41.4444 111.8265 0.0000 -5.6841 0.0000
# 4 0.0000 0.0000 0.0000 23.7464 0.0000 -6.0365
# 5 -11.2115 -0.4163 -5.6841 0.0000 41.3605 0.0000
# 6 0.0000 0.0000 0.0000 -6.0365 0.0000 22.7375
#
#
#
# Elastic Compliance Matrix: (Units=1/GPa)
#
#
# Indices 1 2 3 4 5 6 
#
# 1 0.023330 -0.006520 -0.006089 0.000000 0.005422 0.000000
# 2 -0.006520 0.018541 -0.004529 0.000000 -0.002203 0.000000
# 3 -0.006089 -0.004529 0.012917 0.000000 0.000079 0.000000
# 4 0.000000 0.000000 0.000000 0.045159 0.000000 0.011989
# 5 0.005422 -0.002203 0.000079 0.000000 0.025636 0.000000
# 6 0.000000 0.000000 0.000000 0.011989 0.000000 0.047163
#
#
# Mechanical properties :
#
#
# Convention : Reuss Voigt Hill
#
# Bulk Modulus (GPa) = 48.75529 53.71127 51.23328
# Shear Modulus (GPa) = 23.37977 26.70050 25.04013
#
# Velocity S-wave (km/s) = 3.52369 3.76562 3.64666
# Velocity P-wave (km/s) = 6.51519 6.88703 6.70369
#
# Compressibility (1/GPa) = 0.02051060
#
# Stress axis : x y z
#
# Youngs Moduli (GPa) = 42.86388 53.93370 77.41894
#
# Poissons Ratio (x) = 0.35167 0.47137
# Poissons Ratio (y) = 0.27949 0.35067
# Poissons Ratio (z) = 0.26098 0.24429
#
# Static dielectric constant tensor:
#      x y z
#    x 3.559920 0.000000 -0.110530 
#    y 0.000000 3.357240 0.000000 
#    z -0.110530 0.000000 3.599230 
# 
# 
# High freq. dielectric constant tensor:
#      x y z
#    x 1.730450 0.000000 -0.016930 
#    y 0.000000 1.714340 0.000000 
#    z -0.016930 0.000000 1.735720 
# 
# From -- ./inp_files/44923.got.cif
#   From: 2010.06.25/outbox.cif.g09.slc.cpg/sg15_23_cif.got.tgz:44923.got - 2010.06.28 07:06:18.
