data_PCOD8133588
_publ_section_title
;
Structure prediction by ZEFSAII (Michael W. Deem and Ramdas Pophale) SiO2 
 PCOD8133588
Probable space group: C 2/C
;
_chemical_formula_sum "Si O2"
_cell_formula_units_Z 48
_cell_length_a 13.518550
_cell_length_b 13.167491
_cell_length_c 20.391654
_cell_angle_alpha 90.000000
_cell_angle_beta 41.210515
_cell_angle_gamma 90.000000
_cell_volume 2391.428144
_symmetry_space_group_name_H-M "C 2/C"
_symmetry_group_IT_number 15
_symmetry_cell_setting 'monoclinic'
loop_
_space_group_symop_operation_xyz
x,y,z
-x,y,1/2-z
-x,-y,-z
x,-y,1/2+z
1/2+x,1/2+y,z
1/2-x,1/2+y,1/2-z
1/2-x,1/2-y,-z
1/2+x,1/2-y,1/2+z
loop_
_atom_site_type_symbol
_atom_site_label
_atom_site_fract_x
_atom_site_fract_y
_atom_site_fract_z
Si Si1 0.247775 0.824683 0.751676
Si Si2 0.023442 0.019085 0.412867
Si Si3 0.768027 0.115029 0.463427
Si Si4 0.967915 0.297289 0.337582
Si Si5 0.898268 0.138266 0.735069
Si Si6 0.834371 0.515853 0.106583
O O1 0.173011 0.912532 0.833073
O O2 0.365727 0.756114 0.733764
O O3 0.335934 0.883312 0.650505
O O4 0.120598 0.752012 0.786020
O O5 0.879769 0.083964 0.464807
O O6 0.027480 0.918305 0.364894
O O7 0.000000 0.000000 0.500000
O O8 0.828811 0.218872 0.400698
O O9 0.597407 0.120604 0.578031
O O10 0.770728 0.033775 0.404145
O O11 0.000000 0.345873 0.250000
O O12 0.000000 0.133573 0.750000
O O13 0.737321 0.083419 0.824802
O O14 0.000000 0.500000 0.000000
#
# Coordination Sequence:
#
# PCOD8133588 Si02
#       6
#     8   8   8   8   8   8
#     4  10  23  40  64  92 123 163 218 260 316 387
#     4  10  23  41  64  92 129 164 211 268 320 379
#     4  10  20  36  60  91 117 161 212 262 318 380
#     4  10  19  33  61  89 119 153 208 272 322 362
#     4  11  23  43  68  90 129 181 210 257 332 386
#     4  11  22  41  64  93 127 168 217 264 318 386
#
# _framework density 20.071688000000002
#
# number of rings (size 3 to 8) (size 9 to 14) (size 15 to 20)
#    0.000    1.667    3.333    1.000    2.333    2.667 
#    3.000    1.667    0.000    0.000    0.000    0.000 
#    0.000    0.000    0.000    0.000    0.000    0.000 
#
# Total GULP energy -297445.437139 kJ/mol
# GULP energy per Si atom -12393.559881 kJ/mol
# Density = 2.002600 g / cm^3
# Si number density = 20.071688 Si / 1000 Ang^3
#
#
#
# Elastic Constant Matrix: (Units=GPa)
#
#
# Indices 1 2 3 4 5 6 
#
# 1 84.0975 43.9024 51.7513 0.0000 17.3576 0.0000
# 2 43.9024 93.9866 43.2925 0.0000 9.6079 0.0000
# 3 51.7513 43.2925 136.5713 -0.0003 11.6735 0.0001
# 4 0.0000 0.0000 -0.0003 29.8068 0.0001 2.4833
# 5 17.3576 9.6079 11.6735 0.0001 38.5979 0.0000
# 6 0.0000 0.0000 0.0001 2.4833 0.0000 30.4111
#
#
#
# Elastic Compliance Matrix: (Units=1/GPa)
#
#
# Indices 1 2 3 4 5 6 
#
# 1 0.019281 -0.006189 -0.004861 0.000000 -0.005660 0.000000
# 2 -0.006189 0.014591 -0.002266 0.000000 -0.000164 0.000000
# 3 -0.004861 -0.002266 0.009903 0.000000 -0.000245 0.000000
# 4 0.000000 0.000000 0.000000 0.033779 0.000000 -0.002758
# 5 -0.005660 -0.000164 -0.000245 0.000000 0.028568 0.000000
# 6 0.000000 0.000000 0.000000 -0.002758 0.000000 0.033108
#
#
# Mechanical properties :
#
#
# Convention : Reuss Voigt Hill
#
# Bulk Modulus (GPa) = 58.32820 65.83864 62.08342
# Shear Modulus (GPa) = 29.14130 31.47711 30.30920
#
# Velocity S-wave (km/s) = 3.81446 3.96439 3.89015
# Velocity P-wave (km/s) = 6.96586 7.33677 7.15372
#
# Compressibility (1/GPa) = 0.01714437
#
# Stress axis : x y z
#
# Youngs Moduli (GPa) = 51.86404 68.53374 100.97588
#
# Poissons Ratio (x) = 0.42415 0.49080
# Poissons Ratio (y) = 0.32098 0.22883
# Poissons Ratio (z) = 0.25209 0.15531
#
# Static dielectric constant tensor:
#      x y z
#    x 3.578350 0.000000 0.132630 
#    y 0.000000 3.621010 0.000000 
#    z 0.132630 0.000000 3.819400 
# 
# 
# High freq. dielectric constant tensor:
#      x y z
#    x 1.774860 0.000000 0.005560 
#    y 0.000000 1.766640 0.000000 
#    z 0.005560 0.000000 1.795960 
# 
# From -- ./inp_files/243899.got.cif
#   From: 2010.06.25/outbox.cif.g09.slc.cpg/sg15_122_cif.got.tgz:243899.got - 2010.06.28 07:06:18.
