data_PCOD8133129
_publ_section_title
;
Structure prediction by ZEFSAII (Michael W. Deem and Ramdas Pophale) SiO2 
 PCOD8133129
Probable space group: C 2/C
;
_chemical_formula_sum "Si O2"
_cell_formula_units_Z 40
_cell_length_a 23.806343
_cell_length_b 17.769234
_cell_length_c 9.149733
_cell_angle_alpha 90.000000
_cell_angle_beta 143.725121
_cell_angle_gamma 90.000000
_cell_volume 2290.033590
_symmetry_space_group_name_H-M "C 2/C"
_symmetry_group_IT_number 15
_symmetry_cell_setting 'monoclinic'
loop_
_space_group_symop_operation_xyz
x,y,z
-x,y,1/2-z
-x,-y,-z
x,-y,1/2+z
1/2+x,1/2+y,z
1/2-x,1/2+y,1/2-z
1/2-x,1/2-y,-z
1/2+x,1/2-y,1/2+z
loop_
_atom_site_type_symbol
_atom_site_label
_atom_site_fract_x
_atom_site_fract_y
_atom_site_fract_z
Si Si1 0.174745 0.799332 0.259004
Si Si2 0.971697 0.733942 0.349239
Si Si3 0.388950 0.958682 0.999635
Si Si4 0.832768 0.592253 0.067082
Si Si5 0.404110 0.196269 0.639323
O O1 0.250000 0.750000 0.500000
O O2 0.079802 0.798776 0.160837
O O3 0.222276 0.881076 0.340657
O O4 0.156426 0.763590 0.059905
O O5 0.904388 0.661501 0.189023
O O6 0.000000 0.766220 0.250000
O O7 0.070283 0.712712 0.638442
O O8 0.500000 0.973788 0.250000
O O9 0.352695 0.884818 0.013880
O O10 0.335383 0.032757 0.942117
O O11 0.363048 0.949631 0.776929
O O12 0.500000 0.185864 0.750000
#
# Coordination Sequence:
#
# PCOD8133129 Si02
#       5
#     8   8   8   8   8
#     4   9  17  35  50  70 106 140 168 212 250 298
#     4  10  19  32  52  78  99 133 177 210 251 303
#     4  11  19  31  48  79 110 141 161 200 252 323
#     4  11  21  31  50  75 115 135 165 204 259 308
#     4   9  16  32  52  73 103 135 169 206 253 303
#
# _framework density 17.466992999999999
#
# number of rings (size 3 to 8) (size 9 to 14) (size 15 to 20)
#    0.000    2.000    8.000    1.200    2.800    0.000 
#    0.000    6.000    0.000    0.000    0.000   18.200 
#    0.000    0.000    0.000    0.000    0.000    0.000 
#
# Total GULP energy -247861.576204 kJ/mol
# GULP energy per Si atom -12393.078810 kJ/mol
# Density = 1.742724 g / cm^3
# Si number density = 17.466993 Si / 1000 Ang^3
#
#
#
# Elastic Constant Matrix: (Units=GPa)
#
#
# Indices 1 2 3 4 5 6 
#
# 1 74.1342 42.7579 26.4163 0.0000 -10.1768 0.0000
# 2 42.7579 79.7498 25.4392 0.0000 5.4435 0.0000
# 3 26.4163 25.4392 56.8142 0.0000 -8.5539 0.0000
# 4 0.0000 0.0000 0.0000 -3.7440 0.0000 4.4460
# 5 -10.1768 5.4435 -8.5539 0.0000 19.0228 0.0000
# 6 0.0000 0.0000 0.0000 4.4460 0.0000 30.4696
#
#
#
# Elastic Compliance Matrix: (Units=1/GPa)
#
#
# Indices 1 2 3 4 5 6 
#
# 1 0.024214 -0.013028 -0.003125 0.000000 0.015277 0.000000
# 2 -0.013028 0.022755 -0.006609 0.000000 -0.016453 0.000000
# 3 -0.003125 -0.006609 0.023647 0.000000 0.010853 0.000000
# 4 0.000000 0.000000 0.000000 -0.227648 0.000000 0.033218
# 5 0.015277 -0.016453 0.010853 0.000000 0.070330 0.000000
# 6 0.000000 0.000000 0.000000 0.033218 0.000000 0.027973
#
#
# Mechanical properties :
#
#
# Convention : Reuss Voigt Hill
#
# Bulk Modulus (GPa) = 39.85144 44.43611 42.14378
# Shear Modulus (GPa) = -1032.77902 16.88867 -507.94517
#
# Velocity S-wave (km/s) = -24.34252 3.11286 -17.07144
# Velocity P-wave (km/s) = 27.69861 6.19799 19.08923
#
# Compressibility (1/GPa) = 0.02509319
#
# Stress axis : x y z
#
# Youngs Moduli (GPa) = 41.29862 43.94559 42.28833
#
# Poissons Ratio (x) = 0.57253 0.13214
# Poissons Ratio (y) = 0.53805 0.27946
# Poissons Ratio (z) = 0.12905 0.29042
#
# Static dielectric constant tensor:
#      x y z
#    x 3.423050 0.000000 0.207460 
#    y 0.000000 3.773550 0.000000 
#    z 0.207460 0.000000 3.816350 
# 
# 
# High freq. dielectric constant tensor:
#      x y z
#    x 1.648080 0.000000 -0.021290 
#    y 0.000000 1.647240 0.000000 
#    z -0.021290 0.000000 1.674260 
# 
# From -- ./inp_files/37943.got.cif
#   From: 2010.06.25/outbox.cif.g09.slc.cpg/sg15_19_cif.got.tgz:37943.got - 2010.06.28 07:06:18.
