data_PCOD8133765
_publ_section_title
;
Structure prediction by ZEFSAII (Michael W. Deem and Ramdas Pophale) SiO2 
 PCOD8133765
Probable space group: C 2/C
;
_chemical_formula_sum "Si O2"
_cell_formula_units_Z 48
_cell_length_a 11.882055
_cell_length_b 19.029590
_cell_length_c 11.319479
_cell_angle_alpha 90.000000
_cell_angle_beta 80.592176
_cell_angle_gamma 90.000000
_cell_volume 2525.029535
_symmetry_space_group_name_H-M "C 2/C"
_symmetry_group_IT_number 15
_symmetry_cell_setting 'monoclinic'
loop_
_space_group_symop_operation_xyz
x,y,z
-x,y,1/2-z
-x,-y,-z
x,-y,1/2+z
1/2+x,1/2+y,z
1/2-x,1/2+y,1/2-z
1/2-x,1/2-y,-z
1/2+x,1/2-y,1/2+z
loop_
_atom_site_type_symbol
_atom_site_label
_atom_site_fract_x
_atom_site_fract_y
_atom_site_fract_z
Si Si1 0.007377 0.406549 0.110578
Si Si2 0.500000 0.128503 0.250000
Si Si3 0.116582 0.297868 0.942297
Si Si4 0.357972 0.648628 0.475763
Si Si5 0.380081 0.493295 0.084158
Si Si6 0.000000 0.926578 0.750000
Si Si7 0.352619 0.039870 0.453691
O O1 0.000000 0.409340 0.250000
O O2 0.103018 0.460047 0.046556
O O3 0.884298 0.424226 0.073403
O O4 0.044412 0.329665 0.063012
O O5 0.429779 0.178498 0.175917
O O6 0.413203 0.078816 0.334741
O O7 0.245811 0.324960 0.927636
O O8 0.097346 0.214584 0.956431
O O9 0.338028 0.587467 0.577659
O O10 0.447086 0.622483 0.361031
O O11 0.400729 0.521881 0.213905
O O12 0.283498 0.541958 0.039661
O O13 0.500000 0.500000 0.000000
#
# Coordination Sequence:
#
# PCOD8133765 Si02
#       7
#     8   4   8   8   8   4   8
#     4  10  20  32  56  88 114 144 183 245 288 342
#     4  10  20  35  61  86 116 150 182 248 292 344
#     4  10  21  37  58  84 116 151 185 232 295 348
#     4  10  21  38  57  81 114 151 193 229 286 350
#     4  10  21  37  56  81 110 150 195 233 276 341
#     4  10  22  37  61  78 110 156 190 244 274 332
#     4  10  19  34  56  87 115 144 189 239 296 330
#
# _framework density 19.009678000000001
#
# number of rings (size 3 to 8) (size 9 to 14) (size 15 to 20)
#    0.000    2.000    2.500    1.000    1.167    3.333 
#    0.000    0.000    3.667    9.000    0.000    0.000 
#    0.000    0.000    0.000    0.000    0.000    0.000 
#
# Total GULP energy -297478.761528 kJ/mol
# GULP energy per Si atom -12394.948397 kJ/mol
# Density = 1.896641 g / cm^3
# Si number density = 19.009678 Si / 1000 Ang^3
#
#
#
# Elastic Constant Matrix: (Units=GPa)
#
#
# Indices 1 2 3 4 5 6 
#
# 1 135.2262 46.2451 42.5391 0.0000 13.4391 0.0000
# 2 46.2451 124.1699 40.8558 0.0000 10.5963 0.0000
# 3 42.5391 40.8558 87.1420 0.0000 13.4355 0.0000
# 4 0.0000 0.0000 0.0000 13.0903 0.0000 -1.5584
# 5 13.4391 10.5963 13.4355 0.0000 20.2361 0.0000
# 6 0.0000 0.0000 0.0000 -1.5584 0.0000 26.8594
#
#
#
# Elastic Compliance Matrix: (Units=1/GPa)
#
#
# Indices 1 2 3 4 5 6 
#
# 1 0.009434 -0.002238 -0.003087 0.000000 -0.003044 0.000000
# 2 -0.002238 0.010147 -0.003425 0.000000 -0.001553 0.000000
# 3 -0.003087 -0.003425 0.015592 0.000000 -0.006508 0.000000
# 4 0.000000 0.000000 0.000000 0.076924 0.000000 0.004463
# 5 -0.003044 -0.001553 -0.006508 0.000000 0.056572 0.000000
# 6 0.000000 0.000000 0.000000 0.004463 0.000000 0.037490
#
#
# Mechanical properties :
#
#
# Convention : Reuss Voigt Hill
#
# Bulk Modulus (GPa) = 56.58600 67.31313 61.94956
# Shear Modulus (GPa) = 21.78186 26.49703 24.13944
#
# Velocity S-wave (km/s) = 3.38868 3.73751 3.56736
# Velocity P-wave (km/s) = 6.71881 7.35609 7.04466
#
# Compressibility (1/GPa) = 0.01767222
#
# Stress axis : x y z
#
# Youngs Moduli (GPa) = 106.00051 98.55594 64.13707
#
# Poissons Ratio (x) = 0.22058 0.19797
# Poissons Ratio (y) = 0.23725 0.21968
# Poissons Ratio (z) = 0.32718 0.33757
#
# Static dielectric constant tensor:
#      x y z
#    x 3.682820 0.000000 0.341770 
#    y 0.000000 3.719370 0.000000 
#    z 0.341770 0.000000 3.426610 
# 
# 
# High freq. dielectric constant tensor:
#      x y z
#    x 1.746240 0.000000 0.014690 
#    y 0.000000 1.736930 0.000000 
#    z 0.014690 0.000000 1.726870 
# 
# From -- ./inp_files/87307.got.cif
#   From: 2010.06.25/outbox.cif.g09.slc.cpg/sg15_44_cif.got.tgz:87307.got - 2010.06.28 07:06:18.
