data_PCOD8133964
_publ_section_title
;
Structure prediction by ZEFSAII (Michael W. Deem and Ramdas Pophale) SiO2 
 PCOD8133964
Probable space group: C 2/C
;
_chemical_formula_sum "Si O2"
_cell_formula_units_Z 52
_cell_length_a 8.011732
_cell_length_b 18.159657
_cell_length_c 16.590026
_cell_angle_alpha 90.000000
_cell_angle_beta 97.322717
_cell_angle_gamma 90.000000
_cell_volume 2394.001870
_symmetry_space_group_name_H-M "C 2/C"
_symmetry_group_IT_number 15
_symmetry_cell_setting 'monoclinic'
loop_
_space_group_symop_operation_xyz
x,y,z
-x,y,1/2-z
-x,-y,-z
x,-y,1/2+z
1/2+x,1/2+y,z
1/2-x,1/2+y,1/2-z
1/2-x,1/2-y,-z
1/2+x,1/2-y,1/2+z
loop_
_atom_site_type_symbol
_atom_site_label
_atom_site_fract_x
_atom_site_fract_y
_atom_site_fract_z
Si Si1 0.000000 0.902690 0.250000
Si Si2 0.822693 0.690728 0.123251
Si Si3 0.567276 0.937186 0.669502
Si Si4 0.806990 0.188183 0.216533
Si Si5 0.893596 0.199410 0.880951
Si Si6 0.029529 0.887295 0.523315
Si Si7 0.668520 0.509709 0.899469
O O1 0.112135 0.852483 0.197841
O O2 0.112356 0.954986 0.312079
O O3 0.800556 0.715982 0.214011
O O4 0.641773 0.676531 0.071468
O O5 0.924987 0.614467 0.123376
O O6 0.928733 0.757896 0.093150
O O7 0.500000 0.972363 0.750000
O O8 0.743041 0.893782 0.695261
O O9 0.631221 0.994883 0.605366
O O10 0.760638 0.242904 0.139040
O O11 0.000000 0.188805 0.250000
O O12 0.879494 0.149825 0.960782
O O13 0.941871 0.936668 0.586399
O O14 0.151905 0.934679 0.473055
#
# Coordination Sequence:
#
# PCOD8133964 Si02
#       7
#     4   8   8   8   8   8   8
#     4  10  20  36  64  76 120 158 200 244 296 348
#     4  10  19  36  62  85 118 156 195 250 300 350
#     4   9  20  35  58  91 118 152 202 247 286 347
#     4  10  19  34  62  90 114 151 206 247 289 351
#     4  10  19  40  58  88 119 153 195 253 301 349
#     4  10  22  37  61  90 123 161 194 243 307 355
#     4  10  22  38  58  89 121 163 199 236 296 367
#
# _framework density 21.720952
#
# number of rings (size 3 to 8) (size 9 to 14) (size 15 to 20)
#    0.000    2.154    1.538    2.308    5.385    0.615 
#    0.000    9.231    0.000    0.000    0.000    0.000 
#    0.000    0.000    0.000    0.000    0.000    0.000 
#
# Total GULP energy -322157.196370 kJ/mol
# GULP energy per Si atom -12390.661399 kJ/mol
# Density = 2.167151 g / cm^3
# Si number density = 21.720952 Si / 1000 Ang^3
#
#
#
# Elastic Constant Matrix: (Units=GPa)
#
#
# Indices 1 2 3 4 5 6 
#
# 1 79.4961 21.9402 30.3792 0.0000 -0.3501 0.0000
# 2 21.9402 45.3877 27.9662 0.0000 -3.4411 0.0000
# 3 30.3792 27.9662 87.0604 0.0000 -5.0466 0.0000
# 4 0.0000 0.0000 0.0000 21.2514 0.0000 2.6530
# 5 -0.3501 -3.4411 -5.0466 0.0000 35.8248 0.0000
# 6 0.0000 0.0000 0.0000 2.6530 0.0000 14.6894
#
#
#
# Elastic Compliance Matrix: (Units=1/GPa)
#
#
# Indices 1 2 3 4 5 6 
#
# 1 0.015455 -0.005216 -0.003769 0.000000 -0.000881 0.000000
# 2 -0.005216 0.029300 -0.007493 0.000000 0.001708 0.000000
# 3 -0.003769 -0.007493 0.015289 0.000000 0.001397 0.000000
# 4 0.000000 0.000000 0.000000 0.048141 0.000000 -0.008694
# 5 -0.000881 0.001708 0.001397 0.000000 0.028266 0.000000
# 6 0.000000 0.000000 0.000000 -0.008694 0.000000 0.069646
#
#
# Mechanical properties :
#
#
# Convention : Reuss Voigt Hill
#
# Bulk Modulus (GPa) = 36.91423 41.39061 39.15242
# Shear Modulus (GPa) = 20.15463 23.13036 21.64250
#
# Velocity S-wave (km/s) = 3.04943 3.26680 3.15999
# Velocity P-wave (km/s) = 5.42498 5.77289 5.60164
#
# Compressibility (1/GPa) = 0.02708982
#
# Stress axis : x y z
#
# Youngs Moduli (GPa) = 64.70411 34.12973 65.40545
#
# Poissons Ratio (x) = 0.17801 0.24649
# Poissons Ratio (y) = 0.33747 0.49008
# Poissons Ratio (z) = 0.24384 0.25573
#
# Static dielectric constant tensor:
#      x y z
#    x 3.670130 0.000000 -0.198900 
#    y 0.000000 3.920440 0.000000 
#    z -0.198900 0.000000 3.956900 
# 
# 
# High freq. dielectric constant tensor:
#      x y z
#    x 1.831170 0.000000 -0.010360 
#    y 0.000000 1.847130 0.000000 
#    z -0.010360 0.000000 1.857050 
# 
# From -- ./inp_files/190576.got.cif
#   From: 2010.06.25/outbox.cif.g09.slc.cpg/sg15_96_cif.got.tgz:190576.got - 2010.06.28 07:06:18.
