data_PCOD8133707
_publ_section_title
;
Structure prediction by ZEFSAII (Michael W. Deem and Ramdas Pophale) SiO2 
 PCOD8133707
Probable space group: C 2/C
;
_chemical_formula_sum "Si O2"
_cell_formula_units_Z 64
_cell_length_a 14.676336
_cell_length_b 14.934708
_cell_length_c 22.205472
_cell_angle_alpha 90.000000
_cell_angle_beta 47.366540
_cell_angle_gamma 90.000000
_cell_volume 3580.767601
_symmetry_space_group_name_H-M "C 2/C"
_symmetry_group_IT_number 15
_symmetry_cell_setting 'monoclinic'
loop_
_space_group_symop_operation_xyz
x,y,z
-x,y,1/2-z
-x,-y,-z
x,-y,1/2+z
1/2+x,1/2+y,z
1/2-x,1/2+y,1/2-z
1/2-x,1/2-y,-z
1/2+x,1/2-y,1/2+z
loop_
_atom_site_type_symbol
_atom_site_label
_atom_site_fract_x
_atom_site_fract_y
_atom_site_fract_z
Si Si1 0.836863 0.084743 0.067151
Si Si2 0.513451 0.454516 0.586306
Si Si3 0.814370 0.520748 0.072723
Si Si4 0.887313 0.228375 0.956197
Si Si5 0.009083 0.416470 0.913561
Si Si6 0.408395 0.015511 0.845591
Si Si7 0.436256 0.420962 0.337866
Si Si8 0.248646 0.354936 0.006138
O O1 0.691465 0.060126 0.129785
O O2 0.883516 0.074095 0.114889
O O3 0.871370 0.184596 0.029681
O O4 0.911579 0.022786 0.988543
O O5 0.487172 0.499656 0.662941
O O6 0.605306 0.371416 0.551330
O O7 0.853816 0.563239 0.120015
O O8 0.691410 0.462160 0.128727
O O9 0.802977 0.602873 0.031915
O O10 0.914332 0.448820 0.006479
O O11 0.933325 0.160773 0.884839
O O12 0.983149 0.311009 0.914885
O O13 0.750000 0.250000 0.000000
O O14 0.993090 0.471647 0.859260
O O15 0.500000 0.042218 0.750000
O O16 0.335336 0.104480 0.901447
O O17 0.500000 0.383959 0.250000
O O18 0.250000 0.250000 0.000000
#
# Coordination Sequence:
#
# PCOD8133707 Si02
#       8
#     8   8   8   8   8   8   8   8
#     4   9  17  32  54  77 104 136 180 224 262 317
#     4   8  17  33  53  76  98 136 185 221 260 318
#     4   9  19  35  55  76 104 147 181 221 271 333
#     4  11  18  33  55  84 110 137 185 234 268 321
#     4  10  19  34  55  79 110 141 181 222 272 331
#     4  10  20  34  52  76 111 147 172 220 283 332
#     4  10  20  35  55  76 110 148 182 226 285 333
#     4   9  18  34  54  80 102 136 188 226 262 316
#
# _framework density 17.873263000000001
#
# number of rings (size 3 to 8) (size 9 to 14) (size 15 to 20)
#    0.000    2.500    2.500    1.500    1.750    1.500 
#    0.000    2.500    0.000    0.000    0.000    0.000 
#    0.000    0.000    0.000    0.000    0.000    0.000 
#
# Total GULP energy -396450.693114 kJ/mol
# GULP energy per Si atom -12389.084160 kJ/mol
# Density = 1.783258 g / cm^3
# Si number density = 17.873263 Si / 1000 Ang^3
#
#
#
# Elastic Constant Matrix: (Units=GPa)
#
#
# Indices 1 2 3 4 5 6 
#
# 1 131.9391 34.8259 28.3273 0.0000 3.2476 0.0000
# 2 34.8259 116.3423 29.8951 0.0000 3.1141 0.0000
# 3 28.3273 29.8951 72.0272 0.0000 15.1846 0.0000
# 4 0.0000 0.0000 0.0000 14.3855 0.0000 -0.7030
# 5 3.2476 3.1141 15.1846 0.0000 13.9328 0.0000
# 6 0.0000 0.0000 0.0000 -0.7030 0.0000 24.0171
#
#
#
# Elastic Compliance Matrix: (Units=1/GPa)
#
#
# Indices 1 2 3 4 5 6 
#
# 1 0.008673 -0.001875 -0.002980 0.000000 0.001645 0.000000
# 2 -0.001875 0.010115 -0.003994 0.000000 0.002529 0.000000
# 3 -0.002980 -0.003994 0.021264 0.000000 -0.021588 0.000000
# 4 0.000000 0.000000 0.000000 0.069614 0.000000 0.002038
# 5 0.001645 0.002529 -0.021588 0.000000 0.094351 0.000000
# 6 0.000000 0.000000 0.000000 0.002038 0.000000 0.041697
#
#
# Mechanical properties :
#
#
# Convention : Reuss Voigt Hill
#
# Bulk Modulus (GPa) = 44.73170 56.26725 50.49947
# Shear Modulus (GPa) = 18.45945 25.61777 22.03861
#
# Velocity S-wave (km/s) = 3.21720 3.79000 3.51529
# Velocity P-wave (km/s) = 6.23554 7.12052 6.69267
#
# Compressibility (1/GPa) = 0.02235551
#
# Stress axis : x y z
#
# Youngs Moduli (GPa) = 115.29573 98.86170 47.02691
#
# Poissons Ratio (x) = 0.18533 0.14013
# Poissons Ratio (y) = 0.21614 0.18784
# Poissons Ratio (z) = 0.34356 0.39488
#
# Static dielectric constant tensor:
#      x y z
#    x 3.804090 0.000000 -0.051570 
#    y 0.000000 2.263330 0.000000 
#    z -0.051570 0.000000 3.071680 
# 
# 
# High freq. dielectric constant tensor:
#      x y z
#    x 1.707890 0.000000 0.001590 
#    y 0.000000 1.684060 0.000000 
#    z 0.001590 0.000000 1.657010 
# 
# From -- ./inp_files/274311.got.cif
#   From: 2010.06.25/outbox.cif.g09.slc.cpg/sg15_138_cif.got.tgz:274311.got - 2010.06.28 07:06:18.
