data_PCOD8133034
_publ_section_title
;
Structure prediction by ZEFSAII (Michael W. Deem and Ramdas Pophale) SiO2 
 PCOD8133034
Probable space group: C 2/C
;
_chemical_formula_sum "Si O2"
_cell_formula_units_Z 48
_cell_length_a 11.466579
_cell_length_b 26.849323
_cell_length_c 8.777357
_cell_angle_alpha 90.000000
_cell_angle_beta 79.605726
_cell_angle_gamma 90.000000
_cell_volume 2657.938063
_symmetry_space_group_name_H-M "C 2/C"
_symmetry_group_IT_number 15
_symmetry_cell_setting 'monoclinic'
loop_
_space_group_symop_operation_xyz
x,y,z
-x,y,1/2-z
-x,-y,-z
x,-y,1/2+z
1/2+x,1/2+y,z
1/2-x,1/2+y,1/2-z
1/2-x,1/2-y,-z
1/2+x,1/2-y,1/2+z
loop_
_atom_site_type_symbol
_atom_site_label
_atom_site_fract_x
_atom_site_fract_y
_atom_site_fract_z
Si Si1 0.148409 0.456912 0.873557
Si Si2 0.155808 0.657171 0.861625
Si Si3 0.720049 0.134299 0.527660
Si Si4 0.388822 0.687602 0.684924
Si Si5 0.872186 0.442220 0.964928
Si Si6 0.047985 0.299227 0.900698
O O1 0.180623 0.452105 0.689329
O O2 0.014088 0.439668 0.934230
O O3 0.230548 0.421085 0.957268
O O4 0.171831 0.513654 0.914983
O O5 0.131029 0.636637 0.695422
O O6 0.276769 0.690254 0.827849
O O7 0.177874 0.609970 0.965151
O O8 0.051118 0.692244 0.946607
O O9 0.851296 0.152579 0.550107
O O10 0.667210 0.170603 0.410514
O O11 0.500000 0.664423 0.750000
O O12 0.421637 0.741354 0.612264
O O13 0.000000 0.319058 0.750000
#
# Coordination Sequence:
#
# PCOD8133034 Si02
#       6
#     8   8   8   8   8   8
#     4  10  19  31  55  87 121 145 172 232 288 358
#     4  10  21  34  59  79 116 150 187 235 287 339
#     4  10  20  35  55  82 114 152 186 232 288 338
#     4   9  23  38  56  78 112 156 202 238 275 333
#     4  10  19  32  53  89 121 142 178 224 299 350
#     4  11  20  35  56  82 114 145 191 237 293 339
#
# _framework density 18.059111999999999
#
# number of rings (size 3 to 8) (size 9 to 14) (size 15 to 20)
#    1.000    1.000    1.667    3.000    0.000    4.000 
#    0.000    0.000    0.000    1.000    0.000    0.000 
#    0.000    0.000    0.000    0.000    0.000    0.000 
#
# Total GULP energy -297482.116719 kJ/mol
# GULP energy per Si atom -12395.088197 kJ/mol
# Density = 1.801801 g / cm^3
# Si number density = 18.059112 Si / 1000 Ang^3
#
#
#
# Elastic Constant Matrix: (Units=GPa)
#
#
# Indices 1 2 3 4 5 6 
#
# 1 77.1511 40.3476 20.1552 0.0000 17.4244 0.0000
# 2 40.3476 117.0626 50.4243 0.0000 2.5976 0.0000
# 3 20.1552 50.4243 98.5072 0.0000 15.5922 0.0000
# 4 0.0000 0.0000 0.0000 32.5546 0.0000 6.9885
# 5 17.4244 2.5976 15.5922 0.0000 29.1709 0.0000
# 6 0.0000 0.0000 0.0000 6.9885 0.0000 25.1530
#
#
#
# Elastic Compliance Matrix: (Units=1/GPa)
#
#
# Indices 1 2 3 4 5 6 
#
# 1 0.018714 -0.006829 0.001463 0.000000 -0.011353 0.000000
# 2 -0.006829 0.013582 -0.006565 0.000000 0.006379 0.000000
# 3 0.001463 -0.006565 0.014484 0.000000 -0.008031 0.000000
# 4 0.000000 0.000000 0.000000 0.032666 0.000000 -0.009076
# 5 -0.011353 0.006379 -0.008031 0.000000 0.044787 0.000000
# 6 0.000000 0.000000 0.000000 -0.009076 0.000000 0.042278
#
#
# Mechanical properties :
#
#
# Convention : Reuss Voigt Hill
#
# Bulk Modulus (GPa) = 43.62999 57.17500 50.40250
# Shear Modulus (GPa) = 25.25093 29.49529 27.37311
#
# Velocity S-wave (km/s) = 3.74336 4.04575 3.89749
# Velocity P-wave (km/s) = 6.54948 7.31798 6.94437
#
# Compressibility (1/GPa) = 0.02292001
#
# Stress axis : x y z
#
# Youngs Moduli (GPa) = 53.43468 73.62474 69.04212
#
# Poissons Ratio (x) = 0.50276 -0.10103
# Poissons Ratio (y) = 0.36489 0.45327
# Poissons Ratio (z) = -0.07819 0.48335
#
# Static dielectric constant tensor:
#      x y z
#    x 3.056440 0.000000 0.213560 
#    y 0.000000 3.227630 0.000000 
#    z 0.213560 0.000000 3.389970 
# 
# 
# High freq. dielectric constant tensor:
#      x y z
#    x 1.658640 0.000000 0.023980 
#    y 0.000000 1.700190 0.000000 
#    z 0.023980 0.000000 1.703180 
# 
# From -- ./inp_files/33020.got.cif
#   From: 2010.06.25/outbox.cif.g09.slc.cpg/sg15_17_cif.got.tgz:33020.got - 2010.06.28 07:06:18.
