data_PCOD8133711
_publ_section_title
;
Structure prediction by ZEFSAII (Michael W. Deem and Ramdas Pophale) SiO2 
 PCOD8133711
Probable space group: C 2/C
;
_chemical_formula_sum "Si O2"
_cell_formula_units_Z 36
_cell_length_a 12.335019
_cell_length_b 20.720598
_cell_length_c 8.827826
_cell_angle_alpha 90.000000
_cell_angle_beta 122.260999
_cell_angle_gamma 90.000000
_cell_volume 1907.980253
_symmetry_space_group_name_H-M "C 2/C"
_symmetry_group_IT_number 15
_symmetry_cell_setting 'monoclinic'
loop_
_space_group_symop_operation_xyz
x,y,z
-x,y,1/2-z
-x,-y,-z
x,-y,1/2+z
1/2+x,1/2+y,z
1/2-x,1/2+y,1/2-z
1/2-x,1/2-y,-z
1/2+x,1/2-y,1/2+z
loop_
_atom_site_type_symbol
_atom_site_label
_atom_site_fract_x
_atom_site_fract_y
_atom_site_fract_z
Si Si1 0.561592 0.057341 0.134686
Si Si2 0.799712 0.220354 0.382706
Si Si3 0.500000 0.489174 0.750000
Si Si4 0.348874 0.429033 0.906187
Si Si5 0.967968 0.699059 0.404850
O O1 0.500000 0.060043 0.250000
O O2 0.711405 0.043178 0.259579
O O3 0.530793 0.125867 0.031499
O O4 0.500000 0.000000 0.000000
O O5 0.750000 0.250000 0.500000
O O6 0.842239 0.146634 0.438196
O O7 0.677942 0.225756 0.177046
O O8 0.925962 0.260007 0.422193
O O9 0.440769 0.442347 0.832444
O O10 0.395417 0.535217 0.592914
O O11 0.000000 0.701430 0.250000
#
# Coordination Sequence:
#
# PCOD8133711 Si02
#       5
#     8   8   4   8   8
#     4  10  19  34  55  80 110 140 183 235 281 329
#     4   9  17  30  52  80 105 138 188 232 271 326
#     4  10  22  38  54  84 114 152 186 228 290 336
#     4  10  21  36  57  82 115 147 190 232 281 340
#     4   8  16  29  47  77 101 133 177 224 265 321
#
# _framework density 18.868120000000001
#
# number of rings (size 3 to 8) (size 9 to 14) (size 15 to 20)
#    0.000    2.667    0.000    2.667    4.667    0.000 
#    4.000    0.000    2.444    2.667    0.000    0.000 
#    0.000    0.000    0.000    0.000    0.000    0.000 
#
# Total GULP energy -223057.424374 kJ/mol
# GULP energy per Si atom -12392.079132 kJ/mol
# Density = 1.882518 g / cm^3
# Si number density = 18.868120 Si / 1000 Ang^3
#
#
#
# Elastic Constant Matrix: (Units=GPa)
#
#
# Indices 1 2 3 4 5 6 
#
# 1 73.6273 56.0943 39.0984 0.0000 30.5929 0.0000
# 2 56.0943 145.6439 75.6547 0.0000 36.3976 0.0000
# 3 39.0984 75.6547 78.9920 0.0000 33.3309 0.0000
# 4 0.0000 0.0000 0.0000 37.5859 0.0000 10.1938
# 5 30.5929 36.3976 33.3309 0.0000 43.9359 0.0000
# 6 0.0000 0.0000 0.0000 10.1938 0.0000 34.2309
#
#
#
# Elastic Compliance Matrix: (Units=1/GPa)
#
#
# Indices 1 2 3 4 5 6 
#
# 1 0.022803 -0.005200 -0.002095 0.000000 -0.009981 0.000000
# 2 -0.005200 0.014976 -0.011858 0.000000 0.000210 0.000000
# 3 -0.002095 -0.011858 0.029847 0.000000 -0.011361 0.000000
# 4 0.000000 0.000000 0.000000 0.028943 0.000000 -0.008619
# 5 -0.009981 0.000210 -0.011361 0.000000 0.038154 0.000000
# 6 0.000000 0.000000 0.000000 -0.008619 0.000000 0.031780
#
#
# Mechanical properties :
#
#
# Convention : Reuss Voigt Hill
#
# Bulk Modulus (GPa) = 34.10627 71.10646 52.60636
# Shear Modulus (GPa) = 23.30080 31.64492 27.47286
#
# Velocity S-wave (km/s) = 3.51797 4.09976 3.81996
# Velocity P-wave (km/s) = 5.88361 7.75748 6.88460
#
# Compressibility (1/GPa) = 0.02932013
#
# Stress axis : x y z
#
# Youngs Moduli (GPa) = 43.85305 66.77320 33.50380
#
# Poissons Ratio (x) = 0.34723 0.07019
# Poissons Ratio (y) = 0.22804 0.39730
# Poissons Ratio (z) = 0.09188 0.79181
#
# Static dielectric constant tensor:
#      x y z
#    x 3.785870 0.000000 0.624150 
#    y 0.000000 3.198770 0.000000 
#    z 0.624150 0.000000 3.425050 
# 
# 
# High freq. dielectric constant tensor:
#      x y z
#    x 1.732570 0.000000 0.038180 
#    y 0.000000 1.742890 0.000000 
#    z 0.038180 0.000000 1.706090 
# 
# From -- ./inp_files/28988.got.cif
#   From: 2010.06.25/outbox.cif.g09.slc.cpg/sg15_15_cif.got.tgz:28988.got - 2010.06.28 07:06:18.
