data_PCOD8133404
_publ_section_title
;
Structure prediction by ZEFSAII (Michael W. Deem and Ramdas Pophale) SiO2 
 PCOD8133404
Probable space group: C 2/C
;
_chemical_formula_sum "Si O2"
_cell_formula_units_Z 56
_cell_length_a 11.833262
_cell_length_b 14.948829
_cell_length_c 20.448011
_cell_angle_alpha 90.000000
_cell_angle_beta 52.973118
_cell_angle_gamma 90.000000
_cell_volume 2887.737551
_symmetry_space_group_name_H-M "C 2/C"
_symmetry_group_IT_number 15
_symmetry_cell_setting 'monoclinic'
loop_
_space_group_symop_operation_xyz
x,y,z
-x,y,1/2-z
-x,-y,-z
x,-y,1/2+z
1/2+x,1/2+y,z
1/2-x,1/2+y,1/2-z
1/2-x,1/2-y,-z
1/2+x,1/2-y,1/2+z
loop_
_atom_site_type_symbol
_atom_site_label
_atom_site_fract_x
_atom_site_fract_y
_atom_site_fract_z
Si Si1 0.083618 0.262274 0.984699
Si Si2 0.283234 0.154581 0.581803
Si Si3 0.841266 0.313639 0.811540
Si Si4 0.708375 0.395403 0.515216
Si Si5 0.348702 0.149260 0.167188
Si Si6 0.842137 0.574828 0.426963
Si Si7 0.146344 0.020197 0.166820
O O1 0.182137 0.328216 0.990617
O O2 0.925397 0.295157 0.055299
O O3 0.107613 0.159739 0.000122
O O4 0.115093 0.270296 0.896028
O O5 0.159248 0.219280 0.650175
O O6 0.274383 0.136631 0.507548
O O7 0.260523 0.059950 0.625322
O O8 0.783915 0.310674 0.757318
O O9 0.773393 0.388670 0.883232
O O10 0.000000 0.345209 0.750000
O O11 0.799033 0.471144 0.446208
O O12 0.615286 0.442141 0.604517
O O13 0.487079 0.086207 0.128092
O O14 0.216613 0.095337 0.186125
O O15 0.000000 0.988484 0.250000
#
# Coordination Sequence:
#
# PCOD8133404 Si02
#       7
#     8   8   8   8   8   8   8
#     4   9  18  34  57  80 105 144 183 222 267 330
#     4  10  19  33  55  77 104 145 185 216 269 335
#     4  10  20  34  53  75 108 142 178 227 273 322
#     4   9  18  34  57  79 107 140 186 225 268 319
#     4   9  19  35  53  78 109 145 178 225 278 327
#     4   9  18  35  56  76 103 143 188 222 267 323
#     4  10  20  33  54  80 112 143 180 226 276 323
#
# _framework density 19.392344000000001
#
# number of rings (size 3 to 8) (size 9 to 14) (size 15 to 20)
#    0.000    2.571    0.000    1.714    2.000    3.429 
#    2.571    0.714    0.000    0.000    0.000    0.000 
#    0.000    0.000    0.000    0.000    0.000    0.000 
#
# Total GULP energy -346938.112868 kJ/mol
# GULP energy per Si atom -12390.646888 kJ/mol
# Density = 1.934821 g / cm^3
# Si number density = 19.392344 Si / 1000 Ang^3
#
#
#
# Elastic Constant Matrix: (Units=GPa)
#
#
# Indices 1 2 3 4 5 6 
#
# 1 60.2520 33.4754 45.0852 0.0000 10.6965 0.0000
# 2 33.4754 99.8396 50.7120 0.0000 4.1317 0.0000
# 3 45.0852 50.7120 121.4997 0.0000 10.7488 0.0000
# 4 0.0000 0.0000 0.0000 22.7625 0.0000 -1.6761
# 5 10.6965 4.1317 10.7488 0.0000 23.4834 0.0000
# 6 0.0000 0.0000 0.0000 -1.6761 0.0000 32.7431
#
#
#
# Elastic Compliance Matrix: (Units=1/GPa)
#
#
# Indices 1 2 3 4 5 6 
#
# 1 0.025803 -0.004842 -0.006867 0.000000 -0.007758 0.000000
# 2 -0.004842 0.013620 -0.004035 0.000000 0.001656 0.000000
# 3 -0.006867 -0.004035 0.012635 0.000000 -0.001945 0.000000
# 4 0.000000 0.000000 0.000000 0.044098 0.000000 0.002257
# 5 -0.007758 0.001656 -0.001945 0.000000 0.046716 0.000000
# 6 0.000000 0.000000 0.000000 0.002257 0.000000 0.030656
#
#
# Mechanical properties :
#
#
# Convention : Reuss Voigt Hill
#
# Bulk Modulus (GPa) = 48.61491 60.01517 54.31504
# Shear Modulus (GPa) = 23.59887 25.95239 24.77563
#
# Velocity S-wave (km/s) = 3.49222 3.66222 3.57823
# Velocity P-wave (km/s) = 6.43307 6.99268 6.71870
#
# Compressibility (1/GPa) = 0.02056982
#
# Stress axis : x y z
#
# Youngs Moduli (GPa) = 38.75463 73.41909 79.14607
#
# Poissons Ratio (x) = 0.35552 0.54353
# Poissons Ratio (y) = 0.18766 0.31932
# Poissons Ratio (z) = 0.26615 0.29621
#
# Static dielectric constant tensor:
#      x y z
#    x 3.420450 0.000000 0.265270 
#    y 0.000000 3.519670 0.000000 
#    z 0.265270 0.000000 4.016060 
# 
# 
# High freq. dielectric constant tensor:
#      x y z
#    x 1.733300 0.000000 0.005390 
#    y 0.000000 1.746820 0.000000 
#    z 0.005390 0.000000 1.765820 
# 
# From -- ./inp_files/144252.got.cif
#   From: 2010.06.25/outbox.cif.g09.slc.cpg/sg15_73_cif.got.tgz:144252.got - 2010.06.28 07:06:18.
