data_PCOD8133791
_publ_section_title
;
Structure prediction by ZEFSAII (Michael W. Deem and Ramdas Pophale) SiO2 
 PCOD8133791
Probable space group: C 2/C
;
_chemical_formula_sum "Si O2"
_cell_formula_units_Z 52
_cell_length_a 11.392768
_cell_length_b 25.607862
_cell_length_c 8.847382
_cell_angle_alpha 90.000000
_cell_angle_beta 92.822328
_cell_angle_gamma 90.000000
_cell_volume 2578.043525
_symmetry_space_group_name_H-M "C 2/C"
_symmetry_group_IT_number 15
_symmetry_cell_setting 'monoclinic'
loop_
_space_group_symop_operation_xyz
x,y,z
-x,y,1/2-z
-x,-y,-z
x,-y,1/2+z
1/2+x,1/2+y,z
1/2-x,1/2+y,1/2-z
1/2-x,1/2-y,-z
1/2+x,1/2-y,1/2+z
loop_
_atom_site_type_symbol
_atom_site_label
_atom_site_fract_x
_atom_site_fract_y
_atom_site_fract_z
Si Si1 0.365538 0.111571 0.710360
Si Si2 0.685555 0.104139 0.454324
Si Si3 0.500000 0.832115 0.750000
Si Si4 0.809970 0.304144 0.964489
Si Si5 0.740973 0.994504 0.383146
Si Si6 0.102591 0.980910 0.853581
Si Si7 0.375371 0.632455 0.230903
O O1 0.500000 0.098777 0.750000
O O2 0.352436 0.165343 0.616853
O O3 0.316871 0.062780 0.607101
O O4 0.302008 0.119048 0.868221
O O5 0.576954 0.132433 0.366857
O O6 0.810183 0.120075 0.385701
O O7 0.659710 0.041867 0.437689
O O8 0.417708 0.796395 0.852641
O O9 0.709740 0.337105 0.881808
O O10 0.750000 0.250000 0.000000
O O11 0.872159 0.999254 0.473432
O O12 0.769772 0.005762 0.210822
O O13 0.084354 0.919248 0.854881
O O14 0.000000 0.009571 0.750000
O O15 0.500000 0.664057 0.250000
#
# Coordination Sequence:
#
# PCOD8133791 Si02
#       7
#     8   8   4   8   8   8   8
#     4  12  24  40  62  96 131 163 216 267 314 383
#     4  10  22  39  64  94 132 171 207 256 320 385
#     4  10  22  46  68  92 126 166 210 264 322 384
#     4  11  24  45  68  90 124 161 211 270 321 372
#     4  11  21  35  56  96 129 168 209 246 311 389
#     4  10  19  34  57  82 126 168 207 246 301 364
#     4   9  20  41  62  86 122 165 208 254 310 373
#
# _framework density 20.170334
#
# number of rings (size 3 to 8) (size 9 to 14) (size 15 to 20)
#    0.000    1.538    4.615    0.462    1.077    1.231 
#    2.769    1.538    0.000    0.000    0.000    0.000 
#    0.000    0.000    0.000    0.000    0.000    0.000 
#
# Total GULP energy -322124.031268 kJ/mol
# GULP energy per Si atom -12389.385818 kJ/mol
# Density = 2.012443 g / cm^3
# Si number density = 20.170334 Si / 1000 Ang^3
#
#
#
# Elastic Constant Matrix: (Units=GPa)
#
#
# Indices 1 2 3 4 5 6 
#
# 1 104.9463 29.4664 44.1427 0.0000 6.4351 0.0000
# 2 29.4664 91.1235 40.1355 0.0000 -2.7677 0.0000
# 3 44.1427 40.1355 114.9743 0.0000 -6.8829 0.0000
# 4 0.0000 0.0000 0.0000 19.5117 0.0000 -7.4646
# 5 6.4351 -2.7677 -6.8829 0.0000 34.2299 0.0000
# 6 0.0000 0.0000 0.0000 -7.4646 0.0000 18.9572
#
#
#
# Elastic Compliance Matrix: (Units=1/GPa)
#
#
# Indices 1 2 3 4 5 6 
#
# 1 0.012054 -0.002213 -0.004050 0.000000 -0.003259 0.000000
# 2 -0.002213 0.013375 -0.003775 0.000000 0.000738 0.000000
# 3 -0.004050 -0.003775 0.011739 0.000000 0.002817 0.000000
# 4 0.000000 0.000000 0.000000 0.060341 0.000000 0.023760
# 5 -0.003259 0.000738 0.002817 0.000000 0.030453 0.000000
# 6 0.000000 0.000000 0.000000 0.023760 0.000000 0.062106
#
#
# Mechanical properties :
#
#
# Convention : Reuss Voigt Hill
#
# Bulk Modulus (GPa) = 58.51086 59.83702 59.17394
# Shear Modulus (GPa) = 23.16516 27.69307 25.42912
#
# Velocity S-wave (km/s) = 3.39259 3.70937 3.55451
# Velocity P-wave (km/s) = 6.66465 6.93370 6.80051
#
# Compressibility (1/GPa) = 0.01709084
#
# Stress axis : x y z
#
# Youngs Moduli (GPa) = 82.96317 74.76729 85.18468
#
# Poissons Ratio (x) = 0.16544 0.34504
# Poissons Ratio (y) = 0.18357 0.32159
# Poissons Ratio (z) = 0.33604 0.28226
#
# Static dielectric constant tensor:
#      x y z
#    x 3.798350 0.000000 -0.066890 
#    y 0.000000 3.567540 0.000000 
#    z -0.066890 0.000000 3.889800 
# 
# 
# High freq. dielectric constant tensor:
#      x y z
#    x 1.796550 0.000000 -0.000490 
#    y 0.000000 1.751680 0.000000 
#    z -0.000490 0.000000 1.805610 
# 
# From -- ./inp_files/33653.got.cif
#   From: 2010.06.25/outbox.cif.g09.slc.cpg/sg15_17_cif.got.tgz:33653.got - 2010.06.28 07:06:18.
