data_PCOD8133827
_publ_section_title
;
Structure prediction by ZEFSAII (Michael W. Deem and Ramdas Pophale) SiO2 
 PCOD8133827
Probable space group: C 2/C
;
_chemical_formula_sum "Si O2"
_cell_formula_units_Z 44
_cell_length_a 10.238631
_cell_length_b 24.117004
_cell_length_c 8.117282
_cell_angle_alpha 90.000000
_cell_angle_beta 69.349855
_cell_angle_gamma 90.000000
_cell_volume 1875.583033
_symmetry_space_group_name_H-M "C 2/C"
_symmetry_group_IT_number 15
_symmetry_cell_setting 'monoclinic'
loop_
_space_group_symop_operation_xyz
x,y,z
-x,y,1/2-z
-x,-y,-z
x,-y,1/2+z
1/2+x,1/2+y,z
1/2-x,1/2+y,1/2-z
1/2-x,1/2-y,-z
1/2+x,1/2-y,1/2+z
loop_
_atom_site_type_symbol
_atom_site_label
_atom_site_fract_x
_atom_site_fract_y
_atom_site_fract_z
Si Si1 0.233413 0.731890 0.697550
Si Si2 0.311897 0.340602 0.607641
Si Si3 0.099653 0.634859 0.941894
Si Si4 0.656021 0.034297 0.734196
Si Si5 0.694048 0.079331 0.388324
Si Si6 0.000000 0.187054 0.750000
O O1 0.250000 0.750000 0.500000
O O2 0.156973 0.780794 0.829709
O O3 0.136707 0.677377 0.773692
O O4 0.385835 0.724907 0.709885
O O5 0.159371 0.342098 0.587535
O O6 0.319107 0.385690 0.751090
O O7 0.429420 0.352641 0.418124
O O8 0.183901 0.576796 0.871390
O O9 0.934948 0.622350 0.031951
O O10 0.500000 0.048593 0.750000
O O11 0.749005 0.051712 0.533887
O O12 0.661481 0.970399 0.777481
#
# Coordination Sequence:
#
# PCOD8133827 Si02
#       6
#     8   8   8   8   8   4
#     4  11  25  43  64  92 127 175 218 267 323 386
#     4  11  23  39  62  87 125 171 210 268 321 382
#     4  10  20  37  58  90 127 164 211 267 326 389
#     4  10  19  34  57  93 129 162 208 269 335 394
#     4  11  21  35  62  94 128 167 213 269 339 390
#     4  10  24  44  62  88 126 166 224 262 322 386
#
# _framework density 23.459374
#
# number of rings (size 3 to 8) (size 9 to 14) (size 15 to 20)
#    0.000    1.455    0.000    8.182    5.091    0.727 
#    0.000    0.000    0.000    9.818    0.000    0.000 
#    0.000    0.000    0.000    0.000    0.000    0.000 
#
# Total GULP energy -272616.948064 kJ/mol
# GULP energy per Si atom -12391.679457 kJ/mol
# Density = 2.340598 g / cm^3
# Si number density = 23.459374 Si / 1000 Ang^3
#
#
#
# Elastic Constant Matrix: (Units=GPa)
#
#
# Indices 1 2 3 4 5 6 
#
# 1 37.4391 20.3098 29.7972 0.0000 -1.1484 0.0000
# 2 20.3098 144.4362 63.0965 0.0000 -15.0553 0.0000
# 3 29.7972 63.0965 161.7082 0.0000 -8.6932 0.0000
# 4 0.0000 0.0000 0.0000 55.1816 0.0000 7.6835
# 5 -1.1484 -15.0553 -8.6932 0.0000 27.5658 0.0000
# 6 0.0000 0.0000 0.0000 7.6835 0.0000 17.1016
#
#
#
# Elastic Compliance Matrix: (Units=1/GPa)
#
#
# Indices 1 2 3 4 5 6 
#
# 1 0.031996 -0.002475 -0.005016 0.000000 -0.001600 0.000000
# 2 -0.002475 0.008902 -0.002809 0.000000 0.003873 0.000000
# 3 -0.005016 -0.002809 0.008251 0.000000 0.000859 0.000000
# 4 0.000000 0.000000 0.000000 0.019331 0.000000 -0.008685
# 5 -0.001600 0.003873 0.000859 0.000000 0.038596 0.000000
# 6 0.000000 0.000000 0.000000 -0.008685 0.000000 0.062376
#
#
# Mechanical properties :
#
#
# Convention : Reuss Voigt Hill
#
# Bulk Modulus (GPa) = 35.02827 63.33227 49.18027
# Shear Modulus (GPa) = 25.05400 35.32846 30.19123
#
# Velocity S-wave (km/s) = 3.27153 3.88486 3.59131
# Velocity P-wave (km/s) = 5.40689 6.86862 6.18112
#
# Compressibility (1/GPa) = 0.02854837
#
# Stress axis : x y z
#
# Youngs Moduli (GPa) = 31.25426 112.32879 121.20270
#
# Poissons Ratio (x) = 0.27797 0.60797
# Poissons Ratio (y) = 0.07734 0.34051
# Poissons Ratio (z) = 0.15678 0.31558
#
# Static dielectric constant tensor:
#      x y z
#    x 3.696480 0.000000 0.235850 
#    y 0.000000 4.270260 0.000000 
#    z 0.235850 0.000000 4.900460 
# 
# 
# High freq. dielectric constant tensor:
#      x y z
#    x 1.869510 0.000000 0.018460 
#    y 0.000000 1.933540 0.000000 
#    z 0.018460 0.000000 1.955720 
# 
# From -- ./inp_files/32422.got.cif
#   From: 2010.06.25/outbox.cif.g09.slc.cpg/sg15_17_cif.got.tgz:32422.got - 2010.06.28 07:06:18.
