data_PCOD8133284
_publ_section_title
;
Structure prediction by ZEFSAII (Michael W. Deem and Ramdas Pophale) SiO2 
 PCOD8133284
Probable space group: C 2/C
;
_chemical_formula_sum "Si O2"
_cell_formula_units_Z 56
_cell_length_a 17.256690
_cell_length_b 20.969911
_cell_length_c 17.466746
_cell_angle_alpha 90.000000
_cell_angle_beta 146.008616
_cell_angle_gamma 90.000000
_cell_volume 3533.709970
_symmetry_space_group_name_H-M "C 2/C"
_symmetry_group_IT_number 15
_symmetry_cell_setting 'monoclinic'
loop_
_space_group_symop_operation_xyz
x,y,z
-x,y,1/2-z
-x,-y,-z
x,-y,1/2+z
1/2+x,1/2+y,z
1/2-x,1/2+y,1/2-z
1/2-x,1/2-y,-z
1/2+x,1/2-y,1/2+z
loop_
_atom_site_type_symbol
_atom_site_label
_atom_site_fract_x
_atom_site_fract_y
_atom_site_fract_z
Si Si1 0.846444 0.747330 0.152141
Si Si2 0.159731 0.500507 0.361680
Si Si3 0.794177 0.874259 0.906392
Si Si4 0.383058 0.436071 0.836374
Si Si5 0.326131 0.565479 0.876923
Si Si6 0.350443 0.496239 0.659603
Si Si7 0.111453 0.125527 0.720510
O O1 0.789813 0.690718 0.157735
O O2 0.839113 0.810971 0.196709
O O3 0.000000 0.732315 0.250000
O O4 0.750000 0.750000 0.000000
O O5 0.205026 0.570351 0.372306
O O6 0.193521 0.448136 0.322611
O O7 0.236638 0.483848 0.502755
O O8 0.000000 0.498414 0.250000
O O9 0.804087 0.884049 0.822981
O O10 0.945526 0.873234 0.070376
O O11 0.371697 0.503155 0.869174
O O12 0.317514 0.444032 0.698756
O O13 0.545187 0.416606 0.962429
O O14 0.306550 0.619148 0.794131
O O15 0.500000 0.480654 0.750000
O O16 0.347806 0.568101 0.689806
#
# Coordination Sequence:
#
# PCOD8133284 Si02
#       7
#     8   8   8   8   8   8   8
#     4  12  22  33  48  73  99 129 168 195 229 278
#     4  11  20  30  47  76 105 124 150 201 254 283
#     4  10  19  34  48  69 102 132 161 198 237 282
#     4   8  15  28  50  71  89 124 167 197 227 287
#     4   8  15  30  48  68  94 127 161 190 239 294
#     4  11  16  29  52  75  94 121 165 199 234 286
#     4  10  19  33  51  69  96 135 166 194 233 288
#
# _framework density 15.847367999999999
#
# number of rings (size 3 to 8) (size 9 to 14) (size 15 to 20)
#    0.000    2.000    4.286    3.429    0.000    0.000 
#    0.000    7.857    0.000    0.000    0.000    2.000 
#    0.000    0.000    0.000    0.000    0.000    0.000 
#
# Total GULP energy -346967.333826 kJ/mol
# GULP energy per Si atom -12391.690494 kJ/mol
# Density = 1.581130 g / cm^3
# Si number density = 15.847368 Si / 1000 Ang^3
#
#
#
# Elastic Constant Matrix: (Units=GPa)
#
#
# Indices 1 2 3 4 5 6 
#
# 1 114.3973 54.5066 68.7096 -0.0002 -8.3099 -0.0001
# 2 54.5066 73.9264 36.4561 0.0000 -8.7838 0.0000
# 3 68.7096 36.4561 101.6110 -0.0002 -2.2681 0.0000
# 4 -0.0002 0.0000 -0.0002 21.6790 -0.0003 -6.3719
# 5 -8.3099 -8.7838 -2.2681 -0.0003 24.8689 -0.0002
# 6 -0.0001 0.0000 0.0000 -6.3719 -0.0002 31.0358
#
#
#
# Elastic Compliance Matrix: (Units=1/GPa)
#
#
# Indices 1 2 3 4 5 6 
#
# 1 0.018889 -0.008970 -0.009504 0.000000 0.002277 0.000000
# 2 -0.008970 0.021416 -0.001519 0.000000 0.004428 0.000000
# 3 -0.009504 -0.001519 0.016764 0.000000 -0.002183 0.000000
# 4 0.000000 0.000000 0.000000 0.049090 0.000001 0.010078
# 5 0.002277 0.004428 -0.002183 0.000001 0.042337 0.000000
# 6 0.000000 0.000000 0.000000 0.010078 0.000000 0.034290
#
#
# Mechanical properties :
#
#
# Convention : Reuss Voigt Hill
#
# Bulk Modulus (GPa) = 58.53656 67.69769 63.11713
# Shear Modulus (GPa) = 21.88517 24.20090 23.04303
#
# Velocity S-wave (km/s) = 3.72021 3.91208 3.81735
# Velocity P-wave (km/s) = 7.44790 7.95092 7.70352
#
# Compressibility (1/GPa) = 0.01708334
#
# Stress axis : x y z
#
# Youngs Moduli (GPa) = 52.94173 46.69432 59.65081
#
# Poissons Ratio (x) = 0.41883 0.56690
# Poissons Ratio (y) = 0.47487 0.09064
# Poissons Ratio (z) = 0.50314 0.07095
#
# Static dielectric constant tensor:
#      x y z
#    x 3.285010 0.000000 -0.187450 
#    y 0.000000 3.021120 0.000000 
#    z -0.187450 0.000000 2.858170 
# 
# 
# High freq. dielectric constant tensor:
#      x y z
#    x 1.613760 0.000000 -0.011620 
#    y 0.000000 1.572830 0.000000 
#    z -0.011620 0.000000 1.602320 
# 
# From -- ./inp_files/57581.got.cif
#   From: 2010.06.25/outbox.cif.g09.slc.cpg/sg15_29_cif.got.tgz:57581.got - 2010.06.28 07:06:18.
