data_PCOD8133959
_publ_section_title
;
Structure prediction by ZEFSAII (Michael W. Deem and Ramdas Pophale) SiO2 
 PCOD8133959
Probable space group: C 2/C
;
_chemical_formula_sum "Si O2"
_cell_formula_units_Z 64
_cell_length_a 9.015412
_cell_length_b 30.689079
_cell_length_c 17.940586
_cell_angle_alpha 90.000000
_cell_angle_beta 35.304340
_cell_angle_gamma 90.000000
_cell_volume 2868.622258
_symmetry_space_group_name_H-M "C 2/C"
_symmetry_group_IT_number 15
_symmetry_cell_setting 'monoclinic'
loop_
_space_group_symop_operation_xyz
x,y,z
-x,y,1/2-z
-x,-y,-z
x,-y,1/2+z
1/2+x,1/2+y,z
1/2-x,1/2+y,1/2-z
1/2-x,1/2-y,-z
1/2+x,1/2-y,1/2+z
loop_
_atom_site_type_symbol
_atom_site_label
_atom_site_fract_x
_atom_site_fract_y
_atom_site_fract_z
Si Si1 0.564236 0.873712 0.137383
Si Si2 0.103862 0.022830 0.531631
Si Si3 0.742877 0.164076 0.316139
Si Si4 0.255302 0.878339 0.978422
Si Si5 0.629696 0.320238 0.272486
Si Si6 0.518443 0.253662 0.431826
Si Si7 0.416399 0.327015 0.582691
Si Si8 0.568140 0.028439 0.807696
O O1 0.500000 0.864455 0.250000
O O2 0.401226 0.843514 0.147784
O O3 0.500544 0.922819 0.140837
O O4 0.857020 0.862352 0.002321
O O5 0.161393 0.073660 0.495780
O O6 0.877454 0.018418 0.687939
O O7 0.382243 0.001257 0.436817
O O8 0.000000 0.000000 0.500000
O O9 0.537547 0.124304 0.400912
O O10 0.632752 0.206409 0.404638
O O11 0.791151 0.180984 0.213213
O O12 0.000000 0.146736 0.250000
O O13 0.282975 0.849220 0.892628
O O14 0.049665 0.856845 0.117154
O O15 0.500000 0.302716 0.250000
O O16 0.692699 0.280557 0.302281
O O17 0.250000 0.250000 0.500000
O O18 0.501548 0.279808 0.516510
O O19 0.500000 0.019743 0.750000
#
# Coordination Sequence:
#
# PCOD8133959 Si02
#       8
#     8   8   8   8   8   8   8   8
#     4  11  19  40  63  96 124 165 222 275 325 393
#     4  10  19  34  62 103 128 162 213 283 333 397
#     4  12  29  43  62  97 139 177 225 281 343 413
#     4  11  22  44  65  94 134 174 224 275 340 404
#     4  11  24  38  67  92 128 178 224 270 341 402
#     4  11  24  42  64  92 128 173 234 280 337 390
#     4  11  24  41  67  92 126 177 224 286 336 387
#     4   9  18  31  58  94 131 154 208 272 325 392
#
# _framework density 22.310361
#
# number of rings (size 3 to 8) (size 9 to 14) (size 15 to 20)
#    0.000    1.250    6.250    1.875    5.250    4.500 
#    0.000    0.000    0.000    1.500    0.000    0.000 
#    0.000    0.000    0.000    0.000    0.000    0.000 
#
# Total GULP energy -396608.234612 kJ/mol
# GULP energy per Si atom -12394.007332 kJ/mol
# Density = 2.225958 g / cm^3
# Si number density = 22.310361 Si / 1000 Ang^3
#
#
#
# Elastic Constant Matrix: (Units=GPa)
#
#
# Indices 1 2 3 4 5 6 
#
# 1 63.7377 15.1504 16.7037 0.0000 -18.5428 0.0000
# 2 15.1504 97.8631 40.4727 0.0000 -15.4638 0.0000
# 3 16.7037 40.4727 81.8349 0.0000 -27.5037 0.0000
# 4 0.0000 0.0000 0.0000 23.1313 0.0000 -11.9900
# 5 -18.5428 -15.4638 -27.5037 0.0000 40.7665 0.0000
# 6 0.0000 0.0000 0.0000 -11.9900 0.0000 25.9007
#
#
#
# Elastic Compliance Matrix: (Units=1/GPa)
#
#
# Indices 1 2 3 4 5 6 
#
# 1 0.018334 -0.001445 -0.000529 0.000000 0.007434 0.000000
# 2 -0.001445 0.012978 -0.006065 0.000000 0.000174 0.000000
# 3 -0.000529 -0.006065 0.018717 0.000000 0.010087 0.000000
# 4 0.000000 0.000000 0.000000 0.056880 0.000000 0.026331
# 5 0.007434 0.000174 0.010087 0.000000 0.034782 0.000000
# 6 0.000000 0.000000 0.000000 0.026331 0.000000 0.050798
#
#
# Mechanical properties :
#
#
# Convention : Reuss Voigt Hill
#
# Bulk Modulus (GPa) = 29.45394 43.12102 36.28748
# Shear Modulus (GPa) = 22.73921 29.36699 26.05310
#
# Velocity S-wave (km/s) = 3.19599 3.63201 3.42095
# Velocity P-wave (km/s) = 5.18167 6.07935 5.64837
#
# Compressibility (1/GPa) = 0.03395132
#
# Stress axis : x y z
#
# Youngs Moduli (GPa) = 54.54279 77.05487 53.42664
#
# Poissons Ratio (x) = 0.11133 0.02827
# Poissons Ratio (y) = 0.07880 0.32403
# Poissons Ratio (z) = 0.02886 0.46734
#
# Static dielectric constant tensor:
#      x y z
#    x 3.951680 0.000000 -0.385150 
#    y 0.000000 4.218170 0.000000 
#    z -0.385150 0.000000 4.425340 
# 
# 
# High freq. dielectric constant tensor:
#      x y z
#    x 1.849430 0.000000 -0.026600 
#    y 0.000000 1.871550 0.000000 
#    z -0.026600 0.000000 1.881650 
# 
# From -- ./inp_files/194245.got.cif
#   From: 2010.06.25/outbox.cif.g09.slc.cpg/sg15_98_cif.got.tgz:194245.got - 2010.06.28 07:06:18.
