data_PCOD8133906
_publ_section_title
;
Structure prediction by ZEFSAII (Michael W. Deem and Ramdas Pophale) SiO2 
 PCOD8133906
Probable space group: C 2/C
;
_chemical_formula_sum "Si O2"
_cell_formula_units_Z 64
_cell_length_a 12.425997
_cell_length_b 26.832459
_cell_length_c 16.076445
_cell_angle_alpha 90.000000
_cell_angle_beta 142.285308
_cell_angle_gamma 90.000000
_cell_volume 3279.000270
_symmetry_space_group_name_H-M "C 2/C"
_symmetry_group_IT_number 15
_symmetry_cell_setting 'monoclinic'
loop_
_space_group_symop_operation_xyz
x,y,z
-x,y,1/2-z
-x,-y,-z
x,-y,1/2+z
1/2+x,1/2+y,z
1/2-x,1/2+y,1/2-z
1/2-x,1/2-y,-z
1/2+x,1/2-y,1/2+z
loop_
_atom_site_type_symbol
_atom_site_label
_atom_site_fract_x
_atom_site_fract_y
_atom_site_fract_z
Si Si1 0.641063 0.428163 0.524954
Si Si2 0.426225 0.812916 0.577029
Si Si3 0.602453 0.804031 0.230078
Si Si4 0.239696 0.409132 0.249371
Si Si5 0.109966 0.507211 0.235474
Si Si6 0.236632 0.821516 0.617669
Si Si7 0.454573 0.253459 0.493429
Si Si8 0.145792 0.424318 0.005076
O O1 0.435855 0.416354 0.402514
O O2 0.693675 0.472008 0.622436
O O3 0.749028 0.380914 0.625187
O O4 0.700979 0.438909 0.466700
O O5 0.256457 0.803043 0.532902
O O6 0.603306 0.798506 0.733481
O O7 0.424593 0.779543 0.494221
O O8 0.436103 0.870298 0.558247
O O9 0.500000 0.820987 0.250000
O O10 0.675501 0.853015 0.228350
O O11 0.754524 0.764011 0.345434
O O12 0.463218 0.774300 0.087355
O O13 0.115879 0.448418 0.221458
O O14 0.233439 0.424235 0.149239
O O15 0.000000 0.519025 0.250000
O O16 0.015192 0.536037 0.101000
O O17 0.055033 0.806201 0.551386
#
# Coordination Sequence:
#
# PCOD8133906 Si02
#       8
#     8   8   8   8   8   8   8   8
#     4  10  20  36  59  88 115 147 184 230 291 354
#     4  10  19  34  59  91 121 147 182 230 292 365
#     4  12  27  42  60  81 113 158 209 250 281 334
#     4  12  22  38  58  88 116 146 192 246 290 330
#     4  10  21  38  60  83 117 156 189 224 281 350
#     4  10  19  34  59  91 121 147 182 230 292 365
#     4  12  22  42  60  84 116 154 200 234 298 334
#     4  10  20  36  59  88 115 147 184 230 291 354
#
# _framework density 19.518143999999999
#
# number of rings (size 3 to 8) (size 9 to 14) (size 15 to 20)
#    0.000    1.250    5.000    2.250    0.000    0.000 
#    0.000    0.000    0.000    0.000    0.000    0.000 
#    0.000    0.000    0.000    0.000    0.000    0.000 
#
# Total GULP energy -396662.037351 kJ/mol
# GULP energy per Si atom -12395.688667 kJ/mol
# Density = 1.947372 g / cm^3
# Si number density = 19.518144 Si / 1000 Ang^3
#
#
#
# Elastic Constant Matrix: (Units=GPa)
#
#
# Indices 1 2 3 4 5 6 
#
# 1 49.8179 16.3257 12.1490 0.0000 -3.6452 0.0000
# 2 16.3257 83.5907 24.8114 0.0000 -3.7237 0.0000
# 3 12.1490 24.8114 78.3960 0.0000 -1.3634 0.0000
# 4 0.0000 0.0000 0.0000 24.3402 0.0000 0.6566
# 5 -3.6452 -3.7237 -1.3634 0.0000 26.9911 0.0000
# 6 0.0000 0.0000 0.0000 0.6566 0.0000 28.6512
#
#
#
# Elastic Compliance Matrix: (Units=1/GPa)
#
#
# Indices 1 2 3 4 5 6 
#
# 1 0.021946 -0.003514 -0.002248 0.000000 0.002366 0.000000
# 2 -0.003514 0.013836 -0.003813 0.000000 0.001242 0.000000
# 3 -0.002248 -0.003813 0.014309 0.000000 -0.000107 0.000000
# 4 0.000000 0.000000 0.000000 0.041110 0.000000 -0.000942
# 5 0.002366 0.001242 -0.000107 0.000000 0.037535 0.000000
# 6 0.000000 0.000000 0.000000 -0.000942 0.000000 0.034924
#
#
# Mechanical properties :
#
#
# Convention : Reuss Voigt Hill
#
# Bulk Modulus (GPa) = 32.31798 35.37520 33.84659
# Shear Modulus (GPa) = 25.89031 26.56439 26.22735
#
# Velocity S-wave (km/s) = 3.64603 3.69319 3.66969
# Velocity P-wave (km/s) = 5.85821 6.02908 5.94426
#
# Compressibility (1/GPa) = 0.03094252
#
# Stress axis : x y z
#
# Youngs Moduli (GPa) = 45.56680 72.27346 69.88616
#
# Poissons Ratio (x) = 0.25394 0.15709
# Poissons Ratio (y) = 0.16010 0.26647
# Poissons Ratio (z) = 0.10242 0.27557
#
# Static dielectric constant tensor:
#      x y z
#    x 3.389880 0.000000 -0.108340 
#    y 0.000000 3.510850 0.000000 
#    z -0.108340 0.000000 3.541760 
# 
# 
# High freq. dielectric constant tensor:
#      x y z
#    x 1.741340 0.000000 -0.003930 
#    y 0.000000 1.762230 0.000000 
#    z -0.003930 0.000000 1.762950 
# 
# From -- ./inp_files/148813.got.cif
#   From: 2010.06.25/outbox.cif.g09.slc.cpg/sg15_75_cif.got.tgz:148813.got - 2010.06.28 07:06:18.
