data_PCOD8133502
_publ_section_title
;
Structure prediction by ZEFSAII (Michael W. Deem and Ramdas Pophale) SiO2 
 PCOD8133502
Probable space group: C 2/C
;
_chemical_formula_sum "Si O2"
_cell_formula_units_Z 48
_cell_length_a 17.339360
_cell_length_b 8.817384
_cell_length_c 21.018026
_cell_angle_alpha 90.000000
_cell_angle_beta 48.753667
_cell_angle_gamma 90.000000
_cell_volume 2416.097378
_symmetry_space_group_name_H-M "C 2/C"
_symmetry_group_IT_number 15
_symmetry_cell_setting 'monoclinic'
loop_
_space_group_symop_operation_xyz
x,y,z
-x,y,1/2-z
-x,-y,-z
x,-y,1/2+z
1/2+x,1/2+y,z
1/2-x,1/2+y,1/2-z
1/2-x,1/2-y,-z
1/2+x,1/2-y,1/2+z
loop_
_atom_site_type_symbol
_atom_site_label
_atom_site_fract_x
_atom_site_fract_y
_atom_site_fract_z
Si Si1 0.033105 0.320301 0.108217
Si Si2 0.321323 0.681043 0.717687
Si Si3 0.149860 0.847366 0.746639
Si Si4 0.424485 0.932044 0.739208
Si Si5 0.424667 0.358272 0.031111
Si Si6 0.705852 0.164455 0.607957
O O1 0.153145 0.322855 0.066845
O O2 0.971443 0.189915 0.181477
O O3 0.985059 0.485567 0.148211
O O4 0.023986 0.277325 0.038322
O O5 0.205642 0.723625 0.762080
O O6 0.322744 0.513436 0.744477
O O7 0.356758 0.795095 0.752249
O O8 0.395172 0.700568 0.616564
O O9 0.193903 0.827453 0.650765
O O10 0.500000 0.858966 0.750000
O O11 0.357072 0.054189 0.812093
O O12 0.322581 0.398693 0.044516
O O13 0.500000 0.500000 0.000000
#
# Coordination Sequence:
#
# PCOD8133502 Si02
#       6
#     8   8   8   8   8   8
#     4  10  19  36  58  81 112 153 188 229 286 344
#     4  11  21  36  55  86 112 146 190 237 288 334
#     4  10  19  33  57  82 108 144 193 235 278 333
#     4   9  20  37  58  80 110 148 192 240 279 329
#     4  11  21  34  55  86 116 152 185 235 285 344
#     4   9  20  37  58  82 111 151 193 232 283 337
#
# _framework density 19.866748999999999
#
# number of rings (size 3 to 8) (size 9 to 14) (size 15 to 20)
#    0.000    2.000    1.667    5.000    0.000    2.000 
#    0.000    0.000    0.000    2.000    0.000    0.000 
#    0.000    0.000    0.000    0.000    0.000    0.000 
#
# Total GULP energy -297395.435000 kJ/mol
# GULP energy per Si atom -12391.476458 kJ/mol
# Density = 1.982153 g / cm^3
# Si number density = 19.866749 Si / 1000 Ang^3
#
#
#
# Elastic Constant Matrix: (Units=GPa)
#
#
# Indices 1 2 3 4 5 6 
#
# 1 95.4624 26.4302 12.3186 0.0000 -4.4849 0.0001
# 2 26.4302 61.0032 1.1018 0.0000 12.3758 0.0002
# 3 12.3186 1.1018 50.8900 0.0000 7.7660 0.0000
# 4 0.0000 0.0000 0.0000 11.1407 0.0000 -1.9057
# 5 -4.4849 12.3758 7.7660 0.0000 32.9829 0.0000
# 6 0.0001 0.0002 0.0000 -1.9057 0.0000 34.6896
#
#
#
# Elastic Compliance Matrix: (Units=1/GPa)
#
#
# Indices 1 2 3 4 5 6 
#
# 1 0.013043 -0.006628 -0.003800 0.000000 0.005155 0.000000
# 2 -0.006628 0.021133 0.002587 0.000000 -0.009440 0.000000
# 3 -0.003800 0.002587 0.021514 0.000000 -0.006553 0.000000
# 4 0.000000 0.000000 0.000000 0.090612 0.000000 0.004978
# 5 0.005155 -0.009440 -0.006553 0.000000 0.036105 0.000000
# 6 0.000000 0.000000 0.000000 0.004978 0.000000 0.029101
#
#
# Mechanical properties :
#
#
# Convention : Reuss Voigt Hill
#
# Bulk Modulus (GPa) = 24.99534 31.89519 28.44527
# Shear Modulus (GPa) = 20.78778 26.92966 23.85872
#
# Velocity S-wave (km/s) = 3.23826 3.68572 3.46921
# Velocity P-wave (km/s) = 5.15660 5.84826 5.51329
#
# Compressibility (1/GPa) = 0.04000745
#
# Stress axis : x y z
#
# Youngs Moduli (GPa) = 76.66892 47.32006 46.48091
#
# Poissons Ratio (x) = 0.31365 0.17665
# Poissons Ratio (y) = 0.50818 -0.12027
# Poissons Ratio (z) = 0.29138 -0.12244
#
# Static dielectric constant tensor:
#      x y z
#    x 4.017650 0.000000 0.013180 
#    y 0.000000 3.346820 0.000000 
#    z 0.013180 0.000000 3.721470 
# 
# 
# High freq. dielectric constant tensor:
#      x y z
#    x 1.789150 0.000000 -0.006650 
#    y 0.000000 1.746900 0.000000 
#    z -0.006650 0.000000 1.768410 
# 
# From -- ./inp_files/208558.got.cif
#   From: 2010.06.25/outbox.cif.g09.slc.cpg/sg15_105_cif.got.tgz:208558.got - 2010.06.28 07:06:18.
