data_PCOD8133752
_publ_section_title
;
Structure prediction by ZEFSAII (Michael W. Deem and Ramdas Pophale) SiO2 
 PCOD8133752
Probable space group: C 2/C
;
_chemical_formula_sum "Si O2"
_cell_formula_units_Z 48
_cell_length_a 16.923530
_cell_length_b 19.778201
_cell_length_c 9.026632
_cell_angle_alpha 90.000000
_cell_angle_beta 39.377979
_cell_angle_gamma 90.000000
_cell_volume 1916.856354
_symmetry_space_group_name_H-M "C 2/C"
_symmetry_group_IT_number 15
_symmetry_cell_setting 'monoclinic'
loop_
_space_group_symop_operation_xyz
x,y,z
-x,y,1/2-z
-x,-y,-z
x,-y,1/2+z
1/2+x,1/2+y,z
1/2-x,1/2+y,1/2-z
1/2-x,1/2-y,-z
1/2+x,1/2-y,1/2+z
loop_
_atom_site_type_symbol
_atom_site_label
_atom_site_fract_x
_atom_site_fract_y
_atom_site_fract_z
Si Si1 0.157205 0.337633 0.306840
Si Si2 0.279694 0.327702 0.431093
Si Si3 0.188265 0.657304 0.434815
Si Si4 0.000000 0.226913 0.250000
Si Si5 0.441582 0.915083 0.685570
Si Si6 0.948281 0.806665 0.515201
Si Si7 0.000000 0.544486 0.750000
O O1 0.255385 0.351944 0.296207
O O2 0.072574 0.273218 0.471576
O O3 0.055786 0.396436 0.409072
O O4 0.231077 0.333877 0.045044
O O5 0.250000 0.250000 0.500000
O O6 0.189580 0.376699 0.662570
O O7 0.428867 0.334142 0.251067
O O8 0.317682 0.657948 0.151189
O O9 0.107580 0.724682 0.522119
O O10 0.109342 0.588624 0.511770
O O11 0.036895 0.178271 0.331184
O O12 0.500000 0.880072 0.750000
O O13 0.432570 0.996001 0.724688
#
# Coordination Sequence:
#
# PCOD8133752 Si02
#       7
#     8   8   8   4   8   8   4
#     4  10  19  34  56  83 112 146 191 235 288 342
#     4  11  20  33  54  82 113 150 181 235 289 337
#     4  10  20  33  56  86 109 153 187 239 287 332
#     4   9  18  34  50  82 118 137 178 236 290 339
#     4   8  18  36  53  76 107 145 196 221 267 337
#     4  11  19  31  54  85 118 137 184 238 295 340
#     4   9  20  40  58  76 118 151 202 232 268 347
#
# _framework density 25.041
#
# number of rings (size 3 to 8) (size 9 to 14) (size 15 to 20)
#    0.500    1.667    1.667    4.000    0.000    0.667 
#    0.000    0.833    0.000    0.000    0.000    0.000 
#    0.000    0.000    0.000    0.000    0.000    0.000 
#
# Total GULP energy -297328.853904 kJ/mol
# GULP energy per Si atom -12388.702246 kJ/mol
# Density = 2.498401 g / cm^3
# Si number density = 25.041000 Si / 1000 Ang^3
#
#
#
# Elastic Constant Matrix: (Units=GPa)
#
#
# Indices 1 2 3 4 5 6 
#
# 1 76.9387 20.4412 37.4625 0.0000 -37.3015 0.0000
# 2 20.4412 123.5847 65.8992 0.0000 -21.5413 0.0000
# 3 37.4625 65.8992 221.4655 0.0000 -44.9143 0.0000
# 4 0.0000 0.0000 0.0000 25.5469 0.0000 -1.4364
# 5 -37.3015 -21.5413 -44.9143 0.0000 38.8339 0.0000
# 6 0.0000 0.0000 0.0000 -1.4364 0.0000 36.7418
#
#
#
# Elastic Compliance Matrix: (Units=1/GPa)
#
#
# Indices 1 2 3 4 5 6 
#
# 1 0.024446 -0.000270 0.000884 0.000000 0.024354 0.000000
# 2 -0.000270 0.009833 -0.002386 0.000000 0.002435 0.000000
# 3 0.000884 -0.002386 0.006506 0.000000 0.007050 0.000000
# 4 0.000000 0.000000 0.000000 0.039230 0.000000 0.001534
# 5 0.024354 0.002435 0.007050 0.000000 0.058648 0.000000
# 6 0.000000 0.000000 0.000000 0.001534 0.000000 0.027277
#
#
# Mechanical properties :
#
#
# Convention : Reuss Voigt Hill
#
# Bulk Modulus (GPa) = 26.85230 74.39942 50.62586
# Shear Modulus (GPa) = 27.48794 40.10359 33.79576
#
# Velocity S-wave (km/s) = 3.31678 4.00624 3.67770
# Velocity P-wave (km/s) = 5.04129 7.15370 6.18830
#
# Compressibility (1/GPa) = 0.03724076
#
# Stress axis : x y z
#
# Youngs Moduli (GPa) = 40.90647 101.69571 153.71244
#
# Poissons Ratio (x) = 0.02745 -0.13592
# Poissons Ratio (y) = 0.01104 0.36683
# Poissons Ratio (z) = -0.03617 0.24269
#
# Static dielectric constant tensor:
#      x y z
#    x 5.314410 0.000000 0.097570 
#    y 0.000000 3.926670 0.000000 
#    z 0.097570 0.000000 4.834040 
# 
# 
# High freq. dielectric constant tensor:
#      x y z
#    x 2.062840 0.000000 0.024060 
#    y 0.000000 1.928030 0.000000 
#    z 0.024060 0.000000 2.013510 
# 
# From -- ./inp_files/114582.got.cif
#   From: 2010.06.25/outbox.cif.g09.slc.cpg/sg15_58_cif.got.tgz:114582.got - 2010.06.28 07:06:18.
