data_PCOD8133619
_publ_section_title
;
Structure prediction by ZEFSAII (Michael W. Deem and Ramdas Pophale) SiO2 
 PCOD8133619
Probable space group: C 2/C
;
_chemical_formula_sum "Si O2"
_cell_formula_units_Z 56
_cell_length_a 16.193062
_cell_length_b 28.408371
_cell_length_c 9.030350
_cell_angle_alpha 90.000000
_cell_angle_beta 136.602444
_cell_angle_gamma 90.000000
_cell_volume 2854.120839
_symmetry_space_group_name_H-M "C 2/C"
_symmetry_group_IT_number 15
_symmetry_cell_setting 'monoclinic'
loop_
_space_group_symop_operation_xyz
x,y,z
-x,y,1/2-z
-x,-y,-z
x,-y,1/2+z
1/2+x,1/2+y,z
1/2-x,1/2+y,1/2-z
1/2-x,1/2-y,-z
1/2+x,1/2-y,1/2+z
loop_
_atom_site_type_symbol
_atom_site_label
_atom_site_fract_x
_atom_site_fract_y
_atom_site_fract_z
Si Si1 0.862609 0.051269 0.407726
Si Si2 0.236650 0.868587 0.207534
Si Si3 0.857966 0.045172 0.746489
Si Si4 0.686403 0.220833 0.224711
Si Si5 0.783974 0.144869 0.166811
Si Si6 0.021321 0.802059 0.949530
Si Si7 0.633346 0.795208 0.971131
O O1 0.829129 0.044548 0.535381
O O2 0.786306 0.095773 0.255399
O O3 0.002825 0.059281 0.553857
O O4 0.823523 0.005644 0.265155
O O5 0.223784 0.919915 0.262276
O O6 0.359463 0.844244 0.427568
O O7 0.235239 0.868649 0.028424
O O8 0.127932 0.837523 0.128240
O O9 0.678856 0.178990 0.092559
O O10 0.706554 0.198357 0.412685
O O11 0.801649 0.254949 0.344290
O O12 0.560226 0.250236 0.058393
O O13 0.902190 0.175238 0.363020
O O14 0.000000 0.796880 0.750000
O O15 0.500000 0.781472 0.750000
#
# Coordination Sequence:
#
# PCOD8133619 Si02
#       7
#     8   8   8   8   8   8   8
#     4  10  20  31  55  80 115 146 173 220 266 334
#     4  10  20  34  53  76 110 144 182 220 274 329
#     4  10  19  34  51  85 113 144 179 211 274 330
#     4  10  21  34  52  77 103 141 190 231 274 328
#     4  11  20  34  54  80 110 149 182 223 277 324
#     4   9  19  32  50  74 106 142 177 227 269 324
#     4  10  21  37  52  74 105 144 186 237 275 320
#
# _framework density 19.620754000000002
#
# number of rings (size 3 to 8) (size 9 to 14) (size 15 to 20)
#    0.000    2.000    1.429    2.571    0.000    7.429 
#    2.571    0.000    0.000    0.000    0.000   10.000 
#    0.000    0.000    0.000    0.000    0.000    0.000 
#
# Total GULP energy -347030.104888 kJ/mol
# GULP energy per Si atom -12393.932317 kJ/mol
# Density = 1.957610 g / cm^3
# Si number density = 19.620754 Si / 1000 Ang^3
#
#
#
# Elastic Constant Matrix: (Units=GPa)
#
#
# Indices 1 2 3 4 5 6 
#
# 1 54.1010 49.1799 26.5999 0.0000 -24.6075 0.0000
# 2 49.1799 146.1634 45.9137 0.0000 -22.8949 0.0000
# 3 26.5999 45.9137 63.0326 0.0000 -8.3850 0.0000
# 4 0.0000 0.0000 0.0000 33.1359 0.0000 -8.4154
# 5 -24.6075 -22.8949 -8.3850 0.0000 27.9763 0.0000
# 6 0.0000 0.0000 0.0000 -8.4154 0.0000 35.6534
#
#
#
# Elastic Compliance Matrix: (Units=1/GPa)
#
#
# Indices 1 2 3 4 5 6 
#
# 1 0.042297 -0.006883 -0.008994 0.000000 0.028875 0.000000
# 2 -0.006883 0.010902 -0.004848 0.000000 0.001414 0.000000
# 3 -0.008994 -0.004848 0.022509 0.000000 -0.005133 0.000000
# 4 0.000000 0.000000 0.000000 0.032103 0.000000 0.007577
# 5 0.028875 0.001414 -0.005133 0.000000 0.060762 0.000000
# 6 0.000000 0.000000 0.000000 0.007577 0.000000 0.029836
#
#
# Mechanical properties :
#
#
# Convention : Reuss Voigt Hill
#
# Bulk Modulus (GPa) = 29.19176 56.29822 42.74499
# Shear Modulus (GPa) = 19.89805 28.79336 24.34570
#
# Velocity S-wave (km/s) = 3.18800 3.83495 3.52634
# Velocity P-wave (km/s) = 5.33493 6.95446 6.19782
#
# Compressibility (1/GPa) = 0.03425624
#
# Stress axis : x y z
#
# Youngs Moduli (GPa) = 23.64229 91.72378 44.42609
#
# Poissons Ratio (x) = 0.63138 0.39958
# Poissons Ratio (y) = 0.16274 0.21539
# Poissons Ratio (z) = 0.21265 0.44471
#
# Static dielectric constant tensor:
#      x y z
#    x 3.362100 0.000000 -0.096460 
#    y 0.000000 3.552670 0.000000 
#    z -0.096460 0.000000 3.605610 
# 
# 
# High freq. dielectric constant tensor:
#      x y z
#    x 1.742960 0.000000 -0.030170 
#    y 0.000000 1.763370 0.000000 
#    z -0.030170 0.000000 1.752200 
# 
# From -- ./inp_files/52362.got.cif
#   From: 2010.06.25/outbox.cif.g09.slc.cpg/sg15_27_cif.got.tgz:52362.got - 2010.06.28 07:06:18.
