data_PCOD8133093
_publ_section_title
;
Structure prediction by ZEFSAII (Michael W. Deem and Ramdas Pophale) SiO2 
 PCOD8133093
Probable space group: C 2/C
;
_chemical_formula_sum "Si O2"
_cell_formula_units_Z 56
_cell_length_a 14.478470
_cell_length_b 24.927004
_cell_length_c 9.083760
_cell_angle_alpha 90.000000
_cell_angle_beta 118.409750
_cell_angle_gamma 90.000000
_cell_volume 2883.551020
_symmetry_space_group_name_H-M "C 2/C"
_symmetry_group_IT_number 15
_symmetry_cell_setting 'monoclinic'
loop_
_space_group_symop_operation_xyz
x,y,z
-x,y,1/2-z
-x,-y,-z
x,-y,1/2+z
1/2+x,1/2+y,z
1/2-x,1/2+y,1/2-z
1/2-x,1/2-y,-z
1/2+x,1/2-y,1/2+z
loop_
_atom_site_type_symbol
_atom_site_label
_atom_site_fract_x
_atom_site_fract_y
_atom_site_fract_z
Si Si1 0.100630 0.845305 0.429276
Si Si2 0.108123 0.035261 0.917125
Si Si3 0.791589 0.044638 0.796716
Si Si4 0.946612 0.545523 0.864988
Si Si5 0.205972 0.832902 0.221449
Si Si6 0.013228 0.224673 0.436349
Si Si7 0.054304 0.336750 0.135832
O O1 0.116345 0.906025 0.498809
O O2 0.195177 0.825731 0.392215
O O3 0.000000 0.842857 0.250000
O O4 0.081790 0.808149 0.557543
O O5 0.201654 0.029817 0.869903
O O6 0.000000 0.026477 0.750000
O O7 0.123011 0.989961 0.050255
O O8 0.674222 0.031392 0.757439
O O9 0.824248 0.106333 0.845362
O O10 0.955317 0.604722 0.951093
O O11 0.000000 0.546768 0.750000
O O12 0.000000 0.500000 0.000000
O O13 0.323515 0.819852 0.258801
O O14 0.127907 0.794793 0.071390
O O15 0.000000 0.220665 0.250000
O O16 0.003908 0.286640 0.485770
O O17 0.000000 0.345076 0.250000
#
# Coordination Sequence:
#
# PCOD8133093 Si02
#       7
#     8   8   8   8   8   8   8
#     4   8  17  34  51  72 106 140 166 206 263 308
#     4  10  19  32  50  77 110 139 172 213 256 312
#     4  10  20  33  53  77 104 141 175 209 264 314
#     4  10  20  38  58  77 105 137 173 217 260 307
#     4   9  19  36  53  72 106 141 168 212 267 311
#     4  10  20  34  54  78 101 134 179 216 254 310
#     4   9  20  36  55  77 105 139 171 210 267 311
#
# _framework density 19.420499
#
# number of rings (size 3 to 8) (size 9 to 14) (size 15 to 20)
#    0.000    2.571    0.000    2.143    0.000    4.571 
#    0.000    3.571    0.000    0.000    0.000    0.000 
#    0.000    0.000    0.000    0.000    0.000    0.000 
#
# Total GULP energy -346972.833806 kJ/mol
# GULP energy per Si atom -12391.886922 kJ/mol
# Density = 1.937630 g / cm^3
# Si number density = 19.420499 Si / 1000 Ang^3
#
#
#
# Elastic Constant Matrix: (Units=GPa)
#
#
# Indices 1 2 3 4 5 6 
#
# 1 120.0354 39.1198 24.5306 0.0000 -0.4223 0.0000
# 2 39.1198 156.8789 63.8318 0.0000 5.3797 0.0000
# 3 24.5306 63.8318 60.4821 0.0000 -0.7448 0.0000
# 4 0.0000 0.0000 0.0000 -46.0107 0.0000 94.1248
# 5 -0.4223 5.3797 -0.7448 0.0000 24.6334 0.0000
# 6 0.0000 0.0000 0.0000 94.1248 0.0000 -75.8722
#
#
#
# Elastic Compliance Matrix: (Units=1/GPa)
#
#
# Indices 1 2 3 4 5 6 
#
# 1 0.009252 -0.001395 -0.002276 0.000000 0.000394 0.000000
# 2 -0.001395 0.011578 -0.011689 0.000000 -0.002906 0.000000
# 3 -0.002276 -0.011689 0.029836 0.000000 0.003416 0.000000
# 4 0.000000 0.000000 0.000000 0.014133 0.000000 0.017533
# 5 0.000394 -0.002906 0.003416 0.000000 0.041340 0.000000
# 6 0.000000 0.000000 0.000000 0.017533 0.000000 0.008570
#
#
# Mechanical properties :
#
#
# Convention : Reuss Voigt Hill
#
# Bulk Modulus (GPa) = 50.13506 65.81786 57.97646
# Shear Modulus (GPa) = 32.87812 -5.45564 13.71124
#
# Velocity S-wave (km/s) = 4.11902 -1.67789 2.65998
# Velocity P-wave (km/s) = 6.96372 5.49643 6.27312
#
# Compressibility (1/GPa) = 0.01994612
#
# Stress axis : x y z
#
# Youngs Moduli (GPa) = 108.08659 86.37057 33.51694
#
# Poissons Ratio (x) = 0.12046 0.07627
# Poissons Ratio (y) = 0.15074 0.39179
# Poissons Ratio (z) = 0.24597 1.00962
#
# Static dielectric constant tensor:
#      x y z
#    x 4.096070 0.000000 -0.195710 
#    y 0.000000 4.066820 0.000000 
#    z -0.195710 0.000000 3.049410 
# 
# 
# High freq. dielectric constant tensor:
#      x y z
#    x 1.782350 0.000000 -0.010750 
#    y 0.000000 1.768820 0.000000 
#    z -0.010750 0.000000 1.702910 
# 
# From -- ./inp_files/42716.got.cif
#   From: 2010.06.25/outbox.cif.g09.slc.cpg/sg15_22_cif.got.tgz:42716.got - 2010.06.28 07:06:18.
