data_PCOD8133332
_publ_section_title
;
Structure prediction by ZEFSAII (Michael W. Deem and Ramdas Pophale) SiO2 
 PCOD8133332
Probable space group: C 2/C
;
_chemical_formula_sum "Si O2"
_cell_formula_units_Z 36
_cell_length_a 7.879824
_cell_length_b 30.912498
_cell_length_c 8.838469
_cell_angle_alpha 90.000000
_cell_angle_beta 53.611314
_cell_angle_gamma 90.000000
_cell_volume 1733.123280
_symmetry_space_group_name_H-M "C 2/C"
_symmetry_group_IT_number 15
_symmetry_cell_setting 'monoclinic'
loop_
_space_group_symop_operation_xyz
x,y,z
-x,y,1/2-z
-x,-y,-z
x,-y,1/2+z
1/2+x,1/2+y,z
1/2-x,1/2+y,1/2-z
1/2-x,1/2-y,-z
1/2+x,1/2-y,1/2+z
loop_
_atom_site_type_symbol
_atom_site_label
_atom_site_fract_x
_atom_site_fract_y
_atom_site_fract_z
Si Si1 0.500000 0.009730 0.750000
Si Si2 0.753019 0.450531 0.110899
Si Si3 0.911982 0.809039 0.636915
Si Si4 0.812812 0.713471 0.735478
Si Si5 0.228189 0.144282 0.555100
O O1 0.648003 0.039147 0.777827
O O2 0.657995 0.981730 0.565050
O O3 0.500000 0.455092 0.250000
O O4 0.832775 0.402300 0.025904
O O5 0.784881 0.764357 0.718801
O O6 0.773188 0.845699 0.625772
O O7 0.000000 0.826519 0.750000
O O8 0.099844 0.800936 0.423458
O O9 0.857198 0.683873 0.564777
O O10 0.000000 0.704886 0.750000
O O11 0.000000 0.141768 0.750000
#
# Coordination Sequence:
#
# PCOD8133332 Si02
#       5
#     4   8   8   8   8
#     4  10  22  40  66  94 116 156 208 228 314 378
#     4  10  21  42  63  91 124 156 192 254 299 356
#     4  10  19  35  51  78 110 150 189 231 282 340
#     4  10  19  33  53  77 109 151 188 228 284 335
#     4   9  20  36  55  79 112 147 190 230 291 341
#
# _framework density 20.771747999999999
#
# number of rings (size 3 to 8) (size 9 to 14) (size 15 to 20)
#    0.000    2.222    0.000    4.000    1.556    0.000 
#    8.000    5.556    0.000    0.000    0.000    0.000 
#    0.000    0.000    0.000    0.000    0.000    0.000 
#
# Total GULP energy -223121.030893 kJ/mol
# GULP energy per Si atom -12395.612827 kJ/mol
# Density = 2.072447 g / cm^3
# Si number density = 20.771748 Si / 1000 Ang^3
#
#
#
# Elastic Constant Matrix: (Units=GPa)
#
#
# Indices 1 2 3 4 5 6 
#
# 1 127.0585 83.0000 42.9149 0.0000 38.8120 0.0000
# 2 83.0000 127.1629 34.0550 0.0000 39.9017 0.0000
# 3 42.9149 34.0550 69.0922 0.0000 32.8502 0.0000
# 4 0.0000 0.0000 0.0000 19.7509 0.0000 6.9070
# 5 38.8120 39.9017 32.8502 0.0000 45.0480 0.0000
# 6 0.0000 0.0000 0.0000 6.9070 0.0000 31.3620
#
#
#
# Elastic Compliance Matrix: (Units=1/GPa)
#
#
# Indices 1 2 3 4 5 6 
#
# 1 0.015463 -0.007965 -0.004131 0.000000 -0.003255 0.000000
# 2 -0.007965 0.015059 0.000925 0.000000 -0.007150 0.000000
# 3 -0.004131 0.000925 0.023391 0.000000 -0.014317 0.000000
# 4 0.000000 0.000000 0.000000 0.054855 0.000000 -0.012081
# 5 -0.003255 -0.007150 -0.014317 0.000000 0.041776 0.000000
# 6 0.000000 0.000000 0.000000 -0.012081 0.000000 0.034546
#
#
# Mechanical properties :
#
#
# Convention : Reuss Voigt Hill
#
# Bulk Modulus (GPa) = 31.67638 71.47259 51.57448
# Shear Modulus (GPa) = 22.94028 30.12177 26.53103
#
# Velocity S-wave (km/s) = 3.32685 3.81219 3.57776
# Velocity P-wave (km/s) = 5.48089 7.33896 6.47690
#
# Compressibility (1/GPa) = 0.03156926
#
# Stress axis : x y z
#
# Youngs Moduli (GPa) = 64.66978 66.40591 42.75227
#
# Poissons Ratio (x) = 0.52894 0.17661
# Poissons Ratio (y) = 0.51511 -0.03953
# Poissons Ratio (z) = 0.26715 -0.06140
#
# Static dielectric constant tensor:
#      x y z
#    x 3.425420 0.000000 0.259230 
#    y 0.000000 4.143550 0.000000 
#    z 0.259230 0.000000 3.775470 
# 
# 
# High freq. dielectric constant tensor:
#      x y z
#    x 1.819460 0.000000 0.010710 
#    y 0.000000 1.805130 0.000000 
#    z 0.010710 0.000000 1.816420 
# 
# From -- ./inp_files/24310.got.cif
#   From: 2010.06.25/outbox.cif.g09.slc.cpg/sg15_13_cif.got.tgz:24310.got - 2010.06.28 07:06:18.
