data_PCOD8133466
_publ_section_title
;
Structure prediction by ZEFSAII (Michael W. Deem and Ramdas Pophale) SiO2 
 PCOD8133466
Probable space group: C 2/C
;
_chemical_formula_sum "Si O2"
_cell_formula_units_Z 56
_cell_length_a 15.934273
_cell_length_b 11.561641
_cell_length_c 19.477333
_cell_angle_alpha 90.000000
_cell_angle_beta 57.734293
_cell_angle_gamma 90.000000
_cell_volume 3034.147563
_symmetry_space_group_name_H-M "C 2/C"
_symmetry_group_IT_number 15
_symmetry_cell_setting 'monoclinic'
loop_
_space_group_symop_operation_xyz
x,y,z
-x,y,1/2-z
-x,-y,-z
x,-y,1/2+z
1/2+x,1/2+y,z
1/2-x,1/2+y,1/2-z
1/2-x,1/2-y,-z
1/2+x,1/2-y,1/2+z
loop_
_atom_site_type_symbol
_atom_site_label
_atom_site_fract_x
_atom_site_fract_y
_atom_site_fract_z
Si Si1 0.544625 0.790060 0.388763
Si Si2 0.344795 0.976152 0.824947
Si Si3 0.476224 0.047627 0.149050
Si Si4 0.842912 0.826195 0.937977
Si Si5 0.784470 0.918428 0.500940
Si Si6 0.112195 0.723691 0.717332
Si Si7 0.893001 0.297890 0.987981
O O1 0.437863 0.728196 0.434296
O O2 0.613170 0.737665 0.296877
O O3 0.599164 0.764950 0.435937
O O4 0.535952 0.928257 0.386305
O O5 0.318946 0.111516 0.824829
O O6 0.433551 0.964898 0.839159
O O7 0.376749 0.921465 0.737064
O O8 0.251568 0.916052 0.903120
O O9 0.501544 0.150629 0.084546
O O10 0.854599 0.823873 0.849602
O O11 0.750000 0.750000 0.000000
O O12 0.831697 0.958963 0.962744
O O13 0.868145 0.819689 0.457213
O O14 0.694775 0.891189 0.487193
O O15 0.000000 0.682038 0.750000
#
# Coordination Sequence:
#
# PCOD8133466 Si02
#       7
#     8   8   8   8   8   8   8
#     4  10  19  33  56  80 107 136 180 229 262 318
#     4   9  13  29  53  78  94 135 179 218 259 307
#     4   9  15  29  56  77  99 134 185 220 254 316
#     4  11  18  32  59  83  99 135 181 226 274 318
#     4  10  21  34  54  74 111 144 177 223 274 323
#     4   9  15  30  53  81 102 129 175 227 266 308
#     4  10  21  36  49  77 110 148 178 217 266 328
#
# _framework density 18.456582999999998
#
# number of rings (size 3 to 8) (size 9 to 14) (size 15 to 20)
#    0.000    2.286    5.714    1.286    0.000    0.571 
#    0.000    4.286   28.286    0.000    0.000    0.000 
#    0.000    0.000    0.000    0.000    0.000    0.000 
#
# Total GULP energy -346936.240210 kJ/mol
# GULP energy per Si atom -12390.580008 kJ/mol
# Density = 1.841458 g / cm^3
# Si number density = 18.456583 Si / 1000 Ang^3
#
#
#
# Elastic Constant Matrix: (Units=GPa)
#
#
# Indices 1 2 3 4 5 6 
#
# 1 48.7374 26.6875 41.9639 0.0000 8.4212 0.0000
# 2 26.6875 88.8616 50.8030 0.0000 -6.9635 0.0000
# 3 41.9639 50.8030 126.0617 0.0000 8.4346 0.0000
# 4 0.0000 0.0000 0.0000 20.8701 0.0000 0.2156
# 5 8.4212 -6.9635 8.4346 0.0000 25.4210 0.0000
# 6 0.0000 0.0000 0.0000 0.2156 0.0000 10.8139
#
#
#
# Elastic Compliance Matrix: (Units=1/GPa)
#
#
# Indices 1 2 3 4 5 6 
#
# 1 0.032042 -0.006060 -0.007571 0.000000 -0.009762 0.000000
# 2 -0.006060 0.016754 -0.005294 0.000000 0.008353 0.000000
# 3 -0.007571 -0.005294 0.012800 0.000000 -0.003189 0.000000
# 4 0.000000 0.000000 0.000000 0.047925 0.000000 -0.000955
# 5 -0.009762 0.008353 -0.003189 0.000000 0.045918 0.000000
# 6 0.000000 0.000000 0.000000 -0.000955 0.000000 0.092493
#
#
# Mechanical properties :
#
#
# Convention : Reuss Voigt Hill
#
# Bulk Modulus (GPa) = 42.11046 55.84105 48.97575
# Shear Modulus (GPa) = 17.02439 21.03475 19.02957
#
# Velocity S-wave (km/s) = 3.04040 3.37959 3.21447
# Velocity P-wave (km/s) = 5.93219 6.74906 6.35377
#
# Compressibility (1/GPa) = 0.02374707
#
# Stress axis : x y z
#
# Youngs Moduli (GPa) = 31.20924 59.68561 78.12711
#
# Poissons Ratio (x) = 0.36167 0.59150
# Poissons Ratio (y) = 0.18912 0.41359
# Poissons Ratio (z) = 0.23628 0.31596
#
# Static dielectric constant tensor:
#      x y z
#    x 3.034480 0.000000 -0.115870 
#    y 0.000000 3.293460 0.000000 
#    z -0.115870 0.000000 4.194560 
# 
# 
# High freq. dielectric constant tensor:
#      x y z
#    x 1.673970 0.000000 0.002560 
#    y 0.000000 1.698040 0.000000 
#    z 0.002560 0.000000 1.729820 
# 
# From -- ./inp_files/210237.got.cif
#   From: 2010.06.25/outbox.cif.g09.slc.cpg/sg15_106_cif.got.tgz:210237.got - 2010.06.28 07:06:18.
