data_PCOD8133603
_publ_section_title
;
Structure prediction by ZEFSAII (Michael W. Deem and Ramdas Pophale) SiO2 
 PCOD8133603
Probable space group: C 2/C
;
_chemical_formula_sum "Si O2"
_cell_formula_units_Z 56
_cell_length_a 12.370351
_cell_length_b 21.926850
_cell_length_c 12.511412
_cell_angle_alpha 90.000000
_cell_angle_beta 119.491296
_cell_angle_gamma 90.000000
_cell_volume 2953.919733
_symmetry_space_group_name_H-M "C 2/C"
_symmetry_group_IT_number 15
_symmetry_cell_setting 'monoclinic'
loop_
_space_group_symop_operation_xyz
x,y,z
-x,y,1/2-z
-x,-y,-z
x,-y,1/2+z
1/2+x,1/2+y,z
1/2-x,1/2+y,1/2-z
1/2-x,1/2-y,-z
1/2+x,1/2-y,1/2+z
loop_
_atom_site_type_symbol
_atom_site_label
_atom_site_fract_x
_atom_site_fract_y
_atom_site_fract_z
Si Si1 0.822825 0.323676 0.270436
Si Si2 0.136179 0.392292 0.806577
Si Si3 0.738917 0.341006 0.996362
Si Si4 0.624954 0.077700 0.532955
Si Si5 0.334218 0.940167 0.893423
Si Si6 0.052910 0.253033 0.456302
Si Si7 0.410929 0.243919 0.293709
O O1 0.800485 0.350857 0.142317
O O2 0.825064 0.380816 0.348674
O O3 0.713762 0.280834 0.255212
O O4 0.948096 0.282589 0.330565
O O5 0.212646 0.429429 0.752277
O O6 0.127154 0.322761 0.765303
O O7 0.000000 0.422757 0.750000
O O8 0.188780 0.399693 0.952631
O O9 0.820766 0.292045 0.972755
O O10 0.745359 0.403871 0.932967
O O11 0.597045 0.314413 0.936246
O O12 0.475789 0.084367 0.465288
O O13 0.673154 0.010032 0.577911
O O14 0.007725 0.253829 0.557404
O O15 0.500000 0.275272 0.250000
#
# Coordination Sequence:
#
# PCOD8133603 Si02
#       7
#     8   8   8   8   8   8   8
#     4  11  21  34  55  87 107 139 187 227 275 337
#     4   9  17  33  48  69 105 138 171 219 274 318
#     4  10  20  33  53  75 113 149 177 227 272 328
#     4  10  21  30  50  78 105 143 184 227 271 326
#     4  10  19  34  48  72 110 147 182 222 275 324
#     4  10  19  34  50  79 110 144 179 224 275 320
#     4  10  20  34  56  79 111 142 171 228 283 330
#
# _framework density 18.957861999999999
#
# number of rings (size 3 to 8) (size 9 to 14) (size 15 to 20)
#    0.000    2.000    2.857    2.143    2.000    2.286 
#    0.000    0.000    0.000    0.000    3.714    3.000 
#    0.000    0.000    0.000    0.000    0.000    0.000 
#
# Total GULP energy -347004.516974 kJ/mol
# GULP energy per Si atom -12393.018463 kJ/mol
# Density = 1.891471 g / cm^3
# Si number density = 18.957862 Si / 1000 Ang^3
#
#
#
# Elastic Constant Matrix: (Units=GPa)
#
#
# Indices 1 2 3 4 5 6 
#
# 1 71.0169 38.9314 43.3789 0.0000 -29.6059 0.0000
# 2 38.9314 100.8981 43.9815 0.0000 -20.2380 0.0000
# 3 43.3789 43.9815 87.3847 0.0000 -33.4311 0.0000
# 4 0.0000 0.0000 0.0000 18.1817 0.0000 -6.2987
# 5 -29.6059 -20.2380 -33.4311 0.0000 35.7617 0.0000
# 6 0.0000 0.0000 0.0000 -6.2987 0.0000 30.2015
#
#
#
# Elastic Compliance Matrix: (Units=1/GPa)
#
#
# Indices 1 2 3 4 5 6 
#
# 1 0.025526 -0.004947 -0.004932 0.000000 0.013722 0.000000
# 2 -0.004947 0.013737 -0.004750 0.000000 -0.000762 0.000000
# 3 -0.004932 -0.004750 0.021315 0.000000 0.013155 0.000000
# 4 0.000000 0.000000 0.000000 0.059284 0.000000 0.012364
# 5 0.013722 -0.000762 0.013155 0.000000 0.051190 0.000000
# 6 0.000000 0.000000 0.000000 0.012364 0.000000 0.035689
#
#
# Mechanical properties :
#
#
# Convention : Reuss Voigt Hill
#
# Bulk Modulus (GPa) = 31.92669 56.87594 44.40131
# Shear Modulus (GPa) = 20.28889 25.69619 22.99254
#
# Velocity S-wave (km/s) = 3.27496 3.68562 3.48634
# Velocity P-wave (km/s) = 5.58371 6.94104 6.29905
#
# Compressibility (1/GPa) = 0.03132176
#
# Stress axis : x y z
#
# Youngs Moduli (GPa) = 39.17537 72.79354 46.91446
#
# Poissons Ratio (x) = 0.36012 0.23138
# Poissons Ratio (y) = 0.19380 0.22283
# Poissons Ratio (z) = 0.19321 0.34575
#
# Static dielectric constant tensor:
#      x y z
#    x 3.589290 0.000000 -0.499710 
#    y 0.000000 3.310610 0.000000 
#    z -0.499710 0.000000 3.615030 
# 
# 
# High freq. dielectric constant tensor:
#      x y z
#    x 1.715420 0.000000 -0.044330 
#    y 0.000000 1.720610 0.000000 
#    z -0.044330 0.000000 1.734350 
# 
# From -- ./inp_files/90331.got.cif
#   From: 2010.06.25/outbox.cif.g09.slc.cpg/sg15_46_cif.got.tgz:90331.got - 2010.06.28 07:06:18.
