data_PCOD8133243
_publ_section_title
;
Structure prediction by ZEFSAII (Michael W. Deem and Ramdas Pophale) SiO2 
 PCOD8133243
Probable space group: C 2/C
;
_chemical_formula_sum "Si O2"
_cell_formula_units_Z 36
_cell_length_a 13.608117
_cell_length_b 18.988895
_cell_length_c 8.760569
_cell_angle_alpha 90.000000
_cell_angle_beta 119.649566
_cell_angle_gamma 90.000000
_cell_volume 1967.358253
_symmetry_space_group_name_H-M "C 2/C"
_symmetry_group_IT_number 15
_symmetry_cell_setting 'monoclinic'
loop_
_space_group_symop_operation_xyz
x,y,z
-x,y,1/2-z
-x,-y,-z
x,-y,1/2+z
1/2+x,1/2+y,z
1/2-x,1/2+y,1/2-z
1/2-x,1/2-y,-z
1/2+x,1/2-y,1/2+z
loop_
_atom_site_type_symbol
_atom_site_label
_atom_site_fract_x
_atom_site_fract_y
_atom_site_fract_z
Si Si1 0.000000 0.702037 0.750000
Si Si2 0.764326 0.997681 0.126582
Si Si3 0.300722 0.899972 0.173078
Si Si4 0.053471 0.836657 0.945228
Si Si5 0.912644 0.058300 0.485041
O O1 0.900490 0.655472 0.740970
O O2 0.953670 0.751582 0.575708
O O3 0.691053 0.937653 0.155772
O O4 0.808158 0.052777 0.287025
O O5 0.868029 0.957366 0.120893
O O6 0.686586 0.041329 0.949663
O O7 0.181584 0.860491 0.064537
O O8 0.000000 0.871533 0.750000
O O9 0.974192 0.865346 0.022628
O O10 0.000000 0.000000 0.500000
#
# Coordination Sequence:
#
# PCOD8133243 Si02
#       5
#     4   8   8   8   8
#     4  10  24  38  52  74 116 158 184 200 260 354
#     4  10  20  29  58  83 113 132 177 238 272 312
#     4  11  21  37  55  84 107 145 183 226 270 316
#     4  10  19  32  59  81 104 139 178 227 268 319
#     4  11  16  30  53  92 108 128 171 237 289 300
#
# _framework density 18.298649000000001
#
# number of rings (size 3 to 8) (size 9 to 14) (size 15 to 20)
#    0.667    0.889    6.667    1.333    0.000    0.889 
#    0.000    1.111    0.000    5.333    0.000    0.000 
#    0.000    0.000    0.000    0.000    0.000    0.000 
#
# Total GULP energy -223060.836400 kJ/mol
# GULP energy per Si atom -12392.268689 kJ/mol
# Density = 1.825700 g / cm^3
# Si number density = 18.298649 Si / 1000 Ang^3
#
#
#
# Elastic Constant Matrix: (Units=GPa)
#
#
# Indices 1 2 3 4 5 6 
#
# 1 82.6284 67.9789 29.2649 0.0000 -10.7186 0.0000
# 2 67.9789 128.8271 35.2020 0.0000 -12.4787 0.0000
# 3 29.2649 35.2020 61.9229 0.0000 -13.1334 0.0000
# 4 0.0000 0.0000 0.0000 6.6089 0.0000 -0.8190
# 5 -10.7186 -12.4787 -13.1334 0.0000 17.7978 0.0000
# 6 0.0000 0.0000 0.0000 -0.8190 0.0000 39.4201
#
#
#
# Elastic Compliance Matrix: (Units=1/GPa)
#
#
# Indices 1 2 3 4 5 6 
#
# 1 0.022593 -0.010509 -0.004008 0.000000 0.003281 0.000000
# 2 -0.010509 0.014222 -0.002781 0.000000 0.001590 0.000000
# 3 -0.004008 -0.002781 0.022168 0.000000 0.011995 0.000000
# 4 0.000000 0.000000 0.000000 0.151701 0.000000 0.003152
# 5 0.003281 0.001590 0.011995 0.000000 0.068129 0.000000
# 6 0.000000 0.000000 0.000000 0.003152 0.000000 0.025433
#
#
# Mechanical properties :
#
#
# Convention : Reuss Voigt Hill
#
# Bulk Modulus (GPa) = 41.00365 59.80777 50.40571
# Shear Modulus (GPa) = 14.41046 22.16087 18.28566
#
# Velocity S-wave (km/s) = 2.80931 3.48381 3.16458
# Velocity P-wave (km/s) = 5.74279 6.99556 6.39990
#
# Compressibility (1/GPa) = 0.02438807
#
# Stress axis : x y z
#
# Youngs Moduli (GPa) = 44.26118 70.31563 45.11000
#
# Poissons Ratio (x) = 0.73895 0.18078
# Poissons Ratio (y) = 0.46514 0.12545
# Poissons Ratio (z) = 0.17738 0.19554
#
# Static dielectric constant tensor:
#      x y z
#    x 3.236780 0.000000 -0.138090 
#    y 0.000000 3.519330 0.000000 
#    z -0.138090 0.000000 3.409270 
# 
# 
# High freq. dielectric constant tensor:
#      x y z
#    x 1.693880 0.000000 -0.008240 
#    y 0.000000 1.694190 0.000000 
#    z -0.008240 0.000000 1.696480 
# 
# From -- ./inp_files/28727.got.cif
#   From: 2010.06.25/outbox.cif.g09.slc.cpg/sg15_15_cif.got.tgz:28727.got - 2010.06.28 07:06:18.
