data_PCOD8133456
_publ_section_title
;
Structure prediction by ZEFSAII (Michael W. Deem and Ramdas Pophale) SiO2 
 PCOD8133456
Probable space group: C 2/C
;
_chemical_formula_sum "Si O2"
_cell_formula_units_Z 52
_cell_length_a 29.967691
_cell_length_b 8.647787
_cell_length_c 12.235963
_cell_angle_alpha 90.000000
_cell_angle_beta 114.098420
_cell_angle_gamma 90.000000
_cell_volume 2894.634075
_symmetry_space_group_name_H-M "C 2/C"
_symmetry_group_IT_number 15
_symmetry_cell_setting 'monoclinic'
loop_
_space_group_symop_operation_xyz
x,y,z
-x,y,1/2-z
-x,-y,-z
x,-y,1/2+z
1/2+x,1/2+y,z
1/2-x,1/2+y,1/2-z
1/2-x,1/2-y,-z
1/2+x,1/2-y,1/2+z
loop_
_atom_site_type_symbol
_atom_site_label
_atom_site_fract_x
_atom_site_fract_y
_atom_site_fract_z
Si Si1 0.000000 0.250000 0.750000
Si Si2 0.640361 0.063230 0.637026
Si Si3 0.093173 0.687925 0.232861
Si Si4 0.093173 0.187925 0.953484
Si Si5 0.859639 0.936770 0.356304
Si Si6 0.806639 0.804662 0.676091
Si Si7 0.306639 0.195338 0.437187
O O1 0.963929 0.348327 0.793916
O O2 0.963929 0.151673 0.633941
O O3 0.598007 0.173812 0.546611
O O4 0.684206 0.166718 0.728898
O O5 0.617186 0.967992 0.713628
O O6 0.661866 0.954256 0.564072
O O7 0.120357 0.750000 0.370357
O O8 0.098007 0.826188 0.149404
O O9 0.117186 0.032008 0.020744
O O10 0.815795 0.833282 0.360487
O O11 0.838134 0.045745 0.240340
O O12 0.750000 0.849836 0.621403
O O13 0.823563 0.750000 0.573563
#
# Coordination Sequence:
#
# PCOD8133456 Si02
#       7
#     4   8   8   8   8   8   8
#     4   8  20  36  52  74 100 128 164 218 248 296
#     4  10  19  33  56  72 102 140 162 201 255 294
#     4   9  19  35  51  75 101 129 169 207 249 298
#     4   9  19  35  51  75 101 129 169 207 249 298
#     4  10  19  33  56  72 102 140 162 201 255 294
#     4  10  20  33  51  78 105 132 170 204 239 294
#     4  10  20  33  51  78 105 132 170 204 239 294
#
# _framework density 17.964274
#
# number of rings (size 3 to 8) (size 9 to 14) (size 15 to 20)
#    0.923    1.538    0.000    2.769    0.000    1.231 
#    0.000    0.000    0.000   18.462    0.000    0.000 
#    0.000    0.000    0.000    0.000    0.000    0.000 
#
# Total GULP energy -322151.863160 kJ/mol
# GULP energy per Si atom -12390.456275 kJ/mol
# Density = 1.792339 g / cm^3
# Si number density = 17.964274 Si / 1000 Ang^3
#
#
#
# Elastic Constant Matrix: (Units=GPa)
#
#
# Indices 1 2 3 4 5 6 
#
# 1 82.0436 23.3677 18.5505 0.0000 -2.5999 0.0000
# 2 23.3677 82.6486 25.1666 0.0000 -1.2154 0.0000
# 3 18.5505 25.1666 84.9789 0.0000 0.6167 0.0000
# 4 0.0000 0.0000 0.0000 24.8574 0.0000 -6.3198
# 5 -2.5999 -1.2154 0.6167 0.0000 31.4973 0.0000
# 6 0.0000 0.0000 0.0000 -6.3198 0.0000 15.5037
#
#
#
# Elastic Compliance Matrix: (Units=1/GPa)
#
#
# Indices 1 2 3 4 5 6 
#
# 1 0.013594 -0.003212 -0.002024 0.000000 0.001038 0.000000
# 2 -0.003212 0.014069 -0.003468 0.000000 0.000346 0.000000
# 3 -0.002024 -0.003468 0.013240 0.000000 -0.000560 0.000000
# 4 0.000000 0.000000 0.000000 0.044881 0.000000 0.018295
# 5 0.001038 0.000346 -0.000560 0.000000 0.031859 0.000000
# 6 0.000000 0.000000 0.000000 0.018295 0.000000 0.071958
#
#
# Mechanical properties :
#
#
# Convention : Reuss Voigt Hill
#
# Bulk Modulus (GPa) = 42.56063 42.64897 42.60480
# Shear Modulus (GPa) = 23.27314 26.54409 24.90861
#
# Velocity S-wave (km/s) = 3.60324 3.84813 3.72770
# Velocity P-wave (km/s) = 6.40737 6.59823 6.50350
#
# Compressibility (1/GPa) = 0.02349589
#
# Stress axis : x y z
#
# Youngs Moduli (GPa) = 73.56209 71.08031 75.52603
#
# Poissons Ratio (x) = 0.22831 0.15285
# Poissons Ratio (y) = 0.23628 0.26191
# Poissons Ratio (z) = 0.14887 0.24649
#
# Static dielectric constant tensor:
#      x y z
#    x 3.129080 0.000000 -0.166670 
#    y 0.000000 3.179890 0.000000 
#    z -0.166670 0.000000 3.375760 
# 
# 
# High freq. dielectric constant tensor:
#      x y z
#    x 1.681020 0.000000 -0.013450 
#    y 0.000000 1.689150 0.000000 
#    z -0.013450 0.000000 1.700930 
# 
# From -- ./inp_files/125658.got.cif
#   From: 2010.06.25/outbox.cif.g09.slc.cpg/sg15_63_cif.got.tgz:125658.got - 2010.06.28 07:06:18.
