data_PCOD8133932
_publ_section_title
;
Structure prediction by ZEFSAII (Michael W. Deem and Ramdas Pophale) SiO2 
 PCOD8133932
Probable space group: C 2/C
;
_chemical_formula_sum "Si O2"
_cell_formula_units_Z 48
_cell_length_a 11.548905
_cell_length_b 19.529134
_cell_length_c 11.797764
_cell_angle_alpha 90.000000
_cell_angle_beta 105.712274
_cell_angle_gamma 90.000000
_cell_volume 2561.442347
_symmetry_space_group_name_H-M "C 2/C"
_symmetry_group_IT_number 15
_symmetry_cell_setting 'monoclinic'
loop_
_space_group_symop_operation_xyz
x,y,z
-x,y,1/2-z
-x,-y,-z
x,-y,1/2+z
1/2+x,1/2+y,z
1/2-x,1/2+y,1/2-z
1/2-x,1/2-y,-z
1/2+x,1/2-y,1/2+z
loop_
_atom_site_type_symbol
_atom_site_label
_atom_site_fract_x
_atom_site_fract_y
_atom_site_fract_z
Si Si1 0.387230 0.418367 0.800405
Si Si2 0.948039 0.251389 0.001690
Si Si3 0.182698 0.064285 0.766326
Si Si4 0.102060 0.658473 0.688816
Si Si5 0.795942 0.213537 0.169888
Si Si6 0.022771 0.886798 0.432541
O O1 0.500000 0.421459 0.750000
O O2 0.304665 0.482560 0.742423
O O3 0.312589 0.349018 0.760598
O O4 0.431251 0.423200 0.941370
O O5 0.838661 0.290100 0.912533
O O6 0.017944 0.195961 0.943415
O O7 0.897983 0.210178 0.098726
O O8 0.041090 0.311264 0.059369
O O9 0.318063 0.092006 0.813601
O O10 0.112082 0.090101 0.857775
O O11 0.112641 0.089706 0.634854
O O12 0.191405 0.715468 0.761610
O O13 0.000000 0.636751 0.750000
#
# Coordination Sequence:
#
# PCOD8133932 Si02
#       6
#     8   8   8   8   8   8
#     4  12  21  37  61  89 119 152 199 246 293 343
#     4  10  19  34  61  87 115 152 198 240 282 340
#     4  11  25  37  58  91 120 156 190 243 309 345
#     4  10  20  39  60  84 115 157 201 239 285 354
#     4  10  19  34  60  89 112 152 201 240 281 338
#     4  11  21  38  60  89 120 150 191 249 297 343
#
# _framework density 18.739443000000001
#
# number of rings (size 3 to 8) (size 9 to 14) (size 15 to 20)
#    0.000    1.333    6.667    1.000    0.000    0.667 
#    0.000    0.833    0.000    0.000    0.000    0.000 
#    0.000    0.000    0.000    0.000    0.000    0.000 
#
# Total GULP energy -297607.045291 kJ/mol
# GULP energy per Si atom -12400.293554 kJ/mol
# Density = 1.869679 g / cm^3
# Si number density = 18.739443 Si / 1000 Ang^3
#
#
#
# Elastic Constant Matrix: (Units=GPa)
#
#
# Indices 1 2 3 4 5 6 
#
# 1 72.2949 43.6993 34.3793 0.0000 14.9053 0.0000
# 2 43.6993 96.0732 32.0087 0.0000 2.7175 0.0000
# 3 34.3793 32.0087 108.2711 0.0000 8.3423 0.0000
# 4 0.0000 0.0000 0.0000 21.1468 0.0000 25.0998
# 5 14.9053 2.7175 8.3423 0.0000 24.7677 0.0000
# 6 0.0000 0.0000 0.0000 25.0998 0.0000 -52.7171
#
#
#
# Elastic Compliance Matrix: (Units=1/GPa)
#
#
# Indices 1 2 3 4 5 6 
#
# 1 0.023660 -0.009127 -0.003896 0.000000 -0.011925 0.000000
# 2 -0.009127 0.015067 -0.001901 0.000000 0.004480 0.000000
# 3 -0.003896 -0.001901 0.011127 0.000000 -0.001195 0.000000
# 4 0.000000 0.000000 0.000000 0.030214 0.000000 0.014385
# 5 -0.011925 0.004480 -0.001195 0.000000 0.047463 0.000000
# 6 0.000000 0.000000 0.000000 0.014385 0.000000 -0.012120
#
#
# Mechanical properties :
#
#
# Convention : Reuss Voigt Hill
#
# Bulk Modulus (GPa) = 49.98387 55.20155 52.59271
# Shear Modulus (GPa) = 32.91039 9.74295 21.32667
#
# Velocity S-wave (km/s) = 4.19526 2.28264 3.37718
# Velocity P-wave (km/s) = 7.08505 6.03893 6.58280
#
# Compressibility (1/GPa) = 0.02000645
#
# Stress axis : x y z
#
# Youngs Moduli (GPa) = 42.26506 66.37103 89.86899
#
# Poissons Ratio (x) = 0.60575 0.35011
# Poissons Ratio (y) = 0.38574 0.17088
# Poissons Ratio (z) = 0.16466 0.12620
#
# Static dielectric constant tensor:
#      x y z
#    x 3.159730 0.000000 0.143160 
#    y 0.000000 3.513760 0.000000 
#    z 0.143160 0.000000 3.694990 
# 
# 
# High freq. dielectric constant tensor:
#      x y z
#    x 1.699510 0.000000 0.014290 
#    y 0.000000 1.723430 0.000000 
#    z 0.014290 0.000000 1.735690 
# 
# From -- ./inp_files/87237.got.cif
#   From: 2010.06.25/outbox.cif.g09.slc.cpg/sg15_44_cif.got.tgz:87237.got - 2010.06.28 07:06:18.
