data_PCOD8133676
_publ_section_title
;
Structure prediction by ZEFSAII (Michael W. Deem and Ramdas Pophale) SiO2 
 PCOD8133676
Probable space group: C 2/C
;
_chemical_formula_sum "Si O2"
_cell_formula_units_Z 40
_cell_length_a 28.536165
_cell_length_b 10.913633
_cell_length_c 12.066431
_cell_angle_alpha 90.000000
_cell_angle_beta 34.657105
_cell_angle_gamma 90.000000
_cell_volume 2136.974865
_symmetry_space_group_name_H-M "C 2/C"
_symmetry_group_IT_number 15
_symmetry_cell_setting 'monoclinic'
loop_
_space_group_symop_operation_xyz
x,y,z
-x,y,1/2-z
-x,-y,-z
x,-y,1/2+z
1/2+x,1/2+y,z
1/2-x,1/2+y,1/2-z
1/2-x,1/2-y,-z
1/2+x,1/2-y,1/2+z
loop_
_atom_site_type_symbol
_atom_site_label
_atom_site_fract_x
_atom_site_fract_y
_atom_site_fract_z
Si Si1 0.722783 0.782834 0.212248
Si Si2 0.457327 0.133250 0.446786
Si Si3 0.592205 0.106124 0.360416
Si Si4 0.757628 0.453215 0.516702
Si Si5 0.794972 0.191074 0.809121
O O1 0.624672 0.784310 0.379352
O O2 0.763257 0.654258 0.096950
O O3 0.738720 0.805805 0.309584
O O4 0.763987 0.893128 0.060323
O O5 0.500000 0.170609 0.250000
O O6 0.517965 0.158648 0.431177
O O7 0.436669 0.988193 0.488521
O O8 0.624420 0.225706 0.364015
O O9 0.657803 0.033092 0.154092
O O10 0.686658 0.549029 0.694422
O O11 0.750000 0.250000 0.000000
#
# Coordination Sequence:
#
# PCOD8133676 Si02
#       5
#     8   8   8   8   8
#     4  10  21  35  58  83 113 150 188 233 290 334
#     4  10  19  34  54  81 114 147 179 236 284 334
#     4   9  20  34  55  84 108 144 191 233 279 334
#     4   9  20  36  55  83 110 148 191 237 277 336
#     4  10  20  33  57  83 110 143 192 231 275 341
#
# _framework density 18.718049000000001
#
# number of rings (size 3 to 8) (size 9 to 14) (size 15 to 20)
#    0.000    2.400    0.000    2.400   11.200    0.000 
#    0.000    1.000    0.000    1.200    0.000    0.000 
#    0.000    0.000    0.000    0.000    0.000    0.000 
#
# Total GULP energy -247826.345257 kJ/mol
# GULP energy per Si atom -12391.317263 kJ/mol
# Density = 1.867545 g / cm^3
# Si number density = 18.718049 Si / 1000 Ang^3
#
#
#
# Elastic Constant Matrix: (Units=GPa)
#
#
# Indices 1 2 3 4 5 6 
#
# 1 106.7799 51.8399 30.8827 0.0000 1.1026 0.0000
# 2 51.8399 117.7860 29.2086 0.0000 -5.4513 0.0000
# 3 30.8827 29.2086 49.2936 0.0000 -0.4410 0.0000
# 4 0.0000 0.0000 0.0000 33.4303 0.0000 -6.2227
# 5 1.1026 -5.4513 -0.4410 0.0000 34.5814 0.0000
# 6 0.0000 0.0000 0.0000 -6.2227 0.0000 17.9503
#
#
#
# Elastic Compliance Matrix: (Units=1/GPa)
#
#
# Indices 1 2 3 4 5 6 
#
# 1 0.013166 -0.004457 -0.005618 0.000000 -0.001194 0.000000
# 2 -0.004457 0.011539 -0.004028 0.000000 0.001910 0.000000
# 3 -0.005618 -0.004028 0.026192 0.000000 -0.000122 0.000000
# 4 0.000000 0.000000 0.000000 0.031976 0.000000 0.011085
# 5 -0.001194 0.001910 -0.000122 0.000000 0.029255 0.000000
# 6 0.000000 0.000000 0.000000 0.011085 0.000000 0.059552
#
#
# Mechanical properties :
#
#
# Convention : Reuss Voigt Hill
#
# Bulk Modulus (GPa) = 44.07082 55.30244 49.68663
# Shear Modulus (GPa) = 24.10219 27.98761 26.04490
#
# Velocity S-wave (km/s) = 3.59227 3.87100 3.73424
# Velocity P-wave (km/s) = 6.38761 7.04192 6.72273
#
# Compressibility (1/GPa) = 0.02269075
#
# Stress axis : x y z
#
# Youngs Moduli (GPa) = 75.95350 86.66522 38.17917
#
# Poissons Ratio (x) = 0.38623 0.21451
# Poissons Ratio (y) = 0.33849 0.15379
# Poissons Ratio (z) = 0.42674 0.34909
#
# Static dielectric constant tensor:
#      x y z
#    x 3.332120 0.000000 -0.053100 
#    y 0.000000 4.044730 0.000000 
#    z -0.053100 0.000000 3.568670 
# 
# 
# High freq. dielectric constant tensor:
#      x y z
#    x 1.717640 0.000000 0.014520 
#    y 0.000000 1.726900 0.000000 
#    z 0.014520 0.000000 1.709520 
# 
# From -- ./inp_files/94626.got.cif
#   From: 2010.06.25/outbox.cif.g09.slc.cpg/sg15_48_cif.got.tgz:94626.got - 2010.06.28 07:06:18.
