data_PCOD8133889
_publ_section_title
;
Structure prediction by ZEFSAII (Michael W. Deem and Ramdas Pophale) SiO2 
 PCOD8133889
Probable space group: C 2/C
;
_chemical_formula_sum "Si O2"
_cell_formula_units_Z 64
_cell_length_a 26.372939
_cell_length_b 8.978511
_cell_length_c 16.534895
_cell_angle_alpha 90.000000
_cell_angle_beta 51.820461
_cell_angle_gamma 90.000000
_cell_volume 3077.724615
_symmetry_space_group_name_H-M "C 2/C"
_symmetry_group_IT_number 15
_symmetry_cell_setting 'monoclinic'
loop_
_space_group_symop_operation_xyz
x,y,z
-x,y,1/2-z
-x,-y,-z
x,-y,1/2+z
1/2+x,1/2+y,z
1/2-x,1/2+y,1/2-z
1/2-x,1/2-y,-z
1/2+x,1/2-y,1/2+z
loop_
_atom_site_type_symbol
_atom_site_label
_atom_site_fract_x
_atom_site_fract_y
_atom_site_fract_z
Si Si1 0.807461 0.374904 0.283540
Si Si2 0.425702 0.419300 0.164512
Si Si3 0.300868 0.558703 0.039205
Si Si4 0.432079 0.580802 0.992943
Si Si5 0.925310 0.423091 0.661943
Si Si6 0.192531 0.938310 0.642894
Si Si7 0.300016 0.872186 0.103126
Si Si8 0.935666 0.422577 0.986560
O O1 0.741553 0.467205 0.355136
O O2 0.869161 0.472378 0.252812
O O3 0.804485 0.237830 0.348178
O O4 0.813281 0.325999 0.183952
O O5 0.499461 0.453940 0.117294
O O6 0.404913 0.247530 0.193491
O O7 0.380013 0.510227 0.269060
O O8 0.416584 0.471501 0.081711
O O9 0.376926 0.549595 0.981764
O O10 0.285720 0.490464 0.966900
O O11 0.279504 0.730880 0.069286
O O12 0.435523 0.751827 0.020620
O O13 0.933507 0.454987 0.558896
O O14 0.997507 0.449389 0.629916
O O15 0.243599 0.007461 0.655594
O O16 0.368764 0.938931 0.001406
#
# Coordination Sequence:
#
# PCOD8133889 Si02
#       8
#     8   8   8   8   8   8   8   8
#     4  11  22  38  58  82 115 154 195 237 284 349
#     4  10  19  34  59  87 111 147 194 238 283 344
#     4  11  23  39  57  82 116 150 186 241 302 349
#     4   9  19  36  59  85 112 144 193 242 287 345
#     4   9  17  31  56  85 111 139 180 233 285 332
#     4  12  24  37  55  83 118 153 191 240 298 349
#     4  10  20  37  61  84 110 149 198 241 283 345
#     4   8  16  32  54  84 111 137 177 237 289 328
#
# _framework density 20.794582999999999
#
# number of rings (size 3 to 8) (size 9 to 14) (size 15 to 20)
#    0.000    2.000    0.000    5.250    0.000    4.500 
#    0.000    0.000    0.000    3.750    0.000    0.000 
#    0.000    0.000    0.000    0.000    0.000    0.000 
#
# Total GULP energy -396599.480561 kJ/mol
# GULP energy per Si atom -12393.733768 kJ/mol
# Density = 2.074725 g / cm^3
# Si number density = 20.794583 Si / 1000 Ang^3
#
#
#
# Elastic Constant Matrix: (Units=GPa)
#
#
# Indices 1 2 3 4 5 6 
#
# 1 70.5760 36.4444 41.0099 -0.0002 -21.9882 0.0000
# 2 36.4444 101.5225 36.5996 -0.0007 -18.2649 0.0003
# 3 41.0099 36.5996 77.9382 0.0000 -23.9805 0.0002
# 4 -0.0002 -0.0007 0.0000 29.1915 0.0001 -5.0917
# 5 -21.9882 -18.2649 -23.9805 0.0001 36.4180 -0.0001
# 6 0.0000 0.0003 0.0002 -5.0917 -0.0001 26.1830
#
#
#
# Elastic Compliance Matrix: (Units=1/GPa)
#
#
# Indices 1 2 3 4 5 6 
#
# 1 0.023106 -0.004173 -0.008214 0.000000 0.006449 0.000000
# 2 -0.004173 0.012853 -0.003301 0.000000 0.001753 0.000000
# 3 -0.008214 -0.003301 0.020902 0.000000 0.007149 0.000000
# 4 0.000000 0.000000 0.000000 0.035459 0.000000 0.006896
# 5 0.006449 0.001753 0.007149 0.000000 0.036940 0.000000
# 6 0.000000 0.000000 0.000000 0.006896 0.000000 0.039534
#
#
# Mechanical properties :
#
#
# Convention : Reuss Voigt Hill
#
# Bulk Modulus (GPa) = 39.23669 53.12716 46.18193
# Shear Modulus (GPa) = 23.96170 27.42402 25.69286
#
# Velocity S-wave (km/s) = 3.39824 3.63548 3.51886
# Velocity P-wave (km/s) = 5.85723 6.57467 6.22629
#
# Compressibility (1/GPa) = 0.02548635
#
# Stress axis : x y z
#
# Youngs Moduli (GPa) = 43.27800 77.80004 47.84125
#
# Poissons Ratio (x) = 0.32467 0.39298
# Poissons Ratio (y) = 0.18061 0.15790
# Poissons Ratio (z) = 0.35550 0.25679
#
# Static dielectric constant tensor:
#      x y z
#    x 3.697340 0.000000 -0.568510 
#    y 0.000000 3.736740 0.000000 
#    z -0.568510 0.000000 3.782410 
# 
# 
# High freq. dielectric constant tensor:
#      x y z
#    x 1.797730 0.000000 -0.044910 
#    y 0.000000 1.814760 0.000000 
#    z -0.044910 0.000000 1.807070 
# 
# From -- ./inp_files/224584.got.cif
#   From: 2010.06.25/outbox.cif.g09.slc.cpg/sg15_113_cif.got.tgz:224584.got - 2010.06.28 07:06:18.
