data_PCOD8133385
_publ_section_title
;
Structure prediction by ZEFSAII (Michael W. Deem and Ramdas Pophale) SiO2 
 PCOD8133385
Probable space group: C 2/C
;
_chemical_formula_sum "Si O2"
_cell_formula_units_Z 36
_cell_length_a 20.835664
_cell_length_b 20.411367
_cell_length_c 8.334418
_cell_angle_alpha 90.000000
_cell_angle_beta 149.482538
_cell_angle_gamma 90.000000
_cell_volume 1799.899321
_symmetry_space_group_name_H-M "C 2/C"
_symmetry_group_IT_number 15
_symmetry_cell_setting 'monoclinic'
loop_
_space_group_symop_operation_xyz
x,y,z
-x,y,1/2-z
-x,-y,-z
x,-y,1/2+z
1/2+x,1/2+y,z
1/2-x,1/2+y,1/2-z
1/2-x,1/2-y,-z
1/2+x,1/2-y,1/2+z
loop_
_atom_site_type_symbol
_atom_site_label
_atom_site_fract_x
_atom_site_fract_y
_atom_site_fract_z
Si Si1 0.232267 0.804142 0.596559
Si Si2 0.000000 0.264482 0.750000
Si Si3 0.823457 0.314985 0.119574
Si Si4 0.150438 0.929206 0.882008
Si Si5 0.641151 0.429433 0.238279
O O1 0.250000 0.750000 0.500000
O O2 0.106602 0.784897 0.420481
O O3 0.225360 0.874506 0.501066
O O4 0.345124 0.811684 0.972456
O O5 0.953004 0.312113 0.502630
O O6 0.750000 0.250000 0.000000
O O7 0.740112 0.377883 0.986431
O O8 0.004012 0.916269 0.524950
O O9 0.189211 0.000890 0.904921
O O10 0.167823 0.924418 0.108392
#
# Coordination Sequence:
#
# PCOD8133385 Si02
#       5
#     8   4   8   8   8
#     4  11  22  36  58  84 113 149 189 233 283 339
#     4  10  22  38  58  82 114 150 192 240 284 336
#     4  10  20  36  55  79 111 146 186 231 281 336
#     4  10  20  33  55  83 113 148 183 234 289 337
#     4  10  19  33  54  83 114 144 186 233 286 338
#
# _framework density 20.001118000000002
#
# number of rings (size 3 to 8) (size 9 to 14) (size 15 to 20)
#    0.000    1.778    0.000    6.667    0.000    6.222 
#    0.000    0.000    0.000   12.000    0.000    0.000 
#    0.000    0.000    0.000    0.000    0.000    0.000 
#
# Total GULP energy -223097.213314 kJ/mol
# GULP energy per Si atom -12394.289629 kJ/mol
# Density = 1.995559 g / cm^3
# Si number density = 20.001118 Si / 1000 Ang^3
#
#
#
# Elastic Constant Matrix: (Units=GPa)
#
#
# Indices 1 2 3 4 5 6 
#
# 1 76.6209 36.4794 31.3038 0.0000 -32.0389 0.0000
# 2 36.4794 140.0935 46.9533 0.0000 -28.9190 0.0000
# 3 31.3038 46.9533 103.1987 0.0000 -44.4772 0.0000
# 4 0.0000 0.0000 0.0000 32.2337 0.0000 -14.0133
# 5 -32.0389 -28.9190 -44.4772 0.0000 38.6892 0.0000
# 6 0.0000 0.0000 0.0000 -14.0133 0.0000 -14.2308
#
#
#
# Elastic Compliance Matrix: (Units=1/GPa)
#
#
# Indices 1 2 3 4 5 6 
#
# 1 0.020921 -0.002547 0.002892 0.000000 0.018745 0.000000
# 2 -0.002547 0.009016 -0.002644 0.000000 0.001590 0.000000
# 3 0.002892 -0.002644 0.020209 0.000000 0.023651 0.000000
# 4 0.000000 0.000000 0.000000 0.021724 0.000000 -0.021392
# 5 0.018745 0.001590 0.023651 0.000000 0.069747 0.000000
# 6 0.000000 0.000000 0.000000 -0.021392 0.000000 -0.049206
#
#
# Mechanical properties :
#
#
# Convention : Reuss Voigt Hill
#
# Bulk Modulus (GPa) = 21.95559 61.04292 41.49926
# Shear Modulus (GPa) = 44.56625 25.01685 34.79155
#
# Velocity S-wave (km/s) = 4.72549 3.54046 4.17523
# Velocity P-wave (km/s) = 6.38551 6.87744 6.63603
#
# Compressibility (1/GPa) = 0.04554648
#
# Stress axis : x y z
#
# Youngs Moduli (GPa) = 47.79918 110.91661 49.48292
#
# Poissons Ratio (x) = 0.28255 -0.14310
# Poissons Ratio (y) = 0.12176 0.13084
# Poissons Ratio (z) = -0.13823 0.29327
#
# Static dielectric constant tensor:
#      x y z
#    x 4.123590 0.000000 -0.818790 
#    y 0.000000 3.681390 0.000000 
#    z -0.818790 0.000000 4.288960 
# 
# 
# High freq. dielectric constant tensor:
#      x y z
#    x 1.782330 0.000000 -0.037980 
#    y 0.000000 1.786580 0.000000 
#    z -0.037980 0.000000 1.767510 
# 
# From -- ./inp_files/28687.got.cif
#   From: 2010.06.25/outbox.cif.g09.slc.cpg/sg15_15_cif.got.tgz:28687.got - 2010.06.28 07:06:18.
