data_PCOD8133021
_publ_section_title
;
Structure prediction by ZEFSAII (Michael W. Deem and Ramdas Pophale) SiO2 
 PCOD8133021
Probable space group: C 2/C
;
_chemical_formula_sum "Si O2"
_cell_formula_units_Z 44
_cell_length_a 14.218371
_cell_length_b 19.706845
_cell_length_c 12.296526
_cell_angle_alpha 90.000000
_cell_angle_beta 135.411844
_cell_angle_gamma 90.000000
_cell_volume 2418.745123
_symmetry_space_group_name_H-M "C 2/C"
_symmetry_group_IT_number 15
_symmetry_cell_setting 'monoclinic'
loop_
_space_group_symop_operation_xyz
x,y,z
-x,y,1/2-z
-x,-y,-z
x,-y,1/2+z
1/2+x,1/2+y,z
1/2-x,1/2+y,1/2-z
1/2-x,1/2-y,-z
1/2+x,1/2-y,1/2+z
loop_
_atom_site_type_symbol
_atom_site_label
_atom_site_fract_x
_atom_site_fract_y
_atom_site_fract_z
Si Si1 0.288253 0.524211 0.149110
Si Si2 0.241285 0.829868 0.499286
Si Si3 0.621928 0.905347 0.077147
Si Si4 0.355565 0.945809 0.173903
Si Si5 0.000000 0.079530 0.750000
Si Si6 0.334951 0.911936 0.766451
O O1 0.152479 0.480660 0.056489
O O2 0.414891 0.472600 0.256000
O O3 0.291488 0.576391 0.254349
O O4 0.263824 0.563334 0.014299
O O5 0.250000 0.750000 0.500000
O O6 0.306844 0.850683 0.439532
O O7 0.098351 0.869083 0.395243
O O8 0.318513 0.848361 0.673009
O O9 0.677068 0.899895 0.246699
O O10 0.463115 0.895179 0.945884
O O11 0.500000 0.922568 0.250000
O O12 0.357135 0.024767 0.205632
#
# Coordination Sequence:
#
# PCOD8133021 Si02
#       6
#     8   8   8   8   4   8
#     4  10  19  32  53  82 113 139 170 228 290 332
#     4  11  24  38  53  76 111 153 190 223 268 331
#     4  10  19  31  54  82 107 139 183 224 274 322
#     4  11  15  30  53  84 111 125 172 232 277 325
#     4  10  22  38  48  82 112 148 182 218 290 332
#     4  11  18  32  56  81 108 141 180 227 279 325
#
# _framework density 18.191251000000001
#
# number of rings (size 3 to 8) (size 9 to 14) (size 15 to 20)
#    0.000    1.455    7.273    1.636    2.545    0.727 
#    3.273    0.000    0.000    1.091    2.364    0.000 
#    0.000    0.000    0.000    0.000    0.000    0.000 
#
# Total GULP energy -272541.137034 kJ/mol
# GULP energy per Si atom -12388.233502 kJ/mol
# Density = 1.814985 g / cm^3
# Si number density = 18.191251 Si / 1000 Ang^3
#
#
#
# Elastic Constant Matrix: (Units=GPa)
#
#
# Indices 1 2 3 4 5 6 
#
# 1 103.3997 52.2932 54.0972 0.0000 -17.5544 0.0000
# 2 52.2932 89.7652 36.1489 0.0000 -15.0826 0.0000
# 3 54.0972 36.1489 66.6590 0.0000 -14.9766 0.0000
# 4 0.0000 0.0000 0.0000 16.9951 0.0000 -5.0912
# 5 -17.5544 -15.0826 -14.9766 0.0000 37.2272 0.0000
# 6 0.0000 0.0000 0.0000 -5.0912 0.0000 16.9567
#
#
#
# Elastic Compliance Matrix: (Units=1/GPa)
#
#
# Indices 1 2 3 4 5 6 
#
# 1 0.019345 -0.006149 -0.011956 0.000000 0.001821 0.000000
# 2 -0.006149 0.016504 -0.003418 0.000000 0.002412 0.000000
# 3 -0.011956 -0.003418 0.027463 0.000000 0.004026 0.000000
# 4 0.000000 0.000000 0.000000 0.064656 0.000000 0.019413
# 5 0.001821 0.002412 0.004026 0.000000 0.030318 0.000000
# 6 0.000000 0.000000 0.000000 0.019413 0.000000 0.064802
#
#
# Mechanical properties :
#
#
# Convention : Reuss Voigt Hill
#
# Bulk Modulus (GPa) = 49.34337 60.54471 54.94404
# Shear Modulus (GPa) = 18.32248 22.05478 20.18863
#
# Velocity S-wave (km/s) = 3.17711 3.48571 3.33498
# Velocity P-wave (km/s) = 6.37513 7.03952 6.71555
#
# Compressibility (1/GPa) = 0.02026615
#
# Stress axis : x y z
#
# Youngs Moduli (GPa) = 51.69194 60.59141 36.41313
#
# Poissons Ratio (x) = 0.37258 0.43536
# Poissons Ratio (y) = 0.31785 0.12446
# Poissons Ratio (z) = 0.61803 0.20709
#
# Static dielectric constant tensor:
#      x y z
#    x 3.595530 0.000000 -0.169750 
#    y 0.000000 2.930220 0.000000 
#    z -0.169750 0.000000 3.498670 
# 
# 
# High freq. dielectric constant tensor:
#      x y z
#    x 1.710280 0.000000 -0.012000 
#    y 0.000000 1.646910 0.000000 
#    z -0.012000 0.000000 1.703500 
# 
# From -- ./inp_files/49584.got.cif
#   From: 2010.06.25/outbox.cif.g09.slc.cpg/sg15_25_cif.got.tgz:49584.got - 2010.06.28 07:06:18.
