data_PCOD8133702
_publ_section_title
;
Structure prediction by ZEFSAII (Michael W. Deem and Ramdas Pophale) SiO2 
 PCOD8133702
Probable space group: C 2/C
;
_chemical_formula_sum "Si O2"
_cell_formula_units_Z 56
_cell_length_a 6.418284
_cell_length_b 28.339326
_cell_length_c 20.316071
_cell_angle_alpha 90.000000
_cell_angle_beta 51.759524
_cell_angle_gamma 90.000000
_cell_volume 2902.351650
_symmetry_space_group_name_H-M "C 2/C"
_symmetry_group_IT_number 15
_symmetry_cell_setting 'monoclinic'
loop_
_space_group_symop_operation_xyz
x,y,z
-x,y,1/2-z
-x,-y,-z
x,-y,1/2+z
1/2+x,1/2+y,z
1/2-x,1/2+y,1/2-z
1/2-x,1/2-y,-z
1/2+x,1/2-y,1/2+z
loop_
_atom_site_type_symbol
_atom_site_label
_atom_site_fract_x
_atom_site_fract_y
_atom_site_fract_z
Si Si1 0.053053 0.423502 0.125981
Si Si2 0.250550 0.973106 0.078425
Si Si3 0.929139 0.319330 0.337823
Si Si4 0.382477 0.417238 0.519760
Si Si5 0.722366 0.985593 0.661710
Si Si6 0.046699 0.731874 0.941887
Si Si7 0.819788 0.184520 0.002002
O O1 0.978215 0.373678 0.173431
O O2 0.122513 0.461614 0.167577
O O3 0.807526 0.444807 0.133774
O O4 0.302069 0.416517 0.027052
O O5 0.148991 0.933621 0.048570
O O6 0.013426 0.010915 0.138096
O O7 0.500000 0.000000 0.000000
O O8 0.615247 0.313975 0.412741
O O9 0.000000 0.301925 0.250000
O O10 0.098947 0.288301 0.357982
O O11 0.231390 0.454130 0.594775
O O12 0.262106 0.364933 0.549442
O O13 0.500000 0.960557 0.750000
O O14 0.225268 0.776268 0.931636
O O15 0.105580 0.691258 0.984961
O O16 0.750000 0.750000 0.000000
#
# Coordination Sequence:
#
# PCOD8133702 Si02
#       7
#     8   8   8   8   8   8   8
#     4  10  19  35  53  80 109 148 184 222 271 344
#     4  11  18  34  56  76  99 149 195 220 267 333
#     4  10  20  33  55  87 117 139 177 233 295 339
#     4  10  19  34  55  78 106 143 190 228 267 334
#     4  11  22  34  50  77 117 145 178 233 279 320
#     4   9  18  36  57  81 105 141 186 230 279 340
#     4   9  19  35  59  81 105 147 190 227 279 342
#
# _framework density 19.294699000000001
#
# number of rings (size 3 to 8) (size 9 to 14) (size 15 to 20)
#    0.000    2.000    2.857    2.143    0.000    1.143 
#    0.000    1.429    9.429    0.000    0.000    0.000 
#    0.000    0.000    0.000    0.000    0.000    0.000 
#
# Total GULP energy -346977.335601 kJ/mol
# GULP energy per Si atom -12392.047700 kJ/mol
# Density = 1.925078 g / cm^3
# Si number density = 19.294699 Si / 1000 Ang^3
#
#
#
# Elastic Constant Matrix: (Units=GPa)
#
#
# Indices 1 2 3 4 5 6 
#
# 1 111.1492 27.5929 32.8774 0.0000 12.0311 0.0000
# 2 27.5929 94.7163 31.1593 0.0000 10.7596 0.0000
# 3 32.8774 31.1593 79.7917 0.0000 9.3686 0.0000
# 4 0.0000 0.0000 0.0000 16.7081 0.0000 3.8899
# 5 12.0311 10.7596 9.3686 0.0000 28.5543 0.0000
# 6 0.0000 0.0000 0.0000 3.8899 0.0000 28.5321
#
#
#
# Elastic Compliance Matrix: (Units=1/GPa)
#
#
# Indices 1 2 3 4 5 6 
#
# 1 0.010731 -0.001681 -0.003441 0.000000 -0.002759 0.000000
# 2 -0.001681 0.012653 -0.003923 0.000000 -0.002773 0.000000
# 3 -0.003441 -0.003923 0.015745 0.000000 -0.002238 0.000000
# 4 0.000000 0.000000 0.000000 0.061813 0.000000 -0.008427
# 5 -0.002759 -0.002773 -0.002238 0.000000 0.037962 0.000000
# 6 0.000000 0.000000 0.000000 -0.008427 0.000000 0.036197
#
#
# Mechanical properties :
#
#
# Convention : Reuss Voigt Hill
#
# Bulk Modulus (GPa) = 47.53049 52.10181 49.81615
# Shear Modulus (GPa) = 24.97448 27.69408 26.33428
#
# Velocity S-wave (km/s) = 3.60164 3.79267 3.69839
# Velocity P-wave (km/s) = 6.47944 6.80007 6.64169
#
# Compressibility (1/GPa) = 0.02103913
#
# Stress axis : x y z
#
# Youngs Moduli (GPa) = 93.19088 79.03268 63.51099
#
# Poissons Ratio (x) = 0.13282 0.21856
# Poissons Ratio (y) = 0.15661 0.24916
# Poissons Ratio (z) = 0.32069 0.31005
#
# Static dielectric constant tensor:
#      x y z
#    x 3.892960 0.000000 0.055330 
#    y 0.000000 3.635560 0.000000 
#    z 0.055330 0.000000 3.339790 
# 
# 
# High freq. dielectric constant tensor:
#      x y z
#    x 1.761630 0.000000 0.009550 
#    y 0.000000 1.747810 0.000000 
#    z 0.009550 0.000000 1.712630 
# 
# From -- ./inp_files/186661.got.cif
#   From: 2010.06.25/outbox.cif.g09.slc.cpg/sg15_94_cif.got.tgz:186661.got - 2010.06.28 07:06:18.
