data_PCOD8133618
_publ_section_title
;
Structure prediction by ZEFSAII (Michael W. Deem and Ramdas Pophale) SiO2 
 PCOD8133618
Probable space group: C 2/C
;
_chemical_formula_sum "Si O2"
_cell_formula_units_Z 48
_cell_length_a 20.332758
_cell_length_b 12.839051
_cell_length_c 11.147110
_cell_angle_alpha 90.000000
_cell_angle_beta 114.704132
_cell_angle_gamma 90.000000
_cell_volume 2643.662047
_symmetry_space_group_name_H-M "C 2/C"
_symmetry_group_IT_number 15
_symmetry_cell_setting 'monoclinic'
loop_
_space_group_symop_operation_xyz
x,y,z
-x,y,1/2-z
-x,-y,-z
x,-y,1/2+z
1/2+x,1/2+y,z
1/2-x,1/2+y,1/2-z
1/2-x,1/2-y,-z
1/2+x,1/2-y,1/2+z
loop_
_atom_site_type_symbol
_atom_site_label
_atom_site_fract_x
_atom_site_fract_y
_atom_site_fract_z
Si Si1 0.404689 0.901539 0.399218
Si Si2 0.864202 0.301912 0.124971
Si Si3 0.809520 0.694780 0.203102
Si Si4 0.762829 0.394912 0.433780
Si Si5 0.767925 0.873497 0.616499
Si Si6 0.437970 0.142380 0.442995
O O1 0.401722 0.868787 0.258087
O O2 0.332891 0.863117 0.409692
O O3 0.476148 0.849133 0.512627
O O4 0.409598 0.024283 0.423429
O O5 0.845339 0.182113 0.148802
O O6 0.787585 0.355058 0.035095
O O7 0.918605 0.302200 0.054161
O O8 0.796590 0.806952 0.134855
O O9 0.763237 0.676428 0.286713
O O10 0.895069 0.694848 0.300134
O O11 0.787779 0.604697 0.091775
O O12 0.724197 0.502212 0.366079
#
# Coordination Sequence:
#
# PCOD8133618 Si02
#       6
#     8   8   8   8   8   8
#     4  11  20  33  53  82 114 139 171 224 278 323
#     4  10  19  34  51  79 109 142 182 219 263 323
#     4  10  21  36  50  80 111 139 183 221 273 325
#     4  11  21  34  56  81 109 143 178 225 275 324
#     4  10  20  32  57  79 106 143 183 227 262 318
#     4  10  22  33  53  82 111 143 176 219 273 331
#
# _framework density 18.156632999999999
#
# number of rings (size 3 to 8) (size 9 to 14) (size 15 to 20)
#    0.000    1.667    5.000    1.500    0.000    0.667 
#    0.000    0.000    0.000    1.000    8.667    0.000 
#    0.000    0.000    0.000    0.000    0.000    0.000 
#
# Total GULP energy -297554.978722 kJ/mol
# GULP energy per Si atom -12398.124113 kJ/mol
# Density = 1.811531 g / cm^3
# Si number density = 18.156633 Si / 1000 Ang^3
#
#
#
# Elastic Constant Matrix: (Units=GPa)
#
#
# Indices 1 2 3 4 5 6 
#
# 1 59.9613 24.4160 23.2121 0.0000 8.2924 0.0000
# 2 24.4160 74.1324 25.2484 0.0000 -0.5834 0.0000
# 3 23.2121 25.2484 107.0804 0.0000 -0.2319 0.0000
# 4 0.0000 0.0000 0.0000 21.2764 0.0000 -1.5204
# 5 8.2924 -0.5834 -0.2319 0.0000 21.4234 0.0000
# 6 0.0000 0.0000 0.0000 -1.5204 0.0000 21.1651
#
#
#
# Elastic Compliance Matrix: (Units=1/GPa)
#
#
# Indices 1 2 3 4 5 6 
#
# 1 0.021598 -0.006067 -0.003270 0.000000 -0.008560 0.000000
# 2 -0.006067 0.016374 -0.002540 0.000000 0.002767 0.000000
# 3 -0.003270 -0.002540 0.010649 0.000000 0.001312 0.000000
# 4 0.000000 0.000000 0.000000 0.047243 0.000000 0.003394
# 5 -0.008560 0.002767 0.001312 0.000000 0.050081 0.000000
# 6 0.000000 0.000000 0.000000 0.003394 0.000000 0.047491
#
#
# Mechanical properties :
#
#
# Convention : Reuss Voigt Hill
#
# Bulk Modulus (GPa) = 40.21216 42.99192 41.60204
# Shear Modulus (GPa) = 22.17503 23.99282 23.08393
#
# Velocity S-wave (km/s) = 3.49853 3.63910 3.56951
# Velocity P-wave (km/s) = 6.20605 6.43328 6.32069
#
# Compressibility (1/GPa) = 0.02486810
#
# Stress axis : x y z
#
# Youngs Moduli (GPa) = 46.30159 61.07108 93.90333
#
# Poissons Ratio (x) = 0.37052 0.30704
# Poissons Ratio (y) = 0.28091 0.23849
# Poissons Ratio (z) = 0.15139 0.15510
#
# Static dielectric constant tensor:
#      x y z
#    x 3.246880 0.000000 0.056590 
#    y 0.000000 3.281440 0.000000 
#    z 0.056590 0.000000 3.568730 
# 
# 
# High freq. dielectric constant tensor:
#      x y z
#    x 1.682740 0.000000 -0.006700 
#    y 0.000000 1.686270 0.000000 
#    z -0.006700 0.000000 1.716480 
# 
# From -- ./inp_files/111213.got.cif
#   From: 2010.06.25/outbox.cif.g09.slc.cpg/sg15_56_cif.got.tgz:111213.got - 2010.06.28 07:06:18.
