data_PCOD8133482
_publ_section_title
;
Structure prediction by ZEFSAII (Michael W. Deem and Ramdas Pophale) SiO2 
 PCOD8133482
Probable space group: C 2/C
;
_chemical_formula_sum "Si O2"
_cell_formula_units_Z 52
_cell_length_a 31.433507
_cell_length_b 6.130606
_cell_length_c 16.645901
_cell_angle_alpha 90.000000
_cell_angle_beta 123.898954
_cell_angle_gamma 90.000000
_cell_volume 2662.523189
_symmetry_space_group_name_H-M "C 2/C"
_symmetry_group_IT_number 15
_symmetry_cell_setting 'monoclinic'
loop_
_space_group_symop_operation_xyz
x,y,z
-x,y,1/2-z
-x,-y,-z
x,-y,1/2+z
1/2+x,1/2+y,z
1/2-x,1/2+y,1/2-z
1/2-x,1/2-y,-z
1/2+x,1/2-y,1/2+z
loop_
_atom_site_type_symbol
_atom_site_label
_atom_site_fract_x
_atom_site_fract_y
_atom_site_fract_z
Si Si1 0.863089 0.295850 0.050083
Si Si2 0.000000 0.754958 0.250000
Si Si3 0.035012 0.804596 0.567503
Si Si4 0.230971 0.942773 0.035057
Si Si5 0.324296 0.820923 0.616886
Si Si6 0.909419 0.010448 0.736526
Si Si7 0.547273 0.994958 0.439235
O O1 0.845376 0.525058 0.068405
O O2 0.903529 0.338567 0.021393
O O3 0.887467 0.149735 0.146200
O O4 0.814632 0.163267 0.958660
O O5 0.965241 0.905662 0.269548
O O6 0.963471 0.606057 0.157438
O O7 0.059916 0.677485 0.518885
O O8 0.001762 0.642668 0.586772
O O9 0.082745 0.887018 0.670939
O O10 0.000000 0.000000 0.500000
O O11 0.282883 0.046316 0.130359
O O12 0.250000 0.750000 0.000000
O O13 0.206304 0.124561 0.953882
O O14 0.371992 0.716931 0.715471
#
# Coordination Sequence:
#
# PCOD8133482 Si02
#       7
#     8   4   8   8   8   8   8
#     4  10  19  33  56  84 114 145 198 238 293 342
#     4  12  20  36  56  80 114 154 200 246 280 336
#     4  11  24  39  51  76 125 158 197 233 289 342
#     4   8  16  30  51  84 122 133 171 249 298 344
#     4   9  17  31  53  83 120 137 184 239 298 337
#     4  11  21  33  55  80 117 156 196 242 289 347
#     4  11  23  36  54  78 117 158 199 242 285 346
#
# _framework density 19.530345000000001
#
# number of rings (size 3 to 8) (size 9 to 14) (size 15 to 20)
#    0.000    1.846    3.077    1.846    0.000    0.000 
#    0.000    0.000    0.000    0.000    0.000    0.000 
#  383.077    0.000    0.000    0.000    0.000    1.231 
#
# Total GULP energy -322138.310365 kJ/mol
# GULP energy per Si atom -12389.935014 kJ/mol
# Density = 1.948589 g / cm^3
# Si number density = 19.530345 Si / 1000 Ang^3
#
#
#
# Elastic Constant Matrix: (Units=GPa)
#
#
# Indices 1 2 3 4 5 6 
#
# 1 109.5906 41.9224 51.0930 -0.0001 18.5129 -0.0001
# 2 41.9224 95.8868 33.3901 0.0001 10.0852 0.0002
# 3 51.0930 33.3901 68.8907 -0.0001 5.2426 0.0000
# 4 -0.0001 0.0001 -0.0001 30.7159 0.0000 10.2743
# 5 18.5129 10.0852 5.2426 0.0000 27.3525 0.0000
# 6 -0.0001 0.0002 0.0000 10.2743 0.0000 47.6464
#
#
#
# Elastic Compliance Matrix: (Units=1/GPa)
#
#
# Indices 1 2 3 4 5 6 
#
# 1 0.016244 -0.002735 -0.010109 0.000000 -0.008048 0.000000
# 2 -0.002735 0.013349 -0.004270 0.000000 -0.002252 0.000000
# 3 -0.010109 -0.004270 0.023789 0.000000 0.003857 0.000000
# 4 0.000000 0.000000 0.000000 0.035087 0.000000 -0.007566
# 5 -0.008048 -0.002252 0.003857 0.000000 0.042098 0.000000
# 6 0.000000 0.000000 0.000000 -0.007566 0.000000 0.022619
#
#
# Mechanical properties :
#
#
# Convention : Reuss Voigt Hill
#
# Bulk Modulus (GPa) = 52.21040 58.57546 55.39293
# Shear Modulus (GPa) = 25.79993 31.00713 28.40353
#
# Velocity S-wave (km/s) = 3.63852 3.98884 3.81770
# Velocity P-wave (km/s) = 6.66654 7.16042 6.91789
#
# Compressibility (1/GPa) = 0.01915327
#
# Stress axis : x y z
#
# Youngs Moduli (GPa) = 61.56212 74.91453 42.03585
#
# Poissons Ratio (x) = 0.20490 0.42494
# Poissons Ratio (y) = 0.16838 0.17949
# Poissons Ratio (z) = 0.62234 0.31987
#
# Static dielectric constant tensor:
#      x y z
#    x 4.024880 0.000000 0.568690 
#    y 0.000000 4.276560 0.000000 
#    z 0.568690 0.000000 3.433210 
# 
# 
# High freq. dielectric constant tensor:
#      x y z
#    x 1.759190 0.000000 0.036620 
#    y 0.000000 1.792530 0.000000 
#    z 0.036620 0.000000 1.714700 
# 
# From -- ./inp_files/220980.got.cif
#   From: 2010.06.25/outbox.cif.g09.slc.cpg/sg15_111_cif.got.tgz:220980.got - 2010.06.28 07:06:18.
