data_PCOD8133620
_publ_section_title
;
Structure prediction by ZEFSAII (Michael W. Deem and Ramdas Pophale) SiO2 
 PCOD8133620
Probable space group: C 2/C
;
_chemical_formula_sum "Si O2"
_cell_formula_units_Z 64
_cell_length_a 20.852822
_cell_length_b 23.430453
_cell_length_c 8.492188
_cell_angle_alpha 90.000000
_cell_angle_beta 65.968580
_cell_angle_gamma 90.000000
_cell_volume 3789.563338
_symmetry_space_group_name_H-M "C 2/C"
_symmetry_group_IT_number 15
_symmetry_cell_setting 'monoclinic'
loop_
_space_group_symop_operation_xyz
x,y,z
-x,y,1/2-z
-x,-y,-z
x,-y,1/2+z
1/2+x,1/2+y,z
1/2-x,1/2+y,1/2-z
1/2-x,1/2-y,-z
1/2+x,1/2-y,1/2+z
loop_
_atom_site_type_symbol
_atom_site_label
_atom_site_fract_x
_atom_site_fract_y
_atom_site_fract_z
Si Si1 0.142806 0.938283 0.293108
Si Si2 0.234746 0.165711 0.699420
Si Si3 0.734741 0.334285 0.831092
Si Si4 0.857197 0.938281 0.578725
Si Si5 0.999998 0.753269 0.063111
Si Si6 0.645862 0.233651 0.420273
Si Si7 0.500002 0.383899 0.437397
Si Si8 0.354143 0.766352 0.211986
O O1 0.204935 0.895565 0.282864
O O2 0.068453 0.916218 0.436973
O O3 0.162174 0.000002 0.337819
O O4 0.136744 0.940305 0.113252
O O5 0.251826 0.167084 0.498173
O O6 0.175395 0.212723 0.793785
O O7 0.305918 0.178373 0.724431
O O8 0.704928 0.395561 0.807264
O O9 0.805910 0.321622 0.663731
O O10 0.675390 0.287272 0.855446
O O11 0.931552 0.916218 0.573878
O O12 0.000000 0.748360 0.250000
O O13 0.932604 0.721013 0.059649
O O14 0.999997 0.818707 0.003441
O O15 0.067389 0.721012 0.924856
O O16 0.648019 0.247613 0.601985
O O17 0.500000 0.384045 0.250000
#
# Coordination Sequence:
#
# PCOD8133620 Si02
#       8
#     8   8   8   8   8   8   8   8
#     4  10  20  33  50  71  98 134 176 211 246 291
#     4  10  19  34  52  70  96 137 174 203 248 307
#     4  10  19  34  52  70  96 137 174 203 248 307
#     4  10  20  33  50  71  98 134 176 211 246 291
#     4  11  19  34  54  72 100 137 172 201 245 312
#     4  11  21  32  49  76 103 126 163 215 260 294
#     4   9  17  32  48  68  97 134 174 206 233 286
#     4  11  21  32  49  76 103 126 163 215 260 294
#
# _framework density 16.888489
#
# number of rings (size 3 to 8) (size 9 to 14) (size 15 to 20)
#    0.000    1.750    2.500    5.250    0.000    2.000 
#    0.000    0.000    0.000    0.000    0.000    0.875 
#    0.000    0.000    0.000    0.000    0.000    0.000 
#
# Total GULP energy -396859.359264 kJ/mol
# GULP energy per Si atom -12401.854977 kJ/mol
# Density = 1.685005 g / cm^3
# Si number density = 16.888489 Si / 1000 Ang^3
#
#
#
# Elastic Constant Matrix: (Units=GPa)
#
#
# Indices 1 2 3 4 5 6 
#
# 1 105.0106 52.0826 29.6881 0.0000 -25.4535 0.0000
# 2 52.0826 102.0911 29.5494 0.0000 -16.4112 0.0000
# 3 29.6881 29.5494 49.9176 0.0000 -14.6761 0.0000
# 4 0.0000 0.0000 0.0000 19.6495 0.0000 6.5678
# 5 -25.4535 -16.4112 -14.6761 0.0000 28.0369 0.0000
# 6 0.0000 0.0000 0.0000 6.5678 0.0000 10.6293
#
#
#
# Elastic Compliance Matrix: (Units=1/GPa)
#
#
# Indices 1 2 3 4 5 6 
#
# 1 0.015321 -0.005424 -0.003244 0.000000 0.009035 0.000000
# 2 -0.005424 0.014103 -0.004897 0.000000 0.000767 0.000000
# 3 -0.003244 -0.004897 0.027364 0.000000 0.008512 0.000000
# 4 0.000000 0.000000 0.000000 0.064138 0.000000 -0.039631
# 5 0.009035 0.000767 0.008512 0.000000 0.048775 0.000000
# 6 0.000000 0.000000 0.000000 -0.039631 0.000000 0.118567
#
#
# Mechanical properties :
#
#
# Convention : Reuss Voigt Hill
#
# Bulk Modulus (GPa) = 33.71928 53.29547 43.50738
# Shear Modulus (GPa) = 15.37115 21.37643 18.37379
#
# Velocity S-wave (km/s) = 3.02015 3.56158 3.30198
# Velocity P-wave (km/s) = 5.67194 6.96699 6.35255
#
# Compressibility (1/GPa) = 0.02965663
#
# Stress axis : x y z
#
# Youngs Moduli (GPa) = 65.27197 70.90599 36.54459
#
# Poissons Ratio (x) = 0.38462 0.11856
# Poissons Ratio (y) = 0.35406 0.17895
# Poissons Ratio (z) = 0.21176 0.34722
#
# Static dielectric constant tensor:
#      x y z
#    x 3.286890 0.000000 -0.138090 
#    y 0.000000 3.368250 0.000000 
#    z -0.138090 0.000000 3.097240 
# 
# 
# High freq. dielectric constant tensor:
#      x y z
#    x 1.650490 0.000000 -0.000110 
#    y 0.000000 1.620800 0.000000 
#    z -0.000110 0.000000 1.650350 
# 
# From -- ./inp_files/58469.got.cif
#   From: 2010.06.25/outbox.cif.g09.slc.cpg/sg15_30_cif.got.tgz:58469.got - 2010.06.28 07:06:18.
