data_PCOD8133630
_publ_section_title
;
Structure prediction by ZEFSAII (Michael W. Deem and Ramdas Pophale) SiO2 
 PCOD8133630
Probable space group: C 2/C
;
_chemical_formula_sum "Si O2"
_cell_formula_units_Z 40
_cell_length_a 21.019085
_cell_length_b 10.733002
_cell_length_c 19.990501
_cell_angle_alpha 90.000000
_cell_angle_beta 157.613429
_cell_angle_gamma 90.000000
_cell_volume 1717.579472
_symmetry_space_group_name_H-M "C 2/C"
_symmetry_group_IT_number 15
_symmetry_cell_setting 'monoclinic'
loop_
_space_group_symop_operation_xyz
x,y,z
-x,y,1/2-z
-x,-y,-z
x,-y,1/2+z
1/2+x,1/2+y,z
1/2-x,1/2+y,1/2-z
1/2-x,1/2-y,-z
1/2+x,1/2-y,1/2+z
loop_
_atom_site_type_symbol
_atom_site_label
_atom_site_fract_x
_atom_site_fract_y
_atom_site_fract_z
Si Si1 0.657291 0.837814 0.672030
Si Si2 0.032627 0.069498 0.964077
Si Si3 0.693643 0.666027 0.582450
Si Si4 0.330167 0.074724 0.910619
Si Si5 0.044458 0.609527 0.869826
O O1 0.669013 0.719090 0.633799
O O2 0.478247 0.829806 0.535451
O O3 0.673732 0.963882 0.646584
O O4 0.809994 0.836169 0.874521
O O5 0.857393 0.138807 0.771247
O O6 0.000000 0.000000 0.000000
O O7 0.079764 0.956511 0.958701
O O8 0.885371 0.625338 0.763435
O O9 0.656994 0.767385 0.489389
O O10 0.360244 0.014805 0.013142
O O11 0.000000 0.591831 0.750000
#
# Coordination Sequence:
#
# PCOD8133630 Si02
#       5
#     8   8   8   8   8
#     4   9  18  34  51  74 108 145 184 233 272 332
#     4  10  19  34  52  78 111 148 178 228 288 334
#     4  11  21  34  53  81 116 154 188 226 279 337
#     4   9  18  34  51  72 107 148 185 226 271 329
#     4  11  21  34  51  77 116 158 191 224 269 341
#
# _framework density 23.288588000000001
#
# number of rings (size 3 to 8) (size 9 to 14) (size 15 to 20)
#    0.000    2.000    2.000    4.200    2.800    0.000 
#    3.600    0.000    0.000    0.000    0.000    0.000 
#    0.000   32.000    0.000    0.000    0.000    0.000 
#
# Total GULP energy -247913.445271 kJ/mol
# GULP energy per Si atom -12395.672264 kJ/mol
# Density = 2.323558 g / cm^3
# Si number density = 23.288588 Si / 1000 Ang^3
#
#
#
# Elastic Constant Matrix: (Units=GPa)
#
#
# Indices 1 2 3 4 5 6 
#
# 1 58.3839 38.8972 60.6949 -0.0051 -5.6191 -0.0001
# 2 38.8972 63.4304 66.4638 -0.0201 13.4772 -0.0080
# 3 60.6949 66.4638 197.5833 -0.0221 15.0537 -0.0105
# 4 -0.0051 -0.0201 -0.0221 53.1665 -0.0114 12.2007
# 5 -5.6191 13.4772 15.0537 -0.0114 44.1135 -0.0027
# 6 -0.0001 -0.0080 -0.0105 12.2007 -0.0027 19.4409
#
#
#
# Elastic Compliance Matrix: (Units=1/GPa)
#
#
# Indices 1 2 3 4 5 6 
#
# 1 0.037520 -0.019496 -0.005940 -0.000002 0.012763 -0.000008
# 2 -0.019496 0.035495 -0.005067 0.000005 -0.011598 0.000007
# 3 -0.005940 -0.005067 0.008758 0.000000 -0.002197 0.000002
# 4 -0.000002 0.000005 0.000000 0.021973 0.000003 -0.013790
# 5 0.012763 -0.011598 -0.002197 0.000003 0.028588 -0.000004
# 6 -0.000008 0.000007 0.000002 -0.013790 -0.000004 0.060092
#
#
# Mechanical properties :
#
#
# Convention : Reuss Voigt Hill
#
# Bulk Modulus (GPa) = 48.15521 72.38993 60.27257
# Shear Modulus (GPa) = 19.20458 33.56695 26.38576
#
# Velocity S-wave (km/s) = 2.87476 3.80063 3.36965
# Velocity P-wave (km/s) = 5.63396 7.10007 6.40908
#
# Compressibility (1/GPa) = 0.02076619
#
# Stress axis : x y z
#
# Youngs Moduli (GPa) = 26.65226 28.17322 114.18460
#
# Poissons Ratio (x) = 0.54927 0.67825
# Poissons Ratio (y) = 0.51962 0.57860
# Poissons Ratio (z) = 0.15831 0.14276
#
# Static dielectric constant tensor:
#      x y z
#    x 3.807200 -0.000060 0.525250 
#    y -0.000060 5.616870 -0.000010 
#    z 0.525250 -0.000010 5.283700 
# 
# 
# High freq. dielectric constant tensor:
#      x y z
#    x 1.853350 0.000000 0.037560 
#    y 0.000000 1.941850 0.000000 
#    z 0.037560 0.000000 1.945560 
# 
# From -- ./inp_files/255521.got.cif
#   From: 2010.06.25/outbox.cif.g09.slc.cpg/sg15_128_cif.got.tgz:255521.got - 2010.06.28 07:06:18.
