data_PCOD8133996
_publ_section_title
;
Structure prediction by ZEFSAII (Michael W. Deem and Ramdas Pophale) SiO2 
 PCOD8133996
Probable space group: C 2/C
;
_chemical_formula_sum "Si O2"
_cell_formula_units_Z 52
_cell_length_a 16.560696
_cell_length_b 25.519614
_cell_length_c 8.735406
_cell_angle_alpha 90.000000
_cell_angle_beta 137.077034
_cell_angle_gamma 90.000000
_cell_volume 2514.155309
_symmetry_space_group_name_H-M "C 2/C"
_symmetry_group_IT_number 15
_symmetry_cell_setting 'monoclinic'
loop_
_space_group_symop_operation_xyz
x,y,z
-x,y,1/2-z
-x,-y,-z
x,-y,1/2+z
1/2+x,1/2+y,z
1/2-x,1/2+y,1/2-z
1/2-x,1/2-y,-z
1/2+x,1/2-y,1/2+z
loop_
_atom_site_type_symbol
_atom_site_label
_atom_site_fract_x
_atom_site_fract_y
_atom_site_fract_z
Si Si1 0.000000 0.837627 0.250000
Si Si2 0.500000 0.678328 0.250000
Si Si3 0.500000 0.520067 0.250000
Si Si4 0.364523 0.942614 0.608215
Si Si5 0.355542 0.273172 0.287401
Si Si6 0.240196 0.981107 0.715952
Si Si7 0.100237 0.099444 0.170256
Si Si8 0.133757 0.322128 0.883995
O O1 0.903741 0.801025 0.199504
O O2 0.057874 0.875668 0.454123
O O3 0.564729 0.716320 0.456402
O O4 0.601494 0.643757 0.305053
O O5 0.617660 0.486328 0.448764
O O6 0.512456 0.554470 0.112479
O O7 0.500000 0.950533 0.750000
O O8 0.346292 0.970390 0.745576
O O9 0.329150 0.882223 0.582257
O O10 0.277005 0.967017 0.359397
O O11 0.351916 0.210447 0.255038
O O12 0.222919 0.295518 0.131337
O O13 0.224693 0.930829 0.809714
O O14 0.000000 0.316589 0.750000
#
# Coordination Sequence:
#
# PCOD8133996 Si02
#       8
#     4   4   4   8   8   8   8   8
#     4  10  19  34  67  94 124 159 200 247 324 386
#     4   9  22  38  63 100 134 155 192 258 329 376
#     4  11  23  36  56 100 130 162 192 261 323 360
#     4  11  26  43  65  83 123 173 223 250 297 358
#     4  10  20  40  68  90 126 156 202 260 318 374
#     4  12  23  40  62  91 129 164 207 260 306 370
#     4  10  21  34  58  98 133 155 194 247 325 379
#     4  10  22  40  64  90 117 167 214 251 300 379
#
# _framework density 20.68289
#
# number of rings (size 3 to 8) (size 9 to 14) (size 15 to 20)
#    0.000    1.538    2.308    2.308    8.615    0.000 
#    0.000    0.769    8.462    0.000    0.000    0.000 
#    0.000    0.000    0.000    0.000    0.000    0.000 
#
# Total GULP energy -322208.246874 kJ/mol
# GULP energy per Si atom -12392.624880 kJ/mol
# Density = 2.063581 g / cm^3
# Si number density = 20.682890 Si / 1000 Ang^3
#
#
#
# Elastic Constant Matrix: (Units=GPa)
#
#
# Indices 1 2 3 4 5 6 
#
# 1 107.9327 51.2612 43.7049 0.0000 -9.4579 0.0000
# 2 51.2612 143.6477 66.5893 0.0000 -8.1326 0.0000
# 3 43.7049 66.5893 110.5916 0.0000 -4.6275 0.0000
# 4 0.0000 0.0000 0.0000 27.8198 0.0000 -19.8709
# 5 -9.4579 -8.1326 -4.6275 0.0000 31.6186 0.0000
# 6 0.0000 0.0000 0.0000 -19.8709 0.0000 -440.5530
#
#
#
# Elastic Compliance Matrix: (Units=1/GPa)
#
#
# Indices 1 2 3 4 5 6 
#
# 1 0.011996 -0.002764 -0.002974 0.000000 0.002442 0.000000
# 2 -0.002764 0.010379 -0.005111 0.000000 0.001095 0.000000
# 3 -0.002974 -0.005111 0.013285 0.000000 -0.000260 0.000000
# 4 0.000000 0.000000 0.000000 0.034824 0.000000 -0.001571
# 5 0.002442 0.001095 -0.000260 0.000000 0.032601 0.000000
# 6 0.000000 0.000000 0.000000 -0.001571 0.000000 -0.002199
#
#
# Mechanical properties :
#
#
# Convention : Reuss Voigt Hill
#
# Bulk Modulus (GPa) = 71.63077 76.14253 73.88665
# Shear Modulus (GPa) = 39.29631 -62.84847 -11.77608
#
# Velocity S-wave (km/s) = 4.36356 -5.51839 -2.38872
# Velocity P-wave (km/s) = 7.75214 1.92597 5.30972
#
# Compressibility (1/GPa) = 0.01396048
#
# Stress axis : x y z
#
# Youngs Moduli (GPa) = 83.36065 96.34660 75.27512
#
# Poissons Ratio (x) = 0.26628 0.22390
# Poissons Ratio (y) = 0.23039 0.38477
# Poissons Ratio (z) = 0.24795 0.49248
#
# Static dielectric constant tensor:
#      x y z
#    x 3.968830 0.000000 -0.014320 
#    y 0.000000 3.996080 0.000000 
#    z -0.014320 0.000000 3.479120 
# 
# 
# High freq. dielectric constant tensor:
#      x y z
#    x 1.815250 0.000000 -0.001200 
#    y 0.000000 1.821020 0.000000 
#    z -0.001200 0.000000 1.783230 
# 
# From -- ./inp_files/43680.got.cif
#   From: 2010.06.25/outbox.cif.g09.slc.cpg/sg15_22_cif.got.tgz:43680.got - 2010.06.28 07:06:18.
