data_PCOD8133177
_publ_section_title
;
Structure prediction by ZEFSAII (Michael W. Deem and Ramdas Pophale) SiO2 
 PCOD8133177
Probable space group: C 2/C
;
_chemical_formula_sum "Si O2"
_cell_formula_units_Z 56
_cell_length_a 8.810670
_cell_length_b 34.053029
_cell_length_c 12.491163
_cell_angle_alpha 90.000000
_cell_angle_beta 132.820290
_cell_angle_gamma 90.000000
_cell_volume 2748.914857
_symmetry_space_group_name_H-M "C 2/C"
_symmetry_group_IT_number 15
_symmetry_cell_setting 'monoclinic'
loop_
_space_group_symop_operation_xyz
x,y,z
-x,y,1/2-z
-x,-y,-z
x,-y,1/2+z
1/2+x,1/2+y,z
1/2-x,1/2+y,1/2-z
1/2-x,1/2-y,-z
1/2+x,1/2-y,1/2+z
loop_
_atom_site_type_symbol
_atom_site_label
_atom_site_fract_x
_atom_site_fract_y
_atom_site_fract_z
Si Si1 0.474426 0.879775 0.413027
Si Si2 0.420918 0.298319 0.963219
Si Si3 0.157228 0.964575 0.082940
Si Si4 0.976391 0.534079 0.906324
Si Si5 0.235624 0.184152 0.894131
Si Si6 0.687003 0.758526 0.257600
Si Si7 0.164497 0.877140 0.065103
O O1 0.493657 0.923436 0.470336
O O2 0.389198 0.853193 0.468931
O O3 0.311854 0.876055 0.238328
O O4 0.700139 0.867874 0.476135
O O5 0.259949 0.296367 0.985604
O O6 0.606927 0.267710 0.076864
O O7 0.491559 0.343573 0.987898
O O8 0.314762 0.284660 0.800269
O O9 0.344576 0.971474 0.093127
O O10 0.248894 0.967290 0.245866
O O11 0.061363 0.920984 0.013073
O O12 0.000000 0.000000 0.000000
O O13 0.000000 0.500000 0.000000
O O14 0.334173 0.212377 0.852793
O O15 0.000000 0.172675 0.750000
O O16 0.500000 0.763951 0.250000
#
# Coordination Sequence:
#
# PCOD8133177 Si02
#       7
#     8   8   8   8   8   8   8
#     4   9  16  32  55  79 108 142 190 232 269 324
#     4  11  22  36  57  82 112 139 190 233 281 327
#     4   9  19  35  58  84 114 150 187 232 280 333
#     4   9  19  34  54  87 114 144 189 232 280 335
#     4  10  19  32  54  85 109 138 187 236 277 323
#     4  11  22  37  56  80 109 148 183 230 276 340
#     4   9  17  33  58  79 106 147 192 229 268 334
#
# _framework density 20.371676000000001
#
# number of rings (size 3 to 8) (size 9 to 14) (size 15 to 20)
#    0.000    2.286    2.857    3.429    0.000    1.714 
#    0.000    0.000    9.429    0.000    7.429    0.000 
#    0.000    0.000    0.000    0.000    0.000    0.000 
#
# Total GULP energy -346957.478002 kJ/mol
# GULP energy per Si atom -12391.338500 kJ/mol
# Density = 2.032531 g / cm^3
# Si number density = 20.371676 Si / 1000 Ang^3
#
#
#
# Elastic Constant Matrix: (Units=GPa)
#
#
# Indices 1 2 3 4 5 6 
#
# 1 115.9773 54.6401 18.4187 0.0000 -10.6688 0.0000
# 2 54.6401 135.7846 35.3687 0.0000 2.1502 0.0000
# 3 18.4187 35.3687 31.9846 0.0000 -2.1649 0.0000
# 4 0.0000 0.0000 0.0000 31.9643 0.0000 -0.7599
# 5 -10.6688 2.1502 -2.1649 0.0000 16.9946 0.0000
# 6 0.0000 0.0000 0.0000 -0.7599 0.0000 37.7871
#
#
#
# Elastic Compliance Matrix: (Units=1/GPa)
#
#
# Indices 1 2 3 4 5 6 
#
# 1 0.011641 -0.004490 -0.001216 0.000000 0.007721 0.000000
# 2 -0.004490 0.012209 -0.011308 0.000000 -0.005804 0.000000
# 3 -0.001216 -0.011308 0.044902 0.000000 0.006387 0.000000
# 4 0.000000 0.000000 0.000000 0.031300 0.000000 0.000629
# 5 0.007721 -0.005804 0.006387 0.000000 0.065237 0.000000
# 6 0.000000 0.000000 0.000000 0.000629 0.000000 0.026477
#
#
# Mechanical properties :
#
#
# Convention : Reuss Voigt Hill
#
# Bulk Modulus (GPa) = 28.79838 55.62237 42.21037
# Shear Modulus (GPa) = 21.06441 29.03713 25.05077
#
# Velocity S-wave (km/s) = 3.21908 3.77950 3.51049
# Velocity P-wave (km/s) = 5.28997 6.81243 6.09890
#
# Compressibility (1/GPa) = 0.03472418
#
# Stress axis : x y z
#
# Youngs Moduli (GPa) = 85.90255 81.90926 22.27089
#
# Poissons Ratio (x) = 0.36777 0.02708
# Poissons Ratio (y) = 0.38570 0.25183
# Poissons Ratio (z) = 0.10446 0.92620
#
# Static dielectric constant tensor:
#      x y z
#    x 3.873580 0.000000 -0.064420 
#    y 0.000000 3.926920 0.000000 
#    z -0.064420 0.000000 3.219270 
# 
# 
# High freq. dielectric constant tensor:
#      x y z
#    x 1.801950 0.000000 -0.002560 
#    y 0.000000 1.806320 0.000000 
#    z -0.002560 0.000000 1.746110 
# 
# From -- ./inp_files/139561.got.cif
#   From: 2010.06.25/outbox.cif.g09.slc.cpg/sg15_70_cif.got.tgz:139561.got - 2010.06.28 07:06:18.
