data_PCOD8133335
_publ_section_title
;
Structure prediction by ZEFSAII (Michael W. Deem and Ramdas Pophale) SiO2 
 PCOD8133335
Probable space group: C 2/C
;
_chemical_formula_sum "Si O2"
_cell_formula_units_Z 48
_cell_length_a 25.960872
_cell_length_b 14.393241
_cell_length_c 21.455864
_cell_angle_alpha 90.000000
_cell_angle_beta 162.709238
_cell_angle_gamma 90.000000
_cell_volume 2382.886028
_symmetry_space_group_name_H-M "C 2/C"
_symmetry_group_IT_number 15
_symmetry_cell_setting 'monoclinic'
loop_
_space_group_symop_operation_xyz
x,y,z
-x,y,1/2-z
-x,-y,-z
x,-y,1/2+z
1/2+x,1/2+y,z
1/2-x,1/2+y,1/2-z
1/2-x,1/2-y,-z
1/2+x,1/2-y,1/2+z
loop_
_atom_site_type_symbol
_atom_site_label
_atom_site_fract_x
_atom_site_fract_y
_atom_site_fract_z
Si Si1 0.924131 0.012506 0.488601
Si Si2 0.861237 0.659046 0.038862
Si Si3 0.422820 0.792297 0.945910
Si Si4 0.986766 0.864495 0.166274
Si Si5 0.153917 0.870707 0.712936
Si Si6 0.661664 0.130215 0.625264
O O1 0.957841 0.095330 0.477402
O O2 0.877181 0.060899 0.499477
O O3 0.765491 0.949333 0.281931
O O4 0.103920 0.951499 0.704818
O O5 0.000000 0.621775 0.250000
O O6 0.888358 0.767530 0.056886
O O7 0.672009 0.647434 0.848215
O O8 0.879968 0.603313 0.994759
O O9 0.355151 0.859124 0.924778
O O10 0.261191 0.728837 0.739157
O O11 0.581081 0.728275 0.152996
O O12 0.482980 0.855212 0.957271
O O13 0.000000 0.908546 0.250000
#
# Coordination Sequence:
#
# PCOD8133335 Si02
#       6
#     8   8   8   8   8   8
#     4  10  20  33  50  75 108 139 174 225 275 308
#     4  11  21  34  54  77 107 145 184 215 253 318
#     4   9  17  30  50  73 102 136 174 211 260 319
#     4  11  22  37  55  76 108 147 181 217 263 319
#     4   9  17  30  47  72 100 131 168 214 263 309
#     4  10  19  33  53  79 109 142 177 222 266 313
#
# _framework density 20.143640999999999
#
# number of rings (size 3 to 8) (size 9 to 14) (size 15 to 20)
#    0.000    2.000    0.000    8.000    0.000    2.000 
#    0.000    3.333    0.000    0.000    0.000   18.667 
#    0.000   10.667    0.000    2.167    0.000    0.000 
#
# Total GULP energy -297332.842525 kJ/mol
# GULP energy per Si atom -12388.868439 kJ/mol
# Density = 2.009779 g / cm^3
# Si number density = 20.143641 Si / 1000 Ang^3
#
#
#
# Elastic Constant Matrix: (Units=GPa)
#
#
# Indices 1 2 3 4 5 6 
#
# 1 90.7785 42.5279 43.0065 -0.0252 6.0562 -0.0175
# 2 42.5279 73.7386 34.0670 -0.0062 1.9335 0.0010
# 3 43.0065 34.0670 67.8400 -0.0118 7.4025 -0.0198
# 4 -0.0252 -0.0062 -0.0118 14.7923 -0.0138 -6.8916
# 5 6.0562 1.9335 7.4025 -0.0138 40.0000 -0.0076
# 6 -0.0175 0.0010 -0.0198 -6.8916 -0.0076 29.9832
#
#
#
# Elastic Compliance Matrix: (Units=1/GPa)
#
#
# Indices 1 2 3 4 5 6 
#
# 1 0.017962 -0.006668 -0.007937 0.000026 -0.000928 0.000011
# 2 -0.006668 0.020159 -0.006021 -0.000012 0.001149 -0.000011
# 3 -0.007937 -0.006021 0.023099 0.000005 -0.002782 0.000011
# 4 0.000026 -0.000012 0.000005 0.075710 0.000025 0.017402
# 5 -0.000928 0.001149 -0.002782 0.000025 0.025600 0.000010
# 6 0.000011 -0.000011 0.000011 0.017402 0.000010 0.037352
#
#
# Mechanical properties :
#
#
# Convention : Reuss Voigt Hill
#
# Bulk Modulus (GPa) = 50.08182 52.39554 51.23868
# Shear Modulus (GPa) = 20.17839 24.47218 22.32528
#
# Velocity S-wave (km/s) = 3.16844 3.48930 3.33273
# Velocity P-wave (km/s) = 6.18883 6.50392 6.34833
#
# Compressibility (1/GPa) = 0.01996732
#
# Stress axis : x y z
#
# Youngs Moduli (GPa) = 55.67398 49.60603 43.29124
#
# Poissons Ratio (x) = 0.33078 0.34360
# Poissons Ratio (y) = 0.37124 0.26067
# Poissons Ratio (z) = 0.44188 0.29870
#
# Static dielectric constant tensor:
#      x y z
#    x 3.972900 -0.000060 0.302220 
#    y -0.000060 3.801390 -0.000050 
#    z 0.302220 -0.000050 3.466710 
# 
# 
# High freq. dielectric constant tensor:
#      x y z
#    x 1.773530 0.000000 0.043680 
#    y 0.000000 1.777920 0.000000 
#    z 0.043680 0.000000 1.760700 
# 
# From -- ./inp_files/255723.got.cif
#   From: 2010.06.25/outbox.cif.g09.slc.cpg/sg15_128_cif.got.tgz:255723.got - 2010.06.28 07:06:18.
