data_PCOD8133542
_publ_section_title
;
Structure prediction by ZEFSAII (Michael W. Deem and Ramdas Pophale) SiO2 
 PCOD8133542
Probable space group: C 2/C
;
_chemical_formula_sum "Si O2"
_cell_formula_units_Z 64
_cell_length_a 7.853913
_cell_length_b 19.352482
_cell_length_c 22.223437
_cell_angle_alpha 90.000000
_cell_angle_beta 113.449362
_cell_angle_gamma 90.000000
_cell_volume 3098.835075
_symmetry_space_group_name_H-M "C 2/C"
_symmetry_group_IT_number 15
_symmetry_cell_setting 'monoclinic'
loop_
_space_group_symop_operation_xyz
x,y,z
-x,y,1/2-z
-x,-y,-z
x,-y,1/2+z
1/2+x,1/2+y,z
1/2-x,1/2+y,1/2-z
1/2-x,1/2-y,-z
1/2+x,1/2-y,1/2+z
loop_
_atom_site_type_symbol
_atom_site_label
_atom_site_fract_x
_atom_site_fract_y
_atom_site_fract_z
Si Si1 0.316794 0.529445 0.258524
Si Si2 0.683340 0.738791 0.236408
Si Si3 0.114861 0.589753 0.475431
Si Si4 0.012839 0.081711 0.504203
Si Si5 0.645779 0.109481 0.717444
Si Si6 0.975555 0.126968 0.365959
Si Si7 0.649791 0.865239 0.655924
Si Si8 0.577587 0.931422 0.430874
O O1 0.500000 0.553633 0.250000
O O2 0.297880 0.447206 0.257721
O O3 0.351045 0.559818 0.329942
O O4 0.147169 0.567640 0.200097
O O5 0.500000 0.742971 0.250000
O O6 0.744950 0.815899 0.225428
O O7 0.640302 0.694716 0.170388
O O8 0.840368 0.702798 0.300181
O O9 0.334041 0.606291 0.518071
O O10 0.084940 0.512207 0.446892
O O11 0.035843 0.638174 0.410519
O O12 0.005079 0.605418 0.521304
O O13 0.218650 0.099516 0.558034
O O14 0.996120 0.122119 0.439485
O O15 0.000000 0.000000 0.500000
O O16 0.500000 0.110914 0.750000
O O17 0.556696 0.085956 0.642559
O O18 0.179051 0.128135 0.365850
#
# Coordination Sequence:
#
# PCOD8133542 Si02
#       8
#     8   8   8   8   8   8   8   8
#     4   9  19  30  54  82 111 148 187 244 298 343
#     4   8  18  35  59  81 109 159 200 238 287 356
#     4  10  19  33  58  87 120 152 191 240 298 358
#     4  10  21  32  54  89 118 146 191 246 293 346
#     4  11  22  37  56  82 120 152 197 241 300 356
#     4   9  17  34  57  81 113 147 199 243 286 343
#     4   9  15  34  58  84 111 150 199 240 288 348
#     4  10  21  37  54  87 122 154 188 241 305 352
#
# _framework density 20.652923999999999
#
# number of rings (size 3 to 8) (size 9 to 14) (size 15 to 20)
#    0.000    2.500    2.500    1.500    3.500    0.000 
#    0.000    3.750    0.000    0.750    0.000    0.000 
#    0.000    0.000    0.000    0.000    0.000    0.000 
#
# Total GULP energy -396454.411823 kJ/mol
# GULP energy per Si atom -12389.200369 kJ/mol
# Density = 2.060592 g / cm^3
# Si number density = 20.652924 Si / 1000 Ang^3
#
#
#
# Elastic Constant Matrix: (Units=GPa)
#
#
# Indices 1 2 3 4 5 6 
#
# 1 64.5584 11.1901 9.2175 0.0000 15.9938 0.0000
# 2 11.1901 111.5076 27.6908 0.0000 3.9184 0.0000
# 3 9.2175 27.6908 60.3308 0.0000 2.4262 0.0000
# 4 0.0000 0.0000 0.0000 -5.5579 0.0000 15.7849
# 5 15.9938 3.9184 2.4262 0.0000 25.9059 0.0000
# 6 0.0000 0.0000 0.0000 15.7849 0.0000 10.5237
#
#
#
# Elastic Compliance Matrix: (Units=1/GPa)
#
#
# Indices 1 2 3 4 5 6 
#
# 1 0.018723 -0.001000 -0.001950 0.000000 -0.011225 0.000000
# 2 -0.001000 0.010206 -0.004512 0.000000 -0.000504 0.000000
# 3 -0.001950 -0.004512 0.018939 0.000000 0.000113 0.000000
# 4 0.000000 0.000000 0.000000 -0.034207 0.000000 0.051308
# 5 -0.011225 -0.000504 0.000113 0.000000 0.045597 0.000000
# 6 0.000000 0.000000 0.000000 0.051308 0.000000 0.018065
#
#
# Mechanical properties :
#
#
# Convention : Reuss Voigt Hill
#
# Bulk Modulus (GPa) = 30.35365 36.95485 33.65425
# Shear Modulus (GPa) = 48.43592 18.72758 33.58175
#
# Velocity S-wave (km/s) = 4.84801 3.01454 4.03675
# Velocity P-wave (km/s) = 6.78724 5.48167 6.16909
#
# Compressibility (1/GPa) = 0.03294497
#
# Stress axis : x y z
#
# Youngs Moduli (GPa) = 53.41158 97.97762 52.80003
#
# Poissons Ratio (x) = 0.09799 0.10296
# Poissons Ratio (y) = 0.05342 0.23821
# Poissons Ratio (z) = 0.10415 0.44203
#
# Static dielectric constant tensor:
#      x y z
#    x 3.778670 0.000000 0.094710 
#    y 0.000000 3.849710 0.000000 
#    z 0.094710 0.000000 3.780250 
# 
# 
# High freq. dielectric constant tensor:
#      x y z
#    x 1.796310 0.000000 0.003330 
#    y 0.000000 1.776260 0.000000 
#    z 0.003330 0.000000 1.804400 
# 
# From -- ./inp_files/265939.got.cif
#   From: 2010.06.25/outbox.cif.g09.slc.cpg/sg15_133_cif.got.tgz:265939.got - 2010.06.28 07:06:18.
