data_PCOD8133490
_publ_section_title
;
Structure prediction by ZEFSAII (Michael W. Deem and Ramdas Pophale) SiO2 
 PCOD8133490
Probable space group: C 2/C
;
_chemical_formula_sum "Si O2"
_cell_formula_units_Z 56
_cell_length_a 18.500853
_cell_length_b 17.599179
_cell_length_c 12.945675
_cell_angle_alpha 90.000000
_cell_angle_beta 43.929023
_cell_angle_gamma 90.000000
_cell_volume 2924.302741
_symmetry_space_group_name_H-M "C 2/C"
_symmetry_group_IT_number 15
_symmetry_cell_setting 'monoclinic'
loop_
_space_group_symop_operation_xyz
x,y,z
-x,y,1/2-z
-x,-y,-z
x,-y,1/2+z
1/2+x,1/2+y,z
1/2-x,1/2+y,1/2-z
1/2-x,1/2-y,-z
1/2+x,1/2-y,1/2+z
loop_
_atom_site_type_symbol
_atom_site_label
_atom_site_fract_x
_atom_site_fract_y
_atom_site_fract_z
Si Si1 0.735567 0.470448 0.061938
Si Si2 0.545537 0.121838 0.396036
Si Si3 0.939549 0.090549 0.618456
Si Si4 0.952821 0.470109 0.402501
Si Si5 0.252097 0.178405 0.422946
Si Si6 0.965024 0.767430 0.401375
Si Si7 0.575213 0.470468 0.579998
O O1 0.654653 0.457722 0.237507
O O2 0.688941 0.519418 0.014215
O O3 0.831901 0.512075 0.014174
O O4 0.765946 0.389683 0.987401
O O5 0.540823 0.095932 0.519272
O O6 0.653546 0.165190 0.255079
O O7 0.457920 0.187153 0.469475
O O8 0.520919 0.045972 0.355570
O O9 0.927316 0.092882 0.506872
O O10 0.943509 0.178009 0.649140
O O11 0.043042 0.049354 0.556707
O O12 0.000000 0.434464 0.250000
O O13 0.250000 0.250000 0.500000
O O14 0.142742 0.185839 0.474709
O O15 0.000000 0.746502 0.250000
O O16 0.500000 0.445543 0.750000
#
# Coordination Sequence:
#
# PCOD8133490 Si02
#       7
#     8   8   8   8   8   8   8
#     4  11  20  33  57  86 114 160 201 255 307 365
#     4  11  25  40  61  93 122 166 209 258 321 364
#     4  10  19  33  56  86 122 152 195 255 318 368
#     4  11  24  42  62  84 126 168 214 256 299 380
#     4  12  21  34  61  90 123 152 201 262 317 366
#     4  12  20  37  61  91 124 153 198 261 322 369
#     4   9  19  33  52  83 119 156 198 243 304 373
#
# _framework density 19.149864000000001
#
# number of rings (size 3 to 8) (size 9 to 14) (size 15 to 20)
#    0.000    1.143    5.714    1.714    2.000    1.143 
#    0.000    0.714    0.000    1.714    0.000    0.000 
#    0.000    0.000    0.000    0.000    0.000    0.000 
#
# Total GULP energy -347000.425578 kJ/mol
# GULP energy per Si atom -12392.872342 kJ/mol
# Density = 1.910628 g / cm^3
# Si number density = 19.149864 Si / 1000 Ang^3
#
#
#
# Elastic Constant Matrix: (Units=GPa)
#
#
# Indices 1 2 3 4 5 6 
#
# 1 104.6828 41.5249 55.2588 0.0000 13.9035 0.0000
# 2 41.5249 91.8727 41.5241 0.0000 16.3950 0.0000
# 3 55.2588 41.5241 99.0786 0.0000 18.2985 0.0000
# 4 0.0000 0.0000 0.0000 28.9041 0.0000 6.2521
# 5 13.9035 16.3950 18.2985 0.0000 39.3262 0.0000
# 6 0.0000 0.0000 0.0000 6.2521 0.0000 27.3448
#
#
#
# Elastic Compliance Matrix: (Units=1/GPa)
#
#
# Indices 1 2 3 4 5 6 
#
# 1 0.014437 -0.003486 -0.006473 0.000000 -0.000639 0.000000
# 2 -0.003486 0.014663 -0.003610 0.000000 -0.003201 0.000000
# 3 -0.006473 -0.003610 0.015880 0.000000 -0.003596 0.000000
# 4 0.000000 0.000000 0.000000 0.036397 0.000000 -0.008322
# 5 -0.000639 -0.003201 -0.003596 0.000000 0.028662 0.000000
# 6 0.000000 0.000000 0.000000 -0.008322 0.000000 0.038473
#
#
# Mechanical properties :
#
#
# Convention : Reuss Voigt Hill
#
# Bulk Modulus (GPa) = 56.04539 63.58331 59.81435
# Shear Modulus (GPa) = 27.53345 29.60344 28.56844
#
# Velocity S-wave (km/s) = 3.79593 3.93604 3.86662
# Velocity P-wave (km/s) = 6.96724 7.34381 7.15800
#
# Compressibility (1/GPa) = 0.01784268
#
# Stress axis : x y z
#
# Youngs Moduli (GPa) = 69.26569 68.19914 62.97108
#
# Poissons Ratio (x) = 0.23772 0.40762
# Poissons Ratio (y) = 0.24143 0.22733
# Poissons Ratio (z) = 0.44837 0.24621
#
# Static dielectric constant tensor:
#      x y z
#    x 4.948360 0.000000 -2.742120 
#    y 0.000000 3.354670 0.000000 
#    z -2.742120 0.000000 9.556560 
# 
# 
# High freq. dielectric constant tensor:
#      x y z
#    x 1.749650 0.000000 -0.005640 
#    y 0.000000 1.724880 0.000000 
#    z -0.005640 0.000000 1.736420 
# 
# From -- ./inp_files/106617.got.cif
#   From: 2010.06.25/outbox.cif.g09.slc.cpg/sg15_54_cif.got.tgz:106617.got - 2010.06.28 07:06:18.
