data_PCOD8133246
_publ_section_title
;
Structure prediction by ZEFSAII (Michael W. Deem and Ramdas Pophale) SiO2 
 PCOD8133246
Probable space group: C 2/C
;
_chemical_formula_sum "Si O2"
_cell_formula_units_Z 40
_cell_length_a 17.519000
_cell_length_b 4.945137
_cell_length_c 22.127838
_cell_angle_alpha 90.000000
_cell_angle_beta 75.383216
_cell_angle_gamma 90.000000
_cell_volume 1854.976115
_symmetry_space_group_name_H-M "C 2/C"
_symmetry_group_IT_number 15
_symmetry_cell_setting 'monoclinic'
loop_
_space_group_symop_operation_xyz
x,y,z
-x,y,1/2-z
-x,-y,-z
x,-y,1/2+z
1/2+x,1/2+y,z
1/2-x,1/2+y,1/2-z
1/2-x,1/2-y,-z
1/2+x,1/2-y,1/2+z
loop_
_atom_site_type_symbol
_atom_site_label
_atom_site_fract_x
_atom_site_fract_y
_atom_site_fract_z
Si Si1 0.346096 0.220156 0.635968
Si Si2 0.835146 0.785808 0.324546
Si Si3 0.410860 0.786108 0.252295
Si Si4 0.693348 0.466170 0.044527
Si Si5 0.663339 0.737143 0.938439
O O1 0.256155 0.144576 0.670799
O O2 0.401011 0.179597 0.682555
O O3 0.348513 0.526800 0.613190
O O4 0.376475 0.017373 0.576148
O O5 0.853257 0.481545 0.301037
O O6 0.854620 0.818078 0.392350
O O7 0.890341 0.980771 0.274319
O O8 0.500000 0.858359 0.250000
O O9 0.744188 0.705827 0.065930
O O10 0.750000 0.250000 0.000000
O O11 0.632587 0.604723 0.008115
#
# Coordination Sequence:
#
# PCOD8133246 Si02
#       5
#     8   8   8   8   8
#     4  11  21  38  62  91 122 153 204 250 298 352
#     4  11  22  38  65  91 115 158 205 248 296 356
#     4  12  26  42  59  85 126 166 202 247 299 356
#     4  10  19  34  61  96 129 140 195 255 312 345
#     4  10  19  32  59  94 123 152 179 252 313 342
#
# _framework density 21.563621999999999
#
# number of rings (size 3 to 8) (size 9 to 14) (size 15 to 20)
#    0.000    1.200    4.000    5.400    2.800    0.000 
#    0.000    0.000    0.000    7.200    0.000    0.000 
#    0.000    0.000    0.000    0.000    0.000    0.000 
#
# Total GULP energy -247898.674538 kJ/mol
# GULP energy per Si atom -12394.933727 kJ/mol
# Density = 2.151454 g / cm^3
# Si number density = 21.563622 Si / 1000 Ang^3
#
#
#
# Elastic Constant Matrix: (Units=GPa)
#
#
# Indices 1 2 3 4 5 6 
#
# 1 79.5487 14.8179 33.8108 -0.0003 28.8853 0.0005
# 2 14.8179 101.6753 20.9223 0.0001 9.5842 0.0019
# 3 33.8108 20.9223 85.0660 0.0003 34.9393 0.0001
# 4 -0.0003 0.0001 0.0003 49.1931 -0.0002 10.8309
# 5 28.8853 9.5842 34.9393 -0.0002 22.1084 0.0006
# 6 0.0005 0.0019 0.0001 10.8309 0.0006 9.1775
#
#
#
# Elastic Compliance Matrix: (Units=1/GPa)
#
#
# Indices 1 2 3 4 5 6 
#
# 1 0.027103 -0.001290 0.010999 -0.000001 -0.052234 0.000003
# 2 -0.001290 0.010434 -0.002531 0.000001 0.001160 -0.000003
# 3 0.010999 -0.002531 0.038353 -0.000002 -0.073885 0.000007
# 4 -0.000001 0.000001 -0.000002 0.027464 0.000005 -0.032412
# 5 -0.052234 0.001160 -0.073885 0.000005 0.229739 -0.000017
# 6 0.000003 -0.000003 0.000007 -0.032412 -0.000017 0.147214
#
#
# Mechanical properties :
#
#
# Convention : Reuss Voigt Hill
#
# Bulk Modulus (GPa) = 11.08051 45.04355 28.06203
# Shear Modulus (GPa) = 10.07995 29.21174 19.64585
#
# Velocity S-wave (km/s) = 2.16441 3.68459 3.02166
# Velocity P-wave (km/s) = 3.37578 6.24785 5.02153
#
# Compressibility (1/GPa) = 0.09024855
#
# Stress axis : x y z
#
# Youngs Moduli (GPa) = 36.89586 95.83605 26.07339
#
# Poissons Ratio (x) = 0.12358 -0.28677
# Poissons Ratio (y) = 0.04758 0.06598
# Poissons Ratio (z) = -0.40581 0.24251
#
# Static dielectric constant tensor:
#      x y z
#    x 3.353860 0.000000 0.448680 
#    y 0.000000 4.097340 0.000000 
#    z 0.448680 0.000000 4.148040 
# 
# 
# High freq. dielectric constant tensor:
#      x y z
#    x 1.778630 0.000000 0.042870 
#    y 0.000000 1.872580 0.000000 
#    z 0.042870 0.000000 1.852010 
# 
# From -- ./inp_files/246195.got.cif
#   From: 2010.06.25/outbox.cif.g09.slc.cpg/sg15_124_cif.got.tgz:246195.got - 2010.06.28 07:06:18.
