data_PCOD8133635
_publ_section_title
;
Structure prediction by ZEFSAII (Michael W. Deem and Ramdas Pophale) SiO2 
 PCOD8133635
Probable space group: C 2/C
;
_chemical_formula_sum "Si O2"
_cell_formula_units_Z 52
_cell_length_a 14.109652
_cell_length_b 24.907537
_cell_length_c 8.124078
_cell_angle_alpha 90.000000
_cell_angle_beta 84.267646
_cell_angle_gamma 90.000000
_cell_volume 2840.821578
_symmetry_space_group_name_H-M "C 2/C"
_symmetry_group_IT_number 15
_symmetry_cell_setting 'monoclinic'
loop_
_space_group_symop_operation_xyz
x,y,z
-x,y,1/2-z
-x,-y,-z
x,-y,1/2+z
1/2+x,1/2+y,z
1/2-x,1/2+y,1/2-z
1/2-x,1/2-y,-z
1/2+x,1/2-y,1/2+z
loop_
_atom_site_type_symbol
_atom_site_label
_atom_site_fract_x
_atom_site_fract_y
_atom_site_fract_z
Si Si1 0.401673 0.478025 0.361836
Si Si2 0.483129 0.612797 0.059374
Si Si3 0.707898 0.240184 0.263542
Si Si4 0.810558 0.668686 0.932704
Si Si5 0.000000 0.703859 0.750000
Si Si6 0.394488 0.723441 0.026957
Si Si7 0.327328 0.423870 0.073281
O O1 0.500000 0.492521 0.250000
O O2 0.427920 0.441564 0.515667
O O3 0.325899 0.448554 0.256606
O O4 0.347326 0.530934 0.432066
O O5 0.500000 0.614971 0.250000
O O6 0.424859 0.662463 0.000303
O O7 0.584745 0.617390 0.951537
O O8 0.731625 0.294465 0.357865
O O9 0.672589 0.192268 0.388004
O O10 0.801311 0.220647 0.154405
O O11 0.624036 0.251500 0.148905
O O12 0.909901 0.667135 0.814908
O O13 0.770769 0.607771 0.946224
O O14 0.976497 0.741702 0.599016
#
# Coordination Sequence:
#
# PCOD8133635 Si02
#       7
#     8   8   8   8   4   8   8
#     4  10  21  35  50  81 113 139 181 228 276 332
#     4  11  19  30  53  82 113 147 175 211 274 337
#     4   9  20  34  53  78 111 142 190 224 261 341
#     4  10  21  37  54  77 106 148 187 230 281 323
#     4  10  22  38  52  78 114 144 190 232 268 322
#     4  10  19  34  52  82 115 148 176 221 272 324
#     4  11  21  35  54  77 107 145 181 229 275 334
#
# _framework density 18.304565
#
# number of rings (size 3 to 8) (size 9 to 14) (size 15 to 20)
#    0.000    1.846    0.769    5.077    4.308    0.615 
#    0.000    0.000    0.000    0.923    0.000    0.000 
#    0.000    0.000    0.000    0.000    0.000    0.000 
#
# Total GULP energy -322417.202972 kJ/mol
# GULP energy per Si atom -12400.661653 kJ/mol
# Density = 1.826290 g / cm^3
# Si number density = 18.304565 Si / 1000 Ang^3
#
#
#
# Elastic Constant Matrix: (Units=GPa)
#
#
# Indices 1 2 3 4 5 6 
#
# 1 69.9882 62.2235 37.1840 0.0000 9.9851 0.0000
# 2 62.2235 111.8145 45.0725 0.0000 -1.0639 0.0000
# 3 37.1840 45.0725 100.7941 0.0000 21.1977 0.0000
# 4 0.0000 0.0000 0.0000 18.9682 0.0000 -3.7625
# 5 9.9851 -1.0639 21.1977 0.0000 28.3370 0.0000
# 6 0.0000 0.0000 0.0000 -3.7625 0.0000 34.7590
#
#
#
# Elastic Compliance Matrix: (Units=1/GPa)
#
#
# Indices 1 2 3 4 5 6 
#
# 1 0.032085 -0.017167 -0.001954 0.000000 -0.010489 0.000000
# 2 -0.017167 0.020679 -0.005161 0.000000 0.010687 0.000000
# 3 -0.001954 -0.005161 0.015244 0.000000 -0.010909 0.000000
# 4 0.000000 0.000000 0.000000 0.053877 0.000000 0.005832
# 5 -0.010489 0.010687 -0.010909 0.000000 0.047547 0.000000
# 6 0.000000 0.000000 0.000000 0.005832 0.000000 0.029401
#
#
# Mechanical properties :
#
#
# Convention : Reuss Voigt Hill
#
# Bulk Modulus (GPa) = 51.43149 63.50631 57.46890
# Shear Modulus (GPa) = 19.69435 25.62063 22.65749
#
# Velocity S-wave (km/s) = 3.28369 3.74530 3.52206
# Velocity P-wave (km/s) = 6.52192 7.31249 6.92849
#
# Compressibility (1/GPa) = 0.01944334
#
# Stress axis : x y z
#
# Youngs Moduli (GPa) = 31.16680 48.35811 65.59820
#
# Poissons Ratio (x) = 0.83018 0.12818
# Poissons Ratio (y) = 0.53505 0.33858
# Poissons Ratio (z) = 0.06090 0.24960
#
# Static dielectric constant tensor:
#      x y z
#    x 3.208920 0.000000 0.140620 
#    y 0.000000 3.277600 0.000000 
#    z 0.140620 0.000000 3.578190 
# 
# 
# High freq. dielectric constant tensor:
#      x y z
#    x 1.679810 0.000000 0.009840 
#    y 0.000000 1.696910 0.000000 
#    z 0.009840 0.000000 1.727570 
# 
# From -- ./inp_files/41709.got.cif
#   From: 2010.06.25/outbox.cif.g09.slc.cpg/sg15_21_cif.got.tgz:41709.got - 2010.06.28 07:06:18.
