data_PCOD8133056
_publ_section_title
;
Structure prediction by ZEFSAII (Michael W. Deem and Ramdas Pophale) SiO2 
 PCOD8133056
Probable space group: C 2/C
;
_chemical_formula_sum "Si O2"
_cell_formula_units_Z 40
_cell_length_a 29.660837
_cell_length_b 9.558398
_cell_length_c 8.986399
_cell_angle_alpha 90.000000
_cell_angle_beta 50.890115
_cell_angle_gamma 90.000000
_cell_volume 1976.883152
_symmetry_space_group_name_H-M "C 2/C"
_symmetry_group_IT_number 15
_symmetry_cell_setting 'monoclinic'
loop_
_space_group_symop_operation_xyz
x,y,z
-x,y,1/2-z
-x,-y,-z
x,-y,1/2+z
1/2+x,1/2+y,z
1/2-x,1/2+y,1/2-z
1/2-x,1/2-y,-z
1/2+x,1/2-y,1/2+z
loop_
_atom_site_type_symbol
_atom_site_label
_atom_site_fract_x
_atom_site_fract_y
_atom_site_fract_z
Si Si1 0.331321 0.249566 0.838044
Si Si2 0.069355 0.615416 0.473921
Si Si3 0.754670 0.754602 0.736442
Si Si4 0.551166 0.163398 0.847183
Si Si5 0.808020 0.419492 0.877018
O O1 0.302982 0.318966 0.750023
O O2 0.401027 0.279285 0.699142
O O3 0.318894 0.083457 0.852509
O O4 0.299560 0.304687 0.053282
O O5 0.075482 0.609786 0.638428
O O6 0.051213 0.459128 0.467568
O O7 0.130352 0.661794 0.274882
O O8 0.015671 0.717614 0.532435
O O9 0.781865 0.624788 0.589841
O O10 0.736001 0.876973 0.662841
#
# Coordination Sequence:
#
# PCOD8133056 Si02
#       5
#     8   8   8   8   8
#     4  10  19  32  47  68  98 128 152 194 231 268
#     4   9  17  28  44  66  93 126 154 180 231 291
#     4  10  20  30  46  68  94 126 166 184 224 286
#     4   9  17  28  44  66  93 126 154 180 231 291
#     4  10  19  32  47  68  98 128 152 194 231 268
#
# _framework density 20.233872000000002
#
# number of rings (size 3 to 8) (size 9 to 14) (size 15 to 20)
#    0.000    2.400    2.000    1.200    8.400    0.000 
#    0.000    0.000    0.000    0.000    0.000    0.000 
#    0.000  112.000    0.000    0.000    0.000    0.000 
#
# Total GULP energy -247765.599430 kJ/mol
# GULP energy per Si atom -12388.279972 kJ/mol
# Density = 2.018782 g / cm^3
# Si number density = 20.233872 Si / 1000 Ang^3
#
#
#
# Elastic Constant Matrix: (Units=GPa)
#
#
# Indices 1 2 3 4 5 6 
#
# 1 112.8478 4.8268 54.4525 0.0000 -15.2538 0.0000
# 2 4.8268 15.7343 16.2377 0.0000 -5.1778 0.0000
# 3 54.4525 16.2377 109.8054 0.0000 -8.1706 0.0000
# 4 0.0000 0.0000 0.0000 22.5145 0.0000 -1.8135
# 5 -15.2538 -5.1778 -8.1706 0.0000 44.8058 0.0000
# 6 0.0000 0.0000 0.0000 -1.8135 0.0000 22.1074
#
#
#
# Elastic Compliance Matrix: (Units=1/GPa)
#
#
# Indices 1 2 3 4 5 6 
#
# 1 0.012251 0.003995 -0.006408 0.000000 0.003464 0.000000
# 2 0.003995 0.078365 -0.012970 0.000000 0.008051 0.000000
# 3 -0.006408 -0.012970 0.014121 0.000000 -0.001106 0.000000
# 4 0.000000 0.000000 0.000000 0.044711 0.000000 0.003668
# 5 0.003464 0.008051 -0.001106 0.000000 0.024227 0.000000
# 6 0.000000 0.000000 0.000000 0.003668 0.000000 0.045535
#
#
# Mechanical properties :
#
#
# Convention : Reuss Voigt Hill
#
# Bulk Modulus (GPa) = 13.51921 43.26906 28.39413
# Shear Modulus (GPa) = 18.20616 28.74357 23.47487
#
# Velocity S-wave (km/s) = 3.00290 3.77313 3.40983
# Velocity P-wave (km/s) = 4.32657 6.35711 5.43747
#
# Compressibility (1/GPa) = 0.07396881
#
# Stress axis : x y z
#
# Youngs Moduli (GPa) = 81.62572 12.76088 70.81812
#
# Poissons Ratio (x) = -0.05098 0.45383
# Poissons Ratio (y) = -0.32610 0.91854
# Poissons Ratio (z) = 0.52308 0.16551
#
# Static dielectric constant tensor:
#      x y z
#    x 4.488900 0.000000 -0.312090 
#    y 0.000000 2.898990 0.000000 
#    z -0.312090 0.000000 4.066840 
# 
# 
# High freq. dielectric constant tensor:
#      x y z
#    x 1.823490 0.000000 0.002050 
#    y 0.000000 1.692170 0.000000 
#    z 0.002050 0.000000 1.803690 
# 
# From -- ./inp_files/46719.got.cif
#   From: 2010.06.25/outbox.cif.g09.slc.cpg/sg15_24_cif.got.tgz:46719.got - 2010.06.28 07:06:18.
