data_PCOD8133203
_publ_section_title
;
Structure prediction by ZEFSAII (Michael W. Deem and Ramdas Pophale) SiO2 
 PCOD8133203
Probable space group: C 2/C
;
_chemical_formula_sum "Si O2"
_cell_formula_units_Z 60
_cell_length_a 14.273034
_cell_length_b 18.570273
_cell_length_c 22.657184
_cell_angle_alpha 90.000000
_cell_angle_beta 148.773670
_cell_angle_gamma 90.000000
_cell_volume 3113.309492
_symmetry_space_group_name_H-M "C 2/C"
_symmetry_group_IT_number 15
_symmetry_cell_setting 'monoclinic'
loop_
_space_group_symop_operation_xyz
x,y,z
-x,y,1/2-z
-x,-y,-z
x,-y,1/2+z
1/2+x,1/2+y,z
1/2-x,1/2+y,1/2-z
1/2-x,1/2-y,-z
1/2+x,1/2-y,1/2+z
loop_
_atom_site_type_symbol
_atom_site_label
_atom_site_fract_x
_atom_site_fract_y
_atom_site_fract_z
Si Si1 0.622343 0.608691 0.572242
Si Si2 0.482257 0.091873 0.017391
Si Si3 0.922126 0.284250 0.647368
Si Si4 0.000000 0.559260 0.750000
Si Si5 0.991093 0.441207 0.656172
Si Si6 0.017356 0.251806 0.942712
Si Si7 0.683606 0.500190 0.312010
Si Si8 0.105046 0.970424 0.635788
O O1 0.839545 0.610510 0.686062
O O2 0.561113 0.685655 0.563497
O O3 0.553451 0.547309 0.579768
O O4 0.537688 0.590778 0.462116
O O5 0.449630 0.055216 0.064186
O O6 0.522131 0.176486 0.041352
O O7 0.665875 0.059520 0.087336
O O8 0.299726 0.074528 0.880943
O O9 0.054010 0.259060 0.663811
O O10 0.727514 0.249058 0.542093
O O11 0.000000 0.255321 0.750000
O O12 0.901247 0.370635 0.635715
O O13 0.083539 0.510598 0.848462
O O14 0.204370 0.440682 0.784346
O O15 0.500000 0.499962 0.250000
O O16 0.609241 0.516941 0.207366
#
# Coordination Sequence:
#
# PCOD8133203 Si02
#       8
#     8   8   8   4   8   8   8   8
#     4  10  21  36  54  84 118 152 194 241 284 349
#     4   9  21  39  55  84 120 144 190 249 293 350
#     4  10  19  32  56  82 113 154 189 233 298 354
#     4  10  20  32  58  84 110 160 204 248 276 326
#     4   9  17  33  55  84 111 146 192 246 291 329
#     4  10  22  35  53  85 122 152 185 240 298 353
#     4  10  21  38  62  84 105 153 196 241 295 351
#     4   9  20  35  57  83 110 148 195 242 287 334
#
# _framework density 19.272096000000001
#
# number of rings (size 3 to 8) (size 9 to 14) (size 15 to 20)
#    0.000    2.400    0.667    0.800    5.600    3.733 
#    1.200    0.000    0.000    0.800    0.000    0.000 
#    0.000    0.000    0.000    0.000    0.000    0.000 
#
# Total GULP energy -371711.093117 kJ/mol
# GULP energy per Si atom -12390.369771 kJ/mol
# Density = 1.922823 g / cm^3
# Si number density = 19.272096 Si / 1000 Ang^3
#
#
#
# Elastic Constant Matrix: (Units=GPa)
#
#
# Indices 1 2 3 4 5 6 
#
# 1 77.9263 44.5255 42.7778 -0.0003 -0.2740 -0.0002
# 2 44.5255 111.6754 37.1845 0.0003 -4.2000 -0.0002
# 3 42.7778 37.1845 81.9959 -0.0042 -8.8433 -0.0026
# 4 -0.0003 0.0003 -0.0042 16.0383 -0.0010 -0.9140
# 5 -0.2740 -4.2000 -8.8433 -0.0010 32.2251 -0.0007
# 6 -0.0002 -0.0002 -0.0026 -0.9140 -0.0007 26.1319
#
#
#
# Elastic Compliance Matrix: (Units=1/GPa)
#
#
# Indices 1 2 3 4 5 6 
#
# 1 0.020689 -0.005489 -0.008618 -0.000002 -0.002904 -0.000001
# 2 -0.005489 0.012003 -0.002490 -0.000001 0.000834 0.000000
# 3 -0.008618 -0.002490 0.018320 0.000005 0.004630 0.000002
# 4 -0.000002 -0.000001 0.000005 0.062475 0.000003 0.002185
# 5 -0.002904 0.000834 0.004630 0.000003 0.032386 0.000001
# 6 -0.000001 0.000000 0.000002 0.002185 0.000001 0.038344
#
#
# Mechanical properties :
#
#
# Convention : Reuss Voigt Hill
#
# Bulk Modulus (GPa) = 56.11725 57.84147 56.97936
# Shear Modulus (GPa) = 22.38623 24.68638 23.53630
#
# Velocity S-wave (km/s) = 3.41190 3.58290 3.49845
# Velocity P-wave (km/s) = 6.68604 6.86982 6.77855
#
# Compressibility (1/GPa) = 0.01781983
#
# Stress axis : x y z
#
# Youngs Moduli (GPa) = 48.33394 83.31013 54.58432
#
# Poissons Ratio (x) = 0.45726 0.47041
# Poissons Ratio (y) = 0.26529 0.13591
# Poissons Ratio (z) = 0.41654 0.20744
#
# Static dielectric constant tensor:
#      x y z
#    x 3.749720 0.000000 -0.283610 
#    y 0.000000 3.319190 0.000000 
#    z -0.283610 0.000000 3.756090 
# 
# 
# High freq. dielectric constant tensor:
#      x y z
#    x 1.743030 0.000000 -0.009370 
#    y 0.000000 1.729150 0.000000 
#    z -0.009370 0.000000 1.753350 
# 
# From -- ./inp_files/274728.got.cif
#   From: 2010.06.25/outbox.cif.g09.slc.cpg/sg15_138_cif.got.tgz:274728.got - 2010.06.28 07:06:18.
