data_PCOD8133487
_publ_section_title
;
Structure prediction by ZEFSAII (Michael W. Deem and Ramdas Pophale) SiO2 
 PCOD8133487
Probable space group: C 2/C
;
_chemical_formula_sum "Si O2"
_cell_formula_units_Z 44
_cell_length_a 22.398413
_cell_length_b 25.740856
_cell_length_c 5.184172
_cell_angle_alpha 90.000000
_cell_angle_beta 40.693730
_cell_angle_gamma 90.000000
_cell_volume 1948.845958
_symmetry_space_group_name_H-M "C 2/C"
_symmetry_group_IT_number 15
_symmetry_cell_setting 'monoclinic'
loop_
_space_group_symop_operation_xyz
x,y,z
-x,y,1/2-z
-x,-y,-z
x,-y,1/2+z
1/2+x,1/2+y,z
1/2-x,1/2+y,1/2-z
1/2-x,1/2-y,-z
1/2+x,1/2-y,1/2+z
loop_
_atom_site_type_symbol
_atom_site_label
_atom_site_fract_x
_atom_site_fract_y
_atom_site_fract_z
Si Si1 0.353395 0.694686 0.657090
Si Si2 0.000000 0.463920 0.750000
Si Si3 0.860215 0.309569 0.651065
Si Si4 0.101006 0.021607 0.620973
Si Si5 0.361571 0.127039 0.635918
Si Si6 0.852457 0.132923 0.171774
O O1 0.401164 0.751344 0.496149
O O2 0.393914 0.657675 0.298620
O O3 0.246588 0.697773 0.941347
O O4 0.370919 0.672962 0.882549
O O5 0.000000 0.500000 0.500000
O O6 0.090031 0.428087 0.478842
O O7 0.882865 0.337930 0.312582
O O8 0.902129 0.342757 0.752010
O O9 0.092258 0.081272 0.573881
O O10 0.152838 0.988995 0.223116
O O11 0.000000 0.000000 0.000000
O O12 0.253866 0.116969 0.956669
#
# Coordination Sequence:
#
# PCOD8133487 Si02
#       6
#     8   4   8   8   8   8
#     4   9  17  30  55  88 115 137 175 226 270 329
#     4  12  26  42  58  78 110 150 194 246 292 326
#     4   9  17  33  56  84 114 143 173 219 282 334
#     4  10  21  36  54  74 103 146 185 224 273 318
#     4  10  21  36  57  82 112 145 183 228 277 338
#     4  10  19  33  56  86 111 142 187 229 271 328
#
# _framework density 22.577466000000001
#
# number of rings (size 3 to 8) (size 9 to 14) (size 15 to 20)
#    0.000    2.182    0.000    3.273    0.000    5.818 
#    0.000    0.000    0.000   21.818    0.000    0.000 
#    0.000    0.000    0.000    0.000    0.000    0.000 
#
# Total GULP energy -272712.194210 kJ/mol
# GULP energy per Si atom -12396.008828 kJ/mol
# Density = 2.252608 g / cm^3
# Si number density = 22.577466 Si / 1000 Ang^3
#
#
#
# Elastic Constant Matrix: (Units=GPa)
#
#
# Indices 1 2 3 4 5 6 
#
# 1 87.8111 35.0258 50.8594 0.0000 28.6500 0.0000
# 2 35.0258 169.1770 51.1260 0.0000 10.8001 0.0000
# 3 50.8594 51.1260 57.8268 0.0000 31.2404 0.0000
# 4 0.0000 0.0000 0.0000 22.8291 0.0000 36.2622
# 5 28.6500 10.8001 31.2404 0.0000 42.1233 0.0000
# 6 0.0000 0.0000 0.0000 36.2622 0.0000 6.7720
#
#
#
# Elastic Compliance Matrix: (Units=1/GPa)
#
#
# Indices 1 2 3 4 5 6 
#
# 1 0.023651 0.001921 -0.022597 0.000000 0.000180 0.000000
# 2 0.001921 0.009024 -0.012867 0.000000 0.005923 0.000000
# 3 -0.022597 -0.012867 0.064168 0.000000 -0.028922 0.000000
# 4 0.000000 0.000000 0.000000 -0.005836 0.000000 0.031251
# 5 0.000180 0.005923 -0.028922 0.000000 0.043548 0.000000
# 6 0.000000 0.000000 0.000000 0.031251 0.000000 -0.019674
#
#
# Mechanical properties :
#
#
# Convention : Reuss Voigt Hill
#
# Bulk Modulus (GPa) = 33.60647 65.42636 49.51641
# Shear Modulus (GPa) = 26.05706 26.19844 26.12775
#
# Velocity S-wave (km/s) = 3.40092 3.41013 3.40553
# Velocity P-wave (km/s) = 5.50808 6.67434 6.11906
#
# Compressibility (1/GPa) = 0.02975618
#
# Stress axis : x y z
#
# Youngs Moduli (GPa) = 42.28123 110.81931 15.58402
#
# Poissons Ratio (x) = -0.21286 0.35215
# Poissons Ratio (y) = -0.08121 0.20052
# Poissons Ratio (z) = 0.95543 1.42593
#
# Static dielectric constant tensor:
#      x y z
#    x 3.945550 0.000000 0.227320 
#    y 0.000000 4.219730 0.000000 
#    z 0.227320 0.000000 3.866080 
# 
# 
# High freq. dielectric constant tensor:
#      x y z
#    x 1.892750 0.000000 0.031530 
#    y 0.000000 1.899910 0.000000 
#    z 0.031530 0.000000 1.877810 
# 
# From -- ./inp_files/10266.got.cif
#   From: 2010.06.25/outbox.cif.g09.slc.cpg/sg15_6_cif.got.tgz:10266.got - 2010.06.28 07:06:18.
