data_PCOD8133351
_publ_section_title
;
Structure prediction by ZEFSAII (Michael W. Deem and Ramdas Pophale) SiO2 
 PCOD8133351
Probable space group: C 2/C
;
_chemical_formula_sum "Si O2"
_cell_formula_units_Z 52
_cell_length_a 27.719806
_cell_length_b 17.385164
_cell_length_c 8.695923
_cell_angle_alpha 90.000000
_cell_angle_beta 37.052970
_cell_angle_gamma 90.000000
_cell_volume 2525.108203
_symmetry_space_group_name_H-M "C 2/C"
_symmetry_group_IT_number 15
_symmetry_cell_setting 'monoclinic'
loop_
_space_group_symop_operation_xyz
x,y,z
-x,y,1/2-z
-x,-y,-z
x,-y,1/2+z
1/2+x,1/2+y,z
1/2-x,1/2+y,1/2-z
1/2-x,1/2-y,-z
1/2+x,1/2-y,1/2+z
loop_
_atom_site_type_symbol
_atom_site_label
_atom_site_fract_x
_atom_site_fract_y
_atom_site_fract_z
Si Si1 0.116237 0.135982 0.688902
Si Si2 0.083343 0.031499 0.496728
Si Si3 0.092558 0.730285 0.042637
Si Si4 0.741550 0.457723 0.011994
Si Si5 0.379596 0.337284 0.810082
Si Si6 0.788819 0.399153 0.193268
Si Si7 0.500000 0.353108 0.750000
O O1 0.076542 0.095759 0.644513
O O2 0.110156 0.226290 0.661554
O O3 0.208269 0.108343 0.480291
O O4 0.064705 0.106683 0.968060
O O5 0.086823 0.077688 0.325601
O O6 0.000000 0.983259 0.750000
O O7 0.165130 0.984900 0.309042
O O8 0.000000 0.714499 0.250000
O O9 0.127690 0.778446 0.811363
O O10 0.135574 0.648370 0.939889
O O11 0.803751 0.423834 0.977747
O O12 0.783473 0.526197 0.814643
O O13 0.440688 0.305228 0.786105
O O14 0.290348 0.346299 0.101700
#
# Coordination Sequence:
#
# PCOD8133351 Si02
#       7
#     8   8   8   8   8   8   4
#     4  11  21  36  59  90 129 156 202 244 301 373
#     4  10  19  33  53  83 128 172 189 226 297 376
#     4  11  23  45  65  85 120 170 208 253 305 362
#     4  11  23  37  57  92 126 162 201 247 302 369
#     4  10  20  36  60  91 125 155 198 247 304 368
#     4  11  24  41  63  90 126 162 206 253 308 359
#     4  12  18  32  60  96 124 150 200 250 298 374
#
# _framework density 20.593178000000002
#
# number of rings (size 3 to 8) (size 9 to 14) (size 15 to 20)
#    0.000    1.231    6.154    1.385    1.077    1.231 
#    0.000    0.769    1.692    0.000    0.000    0.000 
#    0.000    0.000    0.000    0.000    0.000    0.000 
#
# Total GULP energy -322151.709915 kJ/mol
# GULP energy per Si atom -12390.450381 kJ/mol
# Density = 2.054631 g / cm^3
# Si number density = 20.593178 Si / 1000 Ang^3
#
#
#
# Elastic Constant Matrix: (Units=GPa)
#
#
# Indices 1 2 3 4 5 6 
#
# 1 107.7780 55.2153 34.7145 0.0000 5.7785 0.0000
# 2 55.2153 83.4358 40.8661 0.0000 -13.0167 0.0000
# 3 34.7145 40.8661 56.6841 0.0000 1.9144 0.0000
# 4 0.0000 0.0000 0.0000 23.8957 0.0000 -9.6610
# 5 5.7785 -13.0167 1.9144 0.0000 28.1823 0.0000
# 6 0.0000 0.0000 0.0000 -9.6610 0.0000 32.1185
#
#
#
# Elastic Compliance Matrix: (Units=1/GPa)
#
#
# Indices 1 2 3 4 5 6 
#
# 1 0.015865 -0.011080 -0.001449 0.000000 -0.008272 0.000000
# 2 -0.011080 0.029196 -0.014830 0.000000 0.016764 0.000000
# 3 -0.001449 -0.014830 0.029509 0.000000 -0.008557 0.000000
# 4 0.000000 0.000000 0.000000 0.047642 0.000000 0.014330
# 5 -0.008272 0.016764 -0.008557 0.000000 0.045504 0.000000
# 6 0.000000 0.000000 0.000000 0.014330 0.000000 0.035445
#
#
# Mechanical properties :
#
#
# Convention : Reuss Voigt Hill
#
# Bulk Modulus (GPa) = 50.36735 56.60997 53.48866
# Shear Modulus (GPa) = 18.90396 24.64610 21.77503
#
# Velocity S-wave (km/s) = 3.03309 3.46325 3.25528
# Velocity P-wave (km/s) = 6.06445 6.59859 6.33715
#
# Compressibility (1/GPa) = 0.01985413
#
# Stress axis : x y z
#
# Youngs Moduli (GPa) = 63.03345 34.25100 33.88784
#
# Poissons Ratio (x) = 0.37949 0.04909
# Poissons Ratio (y) = 0.69839 0.50254
# Poissons Ratio (z) = 0.09131 0.50793
#
# Static dielectric constant tensor:
#      x y z
#    x 3.842360 0.000000 0.263620 
#    y 0.000000 3.494120 0.000000 
#    z 0.263620 0.000000 3.680330 
# 
# 
# High freq. dielectric constant tensor:
#      x y z
#    x 1.814570 0.000000 0.021200 
#    y 0.000000 1.768450 0.000000 
#    z 0.021200 0.000000 1.787080 
# 
# From -- ./inp_files/48658.got.cif
#   From: 2010.06.25/outbox.cif.g09.slc.cpg/sg15_25_cif.got.tgz:48658.got - 2010.06.28 07:06:18.
