data_PCOD8133438
_publ_section_title
;
Structure prediction by ZEFSAII (Michael W. Deem and Ramdas Pophale) SiO2 
 PCOD8133438
Probable space group: C 2/C
;
_chemical_formula_sum "Si O2"
_cell_formula_units_Z 52
_cell_length_a 19.414391
_cell_length_b 8.595692
_cell_length_c 18.708695
_cell_angle_alpha 90.000000
_cell_angle_beta 123.421240
_cell_angle_gamma 90.000000
_cell_volume 2605.849034
_symmetry_space_group_name_H-M "C 2/C"
_symmetry_group_IT_number 15
_symmetry_cell_setting 'monoclinic'
loop_
_space_group_symop_operation_xyz
x,y,z
-x,y,1/2-z
-x,-y,-z
x,-y,1/2+z
1/2+x,1/2+y,z
1/2-x,1/2+y,1/2-z
1/2-x,1/2-y,-z
1/2+x,1/2-y,1/2+z
loop_
_atom_site_type_symbol
_atom_site_label
_atom_site_fract_x
_atom_site_fract_y
_atom_site_fract_z
Si Si1 0.315805 0.173095 0.875201
Si Si2 0.500000 0.678972 0.750000
Si Si3 0.483311 0.327027 0.966530
Si Si4 0.300275 0.185277 0.700631
Si Si5 0.044448 0.123818 0.208341
Si Si6 0.862794 0.660329 0.384962
Si Si7 0.154537 0.649736 0.295511
O O1 0.390633 0.287697 0.937642
O O2 0.298845 0.149213 0.782717
O O3 0.233410 0.245460 0.862942
O O4 0.340655 0.999979 0.913259
O O5 0.476204 0.562730 0.802708
O O6 0.420406 0.790105 0.697021
O O7 0.489567 0.306508 0.884526
O O8 0.500000 0.500000 0.000000
O O9 0.547083 0.209396 0.038131
O O10 0.358724 0.337345 0.723976
O O11 0.206445 0.221526 0.624639
O O12 0.329959 0.031332 0.675227
O O13 0.000000 0.207303 0.250000
O O14 0.865302 0.657382 0.300228
#
# Coordination Sequence:
#
# PCOD8133438 Si02
#       7
#     8   4   8   8   8   8   8
#     4   9  19  34  54  83 114 137 180 232 276 317
#     4  10  20  32  54  74 112 142 186 212 274 324
#     4  11  20  34  58  84 110 141 185 230 272 319
#     4   9  18  34  57  82 107 143 187 224 267 326
#     4   9  21  37  54  78 112 148 179 218 276 330
#     4  10  19  33  58  83 108 137 185 235 275 310
#     4  10  19  33  55  84 107 144 184 228 269 326
#
# _framework density 19.955109
#
# number of rings (size 3 to 8) (size 9 to 14) (size 15 to 20)
#    0.462    1.846    0.000    3.231    1.077    4.923 
#    0.000    0.769    0.000    4.615    0.000    0.000 
#    0.000    0.000    0.000    0.000    0.000    0.000 
#
# Total GULP energy -322108.177968 kJ/mol
# GULP energy per Si atom -12388.776076 kJ/mol
# Density = 1.990969 g / cm^3
# Si number density = 19.955109 Si / 1000 Ang^3
#
#
#
# Elastic Constant Matrix: (Units=GPa)
#
#
# Indices 1 2 3 4 5 6 
#
# 1 118.8223 53.1962 29.2862 0.0000 30.4464 0.0000
# 2 53.1962 129.4764 17.0513 0.0000 23.6960 0.0000
# 3 29.2862 17.0513 61.1848 0.0000 23.1872 0.0000
# 4 0.0000 0.0000 0.0000 21.0605 0.0000 7.2454
# 5 30.4464 23.6960 23.1872 0.0000 30.9500 0.0000
# 6 0.0000 0.0000 0.0000 7.2454 0.0000 40.0633
#
#
#
# Elastic Compliance Matrix: (Units=1/GPa)
#
#
# Indices 1 2 3 4 5 6 
#
# 1 0.012526 -0.003374 -0.001906 0.000000 -0.008311 0.000000
# 2 -0.003374 0.009892 0.000657 0.000000 -0.004746 0.000000
# 3 -0.001906 0.000657 0.023116 0.000000 -0.015947 0.000000
# 4 0.000000 0.000000 0.000000 0.050633 0.000000 -0.009157
# 5 -0.008311 -0.004746 -0.015947 0.000000 0.056067 0.000000
# 6 0.000000 0.000000 0.000000 -0.009157 0.000000 0.026617
#
#
# Mechanical properties :
#
#
# Convention : Reuss Voigt Hill
#
# Bulk Modulus (GPa) = 27.55689 56.50565 42.03127
# Shear Modulus (GPa) = 24.97604 32.41139 28.69371
#
# Velocity S-wave (km/s) = 3.54165 4.03453 3.79610
# Velocity P-wave (km/s) = 5.52845 7.07680 6.35000
#
# Compressibility (1/GPa) = 0.03628856
#
# Stress axis : x y z
#
# Youngs Moduli (GPa) = 79.83504 101.09292 43.25947
#
# Poissons Ratio (x) = 0.34112 0.08243
# Poissons Ratio (y) = 0.26939 -0.02843
# Poissons Ratio (z) = 0.15213 -0.06643
#
# Static dielectric constant tensor:
#      x y z
#    x 3.646670 0.000000 0.265870 
#    y 0.000000 3.873490 0.000000 
#    z 0.265870 0.000000 3.317520 
# 
# 
# High freq. dielectric constant tensor:
#      x y z
#    x 1.775050 0.000000 0.030450 
#    y 0.000000 1.790770 0.000000 
#    z 0.030450 0.000000 1.736300 
# 
# From -- ./inp_files/209692.got.cif
#   From: 2010.06.25/outbox.cif.g09.slc.cpg/sg15_105_cif.got.tgz:209692.got - 2010.06.28 07:06:18.
