data_PCOD8133018
_publ_section_title
;
Structure prediction by ZEFSAII (Michael W. Deem and Ramdas Pophale) SiO2 
 PCOD8133018
Probable space group: C 2/C
;
_chemical_formula_sum "Si O2"
_cell_formula_units_Z 60
_cell_length_a 26.629218
_cell_length_b 8.161252
_cell_length_c 25.616363
_cell_angle_alpha 90.000000
_cell_angle_beta 149.486525
_cell_angle_gamma 90.000000
_cell_volume 2826.668603
_symmetry_space_group_name_H-M "C 2/C"
_symmetry_group_IT_number 15
_symmetry_cell_setting 'monoclinic'
loop_
_space_group_symop_operation_xyz
x,y,z
-x,y,1/2-z
-x,-y,-z
x,-y,1/2+z
1/2+x,1/2+y,z
1/2-x,1/2+y,1/2-z
1/2-x,1/2-y,-z
1/2+x,1/2-y,1/2+z
loop_
_atom_site_type_symbol
_atom_site_label
_atom_site_fract_x
_atom_site_fract_y
_atom_site_fract_z
Si Si1 0.077644 0.738299 0.450413
Si Si2 0.334464 0.666563 0.913869
Si Si3 0.047732 0.932041 0.881009
Si Si4 0.632283 0.673054 0.225378
Si Si5 0.765723 0.674614 0.170691
Si Si6 0.096037 0.865156 0.133318
Si Si7 0.062229 0.483465 0.211262
Si Si8 0.000000 0.720264 0.750000
O O1 0.187241 0.709475 0.570815
O O2 0.005349 0.803608 0.431458
O O3 0.043435 0.566924 0.395114
O O4 0.082322 0.879613 0.409847
O O5 0.249917 0.807778 0.841450
O O6 0.285854 0.491800 0.857605
O O7 0.408798 0.688559 0.931517
O O8 0.396724 0.666129 0.022765
O O9 0.927846 0.924456 0.782643
O O10 0.072223 0.837599 0.849072
O O11 0.611160 0.562926 0.154683
O O12 0.585260 0.857112 0.184077
O O13 0.807582 0.775612 0.256789
O O14 0.856008 0.626792 0.212848
O O15 0.063813 0.393174 0.268384
#
# Coordination Sequence:
#
# PCOD8133018 Si02
#       8
#     8   8   8   8   8   8   8   4
#     4   9  19  36  56  81 112 144 180 221 265 324
#     4  10  19  33  53  80 112 146 183 221 262 318
#     4   9  20  36  56  79 107 143 183 226 272 316
#     4   9  19  34  52  79 112 141 177 224 263 314
#     4   9  19  35  53  79 114 145 178 219 265 318
#     4  10  19  31  54  81 111 151 181 212 265 318
#     4   9  19  37  57  80 109 141 180 226 270 314
#     4  10  20  38  60  80 106 142 180 228 276 316
#
# _framework density 21.226400999999999
#
# number of rings (size 3 to 8) (size 9 to 14) (size 15 to 20)
#    0.000    2.667    0.000    0.800    0.000    8.533 
#    0.000   11.333    0.000   17.600    0.000    0.000 
#    0.000    0.000    0.000    0.000    0.000    0.000 
#
# Total GULP energy -371648.433380 kJ/mol
# GULP energy per Si atom -12388.281113 kJ/mol
# Density = 2.117809 g / cm^3
# Si number density = 21.226401 Si / 1000 Ang^3
#
#
#
# Elastic Constant Matrix: (Units=GPa)
#
#
# Indices 1 2 3 4 5 6 
#
# 1 65.8354 22.2226 31.8938 0.0000 -22.6811 0.0000
# 2 22.2226 66.4442 32.2315 -0.0001 -15.2683 0.0003
# 3 31.8938 32.2315 89.3291 -0.0001 -14.9702 0.0000
# 4 0.0000 -0.0001 -0.0001 24.7323 0.0000 1.7592
# 5 -22.6811 -15.2683 -14.9702 0.0000 30.3916 0.0000
# 6 0.0000 0.0003 0.0000 1.7592 0.0000 30.2909
#
#
#
# Elastic Compliance Matrix: (Units=1/GPa)
#
#
# Indices 1 2 3 4 5 6 
#
# 1 0.023116 -0.002063 -0.005223 0.000000 0.013642 0.000000
# 2 -0.002063 0.019669 -0.005409 0.000000 0.005677 0.000000
# 3 -0.005223 -0.005409 0.015153 0.000000 0.000849 0.000000
# 4 0.000000 0.000000 0.000000 0.040601 0.000000 -0.002358
# 5 0.013642 0.005677 0.000849 0.000000 0.046356 0.000000
# 6 0.000000 0.000000 0.000000 -0.002358 0.000000 0.033150
#
#
# Mechanical properties :
#
#
# Convention : Reuss Voigt Hill
#
# Bulk Modulus (GPa) = 30.72303 43.81161 37.26732
# Shear Modulus (GPa) = 23.33376 26.10035 24.71705
#
# Velocity S-wave (km/s) = 3.31914 3.51039 3.41610
# Velocity P-wave (km/s) = 5.40317 6.09224 5.75803
#
# Compressibility (1/GPa) = 0.03254888
#
# Stress axis : x y z
#
# Youngs Moduli (GPa) = 43.26068 50.84265 65.99298
#
# Poissons Ratio (x) = 0.10488 0.34466
# Poissons Ratio (y) = 0.08924 0.35694
# Poissons Ratio (z) = 0.22593 0.27500
#
# Static dielectric constant tensor:
#      x y z
#    x 3.623460 0.000000 0.206350 
#    y 0.000000 4.013950 0.000000 
#    z 0.206350 0.000000 3.907570 
# 
# 
# High freq. dielectric constant tensor:
#      x y z
#    x 1.799650 0.000000 0.014730 
#    y 0.000000 1.835970 0.000000 
#    z 0.014730 0.000000 1.823430 
# 
# From -- ./inp_files/284299.got.cif
#   From: 2010.06.25/outbox.cif.g09.slc.cpg/sg15_143_cif.got.tgz:284299.got - 2010.06.28 07:06:18.
