data_PCOD8133136
_publ_section_title
;
Structure prediction by ZEFSAII (Michael W. Deem and Ramdas Pophale) SiO2 
 PCOD8133136
Probable space group: C 2/C
;
_chemical_formula_sum "Si O2"
_cell_formula_units_Z 52
_cell_length_a 6.450014
_cell_length_b 14.278098
_cell_length_c 29.922003
_cell_angle_alpha 90.000000
_cell_angle_beta 66.814386
_cell_angle_gamma 90.000000
_cell_volume 2533.073913
_symmetry_space_group_name_H-M "C 2/C"
_symmetry_group_IT_number 15
_symmetry_cell_setting 'monoclinic'
loop_
_space_group_symop_operation_xyz
x,y,z
-x,y,1/2-z
-x,-y,-z
x,-y,1/2+z
1/2+x,1/2+y,z
1/2-x,1/2+y,1/2-z
1/2-x,1/2-y,-z
1/2+x,1/2-y,1/2+z
loop_
_atom_site_type_symbol
_atom_site_label
_atom_site_fract_x
_atom_site_fract_y
_atom_site_fract_z
Si Si1 0.451361 0.928451 0.173595
Si Si2 0.392898 0.780214 0.046502
Si Si3 0.641304 0.552813 0.331494
Si Si4 0.288343 0.026310 0.590050
Si Si5 0.480070 0.162832 0.056209
Si Si6 0.000000 0.015599 0.750000
Si Si7 0.052543 0.237693 0.128988
O O1 0.409125 0.958177 0.126827
O O2 0.551002 0.823444 0.164019
O O3 0.218503 0.921084 0.221022
O O4 0.617002 0.003111 0.183169
O O5 0.266196 0.880608 0.061762
O O6 0.533713 0.767346 0.079112
O O7 0.223508 0.692537 0.054706
O O8 0.552846 0.786870 0.989238
O O9 0.469236 0.505251 0.380888
O O10 0.555416 0.548034 0.287936
O O11 0.645772 0.663986 0.341700
O O12 0.444258 0.948545 0.552259
O O13 0.300478 0.192425 0.109727
#
# Coordination Sequence:
#
# PCOD8133136 Si02
#       7
#     8   8   8   8   8   4   8
#     4  10  20  38  58  78 109 143 180 233 287 342
#     4  10  19  32  52  80 114 149 188 230 270 322
#     4  10  20  38  58  78 109 143 180 233 287 342
#     4   9  19  33  53  78 110 148 189 223 279 333
#     4  10  19  32  52  80 114 149 188 230 270 322
#     4  10  22  40  54  82 104 132 180 232 284 352
#     4  10  21  36  56  84 106 150 186 226 279 342
#
# _framework density 20.528417999999999
#
# number of rings (size 3 to 8) (size 9 to 14) (size 15 to 20)
#    0.000    2.154    0.000    3.231    0.000    0.000 
#    5.538    0.000    0.000   14.769    0.000    0.000 
#    0.000    0.000    0.000    0.000    0.000    0.000 
#
# Total GULP energy -322262.036338 kJ/mol
# GULP energy per Si atom -12394.693705 kJ/mol
# Density = 2.048169 g / cm^3
# Si number density = 20.528418 Si / 1000 Ang^3
#
#
#
# Elastic Constant Matrix: (Units=GPa)
#
#
# Indices 1 2 3 4 5 6 
#
# 1 54.6723 19.3779 19.8759 -0.0001 -13.6175 -0.0001
# 2 19.3779 98.1750 25.8383 0.0000 -17.5701 0.0000
# 3 19.8759 25.8383 80.7927 -0.0002 -12.2816 0.0001
# 4 -0.0001 0.0000 -0.0002 17.3496 0.0001 -3.1383
# 5 -13.6175 -17.5701 -12.2816 0.0001 29.6301 -0.0001
# 6 -0.0001 0.0000 0.0001 -3.1383 -0.0001 25.2973
#
#
#
# Elastic Compliance Matrix: (Units=1/GPa)
#
#
# Indices 1 2 3 4 5 6 
#
# 1 0.022220 -0.002087 -0.003666 0.000000 0.007455 0.000000
# 2 -0.002087 0.012214 -0.002602 0.000000 0.005205 0.000000
# 3 -0.003666 -0.002602 0.014536 0.000000 0.002798 0.000000
# 4 0.000000 0.000000 0.000000 0.058961 0.000000 0.007315
# 5 0.007455 0.005205 0.002798 0.000000 0.041422 0.000000
# 6 0.000000 0.000000 0.000000 0.007315 0.000000 0.040437
#
#
# Mechanical properties :
#
#
# Convention : Reuss Voigt Hill
#
# Bulk Modulus (GPa) = 30.99582 40.42491 35.71036
# Shear Modulus (GPa) = 23.01458 25.69192 24.35325
#
# Velocity S-wave (km/s) = 3.35193 3.54153 3.44803
# Velocity P-wave (km/s) = 5.48747 6.03806 5.76934
#
# Compressibility (1/GPa) = 0.03226242
#
# Stress axis : x y z
#
# Youngs Moduli (GPa) = 45.00453 81.87291 68.79244
#
# Poissons Ratio (x) = 0.17085 0.25217
# Poissons Ratio (y) = 0.09392 0.17896
# Poissons Ratio (z) = 0.16497 0.21299
#
# Static dielectric constant tensor:
#      x y z
#    x 3.439310 0.000000 -0.114860 
#    y 0.000000 3.866580 0.000000 
#    z -0.114860 0.000000 3.765570 
# 
# 
# High freq. dielectric constant tensor:
#      x y z
#    x 1.785520 0.000000 -0.005340 
#    y 0.000000 1.800600 0.000000 
#    z -0.005340 0.000000 1.806280 
# 
# From -- ./inp_files/305326.got.cif
#   From: 2010.06.25/outbox.cif.g09.slc.cpg/sg15_153_cif.got.tgz:305326.got - 2010.06.28 07:06:18.
