data_PCOD8133849
_publ_section_title
;
Structure prediction by ZEFSAII (Michael W. Deem and Ramdas Pophale) SiO2 
 PCOD8133849
Probable space group: C 2/C
;
_chemical_formula_sum "Si O2"
_cell_formula_units_Z 48
_cell_length_a 6.732137
_cell_length_b 19.305785
_cell_length_c 32.140606
_cell_angle_alpha 90.000000
_cell_angle_beta 145.853374
_cell_angle_gamma 90.000000
_cell_volume 2344.764949
_symmetry_space_group_name_H-M "C 2/C"
_symmetry_group_IT_number 15
_symmetry_cell_setting 'monoclinic'
loop_
_space_group_symop_operation_xyz
x,y,z
-x,y,1/2-z
-x,-y,-z
x,-y,1/2+z
1/2+x,1/2+y,z
1/2-x,1/2+y,1/2-z
1/2-x,1/2-y,-z
1/2+x,1/2-y,1/2+z
loop_
_atom_site_type_symbol
_atom_site_label
_atom_site_fract_x
_atom_site_fract_y
_atom_site_fract_z
Si Si1 0.291017 0.167688 0.332281
Si Si2 0.808786 0.948226 0.898118
Si Si3 0.090112 0.068917 0.176352
Si Si4 0.641386 0.754807 0.028118
Si Si5 0.620628 0.862791 0.460492
Si Si6 0.245658 0.949016 0.329645
O O1 0.504683 0.109683 0.343695
O O2 0.539980 0.231158 0.386935
O O3 0.000000 0.196536 0.250000
O O4 0.129907 0.136218 0.347142
O O5 0.001829 0.952960 0.886831
O O6 0.622292 0.020459 0.878505
O O7 0.109877 0.926094 0.983481
O O8 0.500000 0.086391 0.250000
O O9 0.994656 0.006724 0.190401
O O10 0.554406 0.833889 0.026967
O O11 0.750000 0.750000 0.000000
O O12 0.307910 0.704075 0.973606
O O13 0.329429 0.888520 0.377036
O O14 0.000000 0.918593 0.250000
#
# Coordination Sequence:
#
# PCOD8133849 Si02
#       6
#     8   8   8   8   8   8
#     4  10  19  34  58  86 111 142 196 247 281 335
#     4  10  19  36  60  85 117 149 190 234 290 354
#     4  11  18  33  59  88 117 150 184 235 299 352
#     4  10  22  43  59  80 111 156 203 243 282 339
#     4  10  23  40  59  82 119 155 193 243 291 344
#     4  11  22  37  56  90 124 149 187 238 297 359
#
# _framework density 20.471136000000001
#
# number of rings (size 3 to 8) (size 9 to 14) (size 15 to 20)
#    0.000    1.667    3.333    2.500    0.000    2.000 
#    3.000    0.000    0.000    0.000    0.000    0.000 
#    0.000    0.000    0.000    0.000    0.000    0.000 
#
# Total GULP energy -297596.617097 kJ/mol
# GULP energy per Si atom -12399.859046 kJ/mol
# Density = 2.042454 g / cm^3
# Si number density = 20.471136 Si / 1000 Ang^3
#
#
#
# Elastic Constant Matrix: (Units=GPa)
#
#
# Indices 1 2 3 4 5 6 
#
# 1 115.9410 20.0463 22.4730 -0.0107 -10.0792 -0.0046
# 2 20.0463 57.3695 36.5442 -0.0200 -0.8217 0.0033
# 3 22.4730 36.5442 109.8752 -0.0592 -4.3111 -0.0005
# 4 -0.0107 -0.0200 -0.0592 17.2024 0.0136 -4.9523
# 5 -10.0792 -0.8217 -4.3111 0.0136 29.9960 0.0035
# 6 -0.0046 0.0033 -0.0005 -4.9523 0.0035 20.1665
#
#
#
# Elastic Compliance Matrix: (Units=1/GPa)
#
#
# Indices 1 2 3 4 5 6 
#
# 1 0.009532 -0.002691 -0.000937 -0.000002 0.002995 0.000001
# 2 -0.002691 0.022882 -0.007111 0.000000 -0.001299 -0.000004
# 3 -0.000937 -0.007111 0.011704 0.000033 0.001172 0.000009
# 4 -0.000002 0.000000 0.000033 0.062554 -0.000026 0.015362
# 5 0.002995 -0.001299 0.001172 -0.000026 0.034477 -0.000012
# 6 0.000001 -0.000004 0.000009 0.015362 -0.000012 0.053360
#
#
# Mechanical properties :
#
#
# Convention : Reuss Voigt Hill
#
# Bulk Modulus (GPa) = 44.16938 49.03475 46.60206
# Shear Modulus (GPa) = 22.36789 27.08112 24.72451
#
# Velocity S-wave (km/s) = 3.30912 3.64111 3.47907
# Velocity P-wave (km/s) = 6.01861 6.45616 6.24122
#
# Compressibility (1/GPa) = 0.02264012
#
# Stress axis : x y z
#
# Youngs Moduli (GPa) = 104.90609 43.70174 85.44011
#
# Poissons Ratio (x) = 0.11760 0.08007
# Poissons Ratio (y) = 0.28230 0.60758
# Poissons Ratio (z) = 0.09831 0.31077
#
# Static dielectric constant tensor:
#      x y z
#    x 3.893130 0.000310 -0.439620 
#    y 0.000310 3.595720 0.001370 
#    z -0.439620 0.001370 1.836230 
# 
# 
# High freq. dielectric constant tensor:
#      x y z
#    x 1.812540 0.000000 -0.002730 
#    y 0.000000 1.765370 0.000000 
#    z -0.002730 0.000000 1.803490 
# 
# From -- ./inp_files/185469.got.cif
#   From: 2010.06.25/outbox.cif.g09.slc.cpg/sg15_93_cif.got.tgz:185469.got - 2010.06.28 07:06:18.
