data_PCOD8133300
_publ_section_title
;
Structure prediction by ZEFSAII (Michael W. Deem and Ramdas Pophale) SiO2 
 PCOD8133300
Probable space group: C 2/C
;
_chemical_formula_sum "Si O2"
_cell_formula_units_Z 64
_cell_length_a 24.403447
_cell_length_b 5.012787
_cell_length_c 28.292102
_cell_angle_alpha 90.000000
_cell_angle_beta 80.789910
_cell_angle_gamma 90.000000
_cell_volume 3416.334246
_symmetry_space_group_name_H-M "C 2/C"
_symmetry_group_IT_number 15
_symmetry_cell_setting 'monoclinic'
loop_
_space_group_symop_operation_xyz
x,y,z
-x,y,1/2-z
-x,-y,-z
x,-y,1/2+z
1/2+x,1/2+y,z
1/2-x,1/2+y,1/2-z
1/2-x,1/2-y,-z
1/2+x,1/2-y,1/2+z
loop_
_atom_site_type_symbol
_atom_site_label
_atom_site_fract_x
_atom_site_fract_y
_atom_site_fract_z
Si Si1 0.773731 0.073111 0.141818
Si Si2 0.851257 0.586772 0.025914
Si Si3 0.242420 0.165036 0.555206
Si Si4 0.841370 0.577271 0.165104
Si Si5 0.559339 0.980514 0.407746
Si Si6 0.368552 0.417636 0.464222
Si Si7 0.219430 0.523641 0.739768
Si Si8 0.493172 0.477226 0.444375
O O1 0.751202 0.091910 0.091080
O O2 0.800587 0.355248 0.150344
O O3 0.719621 0.018424 0.182907
O O4 0.821611 0.852397 0.143165
O O5 0.864121 0.392159 0.979934
O O6 0.856588 0.895008 0.011148
O O7 0.790094 0.555662 0.057108
O O8 0.895926 0.502834 0.057687
O O9 0.250000 0.250000 0.500000
O O10 0.180060 0.039767 0.568563
O O11 0.906496 0.524288 0.145591
O O12 0.835067 0.576271 0.223617
O O13 0.511400 0.192528 0.422674
O O14 0.530017 0.694511 0.412427
O O15 0.429103 0.498571 0.436943
O O16 0.230033 0.836186 0.748108
O O17 0.500000 0.500000 0.500000
#
# Coordination Sequence:
#
# PCOD8133300 Si02
#       8
#     8   8   8   8   8   8   8   8
#     4  10  19  33  52  74 108 139 165 204 266 318
#     4  11  20  34  51  71  98 137 169 213 254 299
#     4  10  23  34  51  77 107 142 173 205 249 313
#     4  10  20  32  53  78 104 129 171 217 263 316
#     4  12  21  32  54  73  98 133 176 213 266 297
#     4  11  23  36  48  67 104 138 180 211 242 298
#     4   8  16  31  49  74 102 132 160 204 261 319
#     4  12  22  35  50  70  98 142 178 215 252 298
#
# _framework density 18.733530999999999
#
# number of rings (size 3 to 8) (size 9 to 14) (size 15 to 20)
#    0.000    1.500    3.750    2.250    3.500    2.000 
#    0.000    0.000    0.000    0.000    0.000    0.875 
#    0.000    2.000    0.000    0.000    0.000    0.000 
#
# Total GULP energy -396479.433257 kJ/mol
# GULP energy per Si atom -12389.982289 kJ/mol
# Density = 1.869089 g / cm^3
# Si number density = 18.733531 Si / 1000 Ang^3
#
#
#
# Elastic Constant Matrix: (Units=GPa)
#
#
# Indices 1 2 3 4 5 6 
#
# 1 125.4440 16.8662 28.0389 0.0000 -16.0089 0.0000
# 2 16.8662 53.0542 11.0986 0.0000 0.2470 0.0000
# 3 28.0389 11.0986 94.1853 0.0000 -22.1525 0.0000
# 4 0.0000 0.0000 0.0000 14.8931 0.0000 -12.8323
# 5 -16.0089 0.2470 -22.1525 0.0000 24.9780 0.0000
# 6 0.0000 0.0000 0.0000 -12.8323 0.0000 21.9347
#
#
#
# Elastic Compliance Matrix: (Units=1/GPa)
#
#
# Indices 1 2 3 4 5 6 
#
# 1 0.009236 -0.002685 -0.001307 0.000000 0.004787 0.000000
# 2 -0.002685 0.020261 -0.002578 0.000000 -0.004207 0.000000
# 3 -0.001307 -0.002578 0.014050 0.000000 0.011648 0.000000
# 4 0.000000 0.000000 0.000000 0.135394 0.000000 0.079209
# 5 0.004787 -0.004207 0.011648 0.000000 0.053475 0.000000
# 6 0.000000 0.000000 0.000000 0.079209 0.000000 0.091929
#
#
# Mechanical properties :
#
#
# Convention : Reuss Voigt Hill
#
# Bulk Modulus (GPa) = 32.88739 42.74343 37.81541
# Shear Modulus (GPa) = 14.38351 26.80648 20.59500
#
# Velocity S-wave (km/s) = 2.77392 3.78687 3.31926
# Velocity P-wave (km/s) = 5.27759 6.47971 5.90930
#
# Compressibility (1/GPa) = 0.03040679
#
# Stress axis : x y z
#
# Youngs Moduli (GPa) = 108.27530 49.35588 71.17438
#
# Poissons Ratio (x) = 0.13251 0.09305
# Poissons Ratio (y) = 0.29071 0.18347
# Poissons Ratio (z) = 0.14155 0.12723
#
# Static dielectric constant tensor:
#      x y z
#    x 3.549970 0.000000 -0.282070 
#    y 0.000000 3.467010 0.000000 
#    z -0.282070 0.000000 3.701390 
# 
# 
# High freq. dielectric constant tensor:
#      x y z
#    x 1.698100 0.000000 -0.031990 
#    y 0.000000 1.745530 0.000000 
#    z -0.031990 0.000000 1.698910 
# 
# From -- ./inp_files/301600.got.cif
#   From: 2010.06.25/outbox.cif.g09.slc.cpg/sg15_151_cif.got.tgz:301600.got - 2010.06.28 07:06:18.
