data_PCOD8133234
_publ_section_title
;
Structure prediction by ZEFSAII (Michael W. Deem and Ramdas Pophale) SiO2 
 PCOD8133234
Probable space group: C 2/C
;
_chemical_formula_sum "Si O2"
_cell_formula_units_Z 48
_cell_length_a 15.056603
_cell_length_b 8.443104
_cell_length_c 20.506615
_cell_angle_alpha 90.000000
_cell_angle_beta 111.537839
_cell_angle_gamma 90.000000
_cell_volume 2424.867035
_symmetry_space_group_name_H-M "C 2/C"
_symmetry_group_IT_number 15
_symmetry_cell_setting 'monoclinic'
loop_
_space_group_symop_operation_xyz
x,y,z
-x,y,1/2-z
-x,-y,-z
x,-y,1/2+z
1/2+x,1/2+y,z
1/2-x,1/2+y,1/2-z
1/2-x,1/2-y,-z
1/2+x,1/2-y,1/2+z
loop_
_atom_site_type_symbol
_atom_site_label
_atom_site_fract_x
_atom_site_fract_y
_atom_site_fract_z
Si Si1 0.108589 0.693740 0.271591
Si Si2 0.242361 0.157323 0.903369
Si Si3 0.413002 0.443740 0.771591
Si Si4 0.118218 0.875000 0.486435
Si Si5 0.411007 0.407323 0.403369
Si Si6 0.285718 0.875000 0.821437
O O1 0.178696 0.699387 0.353626
O O2 0.155134 0.584557 0.228293
O O3 0.000000 0.630813 0.250000
O O4 0.107624 0.875000 0.250000
O O5 0.173929 0.068745 0.936550
O O6 0.287620 0.030172 0.866645
O O7 0.331651 0.227326 0.965888
O O8 0.500000 0.380813 0.750000
O O9 0.424929 0.449387 0.853626
O O10 0.323160 0.334558 0.728293
O O11 0.012621 0.818745 0.436550
O O12 0.115764 0.022674 0.534113
O O13 0.329026 0.280172 0.366645
#
# Coordination Sequence:
#
# PCOD8133234 Si02
#       6
#     8   8   8   8   8   8
#     4   9  17  32  55  78 105 141 180 223 273 328
#     4  10  20  35  54  80 107 144 186 219 272 322
#     4   9  17  32  55  78 105 141 180 223 273 328
#     4  10  21  36  55  74 110 153 182 212 256 349
#     4  10  20  35  54  80 107 144 186 219 272 322
#     4  10  19  32  58  84 106 133 183 244 273 305
#
# _framework density 19.794899000000001
#
# number of rings (size 3 to 8) (size 9 to 14) (size 15 to 20)
#    0.000    2.333    0.000    5.000    0.000    1.333 
#    0.000    0.000    0.000   47.000    0.000    0.000 
#    0.000    0.000    0.000    0.000    0.000    0.000 
#
# Total GULP energy -297402.159207 kJ/mol
# GULP energy per Si atom -12391.756634 kJ/mol
# Density = 1.974985 g / cm^3
# Si number density = 19.794899 Si / 1000 Ang^3
#
#
#
# Elastic Constant Matrix: (Units=GPa)
#
#
# Indices 1 2 3 4 5 6 
#
# 1 179.2761 51.2258 74.2667 0.0000 -0.1815 0.0000
# 2 51.2258 41.4134 32.6202 0.0000 -0.1526 0.0000
# 3 74.2667 32.6202 121.0483 0.0000 -0.2961 0.0000
# 4 0.0000 0.0000 0.0000 17.9756 0.0000 -0.0657
# 5 -0.1815 -0.1526 -0.2961 0.0000 41.4446 0.0000
# 6 0.0000 0.0000 0.0000 -0.0657 0.0000 25.9926
#
#
#
# Elastic Compliance Matrix: (Units=1/GPa)
#
#
# Indices 1 2 3 4 5 6 
#
# 1 0.009629 -0.009213 -0.003425 0.000000 -0.000016 0.000000
# 2 -0.009213 0.039468 -0.004983 0.000000 0.000069 0.000000
# 3 -0.003425 -0.004983 0.011706 0.000000 0.000050 0.000000
# 4 0.000000 0.000000 0.000000 0.055632 0.000000 0.000141
# 5 -0.000016 0.000069 0.000050 0.000000 0.024129 0.000000
# 6 0.000000 0.000000 0.000000 0.000141 0.000000 0.038473
#
#
# Mechanical properties :
#
#
# Convention : Reuss Voigt Hill
#
# Bulk Modulus (GPa) = 39.12337 73.10702 56.11520
# Shear Modulus (GPa) = 22.44164 29.32423 25.88293
#
# Velocity S-wave (km/s) = 3.37071 3.85308 3.61994
# Velocity P-wave (km/s) = 5.91238 7.53707 6.77361
#
# Compressibility (1/GPa) = 0.02556017
#
# Stress axis : x y z
#
# Youngs Moduli (GPa) = 103.84832 25.33682 85.42879
#
# Poissons Ratio (x) = 0.23343 0.29261
# Poissons Ratio (y) = 0.95677 0.42571
# Poissons Ratio (z) = 0.35570 0.12626
#
# Static dielectric constant tensor:
#      x y z
#    x 4.010520 0.000000 0.002100 
#    y 0.000000 3.022520 0.000000 
#    z 0.002100 0.000000 4.265960 
# 
# 
# High freq. dielectric constant tensor:
#      x y z
#    x 1.789950 0.000000 0.000050 
#    y 0.000000 1.711650 0.000000 
#    z 0.000050 0.000000 1.795650 
# 
# From -- ./inp_files/231365.got.cif
#   From: 2010.06.25/outbox.cif.g09.slc.cpg/sg15_116_cif.got.tgz:231365.got - 2010.06.28 07:06:18.
