data_PCOD8133564
_publ_section_title
;
Structure prediction by ZEFSAII (Michael W. Deem and Ramdas Pophale) SiO2 
 PCOD8133564
Probable space group: C 2/C
;
_chemical_formula_sum "Si O2"
_cell_formula_units_Z 64
_cell_length_a 24.453922
_cell_length_b 9.207394
_cell_length_c 13.808194
_cell_angle_alpha 90.000000
_cell_angle_beta 73.523615
_cell_angle_gamma 90.000000
_cell_volume 2981.343909
_symmetry_space_group_name_H-M "C 2/C"
_symmetry_group_IT_number 15
_symmetry_cell_setting 'monoclinic'
loop_
_space_group_symop_operation_xyz
x,y,z
-x,y,1/2-z
-x,-y,-z
x,-y,1/2+z
1/2+x,1/2+y,z
1/2-x,1/2+y,1/2-z
1/2-x,1/2-y,-z
1/2+x,1/2-y,1/2+z
loop_
_atom_site_type_symbol
_atom_site_label
_atom_site_fract_x
_atom_site_fract_y
_atom_site_fract_z
Si Si1 0.729963 0.349108 0.922405
Si Si2 0.051117 0.189598 0.503586
Si Si3 0.143389 0.652843 0.862585
Si Si4 0.072612 0.881039 0.408665
Si Si5 0.273359 0.106593 0.201923
Si Si6 0.161695 0.831636 0.674626
Si Si7 0.186475 0.835691 0.457487
Si Si8 0.434594 0.440358 0.297714
O O1 0.674786 0.278906 0.904163
O O2 0.778524 0.365102 0.814413
O O3 0.710683 0.505423 0.968537
O O4 0.750000 0.250000 0.000000
O O5 0.080539 0.336337 0.443862
O O6 0.070999 0.160509 0.604449
O O7 0.983172 0.210548 0.533171
O O8 0.065608 0.053884 0.426646
O O9 0.176687 0.500730 0.859609
O O10 0.142314 0.695962 0.750330
O O11 0.122957 0.823854 0.448762
O O12 0.084885 0.852295 0.288453
O O13 0.207921 0.060898 0.206715
O O14 0.275281 0.258060 0.142494
O O15 0.187679 0.760468 0.562787
O O16 0.106657 0.922351 0.668672
O O17 0.500000 0.493885 0.250000
#
# Coordination Sequence:
#
# PCOD8133564 Si02
#       8
#     8   8   8   8   8   8   8   8
#     4  11  22  39  63  90 119 162 212 257 312 377
#     4  10  19  35  60  91 120 157 212 267 327 367
#     4  11  22  39  58  86 123 163 207 258 316 383
#     4  10  19  35  60  90 122 154 211 270 317 371
#     4  11  26  41  58  87 129 170 203 253 316 392
#     4  11  21  37  59  84 119 159 206 252 308 377
#     4  12  23  41  61  91 124 164 210 260 318 384
#     4  10  19  33  59  94 122 150 201 273 324 372
#
# _framework density 21.466828
#
# number of rings (size 3 to 8) (size 9 to 14) (size 15 to 20)
#    0.000    1.250    3.750    3.375    0.000    4.000 
#    0.000    0.625    0.000    0.000    0.000    1.750 
#    0.000    0.000    0.000    0.000    0.000    0.000 
#
# Total GULP energy -396586.524915 kJ/mol
# GULP energy per Si atom -12393.328904 kJ/mol
# Density = 2.141797 g / cm^3
# Si number density = 21.466828 Si / 1000 Ang^3
#
#
#
# Elastic Constant Matrix: (Units=GPa)
#
#
# Indices 1 2 3 4 5 6 
#
# 1 88.7001 32.7171 43.4198 0.0000 3.6780 0.0000
# 2 32.7171 68.0466 33.6443 0.0000 -0.5583 0.0000
# 3 43.4198 33.6443 159.5677 0.0000 12.7225 0.0000
# 4 0.0000 0.0000 0.0000 28.5036 0.0000 0.1861
# 5 3.6780 -0.5583 12.7225 0.0000 35.4010 0.0000
# 6 0.0000 0.0000 0.0000 0.1861 0.0000 19.3436
#
#
#
# Elastic Compliance Matrix: (Units=1/GPa)
#
#
# Indices 1 2 3 4 5 6 
#
# 1 0.014768 -0.005743 -0.002757 0.000000 -0.000634 0.000000
# 2 -0.005743 0.018722 -0.002528 0.000000 0.001801 0.000000
# 3 -0.002757 -0.002528 0.007753 0.000000 -0.002540 0.000000
# 4 0.000000 0.000000 0.000000 0.035086 0.000000 -0.000337
# 5 -0.000634 0.001801 -0.002540 0.000000 0.029255 0.000000
# 6 0.000000 0.000000 0.000000 -0.000337 0.000000 0.051700
#
#
# Mechanical properties :
#
#
# Convention : Reuss Voigt Hill
#
# Bulk Modulus (GPa) = 52.12024 59.54185 55.83105
# Shear Modulus (GPa) = 26.92017 30.41852 28.66935
#
# Velocity S-wave (km/s) = 3.54508 3.76839 3.65844
# Velocity P-wave (km/s) = 6.41006 6.83603 6.62647
#
# Compressibility (1/GPa) = 0.01918640
#
# Stress axis : x y z
#
# Youngs Moduli (GPa) = 67.71384 53.41387 128.98620
#
# Poissons Ratio (x) = 0.30673 0.35564
# Poissons Ratio (y) = 0.38885 0.32613
# Poissons Ratio (z) = 0.18670 0.13505
#
# Static dielectric constant tensor:
#      x y z
#    x 4.152040 0.000000 0.047630 
#    y 0.000000 3.357470 0.000000 
#    z 0.047630 0.000000 4.430550 
# 
# 
# High freq. dielectric constant tensor:
#      x y z
#    x 1.850180 0.000000 0.001190 
#    y 0.000000 1.781320 0.000000 
#    z 0.001190 0.000000 1.873070 
# 
# From -- ./inp_files/176549.got.cif
#   From: 2010.06.25/outbox.cif.g09.slc.cpg/sg15_89_cif.got.tgz:176549.got - 2010.06.28 07:06:18.
