data_PCOD8133555
_publ_section_title
;
Structure prediction by ZEFSAII (Michael W. Deem and Ramdas Pophale) SiO2 
 PCOD8133555
Probable space group: C 2/C
;
_chemical_formula_sum "Si O2"
_cell_formula_units_Z 56
_cell_length_a 11.452147
_cell_length_b 16.924182
_cell_length_c 26.137661
_cell_angle_alpha 90.000000
_cell_angle_beta 37.187791
_cell_angle_gamma 90.000000
_cell_volume 3062.011953
_symmetry_space_group_name_H-M "C 2/C"
_symmetry_group_IT_number 15
_symmetry_cell_setting 'monoclinic'
loop_
_space_group_symop_operation_xyz
x,y,z
-x,y,1/2-z
-x,-y,-z
x,-y,1/2+z
1/2+x,1/2+y,z
1/2-x,1/2+y,1/2-z
1/2-x,1/2-y,-z
1/2+x,1/2-y,1/2+z
loop_
_atom_site_type_symbol
_atom_site_label
_atom_site_fract_x
_atom_site_fract_y
_atom_site_fract_z
Si Si1 0.981160 0.499762 0.129013
Si Si2 0.724258 0.380270 0.657443
Si Si3 0.778444 0.706486 0.840014
Si Si4 0.327250 0.446212 0.579075
Si Si5 0.802102 0.447808 0.290348
Si Si6 0.165255 0.633301 0.494660
Si Si7 0.571270 0.697053 0.013609
O O1 0.149062 0.542373 0.102873
O O2 0.057681 0.435656 0.062418
O O3 0.862533 0.563515 0.140132
O O4 0.829922 0.459761 0.220679
O O5 0.500000 0.393509 0.750000
O O6 0.808093 0.292910 0.641754
O O7 0.754666 0.399208 0.586886
O O8 0.681266 0.634383 0.841110
O O9 0.000000 0.717894 0.750000
O O10 0.743265 0.686426 0.912113
O O11 0.500000 0.500000 0.500000
O O12 0.284561 0.474863 0.652044
O O13 0.383400 0.353367 0.561603
O O14 0.000000 0.426601 0.250000
O O15 0.354139 0.661553 0.459301
O O16 0.022446 0.709529 0.537077
#
# Coordination Sequence:
#
# PCOD8133555 Si02
#       7
#     8   8   8   8   8   8   8
#     4  11  22  37  56  82 112 152 187 231 282 335
#     4  10  23  37  56  79 112 150 191 220 272 342
#     4   9  16  33  54  81 108 139 184 232 267 322
#     4  11  19  34  59  87 110 137 185 245 283 325
#     4   9  18  32  55  80 108 137 182 234 281 319
#     4  10  20  36  57  83 113 149 186 229 275 341
#     4  10  19  33  59  88 108 143 189 233 283 323
#
# _framework density 18.288629
#
# number of rings (size 3 to 8) (size 9 to 14) (size 15 to 20)
#    0.000    2.000    2.857    2.143    2.000    1.143 
#    0.000    2.857    3.143    0.000    0.000    0.000 
#    0.000    0.000    0.000    0.000    0.000    0.000 
#
# Total GULP energy -346924.453737 kJ/mol
# GULP energy per Si atom -12390.159062 kJ/mol
# Density = 1.824700 g / cm^3
# Si number density = 18.288629 Si / 1000 Ang^3
#
#
#
# Elastic Constant Matrix: (Units=GPa)
#
#
# Indices 1 2 3 4 5 6 
#
# 1 82.8262 61.9894 50.6653 -0.0007 15.0363 0.0014
# 2 61.9894 136.4184 58.6331 0.0027 11.3246 0.0002
# 3 50.6653 58.6331 117.4481 0.0025 29.1038 0.0018
# 4 -0.0007 0.0027 0.0025 24.5762 0.0004 2.9400
# 5 15.0363 11.3246 29.1038 0.0004 28.9427 -0.0015
# 6 0.0014 0.0002 0.0018 2.9400 -0.0015 30.7879
#
#
#
# Elastic Compliance Matrix: (Units=1/GPa)
#
#
# Indices 1 2 3 4 5 6 
#
# 1 0.020916 -0.007267 -0.004538 0.000002 -0.003460 -0.000001
# 2 -0.007267 0.011899 -0.003446 -0.000001 0.002585 0.000001
# 3 -0.004538 -0.003446 0.015015 -0.000001 -0.011393 -0.000001
# 4 0.000002 -0.000001 -0.000001 0.041160 0.000000 -0.003930
# 5 -0.003460 0.002585 -0.011393 0.000000 0.046794 0.000003
# 6 -0.000001 0.000001 -0.000001 -0.003930 0.000003 0.032856
#
#
# Mechanical properties :
#
#
# Convention : Reuss Voigt Hill
#
# Bulk Modulus (GPa) = 57.70477 75.47423 66.58950
# Shear Modulus (GPa) = 24.40008 27.88838 26.14423
#
# Velocity S-wave (km/s) = 3.65659 3.90924 3.78502
# Velocity P-wave (km/s) = 7.03195 7.85711 7.45595
#
# Compressibility (1/GPa) = 0.01732959
#
# Stress axis : x y z
#
# Youngs Moduli (GPa) = 47.81025 84.04062 66.59813
#
# Poissons Ratio (x) = 0.61071 0.30220
# Poissons Ratio (y) = 0.34743 0.22949
# Poissons Ratio (z) = 0.21695 0.28960
#
# Static dielectric constant tensor:
#      x y z
#    x 3.108550 -0.000010 0.182240 
#    y -0.000010 3.982130 0.000020 
#    z 0.182240 0.000020 3.683820 
# 
# 
# High freq. dielectric constant tensor:
#      x y z
#    x 1.663240 0.000000 0.026390 
#    y 0.000000 1.725840 0.000000 
#    z 0.026390 0.000000 1.718410 
# 
# From -- ./inp_files/270352.got.cif
#   From: 2010.06.25/outbox.cif.g09.slc.cpg/sg15_136_cif.got.tgz:270352.got - 2010.06.28 07:06:18.
