data_PCOD8133408
_publ_section_title
;
Structure prediction by ZEFSAII (Michael W. Deem and Ramdas Pophale) SiO2 
 PCOD8133408
Probable space group: C 2/C
;
_chemical_formula_sum "Si O2"
_cell_formula_units_Z 52
_cell_length_a 9.309233
_cell_length_b 27.067998
_cell_length_c 11.532405
_cell_angle_alpha 90.000000
_cell_angle_beta 107.536826
_cell_angle_gamma 90.000000
_cell_volume 2770.902940
_symmetry_space_group_name_H-M "C 2/C"
_symmetry_group_IT_number 15
_symmetry_cell_setting 'monoclinic'
loop_
_space_group_symop_operation_xyz
x,y,z
-x,y,1/2-z
-x,-y,-z
x,-y,1/2+z
1/2+x,1/2+y,z
1/2-x,1/2+y,1/2-z
1/2-x,1/2-y,-z
1/2+x,1/2-y,1/2+z
loop_
_atom_site_type_symbol
_atom_site_label
_atom_site_fract_x
_atom_site_fract_y
_atom_site_fract_z
Si Si1 0.717860 0.177872 0.020053
Si Si2 0.898810 0.427705 0.973163
Si Si3 0.471097 0.729291 0.982498
Si Si4 0.375834 0.019678 0.120910
Si Si5 0.500000 0.224673 0.250000
Si Si6 0.689191 0.677093 0.204311
Si Si7 0.349865 0.567721 0.280505
O O1 0.622191 0.127632 0.983078
O O2 0.593644 0.220004 0.982595
O O3 0.828001 0.183298 0.160677
O O4 0.840422 0.186798 0.947805
O O5 0.782207 0.433219 0.842669
O O6 0.065711 0.440636 0.962527
O O7 0.857298 0.465327 0.064471
O O8 0.524439 0.738618 0.864398
O O9 0.606548 0.715786 0.101472
O O10 0.500000 0.016876 0.250000
O O11 0.208571 0.033431 0.127785
O O12 0.365668 0.185571 0.227062
O O13 0.631335 0.622167 0.159602
O O14 0.500000 0.549055 0.250000
#
# Coordination Sequence:
#
# PCOD8133408 Si02
#       7
#     8   8   8   8   4   8   8
#     4   9  19  33  58  77 105 142 183 219 270 310
#     4   9  18  36  57  79 106 138 180 224 260 313
#     4  10  19  34  51  79 110 143 178 223 263 323
#     4   9  19  34  57  80 108 136 176 222 268 319
#     4  10  22  32  50  76 112 148 178 220 274 312
#     4  10  19  33  55  78 106 140 186 224 259 317
#     4  10  20  32  56  84 105 137 178 221 273 314
#
# _framework density 18.766445999999998
#
# number of rings (size 3 to 8) (size 9 to 14) (size 15 to 20)
#    0.000    2.462    0.000    2.769    7.538    0.615 
#    0.000    4.615    8.462    0.000    0.000    0.000 
#    0.000    0.000    0.000    0.000    0.000    0.000 
#
# Total GULP energy -322118.115445 kJ/mol
# GULP energy per Si atom -12389.158286 kJ/mol
# Density = 1.872373 g / cm^3
# Si number density = 18.766446 Si / 1000 Ang^3
#
#
#
# Elastic Constant Matrix: (Units=GPa)
#
#
# Indices 1 2 3 4 5 6 
#
# 1 90.0405 42.8939 7.4933 0.0000 -21.0482 0.0000
# 2 42.8939 101.8948 28.3022 0.0000 -8.8912 0.0000
# 3 7.4933 28.3022 33.4648 0.0000 -7.0674 0.0000
# 4 0.0000 0.0000 0.0000 27.8702 0.0000 -2.9374
# 5 -21.0482 -8.8912 -7.0674 0.0000 28.6279 0.0000
# 6 0.0000 0.0000 0.0000 -2.9374 0.0000 25.8005
#
#
#
# Elastic Compliance Matrix: (Units=1/GPa)
#
#
# Indices 1 2 3 4 5 6 
#
# 1 0.016921 -0.007511 0.004956 0.000000 0.011331 0.000000
# 2 -0.007511 0.016213 -0.012800 0.000000 -0.003647 0.000000
# 3 0.004956 -0.012800 0.041702 0.000000 0.009964 0.000000
# 4 0.000000 0.000000 0.000000 0.036316 0.000000 0.004135
# 5 0.011331 -0.003647 0.009964 0.000000 0.044589 0.000000
# 6 0.000000 0.000000 0.000000 0.004135 0.000000 0.039230
#
#
# Mechanical properties :
#
#
# Convention : Reuss Voigt Hill
#
# Bulk Modulus (GPa) = 22.66216 42.53098 32.59657
# Shear Modulus (GPa) = 20.79964 26.24044 23.52004
#
# Velocity S-wave (km/s) = 3.33279 3.74339 3.54404
# Velocity P-wave (km/s) = 5.18769 6.43401 5.84417
#
# Compressibility (1/GPa) = 0.04412642
#
# Stress axis : x y z
#
# Youngs Moduli (GPa) = 59.09974 61.67901 23.97967
#
# Poissons Ratio (x) = 0.46326 -0.11885
# Poissons Ratio (y) = 0.44389 0.30694
# Poissons Ratio (z) = -0.29293 0.78950
#
# Static dielectric constant tensor:
#      x y z
#    x 3.781940 0.000000 -0.338130 
#    y 0.000000 3.707210 0.000000 
#    z -0.338130 0.000000 3.431260 
# 
# 
# High freq. dielectric constant tensor:
#      x y z
#    x 1.739830 0.000000 -0.011650 
#    y 0.000000 1.719250 0.000000 
#    z -0.011650 0.000000 1.704740 
# 
# From -- ./inp_files/80851.got.cif
#   From: 2010.06.25/outbox.cif.g09.slc.cpg/sg15_41_cif.got.tgz:80851.got - 2010.06.28 07:06:18.
