data_PCOD8133958
_publ_section_title
;
Structure prediction by ZEFSAII (Michael W. Deem and Ramdas Pophale) SiO2 
 PCOD8133958
Probable space group: C 2/C
;
_chemical_formula_sum "Si O2"
_cell_formula_units_Z 48
_cell_length_a 11.587390
_cell_length_b 26.846395
_cell_length_c 14.709930
_cell_angle_alpha 90.000000
_cell_angle_beta 29.405805
_cell_angle_gamma 90.000000
_cell_volume 2246.759772
_symmetry_space_group_name_H-M "C 2/C"
_symmetry_group_IT_number 15
_symmetry_cell_setting 'monoclinic'
loop_
_space_group_symop_operation_xyz
x,y,z
-x,y,1/2-z
-x,-y,-z
x,-y,1/2+z
1/2+x,1/2+y,z
1/2-x,1/2+y,1/2-z
1/2-x,1/2-y,-z
1/2+x,1/2-y,1/2+z
loop_
_atom_site_type_symbol
_atom_site_label
_atom_site_fract_x
_atom_site_fract_y
_atom_site_fract_z
Si Si1 0.438053 0.191486 0.436721
Si Si2 0.593210 0.603242 0.902246
Si Si3 0.967808 0.938393 0.671708
Si Si4 0.255500 0.038104 0.462436
Si Si5 0.438342 0.914228 0.016176
Si Si6 0.376059 0.700092 0.011369
O O1 0.444406 0.145324 0.500419
O O2 0.457756 0.243608 0.477987
O O3 0.658469 0.183949 0.221065
O O4 0.195421 0.194312 0.545707
O O5 0.812539 0.577325 0.700174
O O6 0.605248 0.594369 0.002346
O O7 0.349324 0.580273 0.031759
O O8 0.590007 0.662536 0.885595
O O9 0.690210 0.940564 0.843326
O O10 0.000000 0.914741 0.750000
O O11 0.071429 0.993503 0.595747
O O12 0.500000 0.020255 0.250000
O O13 0.285318 0.060698 0.542206
#
# Coordination Sequence:
#
# PCOD8133958 Si02
#       6
#     8   8   8   8   8   8
#     4  10  19  35  61 101 138 166 204 269 335 406
#     4  12  24  43  67  99 134 177 217 272 338 400
#     4  12  29  46  65  94 130 182 232 276 319 399
#     4  12  25  44  69  98 135 171 220 278 343 397
#     4  12  25  44  69  96 138 173 218 279 339 390
#     4  10  19  34  62 101 137 166 208 261 339 404
#
# _framework density 21.364099
#
# number of rings (size 3 to 8) (size 9 to 14) (size 15 to 20)
#    0.000    0.667    5.000    3.000    2.333    2.667 
#    0.000    0.000    0.000    1.000    0.000    0.000 
#    0.000    0.000    0.000    0.000    0.000    0.000 
#
# Total GULP energy -297647.516140 kJ/mol
# GULP energy per Si atom -12401.979839 kJ/mol
# Density = 2.131547 g / cm^3
# Si number density = 21.364099 Si / 1000 Ang^3
#
#
#
# Elastic Constant Matrix: (Units=GPa)
#
#
# Indices 1 2 3 4 5 6 
#
# 1 90.1302 51.3890 37.9660 -0.0015 23.2329 -0.0004
# 2 51.3890 139.6263 46.0018 0.0001 -4.1079 0.0001
# 3 37.9660 46.0018 126.9618 -0.0009 19.1521 -0.0005
# 4 -0.0015 0.0001 -0.0009 31.5640 0.0011 -0.6039
# 5 23.2329 -4.1079 19.1521 0.0011 36.9080 0.0003
# 6 -0.0004 0.0001 -0.0005 -0.6039 0.0003 16.5895
#
#
#
# Elastic Compliance Matrix: (Units=1/GPa)
#
#
# Indices 1 2 3 4 5 6 
#
# 1 0.018502 -0.006714 -0.001335 0.000001 -0.011701 0.000001
# 2 -0.006714 0.010814 -0.002961 -0.000001 0.006966 0.000000
# 3 -0.001335 -0.002961 0.010059 0.000000 -0.004709 0.000000
# 4 0.000001 -0.000001 0.000000 0.031704 -0.000002 0.001154
# 5 -0.011701 0.006966 -0.004709 -0.000002 0.037679 -0.000001
# 6 0.000001 0.000000 0.000000 0.001154 -0.000001 0.060321
#
#
# Mechanical properties :
#
#
# Convention : Reuss Voigt Hill
#
# Bulk Modulus (GPa) = 57.62396 69.71464 63.66930
# Shear Modulus (GPa) = 25.39585 31.76973 28.58279
#
# Velocity S-wave (km/s) = 3.45152 3.86043 3.66168
# Velocity P-wave (km/s) = 6.55094 7.25073 6.90970
#
# Compressibility (1/GPa) = 0.01735389
#
# Stress axis : x y z
#
# Youngs Moduli (GPa) = 54.04962 92.47625 99.41477
#
# Poissons Ratio (x) = 0.62087 0.13271
# Poissons Ratio (y) = 0.36288 0.29439
# Poissons Ratio (z) = 0.07215 0.27385
#
# Static dielectric constant tensor:
#      x y z
#    x 3.703290 0.000000 0.192690 
#    y 0.000000 3.869220 0.000000 
#    z 0.192690 0.000000 3.990240 
# 
# 
# High freq. dielectric constant tensor:
#      x y z
#    x 1.793290 0.000000 0.017760 
#    y 0.000000 1.839860 0.000000 
#    z 0.017760 0.000000 1.860370 
# 
# From -- ./inp_files/148666.got.cif
#   From: 2010.06.25/outbox.cif.g09.slc.cpg/sg15_75_cif.got.tgz:148666.got - 2010.06.28 07:06:18.
