data_PCOD8133576
_publ_section_title
;
Structure prediction by ZEFSAII (Michael W. Deem and Ramdas Pophale) SiO2 
 PCOD8133576
Probable space group: C 2/C
;
_chemical_formula_sum "Si O2"
_cell_formula_units_Z 64
_cell_length_a 8.193490
_cell_length_b 23.205646
_cell_length_c 19.966819
_cell_angle_alpha 90.000000
_cell_angle_beta 121.958473
_cell_angle_gamma 90.000000
_cell_volume 3220.983399
_symmetry_space_group_name_H-M "C 2/C"
_symmetry_group_IT_number 15
_symmetry_cell_setting 'monoclinic'
loop_
_space_group_symop_operation_xyz
x,y,z
-x,y,1/2-z
-x,-y,-z
x,-y,1/2+z
1/2+x,1/2+y,z
1/2-x,1/2+y,1/2-z
1/2-x,1/2-y,-z
1/2+x,1/2-y,1/2+z
loop_
_atom_site_type_symbol
_atom_site_label
_atom_site_fract_x
_atom_site_fract_y
_atom_site_fract_z
Si Si1 0.194191 0.769168 0.060930
Si Si2 0.421357 0.850126 0.934805
Si Si3 0.140735 0.144078 0.008473
Si Si4 0.641182 0.441455 0.111217
Si Si5 0.222075 0.934369 0.641163
Si Si6 0.428028 0.873594 0.092176
Si Si7 0.285477 0.567953 0.722255
Si Si8 0.847069 0.557249 0.311830
O O1 0.183413 0.711252 0.103530
O O2 0.355214 0.816287 0.116897
O O3 0.983312 0.798046 0.018204
O O4 0.250000 0.750000 0.000000
O O5 0.320180 0.897858 0.866523
O O6 0.645543 0.841965 0.968001
O O7 0.396603 0.867960 0.006270
O O8 0.053597 0.095368 0.939909
O O9 0.135421 0.120067 0.083512
O O10 0.590054 0.509427 0.097791
O O11 0.795566 0.426465 0.087339
O O12 0.742989 0.428770 0.204372
O O13 0.431446 0.950420 0.658542
O O14 0.229637 0.919467 0.721647
O O15 0.649195 0.884829 0.157836
O O16 0.500000 0.585524 0.750000
O O17 0.237070 0.504278 0.683513
#
# Coordination Sequence:
#
# PCOD8133576 Si02
#       8
#     8   8   8   8   8   8   8   8
#     4   9  20  38  58  80 111 154 194 243 291 336
#     4  10  20  37  59  86 116 147 204 242 285 339
#     4  10  19  33  60  88 109 152 197 244 286 340
#     4  10  19  35  55  82 121 153 185 226 292 356
#     4   9  17  34  57  83 117 152 188 223 295 357
#     4  10  20  36  60  82 114 156 191 236 291 351
#     4  11  21  36  55  84 120 152 187 236 295 351
#     4   9  19  35  55  83 119 155 179 239 295 348
#
# _framework density 19.869709
#
# number of rings (size 3 to 8) (size 9 to 14) (size 15 to 20)
#    0.000    2.250    1.250    1.875    0.000    0.500 
#   15.750    0.000   19.250    0.000    0.000    0.000 
#    0.000    0.000    0.000    0.000    0.000    0.000 
#
# Total GULP energy -396710.999379 kJ/mol
# GULP energy per Si atom -12397.218731 kJ/mol
# Density = 1.982448 g / cm^3
# Si number density = 19.869709 Si / 1000 Ang^3
#
#
#
# Elastic Constant Matrix: (Units=GPa)
#
#
# Indices 1 2 3 4 5 6 
#
# 1 83.3270 46.1876 31.1125 0.0000 -0.4768 0.0000
# 2 46.1876 122.4824 64.1839 0.0000 -2.4745 0.0000
# 3 31.1125 64.1839 87.8697 0.0000 -5.5991 0.0000
# 4 0.0000 0.0000 0.0000 19.7550 0.0000 -1.5765
# 5 -0.4768 -2.4745 -5.5991 0.0000 29.4813 0.0000
# 6 0.0000 0.0000 0.0000 -1.5765 0.0000 28.3474
#
#
#
# Elastic Compliance Matrix: (Units=1/GPa)
#
#
# Indices 1 2 3 4 5 6 
#
# 1 0.015386 -0.004763 -0.002002 0.000000 -0.000531 0.000000
# 2 -0.004763 0.014718 -0.009100 0.000000 -0.000570 0.000000
# 3 -0.002002 -0.009100 0.018915 0.000000 0.002796 0.000000
# 4 0.000000 0.000000 0.000000 0.050846 0.000000 0.002828
# 5 -0.000531 -0.000570 0.002796 0.000000 0.034394 0.000000
# 6 0.000000 0.000000 0.000000 0.002828 0.000000 0.035434
#
#
# Mechanical properties :
#
#
# Convention : Reuss Voigt Hill
#
# Bulk Modulus (GPa) = 57.84788 64.07191 60.95989
# Shear Modulus (GPa) = 24.13277 25.66308 24.89792
#
# Velocity S-wave (km/s) = 3.48882 3.59774 3.54370
# Velocity P-wave (km/s) = 6.73840 7.04090 6.89131
#
# Compressibility (1/GPa) = 0.01728672
#
# Stress axis : x y z
#
# Youngs Moduli (GPa) = 64.99508 67.94373 52.86834
#
# Poissons Ratio (x) = 0.32365 0.10585
# Poissons Ratio (y) = 0.30960 0.48112
# Poissons Ratio (z) = 0.13013 0.61832
#
# Static dielectric constant tensor:
#      x y z
#    x 3.580820 0.000000 0.027480 
#    y 0.000000 3.911030 0.000000 
#    z 0.027480 0.000000 3.645020 
# 
# 
# High freq. dielectric constant tensor:
#      x y z
#    x 1.776720 0.000000 0.000510 
#    y 0.000000 1.770830 0.000000 
#    z 0.000510 0.000000 1.760420 
# 
# From -- ./inp_files/234465.got.cif
#   From: 2010.06.25/outbox.cif.g09.slc.cpg/sg15_118_cif.got.tgz:234465.got - 2010.06.28 07:06:18.
