data_PCOD8133976
_publ_section_title
;
Structure prediction by ZEFSAII (Michael W. Deem and Ramdas Pophale) SiO2 
 PCOD8133976
Probable space group: C 2/C
;
_chemical_formula_sum "Si O2"
_cell_formula_units_Z 60
_cell_length_a 19.126851
_cell_length_b 12.061480
_cell_length_c 16.627866
_cell_angle_alpha 90.000000
_cell_angle_beta 58.531307
_cell_angle_gamma 90.000000
_cell_volume 3271.837371
_symmetry_space_group_name_H-M "C 2/C"
_symmetry_group_IT_number 15
_symmetry_cell_setting 'monoclinic'
loop_
_space_group_symop_operation_xyz
x,y,z
-x,y,1/2-z
-x,-y,-z
x,-y,1/2+z
1/2+x,1/2+y,z
1/2-x,1/2+y,1/2-z
1/2-x,1/2-y,-z
1/2+x,1/2-y,1/2+z
loop_
_atom_site_type_symbol
_atom_site_label
_atom_site_fract_x
_atom_site_fract_y
_atom_site_fract_z
Si Si1 0.500000 0.585687 0.250000
Si Si2 0.272615 0.114701 0.391244
Si Si3 0.005726 0.162339 0.070373
Si Si4 0.630354 0.581292 0.727564
Si Si5 0.479361 0.125102 0.492479
Si Si6 0.296043 0.858034 0.055798
Si Si7 0.064754 0.321863 0.774758
Si Si8 0.623816 0.494805 0.410563
O O1 0.502813 0.661424 0.168906
O O2 0.418792 0.510779 0.292809
O O3 0.305367 0.090848 0.461042
O O4 0.223772 0.228872 0.427898
O O5 0.349124 0.113028 0.283591
O O6 0.211867 0.021237 0.395172
O O7 0.083683 0.090366 0.997026
O O8 0.927589 0.107520 0.072343
O O9 0.010470 0.291221 0.043173
O O10 0.723963 0.574790 0.642792
O O11 0.585055 0.696319 0.736991
O O12 0.631569 0.566135 0.821682
O O13 0.381758 0.127069 0.548076
O O14 0.525476 0.166782 0.385412
O O15 0.500000 0.000000 0.500000
O O16 0.000000 0.370220 0.750000
#
# Coordination Sequence:
#
# PCOD8133976 Si02
#       8
#     4   8   8   8   8   8   8   8
#     4  10  20  36  64  94 120 150 190 250 314 360
#     4  10  20  34  60  87 118 146 188 256 297 350
#     4  10  21  38  59  91 119 155 193 244 302 357
#     4  10  20  33  62  92 120 149 185 251 302 362
#     4  12  25  42  58  81 124 170 203 242 285 365
#     4  10  21  36  55  88 117 151 195 238 297 351
#     4  11  21  38  60  88 119 153 205 242 299 349
#     4  10  19  34  63  89 121 143 192 250 309 344
#
# _framework density 18.338318999999998
#
# number of rings (size 3 to 8) (size 9 to 14) (size 15 to 20)
#    0.000    1.600    4.667    0.800    1.867    0.000 
#    1.200    0.000    0.000    1.600    0.000    0.000 
#    0.000    0.000    0.000    0.000    0.000    0.000 
#
# Total GULP energy -371969.133865 kJ/mol
# GULP energy per Si atom -12398.971129 kJ/mol
# Density = 1.829658 g / cm^3
# Si number density = 18.338319 Si / 1000 Ang^3
#
#
#
# Elastic Constant Matrix: (Units=GPa)
#
#
# Indices 1 2 3 4 5 6 
#
# 1 112.1868 41.1038 47.2056 0.0000 -7.6350 0.0000
# 2 41.1038 81.2456 37.9035 0.0000 2.2746 0.0000
# 3 47.2056 37.9035 106.1241 0.0000 -10.6584 0.0000
# 4 0.0000 0.0000 0.0000 14.9587 0.0000 -7.3286
# 5 -7.6350 2.2746 -10.6584 0.0000 31.8446 0.0000
# 6 0.0000 0.0000 0.0000 -7.3286 0.0000 11.5063
#
#
#
# Elastic Compliance Matrix: (Units=1/GPa)
#
#
# Indices 1 2 3 4 5 6 
#
# 1 0.012246 -0.004569 -0.003609 0.000000 0.002055 0.000000
# 2 -0.004569 0.016741 -0.004322 0.000000 -0.003738 0.000000
# 3 -0.003609 -0.004322 0.012951 0.000000 0.003778 0.000000
# 4 0.000000 0.000000 0.000000 0.097172 0.000000 0.061891
# 5 0.002055 -0.003738 0.003778 0.000000 0.033427 0.000000
# 6 0.000000 0.000000 0.000000 0.061891 0.000000 0.126328
#
#
# Mechanical properties :
#
#
# Convention : Reuss Voigt Hill
#
# Bulk Modulus (GPa) = 59.03971 61.33135 60.18553
# Shear Modulus (GPa) = 15.17390 23.21818 19.19604
#
# Velocity S-wave (km/s) = 2.87965 3.56209 3.23890
# Velocity P-wave (km/s) = 6.58188 7.10176 6.84675
#
# Compressibility (1/GPa) = 0.01693775
#
# Stress axis : x y z
#
# Youngs Moduli (GPa) = 81.65729 59.73278 77.21158
#
# Poissons Ratio (x) = 0.27295 0.27865
# Poissons Ratio (y) = 0.37313 0.33372
# Poissons Ratio (z) = 0.29470 0.25817
#
# Static dielectric constant tensor:
#      x y z
#    x 3.413710 0.000000 -0.111360 
#    y 0.000000 3.134100 0.000000 
#    z -0.111360 0.000000 3.508390 
# 
# 
# High freq. dielectric constant tensor:
#      x y z
#    x 1.715490 0.000000 -0.006580 
#    y 0.000000 1.682340 0.000000 
#    z -0.006580 0.000000 1.722370 
# 
# From -- ./inp_files/161312.got.cif
#   From: 2010.06.25/outbox.cif.g09.slc.cpg/sg15_81_cif.got.tgz:161312.got - 2010.06.28 07:06:18.
