data_PCOD8133270
_publ_section_title
;
Structure prediction by ZEFSAII (Michael W. Deem and Ramdas Pophale) SiO2 
 PCOD8133270
Probable space group: C 2/C
;
_chemical_formula_sum "Si O2"
_cell_formula_units_Z 64
_cell_length_a 14.824097
_cell_length_b 24.455068
_cell_length_c 9.655806
_cell_angle_alpha 90.000000
_cell_angle_beta 102.578069
_cell_angle_gamma 90.000000
_cell_volume 3416.453830
_symmetry_space_group_name_H-M "C 2/C"
_symmetry_group_IT_number 15
_symmetry_cell_setting 'monoclinic'
loop_
_space_group_symop_operation_xyz
x,y,z
-x,y,1/2-z
-x,-y,-z
x,-y,1/2+z
1/2+x,1/2+y,z
1/2-x,1/2+y,1/2-z
1/2-x,1/2-y,-z
1/2+x,1/2-y,1/2+z
loop_
_atom_site_type_symbol
_atom_site_label
_atom_site_fract_x
_atom_site_fract_y
_atom_site_fract_z
Si Si1 0.917059 0.534566 0.831927
Si Si2 0.272360 0.882986 0.214198
Si Si3 0.464134 0.265767 0.589018
Si Si4 0.027545 0.582022 0.107652
Si Si5 0.845725 0.330445 0.982330
Si Si6 0.638993 0.204519 0.567705
Si Si7 0.801300 0.722624 0.196903
Si Si8 0.086594 0.828946 0.185234
O O1 0.817136 0.556786 0.744491
O O2 0.903552 0.469525 0.846792
O O3 0.000000 0.546991 0.750000
O O4 0.939803 0.560926 0.989335
O O5 0.342022 0.845880 0.326383
O O6 0.164709 0.876941 0.222417
O O7 0.275818 0.862960 0.057008
O O8 0.500000 0.286706 0.750000
O O9 0.375253 0.225684 0.572169
O O10 0.534710 0.224207 0.540438
O O11 0.445075 0.318223 0.484522
O O12 0.069935 0.630722 0.032244
O O13 0.000000 0.604661 0.250000
O O14 0.789615 0.315281 0.826084
O O15 0.699749 0.257175 0.626309
O O16 0.659543 0.186331 0.416565
O O17 0.871293 0.772844 0.243417
O O18 0.000000 0.847528 0.250000
#
# Coordination Sequence:
#
# PCOD8133270 Si02
#       8
#     8   8   8   8   8   8   8   8
#     4  10  20  39  54  78 110 138 169 211 269 325
#     4  11  22  34  55  74 107 146 180 221 265 321
#     4  11  21  31  51  73 109 147 179 213 258 308
#     4  10  22  34  55  78 111 137 169 211 258 326
#     4  11  22  32  49  78 106 142 176 211 260 321
#     4  10  19  33  48  72 101 147 177 220 253 303
#     4   9  21  33  48  70 108 139 184 219 253 302
#     4  10  21  37  51  74 105 142 185 224 262 304
#
# _framework density 18.732873999999999
#
# number of rings (size 3 to 8) (size 9 to 14) (size 15 to 20)
#    0.000    1.750    3.750    0.750    5.250    1.500 
#    0.000    0.000    0.000    0.000    0.000    0.875 
#    0.000    0.000    0.000    0.000    0.000    0.000 
#
# Total GULP energy -396677.394242 kJ/mol
# GULP energy per Si atom -12396.168570 kJ/mol
# Density = 1.869024 g / cm^3
# Si number density = 18.732874 Si / 1000 Ang^3
#
#
#
# Elastic Constant Matrix: (Units=GPa)
#
#
# Indices 1 2 3 4 5 6 
#
# 1 75.9803 23.8661 15.1985 0.0000 0.5177 0.0000
# 2 23.8661 49.1811 21.4912 0.0000 3.1690 0.0000
# 3 15.1985 21.4912 106.9988 0.0000 -0.4926 0.0000
# 4 0.0000 0.0000 0.0000 24.5571 0.0000 5.4811
# 5 0.5177 3.1690 -0.4926 0.0000 23.7455 0.0000
# 6 0.0000 0.0000 0.0000 5.4811 0.0000 16.0113
#
#
#
# Elastic Compliance Matrix: (Units=1/GPa)
#
#
# Indices 1 2 3 4 5 6 
#
# 1 0.015594 -0.007279 -0.000750 0.000000 0.000616 0.000000
# 2 -0.007279 0.025913 -0.004186 0.000000 -0.003386 0.000000
# 3 -0.000750 -0.004186 0.010297 0.000000 0.000789 0.000000
# 4 0.000000 0.000000 0.000000 0.044090 0.000000 -0.015093
# 5 0.000616 -0.003386 0.000789 0.000000 0.042568 0.000000
# 6 0.000000 0.000000 0.000000 -0.015093 0.000000 0.067623
#
#
# Mechanical properties :
#
#
# Convention : Reuss Voigt Hill
#
# Bulk Modulus (GPa) = 36.53316 39.25243 37.89280
# Shear Modulus (GPa) = 20.86467 24.30308 22.58387
#
# Velocity S-wave (km/s) = 3.34098 3.60578 3.47591
# Velocity P-wave (km/s) = 5.86749 6.19151 6.03167
#
# Compressibility (1/GPa) = 0.02737239
#
# Stress axis : x y z
#
# Youngs Moduli (GPa) = 64.12913 38.59094 97.11633
#
# Poissons Ratio (x) = 0.28090 0.07285
# Poissons Ratio (y) = 0.46679 0.40656
# Poissons Ratio (z) = 0.04810 0.16156
#
# Static dielectric constant tensor:
#      x y z
#    x 3.302410 0.000000 -0.029070 
#    y 0.000000 3.202090 0.000000 
#    z -0.029070 0.000000 3.746530 
# 
# 
# High freq. dielectric constant tensor:
#      x y z
#    x 1.704220 0.000000 -0.006070 
#    y 0.000000 1.681090 0.000000 
#    z -0.006070 0.000000 1.751470 
# 
# From -- ./inp_files/43556.got.cif
#   From: 2010.06.25/outbox.cif.g09.slc.cpg/sg15_22_cif.got.tgz:43556.got - 2010.06.28 07:06:18.
