data_PCOD8133005
_publ_section_title
;
Structure prediction by ZEFSAII (Michael W. Deem and Ramdas Pophale) SiO2 
 PCOD8133005
Probable space group: C 2/C
;
_chemical_formula_sum "Si O2"
_cell_formula_units_Z 60
_cell_length_a 13.877912
_cell_length_b 18.017373
_cell_length_c 13.982678
_cell_angle_alpha 90.000000
_cell_angle_beta 70.270585
_cell_angle_gamma 90.000000
_cell_volume 3291.037235
_symmetry_space_group_name_H-M "C 2/C"
_symmetry_group_IT_number 15
_symmetry_cell_setting 'monoclinic'
loop_
_space_group_symop_operation_xyz
x,y,z
-x,y,1/2-z
-x,-y,-z
x,-y,1/2+z
1/2+x,1/2+y,z
1/2-x,1/2+y,1/2-z
1/2-x,1/2-y,-z
1/2+x,1/2-y,1/2+z
loop_
_atom_site_type_symbol
_atom_site_label
_atom_site_fract_x
_atom_site_fract_y
_atom_site_fract_z
Si Si1 0.105267 0.068848 0.876230
Si Si2 0.216619 0.951580 0.720872
Si Si3 0.500000 0.977789 0.750000
Si Si4 0.891678 0.008467 0.419775
Si Si5 0.259667 0.125151 0.547679
Si Si6 0.387855 0.700109 0.755864
Si Si7 0.411208 0.027473 0.595942
Si Si8 0.673821 0.142794 0.178993
O O1 0.125215 0.154497 0.839007
O O2 0.194292 0.023250 0.793963
O O3 0.110916 0.063601 0.988846
O O4 0.998105 0.035025 0.875388
O O5 0.128124 0.942211 0.669669
O O6 0.228761 0.881313 0.787652
O O7 0.324509 0.963853 0.631463
O O8 0.405119 0.924706 0.810071
O O9 0.465090 0.035540 0.680631
O O10 0.801213 0.949118 0.459913
O O11 0.192867 0.178028 0.636037
O O12 0.362449 0.103822 0.572412
O O13 0.287536 0.166822 0.439398
O O14 0.500000 0.677668 0.750000
O O15 0.377888 0.788586 0.746968
O O16 0.500000 0.000000 0.500000
#
# Coordination Sequence:
#
# PCOD8133005 Si02
#       8
#     8   8   4   8   8   8   8   8
#     4  11  19  35  59  85 112 142 184 239 287 327
#     4  10  20  34  54  79 110 146 184 228 273 339
#     4  10  20  34  54  82 104 150 180 222 274 332
#     4  10  20  33  58  88 109 137 190 239 282 328
#     4  11  20  36  55  85 114 141 186 235 276 333
#     4  12  22  37  55  84 116 146 182 232 286 338
#     4  10  19  31  53  77 111 136 183 229 267 316
#     4  11  22  36  54  80 116 149 184 224 285 332
#
# _framework density 18.231335000000001
#
# number of rings (size 3 to 8) (size 9 to 14) (size 15 to 20)
#    0.000    1.333    7.333    0.800    0.000    0.000 
#    0.000    0.667    0.000    0.000    6.933    0.000 
#    0.000    0.000    0.000    0.000    0.000    0.000 
#
# Total GULP energy -371799.311691 kJ/mol
# GULP energy per Si atom -12393.310390 kJ/mol
# Density = 1.818984 g / cm^3
# Si number density = 18.231335 Si / 1000 Ang^3
#
#
#
# Elastic Constant Matrix: (Units=GPa)
#
#
# Indices 1 2 3 4 5 6 
#
# 1 91.7860 25.9232 40.1200 0.0000 12.6486 0.0000
# 2 25.9232 69.0807 28.3682 0.0000 13.6053 0.0000
# 3 40.1200 28.3682 96.6888 0.0000 12.9922 0.0000
# 4 0.0000 0.0000 0.0000 25.7756 0.0000 -2.1022
# 5 12.6486 13.6053 12.9922 0.0000 40.8736 0.0000
# 6 0.0000 0.0000 0.0000 -2.1022 0.0000 22.3266
#
#
#
# Elastic Compliance Matrix: (Units=1/GPa)
#
#
# Indices 1 2 3 4 5 6 
#
# 1 0.014048 -0.002972 -0.004707 0.000000 -0.001862 0.000000
# 2 -0.002972 0.017780 -0.003459 0.000000 -0.003899 0.000000
# 3 -0.004707 -0.003459 0.013538 0.000000 -0.001695 0.000000
# 4 0.000000 0.000000 0.000000 0.039097 0.000000 0.003681
# 5 -0.001862 -0.003899 -0.001695 0.000000 0.026878 0.000000
# 6 0.000000 0.000000 0.000000 0.003681 0.000000 0.045136
#
#
# Mechanical properties :
#
#
# Convention : Reuss Voigt Hill
#
# Bulk Modulus (GPa) = 43.31008 49.59758 46.45383
# Shear Modulus (GPa) = 26.81669 28.67144 27.74406
#
# Velocity S-wave (km/s) = 3.83941 3.96996 3.90523
# Velocity P-wave (km/s) = 6.59258 6.94822 6.77274
#
# Compressibility (1/GPa) = 0.02308931
#
# Stress axis : x y z
#
# Youngs Moduli (GPa) = 71.18266 56.24428 73.86428
#
# Poissons Ratio (x) = 0.16717 0.34768
# Poissons Ratio (y) = 0.21156 0.25552
# Poissons Ratio (z) = 0.33506 0.19457
#
# Static dielectric constant tensor:
#      x y z
#    x 3.629030 0.000000 0.090370 
#    y 0.000000 3.095710 0.000000 
#    z 0.090370 0.000000 3.535900 
# 
# 
# High freq. dielectric constant tensor:
#      x y z
#    x 1.712630 0.000000 -0.006120 
#    y 0.000000 1.661380 0.000000 
#    z -0.006120 0.000000 1.720000 
# 
# From -- ./inp_files/154809.got.cif
#   From: 2010.06.25/outbox.cif.g09.slc.cpg/sg15_78_cif.got.tgz:154809.got - 2010.06.28 07:06:18.
