data_PCOD8133759
_publ_section_title
;
Structure prediction by ZEFSAII (Michael W. Deem and Ramdas Pophale) SiO2 
 PCOD8133759
Probable space group: C 2/C
;
_chemical_formula_sum "Si O2"
_cell_formula_units_Z 56
_cell_length_a 26.547225
_cell_length_b 10.950030
_cell_length_c 15.243445
_cell_angle_alpha 90.000000
_cell_angle_beta 39.429828
_cell_angle_gamma 90.000000
_cell_volume 2814.375540
_symmetry_space_group_name_H-M "C 2/C"
_symmetry_group_IT_number 15
_symmetry_cell_setting 'monoclinic'
loop_
_space_group_symop_operation_xyz
x,y,z
-x,y,1/2-z
-x,-y,-z
x,-y,1/2+z
1/2+x,1/2+y,z
1/2-x,1/2+y,1/2-z
1/2-x,1/2-y,-z
1/2+x,1/2-y,1/2+z
loop_
_atom_site_type_symbol
_atom_site_label
_atom_site_fract_x
_atom_site_fract_y
_atom_site_fract_z
Si Si1 0.069769 0.461504 0.717581
Si Si2 0.758674 0.451093 0.314351
Si Si3 0.694042 0.064844 0.419790
Si Si4 0.864891 0.792548 0.096083
Si Si5 0.695296 0.181994 0.146187
Si Si6 0.023209 0.272523 0.318162
Si Si7 0.310917 0.277841 0.842388
O O1 0.146780 0.500129 0.559866
O O2 0.107245 0.358768 0.730980
O O3 0.033738 0.580084 0.816428
O O4 0.000000 0.405123 0.750000
O O5 0.809647 0.483541 0.160875
O O6 0.669895 0.416428 0.400733
O O7 0.755333 0.563271 0.387421
O O8 0.809950 0.338412 0.280101
O O9 0.652362 0.191990 0.454781
O O10 0.783914 0.097212 0.329980
O O11 0.822018 0.770437 0.247617
O O12 0.960338 0.786415 0.971795
O O13 0.750000 0.250000 0.000000
O O14 0.102923 0.200492 0.233975
O O15 0.000000 0.241858 0.250000
O O16 0.250000 0.250000 0.000000
#
# Coordination Sequence:
#
# PCOD8133759 Si02
#       7
#     8   8   8   8   8   8   8
#     4  11  20  35  59  91 122 152 199 257 313 337
#     4  10  21  37  58  84 118 157 200 252 306 358
#     4  10  19  34  56  84 117 152 202 247 298 367
#     4  10  21  36  57  86 121 155 201 253 302 356
#     4  11  23  39  61  89 124 164 203 247 305 371
#     4  11  19  34  57  90 122 147 203 256 303 344
#     4  11  19  34  59  85 114 157 201 250 299 365
#
# _framework density 19.897842000000001
#
# number of rings (size 3 to 8) (size 9 to 14) (size 15 to 20)
#    0.000    1.429    5.714    1.714    0.000    1.714 
#    0.000    0.714    0.000    6.000    0.000    0.000 
#    0.000    0.000    0.000    0.000    0.000    0.000 
#
# Total GULP energy -346994.361560 kJ/mol
# GULP energy per Si atom -12392.655770 kJ/mol
# Density = 1.985255 g / cm^3
# Si number density = 19.897842 Si / 1000 Ang^3
#
#
#
# Elastic Constant Matrix: (Units=GPa)
#
#
# Indices 1 2 3 4 5 6 
#
# 1 139.6130 45.5720 44.7635 -0.0002 -19.8268 0.0001
# 2 45.5720 62.2502 29.1528 -0.0006 -1.9680 0.0003
# 3 44.7635 29.1528 94.7489 -0.0002 -8.8393 0.0001
# 4 -0.0002 -0.0006 -0.0002 25.9598 0.0001 0.5130
# 5 -19.8268 -1.9680 -8.8393 0.0001 38.1463 -0.0001
# 6 0.0001 0.0003 0.0001 0.5130 -0.0001 40.6699
#
#
#
# Elastic Compliance Matrix: (Units=1/GPa)
#
#
# Indices 1 2 3 4 5 6 
#
# 1 0.010806 -0.006515 -0.002666 0.000000 0.004663 0.000000
# 2 -0.006515 0.022702 -0.004205 0.000000 -0.003189 0.000000
# 3 -0.002666 -0.004205 0.013244 0.000000 0.001467 0.000000
# 4 0.000000 0.000000 0.000000 0.038531 0.000000 -0.000486
# 5 0.004663 -0.003189 0.001467 0.000000 0.028814 0.000000
# 6 0.000000 0.000000 0.000000 -0.000486 0.000000 0.024594
#
#
# Mechanical properties :
#
#
# Convention : Reuss Voigt Hill
#
# Bulk Modulus (GPa) = 50.04636 59.50984 54.77810
# Shear Modulus (GPa) = 29.04911 32.76345 30.90628
#
# Velocity S-wave (km/s) = 3.82503 4.06221 3.94540
# Velocity P-wave (km/s) = 6.68685 7.20935 6.95301
#
# Compressibility (1/GPa) = 0.01998147
#
# Stress axis : x y z
#
# Youngs Moduli (GPa) = 92.53961 44.04890 75.50535
#
# Poissons Ratio (x) = 0.28699 0.20127
# Poissons Ratio (y) = 0.60291 0.31747
# Poissons Ratio (z) = 0.24668 0.18521
#
# Static dielectric constant tensor:
#      x y z
#    x 4.177260 0.000000 -0.055230 
#    y 0.000000 3.377340 0.000000 
#    z -0.055230 0.000000 3.596130 
# 
# 
# High freq. dielectric constant tensor:
#      x y z
#    x 1.791710 0.000000 0.006250 
#    y 0.000000 1.744350 0.000000 
#    z 0.006250 0.000000 1.764970 
# 
# From -- ./inp_files/160852.got.cif
#   From: 2010.06.25/outbox.cif.g09.slc.cpg/sg15_81_cif.got.tgz:160852.got - 2010.06.28 07:06:18.
