data_PCOD8133465
_publ_section_title
;
Structure prediction by ZEFSAII (Michael W. Deem and Ramdas Pophale) SiO2 
 PCOD8133465
Probable space group: C 2/C
;
_chemical_formula_sum "Si O2"
_cell_formula_units_Z 40
_cell_length_a 16.080112
_cell_length_b 10.064881
_cell_length_c 20.738421
_cell_angle_alpha 90.000000
_cell_angle_beta 141.191030
_cell_angle_gamma 90.000000
_cell_volume 2103.541010
_symmetry_space_group_name_H-M "C 2/C"
_symmetry_group_IT_number 15
_symmetry_cell_setting 'monoclinic'
loop_
_space_group_symop_operation_xyz
x,y,z
-x,y,1/2-z
-x,-y,-z
x,-y,1/2+z
1/2+x,1/2+y,z
1/2-x,1/2+y,1/2-z
1/2-x,1/2-y,-z
1/2+x,1/2-y,1/2+z
loop_
_atom_site_type_symbol
_atom_site_label
_atom_site_fract_x
_atom_site_fract_y
_atom_site_fract_z
Si Si1 0.802806 0.917617 0.073956
Si Si2 0.141446 0.157513 0.305393
Si Si3 0.532259 0.507910 0.125911
Si Si4 0.348313 0.866687 0.640977
Si Si5 0.179545 0.087599 0.598844
O O1 0.806893 0.787997 0.122097
O O2 0.942808 0.919669 0.120035
O O3 0.784760 0.047005 0.106877
O O4 0.680065 0.913330 0.949895
O O5 0.227968 0.288234 0.357563
O O6 0.000000 0.194642 0.250000
O O7 0.126028 0.105247 0.223405
O O8 0.623106 0.410763 0.137488
O O9 0.440843 0.598348 0.024543
O O10 0.500000 0.891832 0.750000
O O11 0.258780 0.950180 0.636273
#
# Coordination Sequence:
#
# PCOD8133465 Si02
#       5
#     8   8   8   8   8
#     4   9  20  36  55  77 105 142 177 211 260 316
#     4  10  20  35  56  79 105 138 176 217 259 308
#     4   9  20  37  54  75 110 142 168 212 270 313
#     4  10  19  33  56  80 105 137 178 218 257 308
#     4  10  21  35  55  80 105 137 177 217 260 310
#
# _framework density 19.015556
#
# number of rings (size 3 to 8) (size 9 to 14) (size 15 to 20)
#    0.000    2.400    0.000    2.400    0.000   12.000 
#    0.000    0.000    0.000   21.600    0.000    0.000 
#    0.000    0.000    0.000    0.000    0.000    0.000 
#
# Total GULP energy -248025.669512 kJ/mol
# GULP energy per Si atom -12401.283476 kJ/mol
# Density = 1.897228 g / cm^3
# Si number density = 19.015556 Si / 1000 Ang^3
#
#
#
# Elastic Constant Matrix: (Units=GPa)
#
#
# Indices 1 2 3 4 5 6 
#
# 1 76.0865 61.4363 40.8605 0.0000 -11.4206 0.0000
# 2 61.4363 142.3230 46.0313 0.0000 -1.6086 0.0000
# 3 40.8605 46.0313 104.0850 0.0000 4.4668 0.0000
# 4 0.0000 0.0000 0.0000 25.1518 0.0000 4.3902
# 5 -11.4206 -1.6086 4.4668 0.0000 23.3467 0.0000
# 6 0.0000 0.0000 0.0000 4.3902 0.0000 18.8571
#
#
#
# Elastic Compliance Matrix: (Units=1/GPa)
#
#
# Indices 1 2 3 4 5 6 
#
# 1 0.025985 -0.008845 -0.006865 0.000000 0.013415 0.000000
# 2 -0.008845 0.011247 -0.001361 0.000000 -0.003291 0.000000
# 3 -0.006865 -0.001361 0.013160 0.000000 -0.005970 0.000000
# 4 0.000000 0.000000 0.000000 0.041443 0.000000 -0.009649
# 5 0.013415 -0.003291 -0.005970 0.000000 0.050310 0.000000
# 6 0.000000 0.000000 0.000000 -0.009649 0.000000 0.055277
#
#
# Mechanical properties :
#
#
# Convention : Reuss Voigt Hill
#
# Bulk Modulus (GPa) = 61.53193 68.79451 65.16322
# Shear Modulus (GPa) = 21.09876 25.08222 23.09049
#
# Velocity S-wave (km/s) = 3.33461 3.63580 3.48845
# Velocity P-wave (km/s) = 6.87424 7.34043 7.11115
#
# Compressibility (1/GPa) = 0.01625172
#
# Stress axis : x y z
#
# Youngs Moduli (GPa) = 38.48351 88.91098 75.98556
#
# Poissons Ratio (x) = 0.78642 0.52164
# Poissons Ratio (y) = 0.34039 0.10338
# Poissons Ratio (z) = 0.26419 0.12097
#
# Static dielectric constant tensor:
#      x y z
#    x 3.392110 0.000000 -0.102900 
#    y 0.000000 3.370300 0.000000 
#    z -0.102900 0.000000 3.718130 
# 
# 
# High freq. dielectric constant tensor:
#      x y z
#    x 1.720260 0.000000 -0.006540 
#    y 0.000000 1.732950 0.000000 
#    z -0.006540 0.000000 1.753570 
# 
# From -- ./inp_files/102810.got.cif
#   From: 2010.06.25/outbox.cif.g09.slc.cpg/sg15_52_cif.got.tgz:102810.got - 2010.06.28 07:06:18.
