data_PCOD8133704
_publ_section_title
;
Structure prediction by ZEFSAII (Michael W. Deem and Ramdas Pophale) SiO2 
 PCOD8133704
Probable space group: C 2/C
;
_chemical_formula_sum "Si O2"
_cell_formula_units_Z 52
_cell_length_a 8.143151
_cell_length_b 31.074354
_cell_length_c 10.151337
_cell_angle_alpha 90.000000
_cell_angle_beta 91.430504
_cell_angle_gamma 90.000000
_cell_volume 2567.925793
_symmetry_space_group_name_H-M "C 2/C"
_symmetry_group_IT_number 15
_symmetry_cell_setting 'monoclinic'
loop_
_space_group_symop_operation_xyz
x,y,z
-x,y,1/2-z
-x,-y,-z
x,-y,1/2+z
1/2+x,1/2+y,z
1/2-x,1/2+y,1/2-z
1/2-x,1/2-y,-z
1/2+x,1/2-y,1/2+z
loop_
_atom_site_type_symbol
_atom_site_label
_atom_site_fract_x
_atom_site_fract_y
_atom_site_fract_z
Si Si1 0.500000 0.755395 0.250000
Si Si2 0.308208 0.965413 0.599792
Si Si3 0.806994 0.465961 0.894713
Si Si4 0.373279 0.210860 0.007433
Si Si5 0.208298 0.714859 0.104227
Si Si6 0.682793 0.625300 0.401796
Si Si7 0.306620 0.373319 0.907609
O O1 0.527965 0.787235 0.128477
O O2 0.336322 0.724103 0.228508
O O3 0.230225 0.971431 0.745506
O O4 0.500663 0.973248 0.612056
O O5 0.274854 0.917638 0.545004
O O6 0.229569 0.999462 0.495049
O O7 0.768984 0.418500 0.951103
O O8 0.250000 0.250000 0.000000
O O9 0.510162 0.216810 0.127459
O O10 0.278831 0.165965 0.018774
O O11 0.236590 0.668144 0.036988
O O12 0.250000 0.750000 0.000000
O O13 0.714661 0.631358 0.247771
O O14 0.496985 0.624482 0.446875
#
# Coordination Sequence:
#
# PCOD8133704 Si02
#       7
#     4   8   8   8   8   8   8
#     4  10  22  38  54  80 114 146 182 228 282 328
#     4   9  18  34  54  79 106 140 183 228 279 335
#     4   9  18  33  55  79 107 140 180 229 281 334
#     4  11  22  36  57  82 110 146 186 229 278 333
#     4  10  20  36  56  79 110 143 182 227 273 326
#     4  10  19  34  55  79 107 141 183 230 272 325
#     4  10  20  34  55  81 107 140 185 227 272 329
#
# _framework density 20.249807000000001
#
# number of rings (size 3 to 8) (size 9 to 14) (size 15 to 20)
#    0.000    2.154    0.000    4.615    0.000    4.308 
#    0.000    6.154    0.000    3.692    0.000    0.000 
#    0.000    0.000    0.000    0.000    0.000    0.000 
#
# Total GULP energy -322165.488512 kJ/mol
# GULP energy per Si atom -12390.980327 kJ/mol
# Density = 2.020372 g / cm^3
# Si number density = 20.249807 Si / 1000 Ang^3
#
#
#
# Elastic Constant Matrix: (Units=GPa)
#
#
# Indices 1 2 3 4 5 6 
#
# 1 75.2629 29.5441 30.8429 0.0000 9.7032 0.0000
# 2 29.5441 189.0832 64.8640 0.0000 -1.1917 0.0000
# 3 30.8429 64.8640 70.0404 0.0000 0.6870 0.0000
# 4 0.0000 0.0000 0.0000 31.0124 0.0000 -0.5206
# 5 9.7032 -1.1917 0.6870 0.0000 20.7192 0.0000
# 6 0.0000 0.0000 0.0000 -0.5206 0.0000 35.1929
#
#
#
# Elastic Compliance Matrix: (Units=1/GPa)
#
#
# Indices 1 2 3 4 5 6 
#
# 1 0.017425 -0.000245 -0.007369 0.000000 -0.007930 0.000000
# 2 -0.000245 0.007764 -0.007090 0.000000 0.000796 0.000000
# 3 -0.007369 -0.007090 0.024067 0.000000 0.002245 0.000000
# 4 0.000000 0.000000 0.000000 0.032253 0.000000 0.000477
# 5 -0.007930 0.000796 0.002245 0.000000 0.051950 0.000000
# 6 0.000000 0.000000 0.000000 0.000477 0.000000 0.028422
#
#
# Mechanical properties :
#
#
# Convention : Reuss Voigt Hill
#
# Bulk Modulus (GPa) = 50.38288 64.98761 57.68524
# Shear Modulus (GPa) = 25.26468 31.32727 28.29597
#
# Velocity S-wave (km/s) = 3.53604 3.93751 3.74216
# Velocity P-wave (km/s) = 6.45028 7.26874 6.87171
#
# Compressibility (1/GPa) = 0.01984801
#
# Stress axis : x y z
#
# Youngs Moduli (GPa) = 57.38893 128.79464 41.55106
#
# Poissons Ratio (x) = 0.03153 0.30618
# Poissons Ratio (y) = 0.01405 0.29462
# Poissons Ratio (z) = 0.42288 0.91321
#
# Static dielectric constant tensor:
#      x y z
#    x 3.868790 0.000000 0.074480 
#    y 0.000000 3.703060 0.000000 
#    z 0.074480 0.000000 3.772150 
# 
# 
# High freq. dielectric constant tensor:
#      x y z
#    x 1.797480 0.000000 -0.000570 
#    y 0.000000 1.800960 0.000000 
#    z -0.000570 0.000000 1.758490 
# 
# From -- ./inp_files/81846.got.cif
#   From: 2010.06.25/outbox.cif.g09.slc.cpg/sg15_41_cif.got.tgz:81846.got - 2010.06.28 07:06:18.
