data_PCOD8133238
_publ_section_title
;
Structure prediction by ZEFSAII (Michael W. Deem and Ramdas Pophale) SiO2 
 PCOD8133238
Probable space group: C 2/C
;
_chemical_formula_sum "Si O2"
_cell_formula_units_Z 48
_cell_length_a 11.233880
_cell_length_b 15.109296
_cell_length_c 21.804017
_cell_angle_alpha 90.000000
_cell_angle_beta 147.814163
_cell_angle_gamma 90.000000
_cell_volume 1971.362023
_symmetry_space_group_name_H-M "C 2/C"
_symmetry_group_IT_number 15
_symmetry_cell_setting 'monoclinic'
loop_
_space_group_symop_operation_xyz
x,y,z
-x,y,1/2-z
-x,-y,-z
x,-y,1/2+z
1/2+x,1/2+y,z
1/2-x,1/2+y,1/2-z
1/2-x,1/2-y,-z
1/2+x,1/2-y,1/2+z
loop_
_atom_site_type_symbol
_atom_site_label
_atom_site_fract_x
_atom_site_fract_y
_atom_site_fract_z
Si Si1 0.305766 0.042356 0.493610
Si Si2 0.196690 0.124756 0.090167
Si Si3 0.073630 0.385818 0.572910
Si Si4 0.283680 0.920863 0.121349
Si Si5 0.918148 0.115599 0.648337
Si Si6 0.603451 0.795228 0.703952
O O1 0.280989 0.112465 0.426465
O O2 0.316529 0.091515 0.562669
O O3 0.535723 0.987169 0.581054
O O4 0.096499 0.972156 0.401464
O O5 0.235534 0.177318 0.170399
O O6 0.356314 0.161441 0.106081
O O7 0.254711 0.022603 0.127913
O O8 0.938042 0.134763 0.956936
O O9 0.199017 0.329894 0.680718
O O10 0.830846 0.341558 0.453162
O O11 0.500000 0.880828 0.250000
O O12 0.000000 0.083378 0.750000
O O13 0.085193 0.188927 0.693850
#
# Coordination Sequence:
#
# PCOD8133238 Si02
#       6
#     8   8   8   8   8   8
#     4   9  20  36  54  88 124 159 206 252 319 379
#     4  10  20  32  60  88 117 162 203 271 309 360
#     4   9  19  35  54  85 129 160 194 260 318 377
#     4  11  20  38  58  86 125 165 212 258 313 381
#     4  10  19  32  58  91 123 161 197 261 316 374
#     4  11  18  38  58  92 130 152 211 261 317 374
#
# _framework density 24.348648000000001
#
# number of rings (size 3 to 8) (size 9 to 14) (size 15 to 20)
#    1.000    1.000    5.000    0.500    0.000    1.333 
#    9.000    0.000    0.000    1.000    0.000    4.667 
#    0.000    0.000    0.000    0.000    0.000    0.000 
#
# Total GULP energy -297446.290851 kJ/mol
# GULP energy per Si atom -12393.595452 kJ/mol
# Density = 2.429323 g / cm^3
# Si number density = 24.348648 Si / 1000 Ang^3
#
#
#
# Elastic Constant Matrix: (Units=GPa)
#
#
# Indices 1 2 3 4 5 6 
#
# 1 107.5396 34.0482 46.0650 0.0003 -35.0746 -0.0001
# 2 34.0482 43.7600 28.9854 0.0002 -14.7430 -0.0005
# 3 46.0650 28.9854 126.8597 0.0028 -3.5131 0.0039
# 4 0.0003 0.0002 0.0028 15.0367 0.0002 5.8500
# 5 -35.0746 -14.7430 -3.5131 0.0002 38.3554 -0.0001
# 6 -0.0001 -0.0005 0.0039 5.8500 -0.0001 15.8730
#
#
#
# Elastic Compliance Matrix: (Units=1/GPa)
#
#
# Indices 1 2 3 4 5 6 
#
# 1 0.017533 -0.006130 -0.004599 0.000000 0.013256 0.000001
# 2 -0.006130 0.033337 -0.005205 0.000000 0.006732 0.000003
# 3 -0.004599 -0.005205 0.010597 -0.000001 -0.005236 -0.000003
# 4 0.000000 0.000000 -0.000001 0.077636 -0.000001 -0.028613
# 5 0.013256 0.006732 -0.005236 -0.000001 0.040302 0.000002
# 6 0.000001 0.000003 -0.000003 -0.028613 0.000002 0.073545
#
#
# Mechanical properties :
#
#
# Convention : Reuss Voigt Hill
#
# Bulk Modulus (GPa) = 33.78372 55.15073 44.46723
# Shear Modulus (GPa) = 16.96737 25.12373 21.04555
#
# Velocity S-wave (km/s) = 2.64266 3.21570 2.94316
# Velocity P-wave (km/s) = 4.81836 6.04047 5.46369
#
# Compressibility (1/GPa) = 0.02960005
#
# Stress axis : x y z
#
# Youngs Moduli (GPa) = 57.03480 29.99702 94.36737
#
# Poissons Ratio (x) = 0.18387 0.43399
# Poissons Ratio (y) = 0.34960 0.49115
# Poissons Ratio (z) = 0.26230 0.15612
#
# Static dielectric constant tensor:
#      x y z
#    x 4.060620 0.000000 -0.133830 
#    y 0.000000 3.926190 0.000000 
#    z -0.133830 0.000000 4.259350 
# 
# 
# High freq. dielectric constant tensor:
#      x y z
#    x 1.946160 0.000000 -0.030350 
#    y 0.000000 1.931310 0.000000 
#    z -0.030350 0.000000 1.952410 
# 
# From -- ./inp_files/270871.got.cif
#   From: 2010.06.25/outbox.cif.g09.slc.cpg/sg15_136_cif.got.tgz:270871.got - 2010.06.28 07:06:18.
