data_PCOD8133493
_publ_section_title
;
Structure prediction by ZEFSAII (Michael W. Deem and Ramdas Pophale) SiO2 
 PCOD8133493
Probable space group: C 2/C
;
_chemical_formula_sum "Si O2"
_cell_formula_units_Z 64
_cell_length_a 9.001718
_cell_length_b 27.883385
_cell_length_c 13.547514
_cell_angle_alpha 90.000000
_cell_angle_beta 79.852038
_cell_angle_gamma 90.000000
_cell_volume 3347.208119
_symmetry_space_group_name_H-M "C 2/C"
_symmetry_group_IT_number 15
_symmetry_cell_setting 'monoclinic'
loop_
_space_group_symop_operation_xyz
x,y,z
-x,y,1/2-z
-x,-y,-z
x,-y,1/2+z
1/2+x,1/2+y,z
1/2-x,1/2+y,1/2-z
1/2-x,1/2-y,-z
1/2+x,1/2-y,1/2+z
loop_
_atom_site_type_symbol
_atom_site_label
_atom_site_fract_x
_atom_site_fract_y
_atom_site_fract_z
Si Si1 0.097367 0.430416 0.001047
Si Si2 0.209053 0.100713 0.344750
Si Si3 0.632725 0.849283 0.494136
Si Si4 0.938290 0.519846 0.355569
Si Si5 0.155373 0.821244 0.688684
Si Si6 0.458573 0.224734 0.144788
Si Si7 0.913696 0.882859 0.973971
Si Si8 0.942083 0.832168 0.364614
O O1 0.265980 0.414376 0.998441
O O2 0.973850 0.389757 0.044346
O O3 0.059819 0.444212 0.891986
O O4 0.094910 0.477716 0.066428
O O5 0.276929 0.133990 0.421240
O O6 0.295252 0.050318 0.333536
O O7 0.213450 0.131206 0.241994
O O8 0.037010 0.088292 0.394488
O O9 0.528382 0.806312 0.547095
O O10 0.758759 0.833934 0.397978
O O11 0.000000 0.495268 0.250000
O O12 0.277403 0.779198 0.668390
O O13 0.125718 0.834321 0.578838
O O14 0.000000 0.799894 0.750000
O O15 0.500000 0.206891 0.250000
O O16 0.506345 0.278601 0.117175
O O17 0.976735 0.870193 0.074035
O O18 0.000000 0.847124 0.250000
#
# Coordination Sequence:
#
# PCOD8133493 Si02
#       8
#     8   8   8   8   8   8   8   8
#     4  10  21  36  58  87 110 147 194 236 285 340
#     4   9  19  33  58  86 113 148 179 233 295 345
#     4  10  19  37  60  80 113 156 189 234 284 342
#     4  10  21  35  56  85 117 143 189 238 280 345
#     4  10  19  33  56  89 117 143 185 243 303 345
#     4  11  20  35  61  88 112 151 194 239 288 344
#     4  10  20  37  57  80 115 154 186 234 291 340
#     4  10  24  40  53  80 115 156 204 234 272 347
#
# _framework density 19.120412999999999
#
# number of rings (size 3 to 8) (size 9 to 14) (size 15 to 20)
#    0.000    2.000    2.500    1.125    1.750    2.000 
#    0.000    0.000    0.000    2.250    0.000    0.000 
#    0.000    0.000    0.000    0.000    0.000    0.000 
#
# Total GULP energy -396529.626674 kJ/mol
# GULP energy per Si atom -12391.550834 kJ/mol
# Density = 1.907689 g / cm^3
# Si number density = 19.120413 Si / 1000 Ang^3
#
#
#
# Elastic Constant Matrix: (Units=GPa)
#
#
# Indices 1 2 3 4 5 6 
#
# 1 115.2287 34.1307 20.5197 0.0000 -15.2879 0.0000
# 2 34.1307 57.6428 13.1457 0.0000 -12.3539 0.0000
# 3 20.5197 13.1457 77.9459 0.0000 -12.7019 0.0000
# 4 0.0000 0.0000 0.0000 3.9496 0.0000 5.6624
# 5 -15.2879 -12.3539 -12.7019 0.0000 24.0522 0.0000
# 6 0.0000 0.0000 0.0000 5.6624 0.0000 19.4210
#
#
#
# Elastic Compliance Matrix: (Units=1/GPa)
#
#
# Indices 1 2 3 4 5 6 
#
# 1 0.011003 -0.005454 -0.001415 0.000000 0.003445 0.000000
# 2 -0.005454 0.022434 -0.001132 0.000000 0.007458 0.000000
# 3 -0.001415 -0.001132 0.014390 0.000000 0.006118 0.000000
# 4 0.000000 0.000000 0.000000 0.435037 0.000000 -0.126840
# 5 0.003445 0.007458 0.006118 0.000000 0.050828 0.000000
# 6 0.000000 0.000000 0.000000 -0.126840 0.000000 0.088472
#
#
# Mechanical properties :
#
#
# Convention : Reuss Voigt Hill
#
# Bulk Modulus (GPa) = 31.42306 42.93439 37.17873
# Shear Modulus (GPa) = 7.70683 21.68599 14.69641
#
# Velocity S-wave (km/s) = 2.00983 3.37141 2.77541
# Velocity P-wave (km/s) = 4.67503 6.13667 5.45503
#
# Compressibility (1/GPa) = 0.03182376
#
# Stress axis : x y z
#
# Youngs Moduli (GPa) = 90.88505 44.57492 69.49281
#
# Poissons Ratio (x) = 0.24310 0.09836
# Poissons Ratio (y) = 0.49567 0.07869
# Poissons Ratio (z) = 0.12864 0.05048
#
# Static dielectric constant tensor:
#      x y z
#    x 3.921440 0.000000 -0.046930 
#    y 0.000000 3.212070 0.000000 
#    z -0.046930 0.000000 3.503870 
# 
# 
# High freq. dielectric constant tensor:
#      x y z
#    x 1.757750 0.000000 -0.004010 
#    y 0.000000 1.718570 0.000000 
#    z -0.004010 0.000000 1.740640 
# 
# From -- ./inp_files/138598.got.cif
#   From: 2010.06.25/outbox.cif.g09.slc.cpg/sg15_70_cif.got.tgz:138598.got - 2010.06.28 07:06:18.
