data_PCOD8133378
_publ_section_title
;
Structure prediction by ZEFSAII (Michael W. Deem and Ramdas Pophale) SiO2 
 PCOD8133378
Probable space group: C 2/C
;
_chemical_formula_sum "Si O2"
_cell_formula_units_Z 56
_cell_length_a 23.318957
_cell_length_b 18.558171
_cell_length_c 5.329868
_cell_angle_alpha 90.000000
_cell_angle_beta 90.918747
_cell_angle_gamma 90.000000
_cell_volume 2306.242177
_symmetry_space_group_name_H-M "C 2/C"
_symmetry_group_IT_number 15
_symmetry_cell_setting 'monoclinic'
loop_
_space_group_symop_operation_xyz
x,y,z
-x,y,1/2-z
-x,-y,-z
x,-y,1/2+z
1/2+x,1/2+y,z
1/2-x,1/2+y,1/2-z
1/2-x,1/2-y,-z
1/2+x,1/2-y,1/2+z
loop_
_atom_site_type_symbol
_atom_site_label
_atom_site_fract_x
_atom_site_fract_y
_atom_site_fract_z
Si Si1 0.866898 0.164003 0.726637
Si Si2 0.781870 0.959889 0.125533
Si Si3 0.436020 0.323225 0.744152
Si Si4 0.333611 0.075796 0.096124
Si Si5 0.195319 0.293011 0.596441
Si Si6 0.934505 0.525455 0.614838
Si Si7 0.400581 0.830326 0.252572
O O1 0.812047 0.112650 0.715279
O O2 0.904565 0.145083 0.486355
O O3 0.840360 0.244332 0.705814
O O4 0.903721 0.154322 0.985108
O O5 0.799360 0.016667 0.344514
O O6 0.712379 0.950734 0.117835
O O7 0.500000 0.356050 0.750000
O O8 0.443170 0.236866 0.785482
O O9 0.296342 0.125802 0.290344
O O10 0.371971 0.009395 0.211157
O O11 0.385447 0.126342 0.002166
O O12 0.250000 0.250000 0.500000
O O13 0.158916 0.297593 0.343463
O O14 0.966764 0.484589 0.386735
O O15 0.927152 0.610820 0.557852
#
# Coordination Sequence:
#
# PCOD8133378 Si02
#       7
#     8   8   8   8   8   8   8
#     4  11  25  46  67  98 134 171 214 281 340 388
#     4  12  27  42  65  96 138 181 217 259 316 403
#     4  11  24  45  74  98 123 166 225 286 349 394
#     4  11  22  36  59  92 137 185 222 246 308 388
#     4  11  23  35  60  94 136 180 216 267 312 396
#     4  10  19  33  54  80 121 172 215 247 290 363
#     4  10  21  37  57  90 128 170 217 271 314 379
#
# _framework density 24.281927
#
# number of rings (size 3 to 8) (size 9 to 14) (size 15 to 20)
#    0.000    1.143    2.857    3.857    8.000    1.143 
#    0.000    0.000    0.000   12.000    0.000    0.000 
#    0.000    0.000    0.000    0.000    0.000    0.000 
#
# Total GULP energy -346935.849403 kJ/mol
# GULP energy per Si atom -12390.566050 kJ/mol
# Density = 2.422666 g / cm^3
# Si number density = 24.281927 Si / 1000 Ang^3
#
#
#
# Elastic Constant Matrix: (Units=GPa)
#
#
# Indices 1 2 3 4 5 6 
#
# 1 104.7588 18.1728 32.8636 0.0000 14.5312 0.0000
# 2 18.1728 66.5547 14.4350 0.0000 20.9552 0.0000
# 3 32.8636 14.4350 129.0222 0.0000 8.0373 0.0000
# 4 0.0000 0.0000 0.0000 32.8252 0.0000 0.4226
# 5 14.5312 20.9552 8.0373 0.0000 39.8619 0.0000
# 6 0.0000 0.0000 0.0000 0.4226 0.0000 27.9525
#
#
#
# Elastic Compliance Matrix: (Units=1/GPa)
#
#
# Indices 1 2 3 4 5 6 
#
# 1 0.010963 -0.001630 -0.002445 0.000000 -0.002647 0.000000
# 2 -0.001630 0.018517 -0.001101 0.000000 -0.008918 0.000000
# 3 -0.002445 -0.001101 0.008512 0.000000 -0.000246 0.000000
# 4 0.000000 0.000000 0.000000 0.030470 0.000000 -0.000461
# 5 -0.002647 -0.008918 -0.000246 0.000000 0.030789 0.000000
# 6 0.000000 0.000000 0.000000 -0.000461 0.000000 0.035782
#
#
# Mechanical properties :
#
#
# Convention : Reuss Voigt Hill
#
# Bulk Modulus (GPa) = 36.17977 47.91983 42.04980
# Shear Modulus (GPa) = 32.34195 35.78556 34.06376
#
# Velocity S-wave (km/s) = 3.65353 3.84311 3.74952
# Velocity P-wave (km/s) = 5.72101 6.28254 6.00834
#
# Compressibility (1/GPa) = 0.02763975
#
# Stress axis : x y z
#
# Youngs Moduli (GPa) = 91.21920 54.00449 117.48238
#
# Poissons Ratio (x) = 0.08801 0.28726
# Poissons Ratio (y) = 0.14866 0.12935
# Poissons Ratio (z) = 0.22304 0.05946
#
# Static dielectric constant tensor:
#      x y z
#    x 4.282560 0.000000 0.146980 
#    y 0.000000 4.588720 0.000000 
#    z 0.146980 0.000000 4.376160 
# 
# 
# High freq. dielectric constant tensor:
#      x y z
#    x 1.968220 0.000000 0.003760 
#    y 0.000000 1.951780 0.000000 
#    z 0.003760 0.000000 1.980640 
# 
# From -- ./inp_files/15688.got.cif
#   From: 2010.06.25/outbox.cif.g09.slc.cpg/sg15_8_cif.got.tgz:15688.got - 2010.06.28 07:06:18.
