data_PCOD8133955
_publ_section_title
;
Structure prediction by ZEFSAII (Michael W. Deem and Ramdas Pophale) SiO2 
 PCOD8133955
Probable space group: C 2/C
;
_chemical_formula_sum "Si O2"
_cell_formula_units_Z 60
_cell_length_a 18.934162
_cell_length_b 8.891799
_cell_length_c 20.542208
_cell_angle_alpha 90.000000
_cell_angle_beta 125.472063
_cell_angle_gamma 90.000000
_cell_volume 2816.565460
_symmetry_space_group_name_H-M "C 2/C"
_symmetry_group_IT_number 15
_symmetry_cell_setting 'monoclinic'
loop_
_space_group_symop_operation_xyz
x,y,z
-x,y,1/2-z
-x,-y,-z
x,-y,1/2+z
1/2+x,1/2+y,z
1/2-x,1/2+y,1/2-z
1/2-x,1/2-y,-z
1/2+x,1/2-y,1/2+z
loop_
_atom_site_type_symbol
_atom_site_label
_atom_site_fract_x
_atom_site_fract_y
_atom_site_fract_z
Si Si1 0.080954 0.114867 0.605101
Si Si2 0.510626 0.100729 0.128172
Si Si3 0.659865 0.175338 0.524041
Si Si4 0.893514 0.006547 0.016047
Si Si5 0.194026 0.077575 0.257519
Si Si6 0.500000 0.272298 0.250000
Si Si7 0.144195 0.617105 0.662404
Si Si8 0.842869 0.017811 0.623936
O O1 0.054600 0.288086 0.598569
O O2 0.996492 0.010387 0.565517
O O3 0.131870 0.099203 0.562746
O O4 0.139953 0.055665 0.695210
O O5 0.533650 0.164647 0.211128
O O6 0.552999 0.935684 0.144565
O O7 0.407676 0.087423 0.059131
O O8 0.658874 0.350887 0.506947
O O9 0.626066 0.164688 0.579412
O O10 0.755938 0.113825 0.566028
O O11 0.866315 0.081191 0.071351
O O12 0.182056 0.241009 0.220989
O O13 0.293070 0.027508 0.301362
O O14 0.169034 0.090423 0.320426
O O15 0.577501 0.370473 0.320578
#
# Coordination Sequence:
#
# PCOD8133955 Si02
#       8
#     8   8   8   8   8   4   8   8
#     4  10  19  35  62  95 119 164 216 257 312 376
#     4  11  23  41  63  94 130 172 217 269 308 394
#     4  10  21  38  66  92 128 172 216 260 321 381
#     4  10  19  34  61  96 123 166 212 258 310 387
#     4  11  22  39  65  96 126 168 213 273 325 380
#     4  12  22  36  64  98 130 172 214 264 320 372
#     4  11  24  41  65  94 126 169 218 271 326 380
#     4  11  21  38  63  99 129 170 212 266 321 388
#
# _framework density 21.30254
#
# number of rings (size 3 to 8) (size 9 to 14) (size 15 to 20)
#    0.000    1.333    5.333    1.600    1.867    0.000 
#    0.000    2.000    0.000    2.400    0.000    0.000 
#    0.000    0.000    0.000    0.000    0.000    0.000 
#
# Total GULP energy -371906.803818 kJ/mol
# GULP energy per Si atom -12396.893461 kJ/mol
# Density = 2.125405 g / cm^3
# Si number density = 21.302540 Si / 1000 Ang^3
#
#
#
# Elastic Constant Matrix: (Units=GPa)
#
#
# Indices 1 2 3 4 5 6 
#
# 1 96.7102 17.5799 48.5131 0.0000 -17.2547 0.0000
# 2 17.5799 44.7107 20.5383 0.0000 0.6092 0.0000
# 3 48.5131 20.5383 103.1528 0.0000 -16.1876 0.0000
# 4 0.0000 0.0000 0.0000 11.3390 0.0000 3.4279
# 5 -17.2547 0.6092 -16.1876 0.0000 44.7798 0.0000
# 6 0.0000 0.0000 0.0000 3.4279 0.0000 21.3893
#
#
#
# Elastic Compliance Matrix: (Units=1/GPa)
#
#
# Indices 1 2 3 4 5 6 
#
# 1 0.014332 -0.003130 -0.005559 0.000000 0.003555 0.000000
# 2 -0.003130 0.025514 -0.004083 0.000000 -0.003029 0.000000
# 3 -0.005559 -0.004083 0.013564 0.000000 0.002817 0.000000
# 4 0.000000 0.000000 0.000000 0.092681 0.000000 -0.014853
# 5 0.003555 -0.003029 0.002817 0.000000 0.024761 0.000000
# 6 0.000000 0.000000 0.000000 -0.014853 0.000000 0.049133
#
#
# Mechanical properties :
#
#
# Convention : Reuss Voigt Hill
#
# Bulk Modulus (GPa) = 35.88778 46.42626 41.15702
# Shear Modulus (GPa) = 19.62183 26.03112 22.82648
#
# Velocity S-wave (km/s) = 3.03826 3.49947 3.27699
# Velocity P-wave (km/s) = 5.40290 6.17814 5.80348
#
# Compressibility (1/GPa) = 0.02786464
#
# Stress axis : x y z
#
# Youngs Moduli (GPa) = 69.77263 39.19471 73.72493
#
# Poissons Ratio (x) = 0.12268 0.40986
# Poissons Ratio (y) = 0.21839 0.30103
# Poissons Ratio (z) = 0.38789 0.16004
#
# Static dielectric constant tensor:
#      x y z
#    x 3.910150 0.000000 -0.169860 
#    y 0.000000 3.398950 0.000000 
#    z -0.169860 0.000000 4.317800 
# 
# 
# High freq. dielectric constant tensor:
#      x y z
#    x 1.838740 0.000000 -0.004930 
#    y 0.000000 1.794740 0.000000 
#    z -0.004930 0.000000 1.857580 
# 
# From -- ./inp_files/247858.got.cif
#   From: 2010.06.25/outbox.cif.g09.slc.cpg/sg15_124_cif.got.tgz:247858.got - 2010.06.28 07:06:18.
