data_PCOD8133773
_publ_section_title
;
Structure prediction by ZEFSAII (Michael W. Deem and Ramdas Pophale) SiO2 
 PCOD8133773
Probable space group: C 2/C
;
_chemical_formula_sum "Si O2"
_cell_formula_units_Z 60
_cell_length_a 17.103660
_cell_length_b 11.120634
_cell_length_c 13.758013
_cell_angle_alpha 90.000000
_cell_angle_beta 95.794084
_cell_angle_gamma 90.000000
_cell_volume 2603.453829
_symmetry_space_group_name_H-M "C 2/C"
_symmetry_group_IT_number 15
_symmetry_cell_setting 'monoclinic'
loop_
_space_group_symop_operation_xyz
x,y,z
-x,y,1/2-z
-x,-y,-z
x,-y,1/2+z
1/2+x,1/2+y,z
1/2-x,1/2+y,1/2-z
1/2-x,1/2-y,-z
1/2+x,1/2-y,1/2+z
loop_
_atom_site_type_symbol
_atom_site_label
_atom_site_fract_x
_atom_site_fract_y
_atom_site_fract_z
Si Si1 0.000000 0.592196 0.750000
Si Si2 0.803762 0.109043 0.878181
Si Si3 0.919887 0.774625 0.871737
Si Si4 0.287444 0.874777 0.842594
Si Si5 0.198663 0.615179 0.550153
Si Si6 0.373130 0.534068 0.219971
Si Si7 0.123995 0.073530 0.969285
Si Si8 0.347309 0.038330 0.154612
O O1 0.978878 0.672160 0.842775
O O2 0.930829 0.509713 0.701276
O O3 0.813818 0.250843 0.895868
O O4 0.833133 0.073112 0.774901
O O5 0.856908 0.042808 0.963839
O O6 0.712359 0.071645 0.875208
O O7 0.833175 0.715802 0.877605
O O8 0.925491 0.878415 0.791259
O O9 0.935872 0.838662 0.978919
O O10 0.193357 0.882691 0.837025
O O11 0.313822 0.875535 0.733966
O O12 0.322814 0.986351 0.905898
O O13 0.291692 0.638425 0.543924
O O14 0.148396 0.618533 0.443043
O O15 0.419268 0.470487 0.135478
#
# Coordination Sequence:
#
# PCOD8133773 Si02
#       8
#     4   8   8   8   8   8   8   8
#     4  12  24  40  60  80 128 166 202 238 282 366
#     4   9  19  35  57  90 120 147 188 251 305 347
#     4  11  22  39  58  88 120 161 202 235 298 361
#     4  10  19  34  56  88 123 148 187 246 307 348
#     4  10  21  36  60  91 119 153 195 253 302 354
#     4   9  20  33  60  86 119 147 193 249 297 349
#     4   9  20  36  60  94 116 147 195 252 308 352
#     4  10  22  37  55  89 119 162 202 239 296 353
#
# _framework density 23.046308
#
# number of rings (size 3 to 8) (size 9 to 14) (size 15 to 20)
#    0.000    2.133    1.333    2.000    5.600    6.400 
#    0.000    0.667    0.000    3.200    0.000    0.000 
#    0.000    0.000    0.000    0.000    0.000    0.000 
#
# Total GULP energy -371744.654714 kJ/mol
# GULP energy per Si atom -12391.488490 kJ/mol
# Density = 2.299385 g / cm^3
# Si number density = 23.046308 Si / 1000 Ang^3
#
#
#
# Elastic Constant Matrix: (Units=GPa)
#
#
# Indices 1 2 3 4 5 6 
#
# 1 29.8169 8.6802 11.1679 0.0000 -5.8494 0.0000
# 2 8.6802 49.7763 10.8748 0.0000 -11.0706 0.0000
# 3 11.1679 10.8748 110.3764 0.0000 -15.9499 0.0000
# 4 0.0000 0.0000 0.0000 33.6305 0.0000 -3.0139
# 5 -5.8494 -11.0706 -15.9499 0.0000 23.4508 0.0000
# 6 0.0000 0.0000 0.0000 -3.0139 0.0000 13.5258
#
#
#
# Elastic Compliance Matrix: (Units=1/GPa)
#
#
# Indices 1 2 3 4 5 6 
#
# 1 0.036882 -0.004712 -0.002506 0.000000 0.005271 0.000000
# 2 -0.004712 0.023105 -0.000436 0.000000 0.009435 0.000000
# 3 -0.002506 -0.000436 0.010243 0.000000 0.006136 0.000000
# 4 0.000000 0.000000 0.000000 0.030341 0.000000 0.006761
# 5 0.005271 0.009435 0.006136 0.000000 0.052585 0.000000
# 6 0.000000 0.000000 0.000000 0.006761 0.000000 0.075439
#
#
# Mechanical properties :
#
#
# Convention : Reuss Voigt Hill
#
# Bulk Modulus (GPa) = 18.20739 27.93506 23.07122
# Shear Modulus (GPa) = 19.06859 24.73786 21.90322
#
# Velocity S-wave (km/s) = 2.87958 3.27983 3.08620
# Velocity P-wave (km/s) = 4.35586 5.14690 4.76781
#
# Compressibility (1/GPa) = 0.05492276
#
# Stress axis : x y z
#
# Youngs Moduli (GPa) = 27.11328 43.27993 97.62685
#
# Poissons Ratio (x) = 0.20393 0.24464
# Poissons Ratio (y) = 0.12776 0.04259
# Poissons Ratio (z) = 0.06794 0.01888
#
# Static dielectric constant tensor:
#      x y z
#    x 3.585040 0.000000 -0.380290 
#    y 0.000000 4.144630 0.000000 
#    z -0.380290 0.000000 4.607430 
# 
# 
# High freq. dielectric constant tensor:
#      x y z
#    x 1.854170 0.000000 -0.027070 
#    y 0.000000 1.911240 0.000000 
#    z -0.027070 0.000000 1.928870 
# 
# From -- ./inp_files/160922.got.cif
#   From: 2010.06.25/outbox.cif.g09.slc.cpg/sg15_81_cif.got.tgz:160922.got - 2010.06.28 07:06:18.
