data_PCOD8133595
_publ_section_title
;
Structure prediction by ZEFSAII (Michael W. Deem and Ramdas Pophale) SiO2 
 PCOD8133595
Probable space group: C 2/C
;
_chemical_formula_sum "Si O2"
_cell_formula_units_Z 48
_cell_length_a 8.593867
_cell_length_b 18.324872
_cell_length_c 25.925214
_cell_angle_alpha 90.000000
_cell_angle_beta 147.972111
_cell_angle_gamma 90.000000
_cell_volume 2165.208659
_symmetry_space_group_name_H-M "C 2/C"
_symmetry_group_IT_number 15
_symmetry_cell_setting 'monoclinic'
loop_
_space_group_symop_operation_xyz
x,y,z
-x,y,1/2-z
-x,-y,-z
x,-y,1/2+z
1/2+x,1/2+y,z
1/2-x,1/2+y,1/2-z
1/2-x,1/2-y,-z
1/2+x,1/2-y,1/2+z
loop_
_atom_site_type_symbol
_atom_site_label
_atom_site_fract_x
_atom_site_fract_y
_atom_site_fract_z
Si Si1 0.646360 0.796738 0.590836
Si Si2 0.883691 0.768206 0.121201
Si Si3 0.453905 0.837072 0.295780
Si Si4 0.320781 0.053971 0.349260
Si Si5 0.778383 0.054662 0.965002
Si Si6 0.653213 0.118290 0.344154
O O1 0.437687 0.799988 0.481789
O O2 0.493695 0.764091 0.598121
O O3 0.925008 0.744870 0.658423
O O4 0.735924 0.880220 0.626693
O O5 0.866126 0.705369 0.158636
O O6 0.101173 0.830903 0.204326
O O7 0.500000 0.862536 0.250000
O O8 0.604800 0.895832 0.374844
O O9 0.483665 0.080609 0.343490
O O10 0.000000 0.019440 0.250000
O O11 0.536953 0.989820 0.431137
O O12 0.995731 0.102857 0.060969
O O13 0.000000 0.000000 0.000000
O O14 0.500000 0.088452 0.250000
#
# Coordination Sequence:
#
# PCOD8133595 Si02
#       6
#     8   8   8   8   8   8
#     4   9  16  32  58  90 116 146 211 272 301 340
#     4   9  17  30  59  87 116 147 201 266 309 348
#     4  10  19  33  62  94 118 156 217 268 305 364
#     4  10  21  39  63  88 125 169 211 259 317 379
#     4  10  22  37  57  89 131 165 206 260 316 383
#     4  10  20  39  62  90 125 164 204 258 320 377
#
# _framework density 22.168763999999999
#
# number of rings (size 3 to 8) (size 9 to 14) (size 15 to 20)
#    0.000    2.333    1.667    2.500    7.000    2.667 
#    0.000    2.500    3.667    0.000    0.000    0.000 
#    0.000    0.000    0.000    0.000    0.000    0.000 
#
# Total GULP energy -297365.269443 kJ/mol
# GULP energy per Si atom -12390.219560 kJ/mol
# Density = 2.211831 g / cm^3
# Si number density = 22.168764 Si / 1000 Ang^3
#
#
#
# Elastic Constant Matrix: (Units=GPa)
#
#
# Indices 1 2 3 4 5 6 
#
# 1 17.3605 16.8668 21.3222 -0.0045 6.1656 -0.0063
# 2 16.8668 89.1108 45.3116 -0.0010 2.0358 -0.0023
# 3 21.3222 45.3116 173.0763 0.0017 3.7736 -0.0039
# 4 -0.0045 -0.0010 0.0017 42.8835 -0.0018 5.8152
# 5 6.1656 2.0358 3.7736 -0.0018 29.8790 -0.0035
# 6 -0.0063 -0.0023 -0.0039 5.8152 -0.0035 20.8932
#
#
#
# Elastic Compliance Matrix: (Units=1/GPa)
#
#
# Indices 1 2 3 4 5 6 
#
# 1 0.082974 -0.011911 -0.006767 0.000006 -0.015456 0.000018
# 2 -0.011911 0.014661 -0.002409 0.000000 0.001763 -0.000002
# 3 -0.006767 -0.002409 0.007228 -0.000001 0.000648 -0.000001
# 4 0.000006 0.000000 -0.000001 0.024234 0.000000 -0.006745
# 5 -0.015456 0.001763 0.000648 0.000000 0.036456 0.000002
# 6 0.000018 -0.000002 -0.000001 -0.006745 0.000002 0.049740
#
#
# Mechanical properties :
#
#
# Convention : Reuss Voigt Hill
#
# Bulk Modulus (GPa) = 15.95177 49.61652 32.78414
# Shear Modulus (GPa) = 17.96208 31.80095 24.88151
#
# Velocity S-wave (km/s) = 2.84956 3.79158 3.35381
# Velocity P-wave (km/s) = 4.24711 6.44965 5.46058
#
# Compressibility (1/GPa) = 0.06268898
#
# Stress axis : x y z
#
# Youngs Moduli (GPa) = 12.05190 68.20616 138.34927
#
# Poissons Ratio (x) = 0.81243 0.93616
# Poissons Ratio (y) = 0.14356 0.33334
# Poissons Ratio (z) = 0.08155 0.16434
#
# Static dielectric constant tensor:
#      x y z
#    x 3.663440 0.000010 0.593160 
#    y 0.000010 4.114660 0.000010 
#    z 0.593160 0.000010 5.002350 
# 
# 
# High freq. dielectric constant tensor:
#      x y z
#    x 1.820090 0.000000 0.017530 
#    y 0.000000 1.860950 0.000000 
#    z 0.017530 0.000000 1.898480 
# 
# From -- ./inp_files/290134.got.cif
#   From: 2010.06.25/outbox.cif.g09.slc.cpg/sg15_146_cif.got.tgz:290134.got - 2010.06.28 07:06:18.
