data_PCOD8133492
_publ_section_title
;
Structure prediction by ZEFSAII (Michael W. Deem and Ramdas Pophale) SiO2 
 PCOD8133492
Probable space group: C 2/C
;
_chemical_formula_sum "Si O2"
_cell_formula_units_Z 56
_cell_length_a 17.518387
_cell_length_b 12.525310
_cell_length_c 17.717097
_cell_angle_alpha 90.000000
_cell_angle_beta 45.010874
_cell_angle_gamma 90.000000
_cell_volume 2749.429401
_symmetry_space_group_name_H-M "C 2/C"
_symmetry_group_IT_number 15
_symmetry_cell_setting 'monoclinic'
loop_
_space_group_symop_operation_xyz
x,y,z
-x,y,1/2-z
-x,-y,-z
x,-y,1/2+z
1/2+x,1/2+y,z
1/2-x,1/2+y,1/2-z
1/2-x,1/2-y,-z
1/2+x,1/2-y,1/2+z
loop_
_atom_site_type_symbol
_atom_site_label
_atom_site_fract_x
_atom_site_fract_y
_atom_site_fract_z
Si Si1 0.315884 0.062761 0.316037
Si Si2 0.680873 0.603648 0.719051
Si Si3 0.927484 0.570843 0.997235
Si Si4 0.489043 0.766723 0.675170
Si Si5 0.863467 0.651897 0.708794
Si Si6 0.777560 0.877281 0.770862
Si Si7 0.188640 0.393204 0.510789
O O1 0.431022 0.118415 0.221904
O O2 0.231909 0.111071 0.313513
O O3 0.273093 0.090333 0.429621
O O4 0.333533 0.935554 0.293624
O O5 0.583887 0.678660 0.818691
O O6 0.792542 0.623337 0.685059
O O7 0.653383 0.478205 0.746350
O O8 0.706627 0.633338 0.613482
O O9 0.864787 0.503082 0.978645
O O10 0.009052 0.652248 0.899159
O O11 0.841821 0.631874 0.109659
O O12 0.000000 0.500000 0.000000
O O13 0.500000 0.715376 0.750000
O O14 0.605950 0.792718 0.558077
O O15 0.839352 0.771155 0.753347
#
# Coordination Sequence:
#
# PCOD8133492 Si02
#       7
#     8   8   8   8   8   8   8
#     4  10  19  33  56  88 107 138 189 234 274 308
#     4  10  21  35  57  81 111 151 181 223 288 333
#     4  11  18  36  59  84 106 150 193 221 273 334
#     4  10  19  33  57  83 112 139 181 234 278 323
#     4  11  20  34  60  81 114 144 187 235 268 331
#     4  10  21  37  57  83 115 148 187 223 280 337
#     4  10  20  35  60  87 110 139 192 241 266 325
#
# _framework density 20.367863
#
# number of rings (size 3 to 8) (size 9 to 14) (size 15 to 20)
#    0.000    1.714    7.143    0.000    0.000    2.286 
#    0.000    2.857    9.429    2.571    0.000    0.000 
#    0.000    0.000    0.000    0.000    0.000    0.000 
#
# Total GULP energy -347052.397077 kJ/mol
# GULP energy per Si atom -12394.728467 kJ/mol
# Density = 2.032150 g / cm^3
# Si number density = 20.367863 Si / 1000 Ang^3
#
#
#
# Elastic Constant Matrix: (Units=GPa)
#
#
# Indices 1 2 3 4 5 6 
#
# 1 52.4651 27.4508 26.9696 0.0000 1.5320 0.0000
# 2 27.4508 140.5847 41.4833 0.0000 -16.4688 0.0000
# 3 26.9696 41.4833 80.1591 0.0000 1.8915 0.0000
# 4 0.0000 0.0000 0.0000 25.9629 0.0000 -9.4717
# 5 1.5320 -16.4688 1.8915 0.0000 21.8119 0.0000
# 6 0.0000 0.0000 0.0000 -9.4717 0.0000 28.9283
#
#
#
# Elastic Compliance Matrix: (Units=1/GPa)
#
#
# Indices 1 2 3 4 5 6 
#
# 1 0.024135 -0.003263 -0.006347 0.000000 -0.003608 0.000000
# 2 -0.003263 0.009953 -0.004245 0.000000 0.008112 0.000000
# 3 -0.006347 -0.004245 0.016907 0.000000 -0.004225 0.000000
# 4 0.000000 0.000000 0.000000 0.043741 0.000000 0.014322
# 5 -0.003608 0.008112 -0.004225 0.000000 0.052591 0.000000
# 6 0.000000 0.000000 0.000000 0.014322 0.000000 0.039257
#
#
# Mechanical properties :
#
#
# Convention : Reuss Voigt Hill
#
# Bulk Modulus (GPa) = 42.94174 51.66848 47.30511
# Shear Modulus (GPa) = 22.51693 27.16097 24.83895
#
# Velocity S-wave (km/s) = 3.32853 3.65570 3.49595
# Velocity P-wave (km/s) = 5.99175 6.57583 6.29057
#
# Compressibility (1/GPa) = 0.02328736
#
# Stress axis : x y z
#
# Youngs Moduli (GPa) = 41.43323 100.47268 59.14769
#
# Poissons Ratio (x) = 0.32780 0.37539
# Poissons Ratio (y) = 0.13518 0.25105
# Poissons Ratio (z) = 0.26297 0.42646
#
# Static dielectric constant tensor:
#      x y z
#    x 3.665210 0.000000 0.031040 
#    y 0.000000 3.783030 0.000000 
#    z 0.031040 0.000000 3.817930 
# 
# 
# High freq. dielectric constant tensor:
#      x y z
#    x 1.776580 0.000000 0.004910 
#    y 0.000000 1.788900 0.000000 
#    z 0.004910 0.000000 1.779230 
# 
# From -- ./inp_files/210554.got.cif
#   From: 2010.06.25/outbox.cif.g09.slc.cpg/sg15_106_cif.got.tgz:210554.got - 2010.06.28 07:06:18.
