data_PCOD8133562
_publ_section_title
;
Structure prediction by ZEFSAII (Michael W. Deem and Ramdas Pophale) SiO2 
 PCOD8133562
Probable space group: C 2/C
;
_chemical_formula_sum "Si O2"
_cell_formula_units_Z 40
_cell_length_a 12.289182
_cell_length_b 24.073049
_cell_length_c 9.140094
_cell_angle_alpha 90.000000
_cell_angle_beta 48.205350
_cell_angle_gamma 90.000000
_cell_volume 2015.926337
_symmetry_space_group_name_H-M "C 2/C"
_symmetry_group_IT_number 15
_symmetry_cell_setting 'monoclinic'
loop_
_space_group_symop_operation_xyz
x,y,z
-x,y,1/2-z
-x,-y,-z
x,-y,1/2+z
1/2+x,1/2+y,z
1/2-x,1/2+y,1/2-z
1/2-x,1/2-y,-z
1/2+x,1/2-y,1/2+z
loop_
_atom_site_type_symbol
_atom_site_label
_atom_site_fract_x
_atom_site_fract_y
_atom_site_fract_z
Si Si1 0.659906 0.399011 0.164291
Si Si2 0.868225 0.624982 0.071485
Si Si3 0.349221 0.031857 0.315078
Si Si4 0.817596 0.403215 0.301972
Si Si5 0.833966 0.696835 0.366252
O O1 0.500000 0.383700 0.250000
O O2 0.672835 0.397965 0.329740
O O3 0.714156 0.457823 0.048945
O O4 0.778307 0.355261 0.005374
O O5 0.822689 0.567960 0.193244
O O6 0.817512 0.679951 0.208281
O O7 0.784208 0.623157 0.990743
O O8 0.042724 0.627985 0.891787
O O9 0.500000 0.053126 0.250000
O O10 0.361472 0.967502 0.269240
O O11 0.750000 0.750000 0.500000
O O12 0.000000 0.709145 0.250000
#
# Coordination Sequence:
#
# PCOD8133562 Si02
#       5
#     8   8   8   8   8
#     4  11  23  38  56  86 126 161 203 238 294 365
#     4  10  19  33  59  93 117 149 204 256 287 347
#     4  11  18  33  58  89 119 168 206 233 288 357
#     4  11  19  33  61  89 123 155 200 249 292 343
#     4  11  22  42  65  86 110 154 206 249 302 359
#
# _framework density 19.841996000000002
#
# number of rings (size 3 to 8) (size 9 to 14) (size 15 to 20)
#    0.000    1.200    6.000    3.600    0.000    0.800 
#    0.000    5.000    0.000    0.000    0.000    0.000 
#    0.000    0.000    0.000    0.000    0.000    0.000 
#
# Total GULP energy -247867.508148 kJ/mol
# GULP energy per Si atom -12393.375407 kJ/mol
# Density = 1.979683 g / cm^3
# Si number density = 19.841996 Si / 1000 Ang^3
#
#
#
# Elastic Constant Matrix: (Units=GPa)
#
#
# Indices 1 2 3 4 5 6 
#
# 1 164.2314 26.5560 64.9219 0.0000 21.8795 0.0000
# 2 26.5560 79.4416 48.3806 0.0000 5.7345 0.0000
# 3 64.9219 48.3806 101.3683 0.0000 22.7511 0.0000
# 4 0.0000 0.0000 0.0000 42.1609 0.0000 -0.0088
# 5 21.8795 5.7345 22.7511 0.0000 44.4635 0.0000
# 6 0.0000 0.0000 0.0000 -0.0088 0.0000 8.9501
#
#
#
# Elastic Compliance Matrix: (Units=1/GPa)
#
#
# Indices 1 2 3 4 5 6 
#
# 1 0.008259 0.000516 -0.005207 0.000000 -0.001467 0.000000
# 2 0.000516 0.017991 -0.009421 0.000000 0.002246 0.000000
# 3 -0.005207 -0.009421 0.019034 0.000000 -0.005962 0.000000
# 4 0.000000 0.000000 0.000000 0.023719 0.000000 0.000023
# 5 -0.001467 0.002246 -0.005962 0.000000 0.025973 0.000000
# 6 0.000000 0.000000 0.000000 0.000023 0.000000 0.111731
#
#
# Mechanical properties :
#
#
# Convention : Reuss Voigt Hill
#
# Bulk Modulus (GPa) = 58.61539 69.41758 64.01649
# Shear Modulus (GPa) = 20.77983 32.79374 26.78679
#
# Velocity S-wave (km/s) = 3.23966 4.06981 3.67823
# Velocity P-wave (km/s) = 6.60296 7.55947 7.09735
#
# Compressibility (1/GPa) = 0.01706037
#
# Stress axis : x y z
#
# Youngs Moduli (GPa) = 121.07738 55.58389 52.53657
#
# Poissons Ratio (x) = -0.02867 0.27354
# Poissons Ratio (y) = -0.06246 0.49496
# Poissons Ratio (z) = 0.63042 0.52367
#
# Static dielectric constant tensor:
#      x y z
#    x 3.521140 0.000000 0.739140 
#    y 0.000000 3.720350 0.000000 
#    z 0.739140 0.000000 2.169360 
# 
# 
# High freq. dielectric constant tensor:
#      x y z
#    x 1.764560 0.000000 0.021680 
#    y 0.000000 1.748840 0.000000 
#    z 0.021680 0.000000 1.772270 
# 
# From -- ./inp_files/33306.got.cif
#   From: 2010.06.25/outbox.cif.g09.slc.cpg/sg15_17_cif.got.tgz:33306.got - 2010.06.28 07:06:18.
