data_PCOD8133370
_publ_section_title
;
Structure prediction by ZEFSAII (Michael W. Deem and Ramdas Pophale) SiO2 
 PCOD8133370
Probable space group: C 2/C
;
_chemical_formula_sum "Si O2"
_cell_formula_units_Z 48
_cell_length_a 17.677904
_cell_length_b 25.294404
_cell_length_c 5.214976
_cell_angle_alpha 90.000000
_cell_angle_beta 85.144866
_cell_angle_gamma 90.000000
_cell_volume 2323.520089
_symmetry_space_group_name_H-M "C 2/C"
_symmetry_group_IT_number 15
_symmetry_cell_setting 'monoclinic'
loop_
_space_group_symop_operation_xyz
x,y,z
-x,y,1/2-z
-x,-y,-z
x,-y,1/2+z
1/2+x,1/2+y,z
1/2-x,1/2+y,1/2-z
1/2-x,1/2-y,-z
1/2+x,1/2-y,1/2+z
loop_
_atom_site_type_symbol
_atom_site_label
_atom_site_fract_x
_atom_site_fract_y
_atom_site_fract_z
Si Si1 0.087733 0.974672 0.687301
Si Si2 0.333619 0.186964 0.491025
Si Si3 0.153389 0.133196 0.024160
Si Si4 0.328034 0.877954 0.479790
Si Si5 0.966906 0.559581 0.007884
Si Si6 0.341114 0.303066 0.465246
O O1 0.097186 0.914099 0.607636
O O2 0.000000 0.988791 0.750000
O O3 0.125733 0.010802 0.450838
O O4 0.362678 0.150900 0.718344
O O5 0.376105 0.243785 0.458477
O O6 0.246760 0.199315 0.584609
O O7 0.343856 0.158731 0.218154
O O8 0.146525 0.174451 0.255983
O O9 0.238872 0.109526 0.975178
O O10 0.122904 0.160571 0.771134
O O11 0.375143 0.932909 0.516087
O O12 0.000000 0.588650 0.250000
O O13 0.000000 0.589098 0.750000
O O14 0.000000 0.500000 0.000000
#
# Coordination Sequence:
#
# PCOD8133370 Si02
#       6
#     8   8   8   8   8   8
#     4  10  21  38  56  77 107 146 177 206 267 328
#     4   9  17  30  52  81 110 142 172 221 273 330
#     4  10  19  33  54  83 109 138 178 229 265 314
#     4  10  19  33  54  80 106 138 188 227 268 316
#     4  10  21  38  54  72 101 144 189 227 280 329
#     4   9  17  30  52  81 114 138 172 217 278 324
#
# _framework density 20.658311000000001
#
# number of rings (size 3 to 8) (size 9 to 14) (size 15 to 20)
#    0.000    2.333    0.000    3.000    0.000    4.000 
#    6.000    0.000    0.000   10.000    0.000    0.000 
#    0.000    0.000    0.000    0.000    0.000    0.000 
#
# Total GULP energy -297337.115496 kJ/mol
# GULP energy per Si atom -12389.046479 kJ/mol
# Density = 2.061129 g / cm^3
# Si number density = 20.658311 Si / 1000 Ang^3
#
#
#
# Elastic Constant Matrix: (Units=GPa)
#
#
# Indices 1 2 3 4 5 6 
#
# 1 17.5395 8.3802 19.8225 0.0000 6.5062 0.0000
# 2 8.3802 82.9209 20.8016 0.0000 -2.2247 0.0000
# 3 19.8225 20.8016 154.4929 0.0000 10.4199 0.0000
# 4 0.0000 0.0000 0.0000 28.7343 0.0000 -0.1909
# 5 6.5062 -2.2247 10.4199 0.0000 15.0038 0.0000
# 6 0.0000 0.0000 0.0000 -0.1909 0.0000 17.8383
#
#
#
# Elastic Compliance Matrix: (Units=1/GPa)
#
#
# Indices 1 2 3 4 5 6 
#
# 1 0.079968 -0.007091 -0.007235 0.000000 -0.030704 0.000000
# 2 -0.007091 0.013255 -0.001275 0.000000 0.005925 0.000000
# 3 -0.007235 -0.001275 0.007736 0.000000 -0.002424 0.000000
# 4 0.000000 0.000000 0.000000 0.034804 0.000000 0.000373
# 5 -0.030704 0.005925 -0.002424 0.000000 0.082526 0.000000
# 6 0.000000 0.000000 0.000000 0.000373 0.000000 0.056063
#
#
# Mechanical properties :
#
#
# Convention : Reuss Voigt Hill
#
# Bulk Modulus (GPa) = 14.33507 39.21797 26.77652
# Shear Modulus (GPa) = 15.20656 26.04522 20.62589
#
# Velocity S-wave (km/s) = 2.71606 3.55457 3.16322
# Velocity P-wave (km/s) = 4.09758 5.98932 5.13138
#
# Compressibility (1/GPa) = 0.06975899
#
# Stress axis : x y z
#
# Youngs Moduli (GPa) = 12.50504 75.44333 129.26251
#
# Poissons Ratio (x) = 0.53493 0.93519
# Poissons Ratio (y) = 0.08867 0.16476
# Poissons Ratio (z) = 0.09047 0.09616
#
# Static dielectric constant tensor:
#      x y z
#    x 3.412120 0.000000 0.103280 
#    y 0.000000 3.610660 0.000000 
#    z 0.103280 0.000000 7.165730 
# 
# 
# High freq. dielectric constant tensor:
#      x y z
#    x 1.756400 0.000000 0.007120 
#    y 0.000000 1.794920 0.000000 
#    z 0.007120 0.000000 1.843540 
# 
# From -- ./inp_files/10681.got.cif
#   From: 2010.06.25/outbox.cif.g09.slc.cpg/sg15_6_cif.got.tgz:10681.got - 2010.06.28 07:06:18.
