data_PCOD8133473
_publ_section_title
;
Structure prediction by ZEFSAII (Michael W. Deem and Ramdas Pophale) SiO2 
 PCOD8133473
Probable space group: C 2/C
;
_chemical_formula_sum "Si O2"
_cell_formula_units_Z 52
_cell_length_a 26.870958
_cell_length_b 17.881158
_cell_length_c 9.404936
_cell_angle_alpha 90.000000
_cell_angle_beta 142.541811
_cell_angle_gamma 90.000000
_cell_volume 2748.327164
_symmetry_space_group_name_H-M "C 2/C"
_symmetry_group_IT_number 15
_symmetry_cell_setting 'monoclinic'
loop_
_space_group_symop_operation_xyz
x,y,z
-x,y,1/2-z
-x,-y,-z
x,-y,1/2+z
1/2+x,1/2+y,z
1/2-x,1/2+y,1/2-z
1/2-x,1/2-y,-z
1/2+x,1/2-y,1/2+z
loop_
_atom_site_type_symbol
_atom_site_label
_atom_site_fract_x
_atom_site_fract_y
_atom_site_fract_z
Si Si1 0.132155 0.515511 0.253464
Si Si2 0.935863 0.700769 0.721998
Si Si3 0.703576 0.905951 0.646429
Si Si4 0.998402 0.597696 0.397222
Si Si5 0.979201 0.854752 0.957639
Si Si6 0.608848 0.604556 0.973063
Si Si7 0.000000 0.966228 0.750000
O O1 0.183424 0.457947 0.465493
O O2 0.188210 0.548944 0.256989
O O3 0.095040 0.582083 0.266565
O O4 0.051266 0.478523 0.000824
O O5 0.845900 0.673283 0.466857
O O6 0.948934 0.787101 0.789218
O O7 0.000000 0.675082 0.750000
O O8 0.953409 0.655045 0.900325
O O9 0.797980 0.884999 0.857910
O O10 0.000000 0.638305 0.250000
O O11 0.902936 0.870350 0.889331
O O12 0.005943 0.918809 0.907803
O O13 0.057104 0.845429 0.241122
O O14 0.579564 0.518214 0.905152
#
# Coordination Sequence:
#
# PCOD8133473 Si02
#       7
#     8   8   8   8   8   8   4
#     4  10  20  33  54  88 120 156 197 245 294 344
#     4  11  22  39  61  87 122 167 202 241 302 370
#     4  11  23  37  60  90 129 158 197 257 304 357
#     4  10  19  33  56  82 118 161 205 233 284 361
#     4  10  22  42  64  85 115 162 205 251 303 369
#     4  10  23  40  63  90 117 150 205 260 306 356
#     4  10  20  40  68  88 110 154 212 258 304 352
#
# _framework density 18.920601000000001
#
# number of rings (size 3 to 8) (size 9 to 14) (size 15 to 20)
#    0.000    1.846    3.846    1.846    6.462    0.615 
#    0.000    0.769    3.385    0.000    0.000    0.000 
#    0.000    0.000    0.000    0.000    0.000    0.000 
#
# Total GULP energy -322141.523314 kJ/mol
# GULP energy per Si atom -12390.058589 kJ/mol
# Density = 1.887754 g / cm^3
# Si number density = 18.920601 Si / 1000 Ang^3
#
#
#
# Elastic Constant Matrix: (Units=GPa)
#
#
# Indices 1 2 3 4 5 6 
#
# 1 139.2211 25.1328 63.4582 0.0000 7.0782 0.0000
# 2 25.1328 72.1792 30.9444 0.0000 6.5438 0.0000
# 3 63.4582 30.9444 82.3483 0.0000 13.9164 0.0000
# 4 0.0000 0.0000 0.0000 16.7898 0.0000 -5.6719
# 5 7.0782 6.5438 13.9164 0.0000 42.5180 0.0000
# 6 0.0000 0.0000 0.0000 -5.6719 0.0000 18.0982
#
#
#
# Elastic Compliance Matrix: (Units=1/GPa)
#
#
# Indices 1 2 3 4 5 6 
#
# 1 0.011117 -0.000258 -0.008641 0.000000 0.001018 0.000000
# 2 -0.000258 0.016533 -0.005918 0.000000 -0.000564 0.000000
# 3 -0.008641 -0.005918 0.021837 0.000000 -0.004798 0.000000
# 4 0.000000 0.000000 0.000000 0.066612 0.000000 0.020876
# 5 0.001018 -0.000564 -0.004798 0.000000 0.025007 0.000000
# 6 0.000000 0.000000 0.000000 0.020876 0.000000 0.061796
#
#
# Mechanical properties :
#
#
# Convention : Reuss Voigt Hill
#
# Bulk Modulus (GPa) = 50.37527 59.20215 54.78871
# Shear Modulus (GPa) = 20.90691 27.09540 24.00116
#
# Velocity S-wave (km/s) = 3.32773 3.78836 3.56549
# Velocity P-wave (km/s) = 6.43797 7.10586 6.78014
#
# Compressibility (1/GPa) = 0.01985101
#
# Stress axis : x y z
#
# Youngs Moduli (GPa) = 89.95611 60.48614 45.79302
#
# Poissons Ratio (x) = 0.01562 0.39571
# Poissons Ratio (y) = 0.02324 0.27101
# Poissons Ratio (z) = 0.77734 0.35796
#
# Static dielectric constant tensor:
#      x y z
#    x 3.646350 0.000000 -0.084130 
#    y 0.000000 3.478840 0.000000 
#    z -0.084130 0.000000 1.006200 
# 
# 
# High freq. dielectric constant tensor:
#      x y z
#    x 1.754260 0.000000 -0.019560 
#    y 0.000000 1.716470 0.000000 
#    z -0.019560 0.000000 1.720440 
# 
# From -- ./inp_files/63458.got.cif
#   From: 2010.06.25/outbox.cif.g09.slc.cpg/sg15_32_cif.got.tgz:63458.got - 2010.06.28 07:06:18.
