data_PCOD8133108
_publ_section_title
;
Structure prediction by ZEFSAII (Michael W. Deem and Ramdas Pophale) SiO2 
 PCOD8133108
Probable space group: C 2/C
;
_chemical_formula_sum "Si O2"
_cell_formula_units_Z 56
_cell_length_a 12.322723
_cell_length_b 21.886052
_cell_length_c 11.669325
_cell_angle_alpha 90.000000
_cell_angle_beta 85.190872
_cell_angle_gamma 90.000000
_cell_volume 3136.087878
_symmetry_space_group_name_H-M "C 2/C"
_symmetry_group_IT_number 15
_symmetry_cell_setting 'monoclinic'
loop_
_space_group_symop_operation_xyz
x,y,z
-x,y,1/2-z
-x,-y,-z
x,-y,1/2+z
1/2+x,1/2+y,z
1/2-x,1/2+y,1/2-z
1/2-x,1/2-y,-z
1/2+x,1/2-y,1/2+z
loop_
_atom_site_type_symbol
_atom_site_label
_atom_site_fract_x
_atom_site_fract_y
_atom_site_fract_z
Si Si1 0.448142 0.748564 0.636553
Si Si2 0.277787 0.187964 0.878955
Si Si3 0.891699 0.376236 0.182745
Si Si4 0.637214 0.237406 0.951884
Si Si5 0.123135 0.196719 0.221479
Si Si6 0.178340 0.366514 0.885467
Si Si7 0.939398 0.507491 0.130200
O O1 0.500000 0.725329 0.750000
O O2 0.346545 0.708327 0.605525
O O3 0.538606 0.736260 0.533450
O O4 0.409611 0.818875 0.657875
O O5 0.289861 0.145476 0.766999
O O6 0.357884 0.247989 0.872554
O O7 0.310369 0.145933 0.981509
O O8 0.893540 0.333544 0.069748
O O9 0.871069 0.445155 0.144838
O O10 0.000000 0.367369 0.250000
O O11 0.658719 0.274158 0.835823
O O12 0.750000 0.250000 0.000000
O O13 0.203238 0.140611 0.185237
O O14 0.000000 0.173496 0.250000
O O15 0.140390 0.435360 0.870247
O O16 0.000000 0.513500 0.250000
O O17 0.000000 0.500000 0.000000
#
# Coordination Sequence:
#
# PCOD8133108 Si02
#       7
#     8   8   8   8   8   8   8
#     4  11  20  32  50  78 109 139 178 225 277 333
#     4  10  19  33  53  76 104 145 181 219 275 336
#     4  10  20  36  54  75 108 147 178 212 270 335
#     4  11  20  32  51  78 107 137 170 219 273 320
#     4  10  19  32  51  76 106 139 174 215 272 328
#     4  11  20  33  54  81 109 138 182 232 270 317
#     4  11  23  38  58  84 112 147 184 226 274 325
#
# _framework density 17.856642000000001
#
# number of rings (size 3 to 8) (size 9 to 14) (size 15 to 20)
#    0.000    1.429    0.000   11.571    0.000    1.143 
#    0.000    0.000    0.000    2.571    0.000    8.000 
#    0.000    0.000    0.000    0.000    0.000    0.000 
#
# Total GULP energy -346906.751444 kJ/mol
# GULP energy per Si atom -12389.526837 kJ/mol
# Density = 1.781600 g / cm^3
# Si number density = 17.856642 Si / 1000 Ang^3
#
#
#
# Elastic Constant Matrix: (Units=GPa)
#
#
# Indices 1 2 3 4 5 6 
#
# 1 109.0357 49.8702 37.7853 0.0000 -16.0447 0.0000
# 2 49.8702 126.7723 46.7447 0.0000 -6.9399 0.0000
# 3 37.7853 46.7447 93.7590 0.0000 -2.3961 0.0000
# 4 0.0000 0.0000 0.0000 45.1669 0.0000 -5.3365
# 5 -16.0447 -6.9399 -2.3961 0.0000 35.7196 0.0000
# 6 0.0000 0.0000 0.0000 -5.3365 0.0000 29.0219
#
#
#
# Elastic Compliance Matrix: (Units=1/GPa)
#
#
# Indices 1 2 3 4 5 6 
#
# 1 0.012586 -0.003511 -0.003200 0.000000 0.004757 0.000000
# 2 -0.003511 0.010731 -0.003929 0.000000 0.000244 0.000000
# 3 -0.003200 -0.003929 0.013882 0.000000 -0.001270 0.000000
# 4 0.000000 0.000000 0.000000 0.022632 0.000000 0.004161
# 5 0.004757 0.000244 -0.001270 0.000000 0.030095 0.000000
# 6 0.000000 0.000000 0.000000 0.004161 0.000000 0.035222
#
#
# Mechanical properties :
#
#
# Convention : Reuss Voigt Hill
#
# Bulk Modulus (GPa) = 62.81871 66.48528 64.65200
# Shear Modulus (GPa) = 32.95229 34.99282 33.97256
#
# Velocity S-wave (km/s) = 4.30045 4.43160 4.36652
# Velocity P-wave (km/s) = 7.74043 7.96863 7.85536
#
# Compressibility (1/GPa) = 0.01591882
#
# Stress axis : x y z
#
# Youngs Moduli (GPa) = 79.45330 93.18453 72.03618
#
# Poissons Ratio (x) = 0.32714 0.23054
# Poissons Ratio (y) = 0.27893 0.28304
# Poissons Ratio (z) = 0.25428 0.36614
#
# Static dielectric constant tensor:
#      x y z
#    x 3.294220 0.000000 -0.119600 
#    y 0.000000 3.226390 0.000000 
#    z -0.119600 0.000000 3.552430 
# 
# 
# High freq. dielectric constant tensor:
#      x y z
#    x 1.683840 0.000000 -0.009240 
#    y 0.000000 1.660470 0.000000 
#    z -0.009240 0.000000 1.719270 
# 
# From -- ./inp_files/88951.got.cif
#   From: 2010.06.25/outbox.cif.g09.slc.cpg/sg15_45_cif.got.tgz:88951.got - 2010.06.28 07:06:18.
