data_PCOD8133719
_publ_section_title
;
Structure prediction by ZEFSAII (Michael W. Deem and Ramdas Pophale) SiO2 
 PCOD8133719
Probable space group: C 2/C
;
_chemical_formula_sum "Si O2"
_cell_formula_units_Z 44
_cell_length_a 19.499550
_cell_length_b 11.770494
_cell_length_c 12.554213
_cell_angle_alpha 90.000000
_cell_angle_beta 57.457660
_cell_angle_gamma 90.000000
_cell_volume 2429.032587
_symmetry_space_group_name_H-M "C 2/C"
_symmetry_group_IT_number 15
_symmetry_cell_setting 'monoclinic'
loop_
_space_group_symop_operation_xyz
x,y,z
-x,y,1/2-z
-x,-y,-z
x,-y,1/2+z
1/2+x,1/2+y,z
1/2-x,1/2+y,1/2-z
1/2-x,1/2-y,-z
1/2+x,1/2-y,1/2+z
loop_
_atom_site_type_symbol
_atom_site_label
_atom_site_fract_x
_atom_site_fract_y
_atom_site_fract_z
Si Si1 0.554523 0.000037 0.111819
Si Si2 0.137245 0.139161 0.536965
Si Si3 0.178857 0.632746 0.127141
Si Si4 0.563498 0.160114 0.408255
Si Si5 0.476624 0.624821 0.051860
Si Si6 0.000000 0.973060 0.750000
O O1 0.500000 0.943610 0.250000
O O2 0.639429 0.031224 0.094058
O O3 0.510256 0.112745 0.102519
O O4 0.572496 0.909497 0.007813
O O5 0.151617 0.251984 0.592398
O O6 0.228067 0.092172 0.446629
O O7 0.104328 0.163578 0.444493
O O8 0.075246 0.053102 0.648955
O O9 0.147356 0.646166 0.274270
O O10 0.548067 0.290006 0.455027
O O11 0.466824 0.614836 0.187652
O O12 0.500000 0.500000 0.000000
#
# Coordination Sequence:
#
# PCOD8133719 Si02
#       6
#     8   8   8   8   8   4
#     4   9  19  33  56  81 108 145 179 231 276 329
#     4  10  20  35  57  82 108 144 193 227 273 330
#     4  10  19  34  57  82 110 145 184 236 272 325
#     4  10  19  34  55  81 112 145 184 224 277 332
#     4  10  20  35  58  79 107 148 187 227 270 334
#     4  10  22  36  58  80 108 152 182 238 276 330
#
# _framework density 18.114207
#
# number of rings (size 3 to 8) (size 9 to 14) (size 15 to 20)
#    0.000    2.182    1.818    2.182    2.545    1.455 
#    0.000    1.818    0.000    5.455    0.000    0.000 
#    0.000    0.000    0.000    0.000    0.000    0.000 
#
# Total GULP energy -272560.014924 kJ/mol
# GULP energy per Si atom -12389.091587 kJ/mol
# Density = 1.807298 g / cm^3
# Si number density = 18.114207 Si / 1000 Ang^3
#
#
#
# Elastic Constant Matrix: (Units=GPa)
#
#
# Indices 1 2 3 4 5 6 
#
# 1 109.8080 28.6689 89.8639 0.0000 -7.9192 0.0000
# 2 28.6689 67.8696 47.7013 0.0000 -6.3513 0.0000
# 3 89.8639 47.7013 143.6714 0.0000 3.9789 0.0000
# 4 0.0000 0.0000 0.0000 25.1604 0.0000 9.8559
# 5 -7.9192 -6.3513 3.9789 0.0000 39.4381 0.0000
# 6 0.0000 0.0000 0.0000 9.8559 0.0000 3.9218
#
#
#
# Elastic Compliance Matrix: (Units=1/GPa)
#
#
# Indices 1 2 3 4 5 6 
#
# 1 0.019746 0.001250 -0.012917 0.000000 0.005469 0.000000
# 2 0.001250 0.019867 -0.007494 0.000000 0.004207 0.000000
# 3 -0.012917 -0.007494 0.017683 0.000000 -0.005585 0.000000
# 4 0.000000 0.000000 0.000000 2.552312 0.000000 -6.414187
# 5 0.005469 0.004207 -0.005585 0.000000 0.027695 0.000000
# 6 0.000000 0.000000 0.000000 -6.414187 0.000000 16.374407
#
#
# Mechanical properties :
#
#
# Convention : Reuss Voigt Hill
#
# Bulk Modulus (GPa) = 52.70887 72.64637 62.67762
# Shear Modulus (GPa) = 0.26238 24.04505 12.15372
#
# Velocity S-wave (km/s) = 0.38100 3.64732 2.59308
# Velocity P-wave (km/s) = 5.41801 7.61111 6.60620
#
# Compressibility (1/GPa) = 0.01897214
#
# Stress axis : x y z
#
# Youngs Moduli (GPa) = 50.64292 50.33402 56.55240
#
# Poissons Ratio (x) = -0.06289 0.73050
# Poissons Ratio (y) = -0.06328 0.42382
# Poissons Ratio (z) = 0.65416 0.37722
#
# Static dielectric constant tensor:
#      x y z
#    x 3.741190 0.000000 0.454790 
#    y 0.000000 3.204770 0.000000 
#    z 0.454790 0.000000 4.121770 
# 
# 
# High freq. dielectric constant tensor:
#      x y z
#    x 1.698310 0.000000 0.016580 
#    y 0.000000 1.689470 0.000000 
#    z 0.016580 0.000000 1.707510 
# 
# From -- ./inp_files/104075.got.cif
#   From: 2010.06.25/outbox.cif.g09.slc.cpg/sg15_53_cif.got.tgz:104075.got - 2010.06.28 07:06:18.
