data_PCOD8133255
_publ_section_title
;
Structure prediction by ZEFSAII (Michael W. Deem and Ramdas Pophale) SiO2 
 PCOD8133255
Probable space group: C 2/C
;
_chemical_formula_sum "Si O2"
_cell_formula_units_Z 48
_cell_length_a 11.530303
_cell_length_b 22.996897
_cell_length_c 11.620195
_cell_angle_alpha 90.000000
_cell_angle_beta 53.270183
_cell_angle_gamma 90.000000
_cell_volume 2469.492334
_symmetry_space_group_name_H-M "C 2/C"
_symmetry_group_IT_number 15
_symmetry_cell_setting 'monoclinic'
loop_
_space_group_symop_operation_xyz
x,y,z
-x,y,1/2-z
-x,-y,-z
x,-y,1/2+z
1/2+x,1/2+y,z
1/2-x,1/2+y,1/2-z
1/2-x,1/2-y,-z
1/2+x,1/2-y,1/2+z
loop_
_atom_site_type_symbol
_atom_site_label
_atom_site_fract_x
_atom_site_fract_y
_atom_site_fract_z
Si Si1 0.418636 0.729942 0.417381
Si Si2 0.931423 0.656646 0.668520
Si Si3 0.880254 0.875326 0.096069
Si Si4 0.000000 0.935594 0.250000
Si Si5 0.779441 0.971875 0.984016
Si Si6 0.432789 0.937011 0.556567
Si Si7 0.500000 0.033136 0.250000
O O1 0.500000 0.716536 0.250000
O O2 0.250000 0.750000 0.500000
O O3 0.501833 0.784638 0.423789
O O4 0.456946 0.674285 0.474056
O O5 0.761904 0.659976 0.786045
O O6 0.000000 0.640003 0.750000
O O7 0.954806 0.606868 0.563170
O O8 0.863767 0.933199 0.027267
O O9 0.956642 0.894173 0.169227
O O10 0.872959 0.975937 0.375853
O O11 0.631068 0.993096 0.129317
O O12 0.727137 0.932214 0.906124
O O13 0.429152 0.925303 0.695236
O O14 0.500000 0.000000 0.500000
#
# Coordination Sequence:
#
# PCOD8133255 Si02
#       7
#     8   8   8   4   8   8   4
#     4  11  22  42  70  99 117 159 223 269 317 371
#     4  11  20  41  68  94 120 165 215 268 312 373
#     4  12  23  43  67  90 136 170 214 267 320 384
#     4  12  28  42  57  98 137 176 202 262 336 382
#     4  11  21  40  61  90 129 171 215 250 318 388
#     4  10  19  32  62  92 121 158 206 256 313 373
#     4  10  20  36  59  94 125 160 212 258 308 394
#
# _framework density 19.437194000000002
#
# number of rings (size 3 to 8) (size 9 to 14) (size 15 to 20)
#    0.000    1.000    5.000    5.500    2.333    0.000 
#    3.000    1.667    0.000    0.000    0.000    0.000 
#    0.000    0.000    0.000    0.000    0.000    0.000 
#
# Total GULP energy -297313.142118 kJ/mol
# GULP energy per Si atom -12388.047588 kJ/mol
# Density = 1.939295 g / cm^3
# Si number density = 19.437194 Si / 1000 Ang^3
#
#
#
# Elastic Constant Matrix: (Units=GPa)
#
#
# Indices 1 2 3 4 5 6 
#
# 1 100.3649 26.3824 53.7636 0.0000 29.7498 0.0000
# 2 26.3824 109.0860 63.4859 0.0000 9.9119 0.0000
# 3 53.7636 63.4859 117.2622 0.0000 4.7272 0.0000
# 4 0.0000 0.0000 0.0000 50.7195 0.0000 10.3601
# 5 29.7498 9.9119 4.7272 0.0000 42.7861 0.0000
# 6 0.0000 0.0000 0.0000 10.3601 0.0000 35.5130
#
#
#
# Elastic Compliance Matrix: (Units=1/GPa)
#
#
# Indices 1 2 3 4 5 6 
#
# 1 0.017516 0.001785 -0.008528 0.000000 -0.011650 0.000000
# 2 0.001785 0.013798 -0.008146 0.000000 -0.003538 0.000000
# 3 -0.008528 -0.008146 0.016607 0.000000 0.005982 0.000000
# 4 0.000000 0.000000 0.000000 0.020966 0.000000 -0.006116
# 5 -0.011650 -0.003538 0.005982 0.000000 0.031631 0.000000
# 6 0.000000 0.000000 0.000000 -0.006116 0.000000 0.029943
#
#
# Mechanical properties :
#
#
# Convention : Reuss Voigt Hill
#
# Bulk Modulus (GPa) = 55.11594 68.21962 61.66778
# Shear Modulus (GPa) = 30.06887 38.00915 34.03901
#
# Velocity S-wave (km/s) = 3.93743 4.42688 4.18931
# Velocity P-wave (km/s) = 7.00633 7.82965 7.42940
#
# Compressibility (1/GPa) = 0.01814357
#
# Stress axis : x y z
#
# Youngs Moduli (GPa) = 57.09105 72.47673 60.21588
#
# Poissons Ratio (x) = -0.12940 0.51351
# Poissons Ratio (y) = -0.10193 0.49052
# Poissons Ratio (z) = 0.48686 0.59039
#
# Static dielectric constant tensor:
#      x y z
#    x 4.107860 0.000000 0.384520 
#    y 0.000000 3.341880 0.000000 
#    z 0.384520 0.000000 3.973100 
# 
# 
# High freq. dielectric constant tensor:
#      x y z
#    x 1.749460 0.000000 0.004220 
#    y 0.000000 1.746720 0.000000 
#    z 0.004220 0.000000 1.767270 
# 
# From -- ./inp_files/90654.got.cif
#   From: 2010.06.25/outbox.cif.g09.slc.cpg/sg15_46_cif.got.tgz:90654.got - 2010.06.28 07:06:18.
