data_PCOD8133491
_publ_section_title
;
Structure prediction by ZEFSAII (Michael W. Deem and Ramdas Pophale) SiO2 
 PCOD8133491
Probable space group: C 2/C
;
_chemical_formula_sum "Si O2"
_cell_formula_units_Z 52
_cell_length_a 7.081549
_cell_length_b 29.605348
_cell_length_c 11.605191
_cell_angle_alpha 90.000000
_cell_angle_beta 101.952414
_cell_angle_gamma 90.000000
_cell_volume 2380.299652
_symmetry_space_group_name_H-M "C 2/C"
_symmetry_group_IT_number 15
_symmetry_cell_setting 'monoclinic'
loop_
_space_group_symop_operation_xyz
x,y,z
-x,y,1/2-z
-x,-y,-z
x,-y,1/2+z
1/2+x,1/2+y,z
1/2-x,1/2+y,1/2-z
1/2-x,1/2-y,-z
1/2+x,1/2-y,1/2+z
loop_
_atom_site_type_symbol
_atom_site_label
_atom_site_fract_x
_atom_site_fract_y
_atom_site_fract_z
Si Si1 0.708556 0.777239 0.649484
Si Si2 0.906398 0.188101 0.958670
Si Si3 0.716546 0.951167 0.642824
Si Si4 0.192519 0.312802 0.899459
Si Si5 0.195638 0.416083 0.881657
Si Si6 0.587092 0.414390 0.054540
Si Si7 0.000000 0.973580 0.250000
O O1 0.855199 0.803644 0.586122
O O2 0.714300 0.722440 0.637447
O O3 0.753067 0.791491 0.784367
O O4 0.494259 0.787952 0.576283
O O5 0.139046 0.193843 0.985602
O O6 0.861206 0.137543 0.911314
O O7 0.783682 0.924006 0.765188
O O8 0.480360 0.951251 0.614687
O O9 0.772093 0.928141 0.530412
O O10 0.828521 0.998797 0.664913
O O11 0.126229 0.364576 0.875897
O O12 0.365069 0.423359 0.993635
O O13 0.618818 0.443507 0.173225
#
# Coordination Sequence:
#
# PCOD8133491 Si02
#       7
#     8   8   8   8   8   8   4
#     4  10  19  33  56  87 113 145 192 241 282 349
#     4  10  21  35  58  82 115 157 191 232 296 345
#     4  11  21  40  63  89 114 152 203 258 303 359
#     4  10  19  34  57  85 115 146 192 243 289 345
#     4  10  21  38  67  91 112 156 206 252 306 354
#     4  11  23  43  58  86 125 160 198 252 300 364
#     4  12  26  40  60  88 124 162 204 248 316 366
#
# _framework density 21.845991000000001
#
# number of rings (size 3 to 8) (size 9 to 14) (size 15 to 20)
#    0.000    1.538    1.538    5.077    0.000    4.308 
#    2.769    0.000    0.000    3.692    0.000    0.000 
#    0.000    0.000    0.000    0.000    0.000    0.000 
#
# Total GULP energy -322256.774815 kJ/mol
# GULP energy per Si atom -12394.491339 kJ/mol
# Density = 2.179627 g / cm^3
# Si number density = 21.845991 Si / 1000 Ang^3
#
#
#
# Elastic Constant Matrix: (Units=GPa)
#
#
# Indices 1 2 3 4 5 6 
#
# 1 67.6512 32.9227 17.2821 0.0000 -15.5022 0.0000
# 2 32.9227 103.9906 26.2739 0.0000 -10.6371 0.0000
# 3 17.2821 26.2739 46.2077 0.0000 -11.4252 0.0000
# 4 0.0000 0.0000 0.0000 11.9526 0.0000 -7.9849
# 5 -15.5022 -10.6371 -11.4252 0.0000 24.7372 0.0000
# 6 0.0000 0.0000 0.0000 -7.9849 0.0000 24.8566
#
#
#
# Elastic Compliance Matrix: (Units=1/GPa)
#
#
# Indices 1 2 3 4 5 6 
#
# 1 0.019822 -0.004710 -0.002444 0.000000 0.009268 0.000000
# 2 -0.004710 0.012448 -0.005332 0.000000 -0.000061 0.000000
# 3 -0.002444 -0.005332 0.027818 0.000000 0.009024 0.000000
# 4 0.000000 0.000000 0.000000 0.106524 0.000000 0.034219
# 5 0.009268 -0.000061 0.009024 0.000000 0.050374 0.000000
# 6 0.000000 0.000000 0.000000 0.034219 0.000000 0.051223
#
#
# Mechanical properties :
#
#
# Convention : Reuss Voigt Hill
#
# Bulk Modulus (GPa) = 28.47604 41.20075 34.83840
# Shear Modulus (GPa) = 16.39953 21.73401 19.06677
#
# Velocity S-wave (km/s) = 2.74284 3.15758 2.95749
# Velocity P-wave (km/s) = 4.80563 5.67401 5.25778
#
# Compressibility (1/GPa) = 0.03511724
#
# Stress axis : x y z
#
# Youngs Moduli (GPa) = 50.44931 80.33286 35.94753
#
# Poissons Ratio (x) = 0.37837 0.08785
# Poissons Ratio (y) = 0.23762 0.19166
# Poissons Ratio (z) = 0.12329 0.42831
#
# Static dielectric constant tensor:
#      x y z
#    x 4.029920 0.000000 -0.056390 
#    y 0.000000 4.011140 0.000000 
#    z -0.056390 0.000000 3.571280 
# 
# 
# High freq. dielectric constant tensor:
#      x y z
#    x 1.862790 0.000000 -0.008270 
#    y 0.000000 1.861450 0.000000 
#    z -0.008270 0.000000 1.836160 
# 
# From -- ./inp_files/80812.got.cif
#   From: 2010.06.25/outbox.cif.g09.slc.cpg/sg15_41_cif.got.tgz:80812.got - 2010.06.28 07:06:18.
