data_PCOD8133732
_publ_section_title
;
Structure prediction by ZEFSAII (Michael W. Deem and Ramdas Pophale) SiO2 
 PCOD8133732
Probable space group: C 2/C
;
_chemical_formula_sum "Si O2"
_cell_formula_units_Z 56
_cell_length_a 18.692637
_cell_length_b 13.262529
_cell_length_c 19.474849
_cell_angle_alpha 90.000000
_cell_angle_beta 150.069449
_cell_angle_gamma 90.000000
_cell_volume 2408.951010
_symmetry_space_group_name_H-M "C 2/C"
_symmetry_group_IT_number 15
_symmetry_cell_setting 'monoclinic'
loop_
_space_group_symop_operation_xyz
x,y,z
-x,y,1/2-z
-x,-y,-z
x,-y,1/2+z
1/2+x,1/2+y,z
1/2-x,1/2+y,1/2-z
1/2-x,1/2-y,-z
1/2+x,1/2-y,1/2+z
loop_
_atom_site_type_symbol
_atom_site_label
_atom_site_fract_x
_atom_site_fract_y
_atom_site_fract_z
Si Si1 0.425776 0.507457 0.846230
Si Si2 0.000000 0.467338 0.750000
Si Si3 0.382560 0.299013 0.389080
Si Si4 0.169766 0.145304 0.849997
Si Si5 0.688670 0.517326 0.474506
Si Si6 0.480622 0.797086 0.626668
Si Si7 0.089999 0.217475 0.178073
Si Si8 0.500000 0.324644 0.750000
O O1 0.426921 0.582689 0.913172
O O2 0.326769 0.562660 0.707352
O O3 0.590973 0.487302 0.961194
O O4 0.356242 0.396598 0.795535
O O5 0.856329 0.535340 0.630858
O O6 0.994101 0.405057 0.816567
O O7 0.425884 0.223678 0.363454
O O8 0.212883 0.295069 0.258852
O O9 0.453291 0.258100 0.517393
O O10 0.161212 0.090060 0.915767
O O11 0.030246 0.215302 0.724051
O O12 0.312896 0.214666 0.967768
O O13 0.637477 0.607040 0.382666
O O14 0.046213 0.238330 0.221190
#
# Coordination Sequence:
#
# PCOD8133732 Si02
#       8
#     8   4   8   8   8   8   8   4
#     4  10  21  40  70  88 131 182 217 266 337 409
#     4  10  24  31  58 101 138 174 216 272 329 387
#     4  11  24  41  65  99 137 175 225 268 343 396
#     4  10  19  34  55  89 128 177 216 262 325 383
#     4  10  19  37  61  95 128 175 220 267 328 400
#     4  10  23  33  54  93 138 175 216 263 322 410
#     4  11  24  46  69  98 125 178 227 287 334 403
#     4  10  22  45  76  87 124 176 236 280 335 391
#
# _framework density 23.246634
#
# number of rings (size 3 to 8) (size 9 to 14) (size 15 to 20)
#    0.000    1.714    2.857    2.143   10.000    1.714 
#    0.000    5.714    0.000    0.000    0.000    0.000 
#    0.000    0.000    0.000    0.000    0.000    0.000 
#
# Total GULP energy -347072.648574 kJ/mol
# GULP energy per Si atom -12395.451735 kJ/mol
# Density = 2.319372 g / cm^3
# Si number density = 23.246634 Si / 1000 Ang^3
#
#
#
# Elastic Constant Matrix: (Units=GPa)
#
#
# Indices 1 2 3 4 5 6 
#
# 1 125.6283 8.3388 15.0312 -0.0001 -6.4937 0.0001
# 2 8.3388 24.0714 9.2666 -0.0010 11.9097 0.0001
# 3 15.0312 9.2666 112.2829 -0.0011 3.6786 0.0000
# 4 -0.0001 -0.0010 -0.0011 12.2809 -0.0002 2.7892
# 5 -6.4937 11.9097 3.6786 -0.0002 30.5245 0.0001
# 6 0.0001 0.0001 0.0000 2.7892 0.0001 20.9427
#
#
#
# Elastic Compliance Matrix: (Units=1/GPa)
#
#
# Indices 1 2 3 4 5 6 
#
# 1 0.008550 -0.004423 -0.000899 0.000000 0.003653 0.000000
# 2 -0.004423 0.055265 -0.003244 0.000004 -0.022112 -0.000001
# 3 -0.000899 -0.003244 0.009296 0.000001 -0.000046 0.000000
# 4 0.000000 0.000004 0.000001 0.083967 -0.000001 -0.011183
# 5 0.003653 -0.022112 -0.000046 -0.000001 0.042171 0.000000
# 6 0.000000 -0.000001 0.000000 -0.011183 0.000000 0.049239
#
#
# Mechanical properties :
#
#
# Convention : Reuss Voigt Hill
#
# Bulk Modulus (GPa) = 17.86449 36.36175 27.11312
# Shear Modulus (GPa) = 17.58837 28.03937 22.81387
#
# Velocity S-wave (km/s) = 2.75362 3.47676 3.13610
# Velocity P-wave (km/s) = 4.22035 5.63852 4.98017
#
# Compressibility (1/GPa) = 0.05597698
#
# Stress axis : x y z
#
# Youngs Moduli (GPa) = 116.95915 18.09476 107.57659
#
# Poissons Ratio (x) = 0.08003 0.09674
# Poissons Ratio (y) = 0.51732 0.34902
# Poissons Ratio (z) = 0.10517 0.05871
#
# Static dielectric constant tensor:
#      x y z
#    x 4.165110 0.000000 -0.162560 
#    y 0.000000 3.943010 0.000000 
#    z -0.162560 0.000000 4.432670 
# 
# 
# High freq. dielectric constant tensor:
#      x y z
#    x 1.920970 0.000000 -0.015130 
#    y 0.000000 1.890250 0.000000 
#    z -0.015130 0.000000 1.924480 
# 
# From -- ./inp_files/249316.got.cif
#   From: 2010.06.25/outbox.cif.g09.slc.cpg/sg15_125_cif.got.tgz:249316.got - 2010.06.28 07:06:18.
