data_PCOD8133489
_publ_section_title
;
Structure prediction by ZEFSAII (Michael W. Deem and Ramdas Pophale) SiO2 
 PCOD8133489
Probable space group: C 2/C
;
_chemical_formula_sum "Si O2"
_cell_formula_units_Z 60
_cell_length_a 9.736107
_cell_length_b 24.357860
_cell_length_c 22.557266
_cell_angle_alpha 90.000000
_cell_angle_beta 37.643342
_cell_angle_gamma 90.000000
_cell_volume 3267.159744
_symmetry_space_group_name_H-M "C 2/C"
_symmetry_group_IT_number 15
_symmetry_cell_setting 'monoclinic'
loop_
_space_group_symop_operation_xyz
x,y,z
-x,y,1/2-z
-x,-y,-z
x,-y,1/2+z
1/2+x,1/2+y,z
1/2-x,1/2+y,1/2-z
1/2-x,1/2-y,-z
1/2+x,1/2-y,1/2+z
loop_
_atom_site_type_symbol
_atom_site_label
_atom_site_fract_x
_atom_site_fract_y
_atom_site_fract_z
Si Si1 0.500000 0.046811 0.250000
Si Si2 0.248758 0.705556 0.951364
Si Si3 0.048643 0.592011 0.050488
Si Si4 0.645741 0.758166 0.755112
Si Si5 0.718025 0.379630 0.764955
Si Si6 0.242295 0.999539 0.946333
Si Si7 0.279019 0.094597 0.027982
Si Si8 0.049975 0.290079 0.055964
O O1 0.690898 0.088294 0.208426
O O2 0.584084 0.007399 0.167871
O O3 0.496901 0.712765 0.839877
O O4 0.048172 0.720913 0.975508
O O5 0.250000 0.750000 0.000000
O O6 0.203221 0.646001 0.994029
O O7 0.223685 0.548798 0.017675
O O8 0.830445 0.596713 0.167130
O O9 0.958295 0.574319 0.016384
O O10 0.500000 0.779744 0.750000
O O11 0.727258 0.814544 0.757897
O O12 0.860111 0.721248 0.668796
O O13 0.452167 0.391571 0.858295
O O14 0.270340 0.053915 0.975577
O O15 0.000000 0.000000 0.000000
O O16 0.367245 0.148430 0.965293
O O17 0.250000 0.250000 0.000000
#
# Coordination Sequence:
#
# PCOD8133489 Si02
#       8
#     4   8   8   8   8   8   8   8
#     4  10  22  38  60  98 106 152 202 256 294 346
#     4  10  20  36  57  85 120 154 192 240 299 349
#     4  10  23  38  59  92 120 154 198 250 302 354
#     4  10  19  33  56  86 121 160 195 238 295 353
#     4  11  18  33  64  88 119 147 204 246 291 350
#     4  11  23  42  66  83 116 153 204 248 301 361
#     4  11  22  39  60  87 123 157 195 250 305 353
#     4  10  21  35  56  84 119 156 196 241 294 356
#
# _framework density 18.364576
#
# number of rings (size 3 to 8) (size 9 to 14) (size 15 to 20)
#    0.000    1.600    4.667    0.800    0.000    1.067 
#    2.400    0.667    0.000    0.000    0.000    0.000 
#    0.000    0.000    0.000    0.000    0.000    0.000 
#
# Total GULP energy -371734.349304 kJ/mol
# GULP energy per Si atom -12391.144977 kJ/mol
# Density = 1.832278 g / cm^3
# Si number density = 18.364576 Si / 1000 Ang^3
#
#
#
# Elastic Constant Matrix: (Units=GPa)
#
#
# Indices 1 2 3 4 5 6 
#
# 1 113.5060 79.1206 45.2022 -0.0003 -4.8047 0.0002
# 2 79.1206 126.0876 63.1209 0.0000 -2.4672 0.0001
# 3 45.2022 63.1209 99.5451 0.0008 -7.8649 -0.0003
# 4 -0.0003 0.0000 0.0008 30.5734 -0.0003 3.8891
# 5 -4.8047 -2.4672 -7.8649 -0.0003 29.6159 0.0000
# 6 0.0002 0.0001 -0.0003 3.8891 0.0000 33.4458
#
#
#
# Elastic Compliance Matrix: (Units=1/GPa)
#
#
# Indices 1 2 3 4 5 6 
#
# 1 0.015837 -0.009329 -0.001159 0.000000 0.001484 0.000000
# 2 -0.009329 0.017144 -0.006784 0.000000 -0.001887 0.000000
# 3 -0.001159 -0.006784 0.015132 0.000000 0.003265 0.000000
# 4 0.000000 0.000000 0.000000 0.033199 0.000000 -0.003860
# 5 0.001484 -0.001887 0.003265 0.000000 0.034716 0.000000
# 6 0.000000 0.000000 0.000000 -0.003860 0.000000 0.030348
#
#
# Mechanical properties :
#
#
# Convention : Reuss Voigt Hill
#
# Bulk Modulus (GPa) = 73.69381 79.33624 76.51503
# Shear Modulus (GPa) = 26.96253 28.84002 27.90128
#
# Velocity S-wave (km/s) = 3.83584 3.96715 3.90205
# Velocity P-wave (km/s) = 7.73522 8.01741 7.87758
#
# Compressibility (1/GPa) = 0.01356966
#
# Stress axis : x y z
#
# Youngs Moduli (GPa) = 63.14283 58.32953 66.08700
#
# Poissons Ratio (x) = 0.54414 0.07659
# Poissons Ratio (y) = 0.58904 0.44833
# Poissons Ratio (z) = 0.07318 0.39570
#
# Static dielectric constant tensor:
#      x y z
#    x 3.485730 0.000000 -0.010480 
#    y 0.000000 3.321750 0.000000 
#    z -0.010480 0.000000 3.357600 
# 
# 
# High freq. dielectric constant tensor:
#      x y z
#    x 1.720700 0.000000 -0.001620 
#    y 0.000000 1.709250 0.000000 
#    z -0.001620 0.000000 1.715000 
# 
# From -- ./inp_files/234761.got.cif
#   From: 2010.06.25/outbox.cif.g09.slc.cpg/sg15_118_cif.got.tgz:234761.got - 2010.06.28 07:06:18.
