data_PCOD8133022
_publ_section_title
;
Structure prediction by ZEFSAII (Michael W. Deem and Ramdas Pophale) SiO2 
 PCOD8133022
Probable space group: C 2/C
;
_chemical_formula_sum "Si O2"
_cell_formula_units_Z 48
_cell_length_a 9.228735
_cell_length_b 19.240262
_cell_length_c 14.986909
_cell_angle_alpha 90.000000
_cell_angle_beta 63.982417
_cell_angle_gamma 90.000000
_cell_volume 2391.444937
_symmetry_space_group_name_H-M "C 2/C"
_symmetry_group_IT_number 15
_symmetry_cell_setting 'monoclinic'
loop_
_space_group_symop_operation_xyz
x,y,z
-x,y,1/2-z
-x,-y,-z
x,-y,1/2+z
1/2+x,1/2+y,z
1/2-x,1/2+y,1/2-z
1/2-x,1/2-y,-z
1/2+x,1/2-y,1/2+z
loop_
_atom_site_type_symbol
_atom_site_label
_atom_site_fract_x
_atom_site_fract_y
_atom_site_fract_z
Si Si1 0.316333 0.533210 0.641512
Si Si2 0.683409 0.815521 0.731582
Si Si3 0.808614 0.936079 0.796482
Si Si4 0.178879 0.823886 0.993110
Si Si5 0.201019 0.026408 0.535568
Si Si6 0.891352 0.832148 0.194245
O O1 0.251090 0.472909 0.721901
O O2 0.509344 0.532292 0.586636
O O3 0.240299 0.518817 0.565288
O O4 0.266516 0.607052 0.699555
O O5 0.500000 0.827394 0.750000
O O6 0.725533 0.860570 0.808543
O O7 0.807920 0.833025 0.617513
O O8 0.709268 0.735575 0.752052
O O9 0.000000 0.927706 0.750000
O O10 0.737423 0.982137 0.896628
O O11 0.250000 0.750000 0.000000
O O12 0.264122 0.892989 0.014829
O O13 0.996489 0.818288 0.076829
O O14 0.000000 0.856581 0.250000
#
# Coordination Sequence:
#
# PCOD8133022 Si02
#       6
#     8   8   8   8   8   8
#     4   9  16  31  52  80 106 134 182 234 269 315
#     4  11  22  36  55  84 113 145 184 234 278 327
#     4  10  20  35  57  81 111 142 184 232 280 328
#     4  11  18  33  56  80 110 143 183 234 276 319
#     4   9  18  30  54  82 102 140 183 226 276 324
#     4  10  19  31  54  83 106 144 193 231 267 326
#
# _framework density 20.071546000000001
#
# number of rings (size 3 to 8) (size 9 to 14) (size 15 to 20)
#    0.000    2.000    5.000    2.500    2.333    0.000 
#    0.000    1.667    0.000    1.000    0.000    0.000 
#    0.000    0.000    0.000    0.000    0.000    0.000 
#
# Total GULP energy -297322.933111 kJ/mol
# GULP energy per Si atom -12388.455546 kJ/mol
# Density = 2.002586 g / cm^3
# Si number density = 20.071546 Si / 1000 Ang^3
#
#
#
# Elastic Constant Matrix: (Units=GPa)
#
#
# Indices 1 2 3 4 5 6 
#
# 1 17.7621 24.7272 15.9918 0.0000 9.0398 0.0000
# 2 24.7272 159.7879 42.8652 0.0000 29.9611 0.0000
# 3 15.9918 42.8652 114.6751 0.0000 19.0337 0.0000
# 4 0.0000 0.0000 0.0000 44.2095 0.0000 8.9254
# 5 9.0398 29.9611 19.0337 0.0000 22.1396 0.0000
# 6 0.0000 0.0000 0.0000 8.9254 0.0000 21.9784
#
#
#
# Elastic Compliance Matrix: (Units=1/GPa)
#
#
# Indices 1 2 3 4 5 6 
#
# 1 0.081097 -0.007717 -0.005438 0.000000 -0.017994 0.000000
# 2 -0.007717 0.009335 -0.000979 0.000000 -0.008641 0.000000
# 3 -0.005438 -0.000979 0.010797 0.000000 -0.005737 0.000000
# 4 0.000000 0.000000 0.000000 0.024640 0.000000 -0.010006
# 5 -0.017994 -0.008641 -0.005737 0.000000 0.069140 0.000000
# 6 0.000000 0.000000 0.000000 -0.010006 0.000000 0.049563
#
#
# Mechanical properties :
#
#
# Convention : Reuss Voigt Hill
#
# Bulk Modulus (GPa) = 13.70600 51.04371 32.37485
# Shear Modulus (GPa) = 16.82597 31.57490 24.20043
#
# Velocity S-wave (km/s) = 2.89848 3.97056 3.47610
# Velocity P-wave (km/s) = 4.24794 6.81957 5.68118
#
# Compressibility (1/GPa) = 0.07296072
#
# Stress axis : x y z
#
# Youngs Moduli (GPa) = 12.33096 107.11991 92.61980
#
# Poissons Ratio (x) = 0.82663 0.50366
# Poissons Ratio (y) = 0.09516 0.09069
# Poissons Ratio (z) = 0.06706 0.10489
#
# Static dielectric constant tensor:
#      x y z
#    x 2.949950 0.000000 -0.026970 
#    y 0.000000 4.280660 0.000000 
#    z -0.026970 0.000000 4.257280 
# 
# 
# High freq. dielectric constant tensor:
#      x y z
#    x 1.695030 0.000000 0.007730 
#    y 0.000000 1.810710 0.000000 
#    z 0.007730 0.000000 1.797430 
# 
# From -- ./inp_files/144996.got.cif
#   From: 2010.06.25/outbox.cif.g09.slc.cpg/sg15_73_cif.got.tgz:144996.got - 2010.06.28 07:06:18.
