data_PCOD8133112
_publ_section_title
;
Structure prediction by ZEFSAII (Michael W. Deem and Ramdas Pophale) SiO2 
 PCOD8133112
Probable space group: C 2/C
;
_chemical_formula_sum "Si O2"
_cell_formula_units_Z 56
_cell_length_a 29.444209
_cell_length_b 19.426148
_cell_length_c 9.050409
_cell_angle_alpha 90.000000
_cell_angle_beta 34.943922
_cell_angle_gamma 90.000000
_cell_volume 2965.093585
_symmetry_space_group_name_H-M "C 2/C"
_symmetry_group_IT_number 15
_symmetry_cell_setting 'monoclinic'
loop_
_space_group_symop_operation_xyz
x,y,z
-x,y,1/2-z
-x,-y,-z
x,-y,1/2+z
1/2+x,1/2+y,z
1/2-x,1/2+y,1/2-z
1/2-x,1/2-y,-z
1/2+x,1/2-y,1/2+z
loop_
_atom_site_type_symbol
_atom_site_label
_atom_site_fract_x
_atom_site_fract_y
_atom_site_fract_z
Si Si1 0.376632 0.585657 0.815974
Si Si2 0.312653 0.037843 0.478809
Si Si3 0.475718 0.931248 0.648010
Si Si4 0.978370 0.834007 0.637696
Si Si5 0.698168 0.092954 0.314511
Si Si6 0.053599 0.317111 0.251769
Si Si7 0.135271 0.947940 0.487099
O O1 0.443235 0.644438 0.665135
O O2 0.390264 0.523554 0.892698
O O3 0.388240 0.555526 0.621201
O O4 0.289342 0.618690 0.069472
O O5 0.381365 0.079944 0.379735
O O6 0.320615 0.047814 0.281594
O O7 0.318912 0.956347 0.499492
O O8 0.228599 0.065728 0.762743
O O9 0.500000 0.941872 0.750000
O O10 0.520658 0.865779 0.465979
O O11 0.500000 0.000000 0.500000
O O12 0.946009 0.759070 0.677570
O O13 0.909938 0.890591 0.795646
O O14 0.000000 0.828969 0.750000
O O15 0.642966 0.160290 0.470254
O O16 0.000000 0.322705 0.250000
#
# Coordination Sequence:
#
# PCOD8133112 Si02
#       7
#     8   8   8   8   8   8   8
#     4   9  18  34  56  84 105 134 175 223 265 312
#     4  10  19  32  51  81 104 132 177 217 265 308
#     4  12  22  34  54  76 105 141 179 222 259 310
#     4   9  19  36  54  78 107 140 180 216 260 315
#     4  10  19  32  53  81 107 134 174 220 265 308
#     4  11  21  36  52  75 109 148 177 212 260 314
#     4   9  18  34  56  81 105 133 173 226 265 311
#
# _framework density 18.886419
#
# number of rings (size 3 to 8) (size 9 to 14) (size 15 to 20)
#    0.000    2.000    2.857    1.714    0.000    0.000 
#    2.571    4.286    0.000    0.857    0.000    0.000 
#    0.000    0.000    0.000    0.000    0.000    0.000 
#
# Total GULP energy -347174.073665 kJ/mol
# GULP energy per Si atom -12399.074059 kJ/mol
# Density = 1.884343 g / cm^3
# Si number density = 18.886419 Si / 1000 Ang^3
#
#
#
# Elastic Constant Matrix: (Units=GPa)
#
#
# Indices 1 2 3 4 5 6 
#
# 1 58.5557 33.8740 34.1457 0.0000 -3.7218 0.0000
# 2 33.8740 131.4890 75.2885 0.0000 -13.8647 0.0000
# 3 34.1457 75.2885 121.9468 0.0000 -19.5739 0.0000
# 4 0.0000 0.0000 0.0000 27.4217 0.0000 -3.7776
# 5 -3.7218 -13.8647 -19.5739 0.0000 30.3393 0.0000
# 6 0.0000 0.0000 0.0000 -3.7776 0.0000 20.1870
#
#
#
# Elastic Compliance Matrix: (Units=1/GPa)
#
#
# Indices 1 2 3 4 5 6 
#
# 1 0.021314 -0.003241 -0.004222 0.000000 -0.001591 0.000000
# 2 -0.003241 0.012273 -0.006507 0.000000 0.001013 0.000000
# 3 -0.004222 -0.006507 0.014323 0.000000 0.005749 0.000000
# 4 0.000000 0.000000 0.000000 0.037432 0.000000 0.007005
# 5 -0.001591 0.001013 0.005749 0.000000 0.036937 0.000000
# 6 0.000000 0.000000 0.000000 0.007005 0.000000 0.050848
#
#
# Mechanical properties :
#
#
# Convention : Reuss Voigt Hill
#
# Bulk Modulus (GPa) = 50.07853 66.51197 58.29525
# Shear Modulus (GPa) = 24.07051 26.83516 25.45283
#
# Velocity S-wave (km/s) = 3.57387 3.77353 3.67506
# Velocity P-wave (km/s) = 6.60328 7.36745 6.99581
#
# Compressibility (1/GPa) = 0.01996864
#
# Stress axis : x y z
#
# Youngs Moduli (GPa) = 46.91826 81.48177 69.81924
#
# Poissons Ratio (x) = 0.26407 0.29480
# Poissons Ratio (y) = 0.15205 0.45431
# Poissons Ratio (z) = 0.19811 0.53020
#
# Static dielectric constant tensor:
#      x y z
#    x 3.472340 0.000000 -0.250230 
#    y 0.000000 3.560230 0.000000 
#    z -0.250230 0.000000 3.763500 
# 
# 
# High freq. dielectric constant tensor:
#      x y z
#    x 1.718730 0.000000 -0.015320 
#    y 0.000000 1.709510 0.000000 
#    z -0.015320 0.000000 1.749900 
# 
# From -- ./inp_files/56488.got.cif
#   From: 2010.06.25/outbox.cif.g09.slc.cpg/sg15_29_cif.got.tgz:56488.got - 2010.06.28 07:06:18.
