data_PCOD8133775
_publ_section_title
;
Structure prediction by ZEFSAII (Michael W. Deem and Ramdas Pophale) SiO2 
 PCOD8133775
Probable space group: C 2/C
;
_chemical_formula_sum "Si O2"
_cell_formula_units_Z 44
_cell_length_a 11.834643
_cell_length_b 41.996860
_cell_length_c 5.169164
_cell_angle_alpha 90.000000
_cell_angle_beta 121.129237
_cell_angle_gamma 90.000000
_cell_volume 2199.215464
_symmetry_space_group_name_H-M "C 2/C"
_symmetry_group_IT_number 15
_symmetry_cell_setting 'monoclinic'
loop_
_space_group_symop_operation_xyz
x,y,z
-x,y,1/2-z
-x,-y,-z
x,-y,1/2+z
1/2+x,1/2+y,z
1/2-x,1/2+y,1/2-z
1/2-x,1/2-y,-z
1/2+x,1/2-y,1/2+z
loop_
_atom_site_type_symbol
_atom_site_label
_atom_site_fract_x
_atom_site_fract_y
_atom_site_fract_z
Si Si1 0.845398 0.681020 0.559211
Si Si2 0.842959 0.279914 0.559998
Si Si3 0.342131 0.890403 0.085568
Si Si4 0.855184 0.985951 0.286783
Si Si5 0.500000 0.978655 0.750000
Si Si6 0.228048 0.427698 0.000637
O O1 0.803536 0.695740 0.237848
O O2 0.786391 0.645555 0.502093
O O3 0.000000 0.677078 0.750000
O O4 0.799606 0.703792 0.739494
O O5 0.750000 0.250000 0.500000
O O6 0.000000 0.271008 0.750000
O O7 0.500000 0.892944 0.250000
O O8 0.298205 0.901035 0.317009
O O9 0.272491 0.911370 0.781009
O O10 0.781551 0.993633 0.471594
O O11 0.861453 0.947988 0.221472
O O12 0.000000 0.000000 0.500000
O O13 0.375065 0.955942 0.594700
O O14 0.500000 0.000000 0.500000
#
# Coordination Sequence:
#
# PCOD8133775 Si02
#       6
#     8   8   8   8   4   8
#     4   9  19  33  54  81 119 150 188 227 271 324
#     4  10  19  34  56  90 119 156 192 233 277 329
#     4  11  20  35  52  81 115 149 177 221 276 343
#     4  10  21  38  56  75  95 130 180 230 284 318
#     4  12  22  32  46  72 114 134 162 214 284 348
#     4  12  21  34  53  79 107 140 180 221 284 343
#
# _framework density 20.007133
#
# number of rings (size 3 to 8) (size 9 to 14) (size 15 to 20)
#    0.000    1.455    1.818    4.909    0.000    2.909 
#    0.000    0.000    0.000    0.000   47.273    0.000 
#    0.000    0.000    0.000    0.000    0.000    0.000 
#
# Total GULP energy -272621.058727 kJ/mol
# GULP energy per Si atom -12391.866306 kJ/mol
# Density = 1.996160 g / cm^3
# Si number density = 20.007133 Si / 1000 Ang^3
#
#
#
# Elastic Constant Matrix: (Units=GPa)
#
#
# Indices 1 2 3 4 5 6 
#
# 1 46.0178 37.4852 34.5730 0.0000 -6.6993 0.0000
# 2 37.4852 142.5947 42.2714 0.0000 -3.7660 0.0000
# 3 34.5730 42.2714 105.7839 0.0000 -32.6227 0.0000
# 4 0.0000 0.0000 0.0000 8.4812 0.0000 -11.7749
# 5 -6.6993 -3.7660 -32.6227 0.0000 37.5407 0.0000
# 6 0.0000 0.0000 0.0000 -11.7749 0.0000 30.0505
#
#
#
# Elastic Compliance Matrix: (Units=1/GPa)
#
#
# Indices 1 2 3 4 5 6 
#
# 1 0.033247 -0.006058 -0.009294 0.000000 -0.002751 0.000000
# 2 -0.006058 0.009262 -0.002415 0.000000 -0.002251 0.000000
# 3 -0.009294 -0.002415 0.017581 0.000000 0.013377 0.000000
# 4 0.000000 0.000000 0.000000 0.258573 0.000000 0.101319
# 5 -0.002751 -0.002251 0.013377 0.000000 0.037546 0.000000
# 6 0.000000 0.000000 0.000000 0.101319 0.000000 0.072978
#
#
# Mechanical properties :
#
#
# Convention : Reuss Voigt Hill
#
# Bulk Modulus (GPa) = 40.72198 58.11727 49.41962
# Shear Modulus (GPa) = 10.57292 27.21894 18.89593
#
# Velocity S-wave (km/s) = 2.30131 3.69244 3.07654
# Velocity P-wave (km/s) = 5.24016 6.87679 6.11349
#
# Compressibility (1/GPa) = 0.02455676
#
# Stress axis : x y z
#
# Youngs Moduli (GPa) = 30.07796 107.96949 56.87860
#
# Poissons Ratio (x) = 0.65403 0.52861
# Poissons Ratio (y) = 0.18220 0.13739
# Poissons Ratio (z) = 0.27954 0.26080
#
# Static dielectric constant tensor:
#      x y z
#    x 2.961530 0.000000 0.201370 
#    y 0.000000 3.976990 0.000000 
#    z 0.201370 0.000000 2.715130 
# 
# 
# High freq. dielectric constant tensor:
#      x y z
#    x 1.756030 0.000000 -0.028610 
#    y 0.000000 1.785430 0.000000 
#    z -0.028610 0.000000 1.798350 
# 
# From -- ./inp_files/8872.got.cif
#   From: 2010.06.25/outbox.cif.g09.slc.cpg/sg15_5_cif.got.tgz:8872.got - 2010.06.28 07:06:18.
