data_PCOD8133380
_publ_section_title
;
Structure prediction by ZEFSAII (Michael W. Deem and Ramdas Pophale) SiO2 
 PCOD8133380
Probable space group: C 2/C
;
_chemical_formula_sum "Si O2"
_cell_formula_units_Z 56
_cell_length_a 14.622741
_cell_length_b 8.601061
_cell_length_c 24.953855
_cell_angle_alpha 90.000000
_cell_angle_beta 112.690958
_cell_angle_gamma 90.000000
_cell_volume 2895.552424
_symmetry_space_group_name_H-M "C 2/C"
_symmetry_group_IT_number 15
_symmetry_cell_setting 'monoclinic'
loop_
_space_group_symop_operation_xyz
x,y,z
-x,y,1/2-z
-x,-y,-z
x,-y,1/2+z
1/2+x,1/2+y,z
1/2-x,1/2+y,1/2-z
1/2-x,1/2-y,-z
1/2+x,1/2-y,1/2+z
loop_
_atom_site_type_symbol
_atom_site_label
_atom_site_fract_x
_atom_site_fract_y
_atom_site_fract_z
Si Si1 0.221529 0.097237 0.024815
Si Si2 0.820662 0.474906 0.201633
Si Si3 0.417209 0.477789 0.094840
Si Si4 0.914308 0.383120 0.622862
Si Si5 0.083240 0.412081 0.170650
Si Si6 0.572331 0.689584 0.309008
Si Si7 0.371343 0.622990 0.383573
O O1 0.325126 0.027406 0.070575
O O2 0.149784 0.135186 0.058331
O O3 0.250000 0.250000 0.000000
O O4 0.161681 0.985654 0.970496
O O5 0.891326 0.586697 0.181016
O O6 0.843330 0.495296 0.270164
O O7 0.836959 0.290161 0.194304
O O8 0.706564 0.516188 0.165872
O O9 0.418500 0.297386 0.109742
O O10 0.380658 0.567086 0.139498
O O11 0.523023 0.543306 0.101018
O O12 0.019879 0.451771 0.627418
O O13 0.137978 0.300042 0.140752
O O14 0.000196 0.313346 0.181293
O O15 0.500000 0.601402 0.250000
#
# Coordination Sequence:
#
# PCOD8133380 Si02
#       7
#     8   8   8   8   8   8   8
#     4   9  19  37  54  73 103 141 180 218 262 316
#     4   9  18  35  53  74 107 142 170 208 265 324
#     4  10  19  33  54  81 105 133 175 222 264 309
#     4   9  18  34  55  75 102 139 175 210 258 318
#     4   9  18  34  53  76 107 140 172 215 266 312
#     4   8  16  32  53  75 103 135 171 213 261 319
#     4  10  20  35  54  78 108 138 175 224 266 308
#
# _framework density 19.340005000000001
#
# number of rings (size 3 to 8) (size 9 to 14) (size 15 to 20)
#    0.000    2.857    0.000    1.714    0.000    2.286 
#    0.000   31.429    0.000    0.000    0.000    0.000 
#    0.000    0.000    0.000    0.000    0.000    0.000 
#
# Total GULP energy -346893.759517 kJ/mol
# GULP energy per Si atom -12389.062840 kJ/mol
# Density = 1.929599 g / cm^3
# Si number density = 19.340005 Si / 1000 Ang^3
#
#
#
# Elastic Constant Matrix: (Units=GPa)
#
#
# Indices 1 2 3 4 5 6 
#
# 1 59.0630 26.8201 34.7635 0.0000 9.8096 0.0000
# 2 26.8201 69.3626 48.9990 0.0000 6.4639 0.0000
# 3 34.7635 48.9990 128.7575 0.0000 6.2267 0.0000
# 4 0.0000 0.0000 0.0000 26.5826 0.0000 3.4999
# 5 9.8096 6.4639 6.2267 0.0000 27.0303 0.0000
# 6 0.0000 0.0000 0.0000 3.4999 0.0000 17.9635
#
#
#
# Elastic Compliance Matrix: (Units=1/GPa)
#
#
# Indices 1 2 3 4 5 6 
#
# 1 0.022644 -0.005581 -0.003698 0.000000 -0.006031 0.000000
# 2 -0.005581 0.021340 -0.006538 0.000000 -0.001572 0.000000
# 3 -0.003698 -0.006538 0.011238 0.000000 0.000317 0.000000
# 4 0.000000 0.000000 0.000000 0.038609 0.000000 -0.007522
# 5 -0.006031 -0.001572 0.000317 0.000000 0.039487 0.000000
# 6 0.000000 0.000000 0.000000 -0.007522 0.000000 0.057134
#
#
# Mechanical properties :
#
#
# Convention : Reuss Voigt Hill
#
# Bulk Modulus (GPa) = 42.39635 53.14981 47.77308
# Shear Modulus (GPa) = 21.74397 24.08866 22.91631
#
# Velocity S-wave (km/s) = 3.35670 3.53304 3.44600
# Velocity P-wave (km/s) = 6.08214 6.64715 6.37091
#
# Compressibility (1/GPa) = 0.02358694
#
# Stress axis : x y z
#
# Youngs Moduli (GPa) = 44.16231 46.85996 88.98556
#
# Poissons Ratio (x) = 0.26153 0.32907
# Poissons Ratio (y) = 0.24648 0.58180
# Poissons Ratio (z) = 0.16331 0.30638
#
# Static dielectric constant tensor:
#      x y z
#    x 3.561870 0.000000 0.227670 
#    y 0.000000 3.442490 0.000000 
#    z 0.227670 0.000000 4.340470 
# 
# 
# High freq. dielectric constant tensor:
#      x y z
#    x 1.737240 0.000000 0.009150 
#    y 0.000000 1.729990 0.000000 
#    z 0.009150 0.000000 1.766650 
# 
# From -- ./inp_files/272851.got.cif
#   From: 2010.06.25/outbox.cif.g09.slc.cpg/sg15_137_cif.got.tgz:272851.got - 2010.06.28 07:06:18.
