data_PCOD8133644
_publ_section_title
;
Structure prediction by ZEFSAII (Michael W. Deem and Ramdas Pophale) SiO2 
 PCOD8133644
Probable space group: C 2/C
;
_chemical_formula_sum "Si O2"
_cell_formula_units_Z 56
_cell_length_a 15.968239
_cell_length_b 24.912534
_cell_length_c 9.808770
_cell_angle_alpha 90.000000
_cell_angle_beta 56.697297
_cell_angle_gamma 90.000000
_cell_volume 3261.235886
_symmetry_space_group_name_H-M "C 2/C"
_symmetry_group_IT_number 15
_symmetry_cell_setting 'monoclinic'
loop_
_space_group_symop_operation_xyz
x,y,z
-x,y,1/2-z
-x,-y,-z
x,-y,1/2+z
1/2+x,1/2+y,z
1/2-x,1/2+y,1/2-z
1/2-x,1/2-y,-z
1/2+x,1/2-y,1/2+z
loop_
_atom_site_type_symbol
_atom_site_label
_atom_site_fract_x
_atom_site_fract_y
_atom_site_fract_z
Si Si1 0.879597 0.723822 0.227633
Si Si2 0.397707 0.218262 0.531897
Si Si3 0.294495 0.336016 0.224578
Si Si4 0.618179 0.399633 0.122056
Si Si5 0.814126 0.171168 0.180665
Si Si6 0.615638 0.620618 0.114170
Si Si7 0.073163 0.008801 0.063341
O O1 0.871788 0.717676 0.396060
O O2 0.853250 0.785781 0.233646
O O3 0.803206 0.683885 0.222072
O O4 0.984248 0.707019 0.063701
O O5 0.326405 0.172506 0.663282
O O6 0.375588 0.273243 0.634019
O O7 0.324948 0.388960 0.285844
O O8 0.334373 0.337853 0.034679
O O9 0.500000 0.397861 0.250000
O O10 0.644748 0.457893 0.031884
O O11 0.649600 0.354450 0.990747
O O12 0.829162 0.129504 0.291124
O O13 0.500000 0.632949 0.250000
O O14 0.636805 0.563941 0.015426
O O15 0.000000 0.019478 0.250000
O O16 0.000000 0.000000 0.000000
#
# Coordination Sequence:
#
# PCOD8133644 Si02
#       7
#     8   8   8   8   8   8   8
#     4  10  19  34  53  77 103 130 173 226 254 294
#     4  10  19  34  53  77 103 130 175 224 251 299
#     4  11  20  33  51  78  99 138 177 201 257 315
#     4  11  18  30  54  73  98 135 174 209 249 307
#     4  11  20  33  51  78 103 138 173 206 262 310
#     4  11  22  34  48  75 112 139 162 209 260 313
#     4  10  20  34  48  74 105 138 171 210 258 310
#
# _framework density 17.171403999999999
#
# number of rings (size 3 to 8) (size 9 to 14) (size 15 to 20)
#    0.000    1.429    2.857    6.857    0.000    2.286 
#    0.000    2.143    0.000    0.000    0.000    6.000 
#    0.000    0.000    0.000    0.000    0.000    0.000 
#
# Total GULP energy -346882.360524 kJ/mol
# GULP energy per Si atom -12388.655733 kJ/mol
# Density = 1.713232 g / cm^3
# Si number density = 17.171404 Si / 1000 Ang^3
#
#
#
# Elastic Constant Matrix: (Units=GPa)
#
#
# Indices 1 2 3 4 5 6 
#
# 1 90.5774 37.5968 38.6540 0.0000 -8.4206 0.0000
# 2 37.5968 65.6508 24.0597 0.0000 -10.2088 0.0000
# 3 38.6540 24.0597 95.4077 0.0000 -7.2264 0.0000
# 4 0.0000 0.0000 0.0000 14.6922 0.0000 -0.5878
# 5 -8.4206 -10.2088 -7.2264 0.0000 32.3914 0.0000
# 6 0.0000 0.0000 0.0000 -0.5878 0.0000 19.4570
#
#
#
# Elastic Compliance Matrix: (Units=1/GPa)
#
#
# Indices 1 2 3 4 5 6 
#
# 1 0.016176 -0.007444 -0.004614 0.000000 0.000830 0.000000
# 2 -0.007444 0.020855 -0.001925 0.000000 0.004208 0.000000
# 3 -0.004614 -0.001925 0.012917 0.000000 0.001076 0.000000
# 4 0.000000 0.000000 0.000000 0.068146 0.000000 0.002059
# 5 0.000830 0.004208 0.001076 0.000000 0.032654 0.000000
# 6 0.000000 0.000000 0.000000 0.002059 0.000000 0.051457
#
#
# Mechanical properties :
#
#
# Convention : Reuss Voigt Hill
#
# Bulk Modulus (GPa) = 45.48732 50.25077 47.86905
# Shear Modulus (GPa) = 21.05281 23.39648 22.22465
#
# Velocity S-wave (km/s) = 3.50528 3.69524 3.60152
# Velocity P-wave (km/s) = 6.55213 6.89450 6.72549
#
# Compressibility (1/GPa) = 0.02198415
#
# Stress axis : x y z
#
# Youngs Moduli (GPa) = 61.81957 47.95069 77.41537
#
# Poissons Ratio (x) = 0.35694 0.35717
# Poissons Ratio (y) = 0.46018 0.14899
# Poissons Ratio (z) = 0.28521 0.09228
#
# Static dielectric constant tensor:
#      x y z
#    x 2.976720 0.000000 -0.073320 
#    y 0.000000 3.892330 0.000000 
#    z -0.073320 0.000000 3.273900 
# 
# 
# High freq. dielectric constant tensor:
#      x y z
#    x 1.639400 0.000000 0.010320 
#    y 0.000000 1.651540 0.000000 
#    z 0.010320 0.000000 1.670930 
# 
# From -- ./inp_files/43448.got.cif
#   From: 2010.06.25/outbox.cif.g09.slc.cpg/sg15_22_cif.got.tgz:43448.got - 2010.06.28 07:06:18.
