data_PCOD8133531
_publ_section_title
;
Structure prediction by ZEFSAII (Michael W. Deem and Ramdas Pophale) SiO2 
 PCOD8133531
Probable space group: C 2/C
;
_chemical_formula_sum "Si O2"
_cell_formula_units_Z 40
_cell_length_a 4.949257
_cell_length_b 22.385526
_cell_length_c 20.093633
_cell_angle_alpha 90.000000
_cell_angle_beta 113.687288
_cell_angle_gamma 90.000000
_cell_volume 2038.654041
_symmetry_space_group_name_H-M "C 2/C"
_symmetry_group_IT_number 15
_symmetry_cell_setting 'monoclinic'
loop_
_space_group_symop_operation_xyz
x,y,z
-x,y,1/2-z
-x,-y,-z
x,-y,1/2+z
1/2+x,1/2+y,z
1/2-x,1/2+y,1/2-z
1/2-x,1/2-y,-z
1/2+x,1/2-y,1/2+z
loop_
_atom_site_type_symbol
_atom_site_label
_atom_site_fract_x
_atom_site_fract_y
_atom_site_fract_z
Si Si1 0.646931 0.263960 0.096147
Si Si2 0.191097 0.053022 0.931880
Si Si3 0.897998 0.806188 0.937422
Si Si4 0.823284 0.132638 0.798590
Si Si5 0.664564 0.572903 0.472543
O O1 0.453042 0.206604 0.101796
O O2 0.715697 0.306494 0.164374
O O3 0.952583 0.244292 0.093301
O O4 0.472867 0.302098 0.023358
O O5 0.992565 0.081270 0.855301
O O6 0.201716 0.980809 0.922380
O O7 0.513857 0.084221 0.962258
O O8 0.067138 0.059565 0.993069
O O9 0.021840 0.869263 0.922094
O O10 0.500000 0.107073 0.750000
O O11 0.000000 0.148408 0.750000
#
# Coordination Sequence:
#
# PCOD8133531 Si02
#       5
#     8   8   8   8   8
#     4  10  21  33  53  85 110 145 187 221 289 329
#     4  10  21  35  55  85 112 145 190 223 295 329
#     4  10  19  33  58  82 115 136 175 250 284 328
#     4  12  24  38  57  78 119 156 188 225 264 353
#     4  10  19  35  59  84 115 137 176 255 285 331
#
# _framework density 19.620791000000001
#
# number of rings (size 3 to 8) (size 9 to 14) (size 15 to 20)
#    0.000    1.600    2.000    3.600    5.600    0.000 
#    0.000    0.000    0.000    7.200    0.000    0.000 
#    0.000    0.000    0.000    0.000    0.000    0.000 
#
# Total GULP energy -247932.071960 kJ/mol
# GULP energy per Si atom -12396.603598 kJ/mol
# Density = 1.957613 g / cm^3
# Si number density = 19.620791 Si / 1000 Ang^3
#
#
#
# Elastic Constant Matrix: (Units=GPa)
#
#
# Indices 1 2 3 4 5 6 
#
# 1 87.6863 24.5385 11.8936 0.0000 8.1017 0.0000
# 2 24.5385 91.7463 40.6387 0.0000 7.8038 0.0000
# 3 11.8936 40.6387 71.2281 0.0000 0.7401 0.0000
# 4 0.0000 0.0000 0.0000 -4.0993 0.0000 0.9374
# 5 8.1017 7.8038 0.7401 0.0000 31.9356 0.0000
# 6 0.0000 0.0000 0.0000 0.9374 0.0000 31.1027
#
#
#
# Elastic Compliance Matrix: (Units=1/GPa)
#
#
# Indices 1 2 3 4 5 6 
#
# 1 0.012512 -0.002977 -0.000365 0.000000 -0.002438 0.000000
# 2 -0.002977 0.015667 -0.008411 0.000000 -0.002878 0.000000
# 3 -0.000365 -0.008411 0.018882 0.000000 0.001710 0.000000
# 4 0.000000 0.000000 0.000000 -0.242272 0.000000 0.007302
# 5 -0.002438 -0.002878 0.001710 0.000000 0.032595 0.000000
# 6 0.000000 0.000000 0.000000 0.007302 0.000000 0.031931
#
#
# Mechanical properties :
#
#
# Convention : Reuss Voigt Hill
#
# Bulk Modulus (GPa) = 42.45826 44.97804 43.71815
# Shear Modulus (GPa) = -50.33908 23.36046 -13.48931
#
# Velocity S-wave (km/s) = -5.07067 3.45425 -2.62487
# Velocity P-wave (km/s) = 3.54906 6.23559 3.62537
#
# Compressibility (1/GPa) = 0.02355254
#
# Stress axis : x y z
#
# Youngs Moduli (GPa) = 79.92131 63.83035 52.96149
#
# Poissons Ratio (x) = 0.19005 0.01934
# Poissons Ratio (y) = 0.23796 0.44548
# Poissons Ratio (z) = 0.02919 0.53690
#
# Static dielectric constant tensor:
#      x y z
#    x 3.803150 0.000000 -0.022350 
#    y 0.000000 3.952710 0.000000 
#    z -0.022350 0.000000 3.041130 
# 
# 
# High freq. dielectric constant tensor:
#      x y z
#    x 1.791590 0.000000 -0.008660 
#    y 0.000000 1.765280 0.000000 
#    z -0.008660 0.000000 1.711770 
# 
# From -- ./inp_files/129108.got.cif
#   From: 2010.06.25/outbox.cif.g09.slc.cpg/sg15_65_cif.got.tgz:129108.got - 2010.06.28 07:06:18.
