data_PCOD8133532
_publ_section_title
;
Structure prediction by ZEFSAII (Michael W. Deem and Ramdas Pophale) SiO2 
 PCOD8133532
Probable space group: C 2/C
;
_chemical_formula_sum "Si O2"
_cell_formula_units_Z 44
_cell_length_a 9.288579
_cell_length_b 14.639571
_cell_length_c 14.318348
_cell_angle_alpha 90.000000
_cell_angle_beta 96.841570
_cell_angle_gamma 90.000000
_cell_volume 1933.156514
_symmetry_space_group_name_H-M "C 2/C"
_symmetry_group_IT_number 15
_symmetry_cell_setting 'monoclinic'
loop_
_space_group_symop_operation_xyz
x,y,z
-x,y,1/2-z
-x,-y,-z
x,-y,1/2+z
1/2+x,1/2+y,z
1/2-x,1/2+y,1/2-z
1/2-x,1/2-y,-z
1/2+x,1/2-y,1/2+z
loop_
_atom_site_type_symbol
_atom_site_label
_atom_site_fract_x
_atom_site_fract_y
_atom_site_fract_z
Si Si1 0.854549 0.038288 0.600831
Si Si2 0.081727 0.887841 0.586651
Si Si3 0.711055 0.269617 0.743587
Si Si4 0.000000 0.820254 0.250000
Si Si5 0.894121 0.267603 0.066638
Si Si6 0.931669 0.410174 0.340202
O O1 0.834144 0.059646 0.488993
O O2 0.689654 0.021193 0.627082
O O3 0.939932 0.117895 0.661425
O O4 0.949831 0.947551 0.618929
O O5 0.192577 0.861306 0.679180
O O6 0.018944 0.795932 0.532250
O O7 0.620378 0.276665 0.831181
O O8 0.652039 0.183934 0.681641
O O9 0.878014 0.248169 0.780846
O O10 0.939242 0.376066 0.078183
O O11 0.750000 0.250000 0.000000
O O12 0.000000 0.451941 0.250000
#
# Coordination Sequence:
#
# PCOD8133532 Si02
#       6
#     8   8   8   4   8   8
#     4  10  21  35  58  89 120 157 201 250 311 362
#     4  10  21  36  55  87 121 161 197 251 309 366
#     4   9  19  34  56  85 119 155 207 243 298 360
#     4  10  20  34  60  90 114 154 202 250 292 366
#     4  10  19  33  58  82 116 159 208 250 295 360
#     4   8  17  35  56  83 112 158 201 249 294 354
#
# _framework density 22.760701999999998
#
# number of rings (size 3 to 8) (size 9 to 14) (size 15 to 20)
#    0.000    2.545    0.000    2.727    2.545    8.000 
#    0.000    0.909    2.000    0.000    0.000    0.000 
#    0.000    0.000    0.000    0.000    0.000    0.000 
#
# Total GULP energy -272555.544514 kJ/mol
# GULP energy per Si atom -12388.888387 kJ/mol
# Density = 2.270890 g / cm^3
# Si number density = 22.760702 Si / 1000 Ang^3
#
#
#
# Elastic Constant Matrix: (Units=GPa)
#
#
# Indices 1 2 3 4 5 6 
#
# 1 122.6714 23.4619 24.8889 0.0000 -8.7684 0.0000
# 2 23.4619 47.8300 16.4026 0.0000 -6.4138 0.0000
# 3 24.8889 16.4026 75.7287 0.0000 8.2556 0.0000
# 4 0.0000 0.0000 0.0000 22.2727 0.0000 1.1185
# 5 -8.7684 -6.4138 8.2556 0.0000 38.6346 0.0000
# 6 0.0000 0.0000 0.0000 1.1185 0.0000 32.0616
#
#
#
# Elastic Compliance Matrix: (Units=1/GPa)
#
#
# Indices 1 2 3 4 5 6 
#
# 1 0.009498 -0.003481 -0.002600 0.000000 0.002133 0.000000
# 2 -0.003481 0.024808 -0.004702 0.000000 0.004333 0.000000
# 3 -0.002600 -0.004702 0.015591 0.000000 -0.004702 0.000000
# 4 0.000000 0.000000 0.000000 0.044977 0.000000 -0.001569
# 5 0.002133 0.004333 -0.004702 0.000000 0.028092 0.000000
# 6 0.000000 0.000000 0.000000 -0.001569 0.000000 0.031245
#
#
# Mechanical properties :
#
#
# Convention : Reuss Voigt Hill
#
# Bulk Modulus (GPa) = 35.29721 41.74855 38.52288
# Shear Modulus (GPa) = 26.99504 30.69223 28.84363
#
# Velocity S-wave (km/s) = 3.44763 3.67614 3.56372
# Velocity P-wave (km/s) = 5.60266 6.03332 5.82197
#
# Compressibility (1/GPa) = 0.02833085
#
# Stress axis : x y z
#
# Youngs Moduli (GPa) = 105.28901 40.30890 64.14158
#
# Poissons Ratio (x) = 0.14032 0.16677
# Poissons Ratio (y) = 0.36653 0.30157
# Poissons Ratio (z) = 0.27376 0.18952
#
# Static dielectric constant tensor:
#      x y z
#    x 4.618540 0.000000 0.189400 
#    y 0.000000 3.950520 0.000000 
#    z 0.189400 0.000000 4.067110 
# 
# 
# High freq. dielectric constant tensor:
#      x y z
#    x 1.900440 0.000000 0.000700 
#    y 0.000000 1.865930 0.000000 
#    z 0.000700 0.000000 1.889930 
# 
# From -- ./inp_files/134561.got.cif
#   From: 2010.06.25/outbox.cif.g09.slc.cpg/sg15_68_cif.got.tgz:134561.got - 2010.06.28 07:06:18.
