data_PCOD8133672
_publ_section_title
;
Structure prediction by ZEFSAII (Michael W. Deem and Ramdas Pophale) SiO2 
 PCOD8133672
Probable space group: C 2/C
;
_chemical_formula_sum "Si O2"
_cell_formula_units_Z 60
_cell_length_a 20.367803
_cell_length_b 20.338466
_cell_length_c 13.730197
_cell_angle_alpha 90.000000
_cell_angle_beta 144.306558
_cell_angle_gamma 90.000000
_cell_volume 3318.497503
_symmetry_space_group_name_H-M "C 2/C"
_symmetry_group_IT_number 15
_symmetry_cell_setting 'monoclinic'
loop_
_space_group_symop_operation_xyz
x,y,z
-x,y,1/2-z
-x,-y,-z
x,-y,1/2+z
1/2+x,1/2+y,z
1/2-x,1/2+y,1/2-z
1/2-x,1/2-y,-z
1/2+x,1/2-y,1/2+z
loop_
_atom_site_type_symbol
_atom_site_label
_atom_site_fract_x
_atom_site_fract_y
_atom_site_fract_z
Si Si1 0.416135 0.176929 0.333239
Si Si2 0.791038 0.993624 0.939266
Si Si3 0.000000 0.612740 0.250000
Si Si4 0.661791 0.351046 0.475831
Si Si5 0.410642 0.051056 0.433515
Si Si6 0.961936 0.179970 0.866178
Si Si7 0.399497 0.449454 0.394577
Si Si8 0.189617 0.508795 0.511019
O O1 0.497428 0.158535 0.341369
O O2 0.446324 0.126520 0.457564
O O3 0.445986 0.250614 0.402490
O O4 0.287451 0.171942 0.146115
O O5 0.865643 0.046027 0.968865
O O6 0.703385 0.962270 0.759774
O O7 0.859607 0.929819 0.059564
O O8 0.733578 0.027243 0.965195
O O9 0.114362 0.570470 0.387613
O O10 0.624616 0.321208 0.328028
O O11 0.588106 0.325324 0.477393
O O12 0.500000 0.000000 0.500000
O O13 0.389681 0.040859 0.523475
O O14 0.939881 0.123935 0.919959
O O15 0.500000 0.500000 0.500000
O O16 0.294148 0.466834 0.200154
#
# Coordination Sequence:
#
# PCOD8133672 Si02
#       8
#     8   8   4   8   8   8   8   8
#     4  11  22  34  52  82 114 142 177 224 281 340
#     4  10  19  34  54  81 110 141 184 230 266 322
#     4  12  18  34  58  86 112 144 174 226 294 338
#     4  10  19  35  52  78 113 142 176 219 285 334
#     4  10  19  34  54  80 112 143 182 221 276 327
#     4  11  21  34  53  77 113 147 178 222 275 338
#     4  11  22  34  55  78 113 152 192 221 268 327
#     4  11  20  34  58  81 114 143 183 236 272 322
#
# _framework density 18.080472
#
# number of rings (size 3 to 8) (size 9 to 14) (size 15 to 20)
#    0.000    1.333    6.667    1.200    0.000    1.600 
#    0.000    0.000    0.000    0.800    0.000    3.733 
#    0.000    0.000    0.000    0.000    0.000    0.000 
#
# Total GULP energy -371902.997371 kJ/mol
# GULP energy per Si atom -12396.766579 kJ/mol
# Density = 1.803932 g / cm^3
# Si number density = 18.080472 Si / 1000 Ang^3
#
#
#
# Elastic Constant Matrix: (Units=GPa)
#
#
# Indices 1 2 3 4 5 6 
#
# 1 158.6994 71.0899 11.9911 0.0000 -8.8637 0.0000
# 2 71.0899 139.4963 13.2402 0.0000 -4.9005 0.0000
# 3 11.9911 13.2402 32.1834 0.0000 10.1456 0.0000
# 4 0.0000 0.0000 0.0000 19.3426 0.0000 -7.2654
# 5 -8.8637 -4.9005 10.1456 0.0000 26.1199 0.0000
# 6 0.0000 0.0000 0.0000 -7.2654 0.0000 27.3411
#
#
#
# Elastic Compliance Matrix: (Units=1/GPa)
#
#
# Indices 1 2 3 4 5 6 
#
# 1 0.008432 -0.003953 -0.002489 0.000000 0.003087 0.000000
# 2 -0.003953 0.009518 -0.002944 0.000000 0.001588 0.000000
# 3 -0.002489 -0.002944 0.038346 0.000000 -0.016291 0.000000
# 4 0.000000 0.000000 0.000000 0.057432 0.000000 0.015261
# 5 0.003087 0.001588 -0.016291 0.000000 0.045958 0.000000
# 6 0.000000 0.000000 0.000000 0.015261 0.000000 0.040630
#
#
# Mechanical properties :
#
#
# Convention : Reuss Voigt Hill
#
# Bulk Modulus (GPa) = 26.64785 58.11350 42.38068
# Shear Modulus (GPa) = 21.58941 30.16459 25.87700
#
# Velocity S-wave (km/s) = 3.45929 4.08898 3.78724
# Velocity P-wave (km/s) = 5.54310 7.38271 6.52803
#
# Compressibility (1/GPa) = 0.03752648
#
# Stress axis : x y z
#
# Youngs Moduli (GPa) = 118.59272 105.06269 26.07846
#
# Poissons Ratio (x) = 0.41527 0.06490
# Poissons Ratio (y) = 0.46875 0.07677
# Poissons Ratio (z) = 0.29514 0.30926
#
# Static dielectric constant tensor:
#      x y z
#    x 3.771040 0.000000 -0.032870 
#    y 0.000000 3.408980 0.000000 
#    z -0.032870 0.000000 3.490270 
# 
# 
# High freq. dielectric constant tensor:
#      x y z
#    x 1.716280 0.000000 0.020820 
#    y 0.000000 1.674890 0.000000 
#    z 0.020820 0.000000 1.679470 
# 
# From -- ./inp_files/168889.got.cif
#   From: 2010.06.25/outbox.cif.g09.slc.cpg/sg15_85_cif.got.tgz:168889.got - 2010.06.28 07:06:18.
