data_PCOD8133149
_publ_section_title
;
Structure prediction by ZEFSAII (Michael W. Deem and Ramdas Pophale) SiO2 
 PCOD8133149
Probable space group: C 2/C
;
_chemical_formula_sum "Si O2"
_cell_formula_units_Z 60
_cell_length_a 16.212782
_cell_length_b 17.414765
_cell_length_c 11.313416
_cell_angle_alpha 90.000000
_cell_angle_beta 105.258520
_cell_angle_gamma 90.000000
_cell_volume 3081.647041
_symmetry_space_group_name_H-M "C 2/C"
_symmetry_group_IT_number 15
_symmetry_cell_setting 'monoclinic'
loop_
_space_group_symop_operation_xyz
x,y,z
-x,y,1/2-z
-x,-y,-z
x,-y,1/2+z
1/2+x,1/2+y,z
1/2-x,1/2+y,1/2-z
1/2-x,1/2-y,-z
1/2+x,1/2-y,1/2+z
loop_
_atom_site_type_symbol
_atom_site_label
_atom_site_fract_x
_atom_site_fract_y
_atom_site_fract_z
Si Si1 0.776202 0.803560 0.747423
Si Si2 0.553650 0.281323 0.548842
Si Si3 0.314930 0.142230 0.673238
Si Si4 0.500000 0.812476 0.250000
Si Si5 0.815810 0.084991 0.699192
Si Si6 0.557117 0.425624 0.040259
Si Si7 0.290667 0.429513 0.567787
Si Si8 0.335276 0.744651 0.605250
O O1 0.857886 0.811521 0.862891
O O2 0.788869 0.732758 0.659818
O O3 0.771306 0.883483 0.678965
O O4 0.685385 0.793523 0.783536
O O5 0.499401 0.237738 0.628839
O O6 0.500497 0.350396 0.471958
O O7 0.583852 0.228456 0.446416
O O8 0.417034 0.133650 0.717535
O O9 0.274301 0.108093 0.776537
O O10 0.283984 0.093192 0.550580
O O11 0.855185 0.156278 0.644138
O O12 0.791970 0.019337 0.597016
O O13 0.885996 0.059080 0.821996
O O14 0.617262 0.409019 0.950786
O O15 0.500000 0.500000 0.000000
O O16 0.250000 0.750000 0.500000
#
# Coordination Sequence:
#
# PCOD8133149 Si02
#       8
#     8   8   8   4   8   8   8   8
#     4   9  18  34  56  80 107 145 189 227 267 323
#     4  10  19  32  53  80 109 144 180 222 272 325
#     4   9  20  37  56  78 105 140 182 232 279 319
#     4  10  20  38  60  80 102 134 186 240 280 318
#     4  10  22  37  53  80 116 150 181 220 271 330
#     4  11  22  33  50  82 121 152 176 212 271 340
#     4  11  21  35  56  80 110 148 187 224 270 331
#     4   9  19  35  54  76 106 146 186 225 272 320
#
# _framework density 19.470106999999999
#
# number of rings (size 3 to 8) (size 9 to 14) (size 15 to 20)
#    0.000    2.133    0.000    4.400    0.000    8.533 
#    0.000    0.667    0.000    0.000    0.000    0.000 
#    0.000    0.000    0.000    0.000    0.000    0.000 
#
# Total GULP energy -371776.969244 kJ/mol
# GULP energy per Si atom -12392.565641 kJ/mol
# Density = 1.942579 g / cm^3
# Si number density = 19.470107 Si / 1000 Ang^3
#
#
#
# Elastic Constant Matrix: (Units=GPa)
#
#
# Indices 1 2 3 4 5 6 
#
# 1 124.6559 26.8554 41.5823 0.0000 -9.9527 0.0000
# 2 26.8554 46.9087 26.8558 0.0000 4.2743 0.0000
# 3 41.5823 26.8558 70.4088 0.0000 -9.8566 0.0000
# 4 0.0000 0.0000 0.0000 39.7123 0.0000 4.1558
# 5 -9.9527 4.2743 -9.8566 0.0000 32.1516 0.0000
# 6 0.0000 0.0000 0.0000 4.1558 0.0000 25.9508
#
#
#
# Elastic Compliance Matrix: (Units=1/GPa)
#
#
# Indices 1 2 3 4 5 6 
#
# 1 0.010490 -0.003664 -0.004467 0.000000 0.002365 0.000000
# 2 -0.003664 0.030208 -0.010531 0.000000 -0.008379 0.000000
# 3 -0.004467 -0.010531 0.021796 0.000000 0.006699 0.000000
# 4 0.000000 0.000000 0.000000 0.025610 0.000000 -0.004101
# 5 0.002365 -0.008379 0.006699 0.000000 0.035002 0.000000
# 6 0.000000 0.000000 0.000000 -0.004101 0.000000 0.039191
#
#
# Mechanical properties :
#
#
# Convention : Reuss Voigt Hill
#
# Bulk Modulus (GPa) = 39.72974 48.06224 43.89599
# Shear Modulus (GPa) = 24.03701 29.34158 26.68929
#
# Velocity S-wave (km/s) = 3.51744 3.88623 3.70643
# Velocity P-wave (km/s) = 6.07835 6.69894 6.39618
#
# Compressibility (1/GPa) = 0.02517006
#
# Stress axis : x y z
#
# Youngs Moduli (GPa) = 95.32650 33.10330 45.88090
#
# Poissons Ratio (x) = 0.12129 0.20494
# Poissons Ratio (y) = 0.34927 0.48319
# Poissons Ratio (z) = 0.42580 0.34862
#
# Static dielectric constant tensor:
#      x y z
#    x 3.868320 0.000000 -0.342440 
#    y 0.000000 3.354150 0.000000 
#    z -0.342440 0.000000 3.693850 
# 
# 
# High freq. dielectric constant tensor:
#      x y z
#    x 1.764310 0.000000 -0.021320 
#    y 0.000000 1.729260 0.000000 
#    z -0.021320 0.000000 1.760920 
# 
# From -- ./inp_files/98367.got.cif
#   From: 2010.06.25/outbox.cif.g09.slc.cpg/sg15_50_cif.got.tgz:98367.got - 2010.06.28 07:06:18.
