data_PCOD8133926
_publ_section_title
;
Structure prediction by ZEFSAII (Michael W. Deem and Ramdas Pophale) SiO2 
 PCOD8133926
Probable space group: C 2/C
;
_chemical_formula_sum "Si O2"
_cell_formula_units_Z 56
_cell_length_a 29.031641
_cell_length_b 10.226451
_cell_length_c 17.647235
_cell_angle_alpha 90.000000
_cell_angle_beta 33.425510
_cell_angle_gamma 90.000000
_cell_volume 2886.080443
_symmetry_space_group_name_H-M "C 2/C"
_symmetry_group_IT_number 15
_symmetry_cell_setting 'monoclinic'
loop_
_space_group_symop_operation_xyz
x,y,z
-x,y,1/2-z
-x,-y,-z
x,-y,1/2+z
1/2+x,1/2+y,z
1/2-x,1/2+y,1/2-z
1/2-x,1/2-y,-z
1/2+x,1/2-y,1/2+z
loop_
_atom_site_type_symbol
_atom_site_label
_atom_site_fract_x
_atom_site_fract_y
_atom_site_fract_z
Si Si1 0.536222 0.136442 0.474453
Si Si2 0.251079 0.665552 0.382516
Si Si3 0.170705 0.095211 0.079791
Si Si4 0.002175 0.206039 0.161514
Si Si5 0.183778 0.520138 0.337652
Si Si6 0.899704 0.249826 0.070485
Si Si7 0.638821 0.484839 0.976376
O O1 0.508384 0.170112 0.598122
O O2 0.637493 0.118583 0.340342
O O3 0.495262 0.242380 0.472970
O O4 0.500000 0.000000 0.500000
O O5 0.206070 0.794928 0.474047
O O6 0.268130 0.572100 0.432697
O O7 0.188232 0.590291 0.413169
O O8 0.337122 0.702928 0.222320
O O9 0.084011 0.133408 0.237626
O O10 0.156352 0.971242 0.043284
O O11 0.000000 0.259538 0.250000
O O12 0.077174 0.104646 0.043727
O O13 0.130005 0.388872 0.421409
O O14 0.275446 0.483960 0.184193
O O15 0.901657 0.149091 0.998096
#
# Coordination Sequence:
#
# PCOD8133926 Si02
#       7
#     8   8   8   8   8   8   8
#     4  10  21  36  58  85 116 152 192 239 289 346
#     4  10  19  34  60  87 112 149 192 242 285 342
#     4  10  19  36  60  83 116 145 196 238 284 337
#     4  10  20  35  57  89 115 148 190 237 284 333
#     4  10  20  36  55  83 119 149 192 236 295 340
#     4  10  20  37  54  86 120 147 190 239 290 348
#     4  10  21  34  58  87 116 151 189 243 286 343
#
# _framework density 19.403478
#
# number of rings (size 3 to 8) (size 9 to 14) (size 15 to 20)
#    0.000    2.000    2.857    1.714    2.000    0.571 
#    0.000    0.714    0.000   24.000    0.000    0.000 
#    0.000    0.000    0.000    0.000    0.000    0.000 
#
# Total GULP energy -346893.496924 kJ/mol
# GULP energy per Si atom -12389.053462 kJ/mol
# Density = 1.935931 g / cm^3
# Si number density = 19.403478 Si / 1000 Ang^3
#
#
#
# Elastic Constant Matrix: (Units=GPa)
#
#
# Indices 1 2 3 4 5 6 
#
# 1 165.6908 68.9319 34.3988 0.0000 3.3272 0.0004
# 2 68.9319 81.1445 29.8476 0.0027 11.5562 -0.0015
# 3 34.3988 29.8476 64.6925 0.0006 -2.2896 -0.0003
# 4 0.0000 0.0027 0.0006 21.6663 -0.0004 6.1261
# 5 3.3272 11.5562 -2.2896 -0.0004 18.9270 0.0000
# 6 0.0004 -0.0015 -0.0003 6.1261 0.0000 38.7011
#
#
#
# Elastic Compliance Matrix: (Units=1/GPa)
#
#
# Indices 1 2 3 4 5 6 
#
# 1 0.009629 -0.008173 -0.001238 0.000001 0.003148 -0.000001
# 2 -0.008173 0.023905 -0.007180 -0.000003 -0.014028 0.000001
# 3 -0.001238 -0.007180 0.019676 0.000001 0.006982 0.000000
# 4 0.000001 -0.000003 0.000001 0.048317 0.000003 -0.007648
# 5 0.003148 -0.014028 0.006982 0.000003 0.061691 -0.000001
# 6 -0.000001 0.000001 0.000000 -0.007648 -0.000001 0.027050
#
#
# Mechanical properties :
#
#
# Convention : Reuss Voigt Hill
#
# Bulk Modulus (GPa) = 49.92876 64.20939 57.06907
# Shear Modulus (GPa) = 21.72721 27.74885 24.73803
#
# Velocity S-wave (km/s) = 3.34991 3.78576 3.57449
# Velocity P-wave (km/s) = 6.38359 7.23000 6.81994
#
# Compressibility (1/GPa) = 0.02002854
#
# Stress axis : x y z
#
# Youngs Moduli (GPa) = 103.84949 41.83154 50.82378
#
# Poissons Ratio (x) = 0.34189 0.06292
# Poissons Ratio (y) = 0.84876 0.36492
# Poissons Ratio (z) = 0.12856 0.30035
#
# Static dielectric constant tensor:
#      x y z
#    x 4.202550 0.000000 -0.198590 
#    y 0.000000 3.395970 0.000000 
#    z -0.198590 0.000000 3.495370 
# 
# 
# High freq. dielectric constant tensor:
#      x y z
#    x 1.786230 0.000000 -0.013770 
#    y 0.000000 1.722810 0.000000 
#    z -0.013770 0.000000 1.737420 
# 
# From -- ./inp_files/177601.got.cif
#   From: 2010.06.25/outbox.cif.g09.slc.cpg/sg15_89_cif.got.tgz:177601.got - 2010.06.28 07:06:18.
