data_PCOD8133165
_publ_section_title
;
Structure prediction by ZEFSAII (Michael W. Deem and Ramdas Pophale) SiO2 
 PCOD8133165
Probable space group: C 2/C
;
_chemical_formula_sum "Si O2"
_cell_formula_units_Z 56
_cell_length_a 19.406861
_cell_length_b 10.310297
_cell_length_c 29.051817
_cell_angle_alpha 90.000000
_cell_angle_beta 148.814760
_cell_angle_gamma 90.000000
_cell_volume 3010.006180
_symmetry_space_group_name_H-M "C 2/C"
_symmetry_group_IT_number 15
_symmetry_cell_setting 'monoclinic'
loop_
_space_group_symop_operation_xyz
x,y,z
-x,y,1/2-z
-x,-y,-z
x,-y,1/2+z
1/2+x,1/2+y,z
1/2-x,1/2+y,1/2-z
1/2-x,1/2-y,-z
1/2+x,1/2-y,1/2+z
loop_
_atom_site_type_symbol
_atom_site_label
_atom_site_fract_x
_atom_site_fract_y
_atom_site_fract_z
Si Si1 0.301348 0.286904 0.953019
Si Si2 0.511637 0.153829 0.010059
Si Si3 0.318147 0.920860 0.701099
Si Si4 0.103496 0.199614 0.142794
Si Si5 0.025541 0.790680 0.315823
Si Si6 0.488518 0.440047 0.380262
Si Si7 0.232053 0.816811 0.182764
O O1 0.240563 0.382770 0.881088
O O2 0.184618 0.211557 0.913163
O O3 0.404131 0.189850 0.987374
O O4 0.369531 0.375858 0.029918
O O5 0.660114 0.204097 0.110566
O O6 0.475666 0.212900 0.939350
O O7 0.500000 0.000000 0.000000
O O8 0.230508 0.867052 0.692672
O O9 0.463718 0.853972 0.789217
O O10 0.313898 0.077709 0.699126
O O11 0.157471 0.273554 0.217944
O O12 0.003077 0.093877 0.107367
O O13 0.953773 0.895780 0.308260
O O14 0.000000 0.841575 0.250000
O O15 0.386164 0.387368 0.358828
#
# Coordination Sequence:
#
# PCOD8133165 Si02
#       7
#     8   8   8   8   8   8   8
#     4   9  19  34  54  77 103 144 181 234 275 334
#     4  10  22  35  55  85 115 148 192 237 289 335
#     4   9  18  33  52  78 109 134 186 226 285 330
#     4  10  20  33  55  81 112 143 180 239 280 334
#     4  10  19  32  54  80 106 143 184 228 273 342
#     4  10  19  33  53  78 108 138 187 225 285 328
#     4  10  20  32  55  80 111 145 180 237 287 329
#
# _framework density 18.604614000000002
#
# number of rings (size 3 to 8) (size 9 to 14) (size 15 to 20)
#    0.000    2.286    1.429    1.286    4.000    3.429 
#    0.000    0.000    0.000   11.143    0.000    0.000 
#    0.000    0.000    0.000    0.000    0.000    0.000 
#
# Total GULP energy -346907.999349 kJ/mol
# GULP energy per Si atom -12389.571405 kJ/mol
# Density = 1.856227 g / cm^3
# Si number density = 18.604614 Si / 1000 Ang^3
#
#
#
# Elastic Constant Matrix: (Units=GPa)
#
#
# Indices 1 2 3 4 5 6 
#
# 1 46.3391 24.8445 15.4033 0.0000 1.2606 0.0000
# 2 24.8445 109.0593 30.5788 0.0000 -6.2874 -0.0001
# 3 15.4033 30.5788 77.9792 -0.0002 -7.0991 0.0000
# 4 0.0000 0.0000 -0.0002 22.5696 -0.0001 0.6114
# 5 1.2606 -6.2874 -7.0991 -0.0001 22.6828 0.0000
# 6 0.0000 -0.0001 0.0000 0.6114 0.0000 17.6121
#
#
#
# Elastic Compliance Matrix: (Units=1/GPa)
#
#
# Indices 1 2 3 4 5 6 
#
# 1 0.025547 -0.005090 -0.003405 0.000000 -0.003896 0.000000
# 2 -0.005090 0.011375 -0.003235 0.000000 0.002424 0.000000
# 3 -0.003405 -0.003235 0.015132 0.000000 0.004028 0.000000
# 4 0.000000 0.000000 0.000000 0.044349 0.000000 -0.001540
# 5 -0.003896 0.002424 0.004028 0.000000 0.046235 0.000000
# 6 0.000000 0.000000 0.000000 -0.001540 0.000000 0.056833
#
#
# Mechanical properties :
#
#
# Convention : Reuss Voigt Hill
#
# Bulk Modulus (GPa) = 34.97124 41.67010 38.32067
# Shear Modulus (GPa) = 21.50891 23.40963 22.45927
#
# Velocity S-wave (km/s) = 3.40384 3.55106 3.47823
# Velocity P-wave (km/s) = 5.85543 6.26576 6.06407
#
# Compressibility (1/GPa) = 0.02859493
#
# Stress axis : x y z
#
# Youngs Moduli (GPa) = 39.14397 87.90828 66.08604
#
# Poissons Ratio (x) = 0.44742 0.22503
# Poissons Ratio (y) = 0.19923 0.21378
# Poissons Ratio (z) = 0.13329 0.28437
#
# Static dielectric constant tensor:
#      x y z
#    x 3.499750 0.000000 0.048680 
#    y 0.000000 3.434660 0.000000 
#    z 0.048680 0.000000 3.630970 
# 
# 
# High freq. dielectric constant tensor:
#      x y z
#    x 1.709620 0.000000 -0.014270 
#    y 0.000000 1.705020 0.000000 
#    z -0.014270 0.000000 1.727460 
# 
# From -- ./inp_files/209646.got.cif
#   From: 2010.06.25/outbox.cif.g09.slc.cpg/sg15_105_cif.got.tgz:209646.got - 2010.06.28 07:06:18.
