data_PCOD8133322
_publ_section_title
;
Structure prediction by ZEFSAII (Michael W. Deem and Ramdas Pophale) SiO2 
 PCOD8133322
Probable space group: C 2/C
;
_chemical_formula_sum "Si O2"
_cell_formula_units_Z 52
_cell_length_a 10.802521
_cell_length_b 31.485960
_cell_length_c 12.210669
_cell_angle_alpha 90.000000
_cell_angle_beta 38.663120
_cell_angle_gamma 90.000000
_cell_volume 2594.662988
_symmetry_space_group_name_H-M "C 2/C"
_symmetry_group_IT_number 15
_symmetry_cell_setting 'monoclinic'
loop_
_space_group_symop_operation_xyz
x,y,z
-x,y,1/2-z
-x,-y,-z
x,-y,1/2+z
1/2+x,1/2+y,z
1/2-x,1/2+y,1/2-z
1/2-x,1/2-y,-z
1/2+x,1/2-y,1/2+z
loop_
_atom_site_type_symbol
_atom_site_label
_atom_site_fract_x
_atom_site_fract_y
_atom_site_fract_z
Si Si1 0.569043 0.703417 0.326945
Si Si2 0.666201 0.794201 0.226829
Si Si3 0.500000 0.074517 0.250000
Si Si4 0.852264 0.019708 0.952472
Si Si5 0.236690 0.617578 0.277621
Si Si6 0.588388 0.436993 0.478056
Si Si7 0.937821 0.383028 0.167058
O O1 0.500000 0.699692 0.250000
O O2 0.665340 0.749249 0.290772
O O3 0.379585 0.695804 0.531661
O O4 0.735528 0.668352 0.238396
O O5 0.500000 0.788908 0.250000
O O6 0.617957 0.835227 0.335408
O O7 0.355753 0.044170 0.422424
O O8 0.622239 0.104937 0.246192
O O9 0.000000 0.027135 0.750000
O O10 0.941989 0.037953 0.001009
O O11 0.814713 0.969442 0.000305
O O12 0.455690 0.597258 0.134627
O O13 0.113362 0.600740 0.467884
O O14 0.753312 0.414928 0.287953
O O15 0.000000 0.380601 0.250000
#
# Coordination Sequence:
#
# PCOD8133322 Si02
#       7
#     8   8   4   8   8   8   8
#     4  11  19  33  57  87 123 156 195 246 294 356
#     4  10  19  33  52  87 125 158 191 230 307 363
#     4  10  24  44  62  84 114 166 208 242 292 356
#     4  10  22  40  62  81 116 156 198 246 298 351
#     4  11  23  39  61  86 120 160 202 245 292 348
#     4  10  23  38  56  91 114 152 201 244 298 353
#     4  11  22  35  57  90 123 152 191 243 304 360
#
# _framework density 20.041138
#
# number of rings (size 3 to 8) (size 9 to 14) (size 15 to 20)
#    0.000    1.538    1.538    5.538    3.231    0.000 
#    0.000    4.615    0.000    3.692    0.000    0.000 
#    0.000    0.000    0.000    0.000    0.000    0.000 
#
# Total GULP energy -322326.701349 kJ/mol
# GULP energy per Si atom -12397.180821 kJ/mol
# Density = 1.999552 g / cm^3
# Si number density = 20.041138 Si / 1000 Ang^3
#
#
#
# Elastic Constant Matrix: (Units=GPa)
#
#
# Indices 1 2 3 4 5 6 
#
# 1 41.6873 22.2523 9.5821 0.0000 -8.6474 0.0000
# 2 22.2523 111.2857 22.3144 0.0000 -11.6995 0.0000
# 3 9.5821 22.3144 137.2606 0.0000 -17.6456 0.0000
# 4 0.0000 0.0000 0.0000 27.0702 0.0000 -14.3381
# 5 -8.6474 -11.6995 -17.6456 0.0000 28.9381 0.0000
# 6 0.0000 0.0000 0.0000 -14.3381 0.0000 -31.0761
#
#
#
# Elastic Compliance Matrix: (Units=1/GPa)
#
#
# Indices 1 2 3 4 5 6 
#
# 1 0.027948 -0.004867 -0.000368 0.000000 0.006160 0.000000
# 2 -0.004867 0.010396 -0.001082 0.000000 0.002089 0.000000
# 3 -0.000368 -0.001082 0.008047 0.000000 0.004360 0.000000
# 4 0.000000 0.000000 0.000000 0.029686 0.000000 -0.013697
# 5 0.006160 0.002089 0.004360 0.000000 0.039900 0.000000
# 6 0.000000 0.000000 0.000000 -0.013697 0.000000 -0.025860
#
#
# Mechanical properties :
#
#
# Convention : Reuss Voigt Hill
#
# Bulk Modulus (GPa) = 29.62273 44.28123 36.95198
# Shear Modulus (GPa) = 43.85791 20.72544 32.29168
#
# Velocity S-wave (km/s) = 4.68310 3.21930 4.01842
# Velocity P-wave (km/s) = 6.63739 5.99680 6.32521
#
# Compressibility (1/GPa) = 0.03375786
#
# Stress axis : x y z
#
# Youngs Moduli (GPa) = 35.78018 96.19455 124.26333
#
# Poissons Ratio (x) = 0.46819 0.04573
# Poissons Ratio (y) = 0.17415 0.13442
# Poissons Ratio (z) = 0.01317 0.10405
#
# Static dielectric constant tensor:
#      x y z
#    x 3.190880 0.000000 -0.248860 
#    y 0.000000 4.270360 0.000000 
#    z -0.248860 0.000000 3.725120 
# 
# 
# High freq. dielectric constant tensor:
#      x y z
#    x 1.731590 0.000000 -0.023960 
#    y 0.000000 1.804510 0.000000 
#    z -0.023960 0.000000 1.794840 
# 
# From -- ./inp_files/92558.got.cif
#   From: 2010.06.25/outbox.cif.g09.slc.cpg/sg15_47_cif.got.tgz:92558.got - 2010.06.28 07:06:18.
