data_PCOD8133729
_publ_section_title
;
Structure prediction by ZEFSAII (Michael W. Deem and Ramdas Pophale) SiO2 
 PCOD8133729
Probable space group: C 2/C
;
_chemical_formula_sum "Si O2"
_cell_formula_units_Z 60
_cell_length_a 28.010838
_cell_length_b 19.840390
_cell_length_c 5.467655
_cell_angle_alpha 90.000000
_cell_angle_beta 74.426590
_cell_angle_gamma 90.000000
_cell_volume 2927.070808
_symmetry_space_group_name_H-M "C 2/C"
_symmetry_group_IT_number 15
_symmetry_cell_setting 'monoclinic'
loop_
_space_group_symop_operation_xyz
x,y,z
-x,y,1/2-z
-x,-y,-z
x,-y,1/2+z
1/2+x,1/2+y,z
1/2-x,1/2+y,1/2-z
1/2-x,1/2-y,-z
1/2+x,1/2-y,1/2+z
loop_
_atom_site_type_symbol
_atom_site_label
_atom_site_fract_x
_atom_site_fract_y
_atom_site_fract_z
Si Si1 0.224690 0.963249 0.805314
Si Si2 0.341600 0.963487 0.661545
Si Si3 0.500000 0.286764 0.750000
Si Si4 0.096251 0.214967 0.894347
Si Si5 0.629615 0.161174 0.627104
Si Si6 0.452561 0.189025 0.428372
Si Si7 0.723940 0.205035 0.736335
Si Si8 0.691768 0.332455 0.057457
O O1 0.283115 0.953747 0.733469
O O2 0.206893 0.998375 0.578069
O O3 0.198894 0.889287 0.841024
O O4 0.368546 0.890536 0.603129
O O5 0.358805 0.005087 0.395494
O O6 0.548116 0.326189 0.570622
O O7 0.478892 0.242243 0.564721
O O8 0.079856 0.269594 0.719088
O O9 0.136092 0.160934 0.742482
O O10 0.123063 0.260460 0.064730
O O11 0.682654 0.154174 0.689625
O O12 0.584252 0.140274 0.869541
O O13 0.500000 0.148013 0.250000
O O14 0.750000 0.250000 0.500000
O O15 0.764872 0.155959 0.801396
O O16 0.697461 0.255403 0.962365
#
# Coordination Sequence:
#
# PCOD8133729 Si02
#       8
#     8   8   4   8   8   8   8   8
#     4  10  24  41  57  77 114 168 206 237 271 332
#     4  10  24  39  56  77 110 159 208 243 272 335
#     4   8  18  34  52  82 112 144 178 222 296 372
#     4  10  19  34  55  87 111 145 180 238 300 350
#     4  11  21  33  57  81 114 151 193 235 297 346
#     4   9  18  34  55  79 113 140 183 230 298 361
#     4  11  22  33  50  85 119 149 179 241 295 344
#     4  11  23  34  55  84 119 150 193 236 289 345
#
# _framework density 20.498308000000002
#
# number of rings (size 3 to 8) (size 9 to 14) (size 15 to 20)
#    0.000    1.867    2.667    0.800   11.200    0.000 
#    0.000    0.000    0.000    0.800    0.000    0.933 
#    0.000    0.000    0.000    0.000    0.000    0.000 
#
# Total GULP energy -371721.291483 kJ/mol
# GULP energy per Si atom -12390.709716 kJ/mol
# Density = 2.045165 g / cm^3
# Si number density = 20.498308 Si / 1000 Ang^3
#
#
#
# Elastic Constant Matrix: (Units=GPa)
#
#
# Indices 1 2 3 4 5 6 
#
# 1 87.6844 10.9102 37.1279 0.0000 -21.4745 0.0000
# 2 10.9102 50.2831 22.4796 0.0000 -13.6159 0.0000
# 3 37.1279 22.4796 112.4627 0.0000 -20.7103 0.0000
# 4 0.0000 0.0000 0.0000 36.3290 0.0000 -3.8452
# 5 -21.4745 -13.6159 -20.7103 0.0000 36.4378 0.0000
# 6 0.0000 0.0000 0.0000 -3.8452 0.0000 11.8570
#
#
#
# Elastic Compliance Matrix: (Units=1/GPa)
#
#
# Indices 1 2 3 4 5 6 
#
# 1 0.014525 0.000257 -0.003633 0.000000 0.006592 0.000000
# 2 0.000257 0.023240 -0.003466 0.000000 0.006866 0.000000
# 3 -0.003633 -0.003466 0.011338 0.000000 0.003008 0.000000
# 4 0.000000 0.000000 0.000000 0.028505 0.000000 0.009244
# 5 0.006592 0.006866 0.003008 0.000000 0.035604 0.000000
# 6 0.000000 0.000000 0.000000 0.009244 0.000000 0.087337
#
#
# Mechanical properties :
#
#
# Convention : Reuss Voigt Hill
#
# Bulk Modulus (GPa) = 28.23220 43.49618 35.86419
# Shear Modulus (GPa) = 22.12016 28.91892 25.51954
#
# Velocity S-wave (km/s) = 3.28856 3.76013 3.53222
# Velocity P-wave (km/s) = 5.31247 6.33379 5.84548
#
# Compressibility (1/GPa) = 0.03542055
#
# Stress axis : x y z
#
# Youngs Moduli (GPa) = 68.84639 43.02880 88.19989
#
# Poissons Ratio (x) = -0.01108 0.32041
# Poissons Ratio (y) = -0.01772 0.30570
# Poissons Ratio (z) = 0.25011 0.14914
#
# Static dielectric constant tensor:
#      x y z
#    x 3.949300 0.000000 -0.285150 
#    y 0.000000 3.252930 0.000000 
#    z -0.285150 0.000000 4.315320 
# 
# 
# High freq. dielectric constant tensor:
#      x y z
#    x 1.793590 0.000000 -0.006580 
#    y 0.000000 1.736150 0.000000 
#    z -0.006580 0.000000 1.830100 
# 
# From -- ./inp_files/18437.got.cif
#   From: 2010.06.25/outbox.cif.g09.slc.cpg/sg15_10_cif.got.tgz:18437.got - 2010.06.28 07:06:18.
