data_PCOD8133551
_publ_section_title
;
Structure prediction by ZEFSAII (Michael W. Deem and Ramdas Pophale) SiO2 
 PCOD8133551
Probable space group: C 2/C
;
_chemical_formula_sum "Si O2"
_cell_formula_units_Z 64
_cell_length_a 29.016579
_cell_length_b 9.154099
_cell_length_c 14.355304
_cell_angle_alpha 90.000000
_cell_angle_beta 58.520619
_cell_angle_gamma 90.000000
_cell_volume 3251.889125
_symmetry_space_group_name_H-M "C 2/C"
_symmetry_group_IT_number 15
_symmetry_cell_setting 'monoclinic'
loop_
_space_group_symop_operation_xyz
x,y,z
-x,y,1/2-z
-x,-y,-z
x,-y,1/2+z
1/2+x,1/2+y,z
1/2-x,1/2+y,1/2-z
1/2-x,1/2-y,-z
1/2+x,1/2-y,1/2+z
loop_
_atom_site_type_symbol
_atom_site_label
_atom_site_fract_x
_atom_site_fract_y
_atom_site_fract_z
Si Si1 0.630318 0.469705 0.999312
Si Si2 0.982044 0.606484 0.098100
Si Si3 0.871402 0.405240 0.807504
Si Si4 0.945983 0.088598 0.563947
Si Si5 0.900722 0.641164 0.474997
Si Si6 0.284087 0.589531 0.239061
Si Si7 0.683121 0.924455 0.287715
Si Si8 0.641555 0.436069 0.199519
O O1 0.603534 0.313736 0.016323
O O2 0.638066 0.505345 0.100031
O O3 0.589297 0.584068 0.994058
O O4 0.687375 0.469227 0.885203
O O5 0.932522 0.554734 0.213683
O O6 0.962299 0.747711 0.064623
O O7 0.035264 0.620592 0.105372
O O8 0.000000 0.500000 0.000000
O O9 0.868623 0.427181 0.921368
O O10 0.830405 0.518193 0.801818
O O11 0.853128 0.239448 0.804112
O O12 0.911674 0.019786 0.685825
O O13 0.000000 0.000000 0.500000
O O14 0.873596 0.573504 0.596009
O O15 0.289664 0.764612 0.243935
O O16 0.221910 0.542490 0.296183
O O17 0.306913 0.509345 0.306354
#
# Coordination Sequence:
#
# PCOD8133551 Si02
#       8
#     8   8   8   8   8   8   8   8
#     4   9  19  38  60  84 113 150 194 231 275 336
#     4  11  20  35  58  84 120 151 183 229 280 333
#     4  10  21  37  60  86 112 151 192 232 276 342
#     4  10  19  33  59  84 116 153 190 225 272 334
#     4  10  20  37  61  83 114 153 189 231 282 334
#     4  10  22  39  61  82 112 150 185 242 286 337
#     4  11  22  40  60  82 114 147 191 237 288 338
#     4   9  20  37  59  86 113 147 192 234 279 333
#
# _framework density 19.680869000000001
#
# number of rings (size 3 to 8) (size 9 to 14) (size 15 to 20)
#    0.000    2.000    2.500    1.125    0.000    1.500 
#    2.250    5.000    2.750    0.000    0.000    0.000 
#    0.000    0.000    0.000    0.000    0.000    0.000 
#
# Total GULP energy -396693.321377 kJ/mol
# GULP energy per Si atom -12396.666293 kJ/mol
# Density = 1.963607 g / cm^3
# Si number density = 19.680869 Si / 1000 Ang^3
#
#
#
# Elastic Constant Matrix: (Units=GPa)
#
#
# Indices 1 2 3 4 5 6 
#
# 1 119.6979 42.4665 35.1087 0.0000 13.7469 0.0000
# 2 42.4665 55.8214 22.1263 0.0000 7.4985 0.0000
# 3 35.1087 22.1263 76.3742 0.0000 27.8397 0.0000
# 4 0.0000 0.0000 0.0000 25.5394 0.0000 -0.2559
# 5 13.7469 7.4985 27.8397 0.0000 34.9556 0.0000
# 6 0.0000 0.0000 0.0000 -0.2559 0.0000 32.4198
#
#
#
# Elastic Compliance Matrix: (Units=1/GPa)
#
#
# Indices 1 2 3 4 5 6 
#
# 1 0.012139 -0.007941 -0.003044 0.000000 -0.000646 0.000000
# 2 -0.007941 0.025439 -0.004042 0.000000 0.000885 0.000000
# 3 -0.003044 -0.004042 0.021011 0.000000 -0.014670 0.000000
# 4 0.000000 0.000000 0.000000 0.039158 0.000000 0.000309
# 5 -0.000646 0.000885 -0.014670 0.000000 0.040355 0.000000
# 6 0.000000 0.000000 0.000000 0.000309 0.000000 0.030848
#
#
# Mechanical properties :
#
#
# Convention : Reuss Voigt Hill
#
# Bulk Modulus (GPa) = 35.04565 50.14403 42.59484
# Shear Modulus (GPa) = 23.97896 28.72909 26.35403
#
# Velocity S-wave (km/s) = 3.49433 3.82481 3.66330
# Velocity P-wave (km/s) = 5.84175 6.71114 6.29148
#
# Compressibility (1/GPa) = 0.02853421
#
# Stress axis : x y z
#
# Youngs Moduli (GPa) = 82.38032 39.30981 47.59396
#
# Poissons Ratio (x) = 0.31217 0.14488
# Poissons Ratio (y) = 0.65421 0.19237
# Poissons Ratio (z) = 0.25077 0.15889
#
# Static dielectric constant tensor:
#      x y z
#    x 3.696950 0.000000 -0.207970 
#    y 0.000000 3.408870 0.000000 
#    z -0.207970 0.000000 3.920970 
# 
# 
# High freq. dielectric constant tensor:
#      x y z
#    x 1.775990 0.000000 0.001200 
#    y 0.000000 1.753090 0.000000 
#    z 0.001200 0.000000 1.764490 
# 
# From -- ./inp_files/176575.got.cif
#   From: 2010.06.25/outbox.cif.g09.slc.cpg/sg15_89_cif.got.tgz:176575.got - 2010.06.28 07:06:18.
