data_PCOD8133953
_publ_section_title
;
Structure prediction by ZEFSAII (Michael W. Deem and Ramdas Pophale) SiO2 
 PCOD8133953
Probable space group: C 2/C
;
_chemical_formula_sum "Si O2"
_cell_formula_units_Z 52
_cell_length_a 8.359059
_cell_length_b 12.119375
_cell_length_c 28.841210
_cell_angle_alpha 90.000000
_cell_angle_beta 123.522738
_cell_angle_gamma 90.000000
_cell_volume 2435.810819
_symmetry_space_group_name_H-M "C 2/C"
_symmetry_group_IT_number 15
_symmetry_cell_setting 'monoclinic'
loop_
_space_group_symop_operation_xyz
x,y,z
-x,y,1/2-z
-x,-y,-z
x,-y,1/2+z
1/2+x,1/2+y,z
1/2-x,1/2+y,1/2-z
1/2-x,1/2-y,-z
1/2+x,1/2-y,1/2+z
loop_
_atom_site_type_symbol
_atom_site_label
_atom_site_fract_x
_atom_site_fract_y
_atom_site_fract_z
Si Si1 0.500000 0.153152 0.250000
Si Si2 0.464730 0.242628 0.952952
Si Si3 0.109810 0.268933 0.165879
Si Si4 0.861231 0.377023 0.563247
Si Si5 0.247468 0.933561 0.978449
Si Si6 0.570307 0.988587 0.672608
Si Si7 0.718732 0.394070 0.873093
O O1 0.327077 0.229947 0.206026
O O2 0.417991 0.078794 0.278180
O O3 0.431899 0.213049 0.894533
O O4 0.269114 0.269877 0.948844
O O5 0.598269 0.350904 0.979465
O O6 0.549311 0.132057 0.989723
O O7 0.071535 0.383374 0.186230
O O8 0.958193 0.186078 0.164671
O O9 0.765882 0.452728 0.508607
O O10 0.879208 0.451659 0.613369
O O11 0.075519 0.331410 0.585738
O O12 0.182103 0.961819 0.915141
O O13 0.757560 0.969403 0.669056
#
# Coordination Sequence:
#
# PCOD8133953 Si02
#       7
#     4   8   8   8   8   8   8
#     4  12  26  44  68  88 114 164 214 258 318 364
#     4  10  19  35  62  92 127 169 201 242 305 366
#     4  11  22  44  66  88 126 159 203 265 309 360
#     4  10  19  38  58  90 128 159 203 245 292 372
#     4  10  19  34  61  94 128 169 197 242 305 364
#     4  10  24  43  63  91 121 156 208 258 309 363
#     4   9  22  39  62  94 129 157 203 252 299 377
#
# _framework density 21.348126000000001
#
# number of rings (size 3 to 8) (size 9 to 14) (size 15 to 20)
#    0.923    0.923    3.077    0.923    0.000    3.692 
#    0.000    4.615    0.000    0.000    0.000    0.000 
#    0.000    0.000    0.000    0.000    0.000    0.000 
#
# Total GULP energy -322250.413166 kJ/mol
# GULP energy per Si atom -12394.246660 kJ/mol
# Density = 2.129954 g / cm^3
# Si number density = 21.348126 Si / 1000 Ang^3
#
#
#
# Elastic Constant Matrix: (Units=GPa)
#
#
# Indices 1 2 3 4 5 6 
#
# 1 58.7279 7.8826 15.6185 0.0000 4.7622 0.0000
# 2 7.8826 66.6624 29.2011 0.0000 0.6673 0.0000
# 3 15.6185 29.2011 71.0450 0.0000 -4.8603 0.0000
# 4 0.0000 0.0000 0.0000 22.8563 0.0000 -5.6432
# 5 4.7622 0.6673 -4.8603 0.0000 38.1151 0.0000
# 6 0.0000 0.0000 0.0000 -5.6432 0.0000 15.8220
#
#
#
# Elastic Compliance Matrix: (Units=1/GPa)
#
#
# Indices 1 2 3 4 5 6 
#
# 1 0.018391 -0.000355 -0.004090 0.000000 -0.002813 0.000000
# 2 -0.000355 0.018365 -0.007555 0.000000 -0.001241 0.000000
# 3 -0.004090 -0.007555 0.018283 0.000000 0.002975 0.000000
# 4 0.000000 0.000000 0.000000 0.047976 0.000000 0.017112
# 5 -0.002813 -0.001241 0.002975 0.000000 0.026989 0.000000
# 6 0.000000 0.000000 0.000000 0.017112 0.000000 0.069306
#
#
# Mechanical properties :
#
#
# Convention : Reuss Voigt Hill
#
# Bulk Modulus (GPa) = 32.21679 33.53773 32.87726
# Shear Modulus (GPa) = 21.39886 24.94090 23.16988
#
# Velocity S-wave (km/s) = 3.16947 3.42174 3.29802
# Velocity P-wave (km/s) = 5.34022 5.59956 5.47143
#
# Compressibility (1/GPa) = 0.03103971
#
# Stress axis : x y z
#
# Youngs Moduli (GPa) = 54.37424 54.45184 54.69420
#
# Poissons Ratio (x) = 0.01934 0.22368
# Poissons Ratio (y) = 0.01931 0.41322
# Poissons Ratio (z) = 0.22237 0.41139
#
# Static dielectric constant tensor:
#      x y z
#    x 3.856880 0.000000 -0.016060 
#    y 0.000000 3.504040 0.000000 
#    z -0.016060 0.000000 3.798190 
# 
# 
# High freq. dielectric constant tensor:
#      x y z
#    x 1.836770 0.000000 -0.008460 
#    y 0.000000 1.817610 0.000000 
#    z -0.008460 0.000000 1.832500 
# 
# From -- ./inp_files/307300.got.cif
#   From: 2010.06.25/outbox.cif.g09.slc.cpg/sg15_154_cif.got.tgz:307300.got - 2010.06.28 07:06:18.
