data_PCOD8133420
_publ_section_title
;
Structure prediction by ZEFSAII (Michael W. Deem and Ramdas Pophale) SiO2 
 PCOD8133420
Probable space group: C 2/C
;
_chemical_formula_sum "Si O2"
_cell_formula_units_Z 40
_cell_length_a 4.916898
_cell_length_b 21.694386
_cell_length_c 20.281845
_cell_angle_alpha 90.000000
_cell_angle_beta 59.932808
_cell_angle_gamma 90.000000
_cell_volume 1872.329184
_symmetry_space_group_name_H-M "C 2/C"
_symmetry_group_IT_number 15
_symmetry_cell_setting 'monoclinic'
loop_
_space_group_symop_operation_xyz
x,y,z
-x,y,1/2-z
-x,-y,-z
x,-y,1/2+z
1/2+x,1/2+y,z
1/2-x,1/2+y,1/2-z
1/2-x,1/2-y,-z
1/2+x,1/2-y,1/2+z
loop_
_atom_site_type_symbol
_atom_site_label
_atom_site_fract_x
_atom_site_fract_y
_atom_site_fract_z
Si Si1 0.143562 0.624603 0.800652
Si Si2 0.846227 0.777500 0.089767
Si Si3 0.808902 0.993641 0.340370
Si Si4 0.184675 0.431149 0.659282
Si Si5 0.632792 0.303369 0.924445
O O1 0.500000 0.650340 0.750000
O O2 0.152848 0.575022 0.860827
O O3 0.000000 0.594306 0.750000
O O4 0.905924 0.679656 0.844183
O O5 0.673438 0.722654 0.073445
O O6 0.077005 0.745378 0.115407
O O7 0.054396 0.815775 0.011307
O O8 0.000000 0.990576 0.250000
O O9 0.542304 0.045393 0.370538
O O10 0.041169 0.016375 0.369685
O O11 0.305657 0.365686 0.621821
O O12 0.000000 0.422628 0.750000
#
# Coordination Sequence:
#
# PCOD8133420 Si02
#       5
#     8   8   8   8   8
#     4  11  21  36  58  83 112 146 188 233 278 337
#     4  10  22  38  55  78 111 150 184 227 285 332
#     4   9  18  33  52  78 109 140 175 225 283 324
#     4  10  19  33  55  80 106 140 182 226 273 330
#     4  10  21  38  56  77 112 149 184 229 282 333
#
# _framework density 21.363765000000001
#
# number of rings (size 3 to 8) (size 9 to 14) (size 15 to 20)
#    0.000    2.000    0.000    5.400    0.000    2.400 
#    0.000    2.000    0.000    0.000    0.000    4.200 
#    0.000    0.000    0.000    0.000    0.000    0.000 
#
# Total GULP energy -247796.068489 kJ/mol
# GULP energy per Si atom -12389.803424 kJ/mol
# Density = 2.131514 g / cm^3
# Si number density = 21.363765 Si / 1000 Ang^3
#
#
#
# Elastic Constant Matrix: (Units=GPa)
#
#
# Indices 1 2 3 4 5 6 
#
# 1 95.9224 8.4801 19.9750 0.0000 -15.4689 0.0000
# 2 8.4801 79.8414 33.7548 0.0000 -14.5504 0.0000
# 3 19.9750 33.7548 45.9117 0.0000 -14.0718 0.0000
# 4 0.0000 0.0000 0.0000 -12.3364 0.0000 5.8536
# 5 -15.4689 -14.5504 -14.0718 0.0000 25.0421 0.0000
# 6 0.0000 0.0000 0.0000 5.8536 0.0000 40.3611
#
#
#
# Elastic Compliance Matrix: (Units=1/GPa)
#
#
# Indices 1 2 3 4 5 6 
#
# 1 0.012224 0.001828 -0.004859 0.000000 0.005883 0.000000
# 2 0.001828 0.018733 -0.013151 0.000000 0.004624 0.000000
# 3 -0.004859 -0.013151 0.036606 0.000000 0.009927 0.000000
# 4 0.000000 0.000000 0.000000 -0.075842 0.000000 0.010999
# 5 0.005883 0.004624 0.009927 0.000000 0.051832 0.000000
# 6 0.000000 0.000000 0.000000 0.010999 0.000000 0.023181
#
#
# Mechanical properties :
#
#
# Convention : Reuss Voigt Hill
#
# Bulk Modulus (GPa) = 28.40966 38.45503 33.43235
# Shear Modulus (GPa) = 45.11309 21.24440 33.17875
#
# Velocity S-wave (km/s) = 4.60027 3.15685 3.94514
# Velocity P-wave (km/s) = 6.44543 5.59704 6.03616
#
# Compressibility (1/GPa) = 0.03519930
#
# Stress axis : x y z
#
# Youngs Moduli (GPa) = 81.80580 53.38105 27.31757
#
# Poissons Ratio (x) = -0.09759 0.13275
# Poissons Ratio (y) = -0.14955 0.35925
# Poissons Ratio (z) = 0.39753 0.70201
#
# Static dielectric constant tensor:
#      x y z
#    x 4.482860 0.000000 -0.142920 
#    y 0.000000 3.901130 0.000000 
#    z -0.142920 0.000000 3.531660 
# 
# 
# High freq. dielectric constant tensor:
#      x y z
#    x 1.867570 0.000000 -0.017730 
#    y 0.000000 1.834730 0.000000 
#    z -0.017730 0.000000 1.790580 
# 
# From -- ./inp_files/184699.got.cif
#   From: 2010.06.25/outbox.cif.g09.slc.cpg/sg15_93_cif.got.tgz:184699.got - 2010.06.28 07:06:18.
