data_PCOD8133940
_publ_section_title
;
Structure prediction by ZEFSAII (Michael W. Deem and Ramdas Pophale) SiO2 
 PCOD8133940
Probable space group: C 2/C
;
_chemical_formula_sum "Si O2"
_cell_formula_units_Z 52
_cell_length_a 15.522826
_cell_length_b 10.363931
_cell_length_c 22.725099
_cell_angle_alpha 90.000000
_cell_angle_beta 43.879622
_cell_angle_gamma 90.000000
_cell_volume 2534.110224
_symmetry_space_group_name_H-M "C 2/C"
_symmetry_group_IT_number 15
_symmetry_cell_setting 'monoclinic'
loop_
_space_group_symop_operation_xyz
x,y,z
-x,y,1/2-z
-x,-y,-z
x,-y,1/2+z
1/2+x,1/2+y,z
1/2-x,1/2+y,1/2-z
1/2-x,1/2-y,-z
1/2+x,1/2-y,1/2+z
loop_
_atom_site_type_symbol
_atom_site_label
_atom_site_fract_x
_atom_site_fract_y
_atom_site_fract_z
Si Si1 0.500000 0.307598 0.250000
Si Si2 0.354542 0.229399 0.806373
Si Si3 0.194670 0.989298 0.431839
Si Si4 0.409205 0.874357 0.158654
Si Si5 0.814624 0.998790 0.292553
Si Si6 0.946294 0.433051 0.837340
Si Si7 0.554849 0.589486 0.389337
O O1 0.378624 0.394185 0.302999
O O2 0.504159 0.214940 0.189344
O O3 0.500000 0.238155 0.750000
O O4 0.271090 0.145153 0.891205
O O5 0.330795 0.171739 0.753334
O O6 0.296260 0.372047 0.839314
O O7 0.296793 0.083252 0.410531
O O8 0.077066 0.975298 0.531818
O O9 0.155881 0.049252 0.388298
O O10 0.319718 0.945087 0.157340
O O11 0.511028 0.981996 0.127910
O O12 0.465883 0.744828 0.101329
O O13 0.901172 0.032750 0.194192
O O14 0.000000 0.502423 0.750000
#
# Coordination Sequence:
#
# PCOD8133940 Si02
#       7
#     4   8   8   8   8   8   8
#     4  10  22  36  60  84 120 152 202 246 302 334
#     4  11  19  36  60  84 116 156 195 240 291 348
#     4  11  19  41  56  89 122 156 189 246 306 354
#     4  11  20  36  58  90 111 148 209 236 286 355
#     4  11  22  37  57  90 116 151 203 251 284 358
#     4  10  19  34  61  84 111 156 193 240 289 350
#     4  10  24  34  62  88 121 154 194 244 304 355
#
# _framework density 20.520022000000001
#
# number of rings (size 3 to 8) (size 9 to 14) (size 15 to 20)
#    0.462    0.923    5.385    0.923    4.308    0.615 
#    0.000    1.538    0.000    0.000    0.000    0.000 
#    0.000    0.000    0.000    0.000    0.000    0.000 
#
# Total GULP energy -322223.343036 kJ/mol
# GULP energy per Si atom -12393.205501 kJ/mol
# Density = 2.047332 g / cm^3
# Si number density = 20.520022 Si / 1000 Ang^3
#
#
#
# Elastic Constant Matrix: (Units=GPa)
#
#
# Indices 1 2 3 4 5 6 
#
# 1 85.0801 23.1535 6.1275 0.0000 -26.5328 0.0000
# 2 23.1535 95.8095 -4.8202 0.0000 -3.8839 0.0000
# 3 6.1275 -4.8202 43.0102 0.0000 -11.7107 0.0000
# 4 0.0000 0.0000 0.0000 17.9172 0.0000 -8.2861
# 5 -26.5328 -3.8839 -11.7107 0.0000 30.2315 0.0000
# 6 0.0000 0.0000 0.0000 -8.2861 0.0000 38.8351
#
#
#
# Elastic Compliance Matrix: (Units=1/GPa)
#
#
# Indices 1 2 3 4 5 6 
#
# 1 0.017394 -0.003517 0.001298 0.000000 0.015317 0.000000
# 2 -0.003517 0.011319 0.001481 0.000000 -0.001059 0.000000
# 3 0.001298 0.001481 0.026375 0.000000 0.011547 0.000000
# 4 0.000000 0.000000 0.000000 0.061922 0.000000 0.013212
# 5 0.015317 -0.001059 0.011547 0.000000 0.050858 0.000000
# 6 0.000000 0.000000 0.000000 0.013212 0.000000 0.028569
#
#
# Mechanical properties :
#
#
# Convention : Reuss Voigt Hill
#
# Bulk Modulus (GPa) = 18.65227 30.31348 24.48288
# Shear Modulus (GPa) = 23.17136 30.69271 26.93203
#
# Velocity S-wave (km/s) = 3.36401 3.87168 3.62674
# Velocity P-wave (km/s) = 4.91918 5.89841 5.43091
#
# Compressibility (1/GPa) = 0.05361279
#
# Stress axis : x y z
#
# Youngs Moduli (GPa) = 57.49115 88.34741 37.91430
#
# Poissons Ratio (x) = 0.31074 -0.04922
# Poissons Ratio (y) = 0.20221 -0.05616
# Poissons Ratio (z) = -0.07464 -0.13087
#
# Static dielectric constant tensor:
#      x y z
#    x 3.684740 0.000000 -0.158650 
#    y 0.000000 4.005120 0.000000 
#    z -0.158650 0.000000 3.307990 
# 
# 
# High freq. dielectric constant tensor:
#      x y z
#    x 1.798770 0.000000 -0.025940 
#    y 0.000000 1.820380 0.000000 
#    z -0.025940 0.000000 1.757110 
# 
# From -- ./inp_files/295729.got.cif
#   From: 2010.06.25/outbox.cif.g09.slc.cpg/sg15_148_cif.got.tgz:295729.got - 2010.06.28 07:06:18.
