data_PCOD8133399
_publ_section_title
;
Structure prediction by ZEFSAII (Michael W. Deem and Ramdas Pophale) SiO2 
 PCOD8133399
Probable space group: C 2/C
;
_chemical_formula_sum "Si O2"
_cell_formula_units_Z 56
_cell_length_a 16.854174
_cell_length_b 19.159602
_cell_length_c 9.225274
_cell_angle_alpha 90.000000
_cell_angle_beta 113.952167
_cell_angle_gamma 90.000000
_cell_volume 2722.479620
_symmetry_space_group_name_H-M "C 2/C"
_symmetry_group_IT_number 15
_symmetry_cell_setting 'monoclinic'
loop_
_space_group_symop_operation_xyz
x,y,z
-x,y,1/2-z
-x,-y,-z
x,-y,1/2+z
1/2+x,1/2+y,z
1/2-x,1/2+y,1/2-z
1/2-x,1/2-y,-z
1/2+x,1/2-y,1/2+z
loop_
_atom_site_type_symbol
_atom_site_label
_atom_site_fract_x
_atom_site_fract_y
_atom_site_fract_z
Si Si1 0.633736 0.343507 0.275200
Si Si2 0.310605 0.414647 0.779914
Si Si3 0.498437 0.185154 0.582302
Si Si4 0.743012 0.531521 0.960417
Si Si5 0.539445 0.334904 0.506249
Si Si6 0.332490 0.806252 0.776731
Si Si7 0.916717 0.399111 0.600185
O O1 0.699047 0.407985 0.331112
O O2 0.595272 0.324315 0.402779
O O3 0.556471 0.362184 0.105755
O O4 0.686167 0.275715 0.259234
O O5 0.287903 0.456091 0.617433
O O6 0.257076 0.342738 0.747545
O O7 0.286607 0.464695 0.895729
O O8 0.412303 0.392991 0.858445
O O9 0.500000 0.162752 0.750000
O O10 0.536013 0.262666 0.589988
O O11 0.399564 0.181927 0.456247
O O12 0.555898 0.130045 0.535569
O O13 0.847546 0.538455 0.025838
O O14 0.371944 0.837068 0.657729
O O15 0.000000 0.428454 0.750000
#
# Coordination Sequence:
#
# PCOD8133399 Si02
#       7
#     8   8   8   8   8   8   8
#     4   9  17  34  62  86 101 147 195 230 260 333
#     4  10  22  38  56  81 115 151 184 230 271 331
#     4  10  19  33  54  88 113 137 176 236 290 325
#     4  10  22  37  57  82 114 148 191 222 276 328
#     4   9  18  34  57  82 114 142 186 225 279 324
#     4   9  18  35  58  82 110 141 192 229 271 327
#     4   9  18  35  59  82 108 146 187 229 270 331
#
# _framework density 20.569483999999999
#
# number of rings (size 3 to 8) (size 9 to 14) (size 15 to 20)
#    0.000    2.571    1.429    0.000    2.000    3.429 
#    5.143    7.857    0.000    0.000    0.000    0.000 
#    0.000    0.000    0.000    0.000    0.000    0.000 
#
# Total GULP energy -347218.111798 kJ/mol
# GULP energy per Si atom -12400.646850 kJ/mol
# Density = 2.052267 g / cm^3
# Si number density = 20.569484 Si / 1000 Ang^3
#
#
#
# Elastic Constant Matrix: (Units=GPa)
#
#
# Indices 1 2 3 4 5 6 
#
# 1 63.3717 27.2832 31.7902 0.0000 18.7328 0.0000
# 2 27.2832 58.8804 23.5838 0.0000 14.1160 0.0000
# 3 31.7902 23.5838 90.0698 0.0000 4.7741 0.0000
# 4 0.0000 0.0000 0.0000 37.8048 0.0000 9.3214
# 5 18.7328 14.1160 4.7741 0.0000 30.9896 0.0000
# 6 0.0000 0.0000 0.0000 9.3214 0.0000 18.1154
#
#
#
# Elastic Compliance Matrix: (Units=1/GPa)
#
#
# Indices 1 2 3 4 5 6 
#
# 1 0.025162 -0.006287 -0.006635 0.000000 -0.011324 0.000000
# 2 -0.006287 0.022704 -0.003407 0.000000 -0.006016 0.000000
# 3 -0.006635 -0.003407 0.014157 0.000000 0.003381 0.000000
# 4 0.000000 0.000000 0.000000 0.030295 0.000000 -0.015589
# 5 -0.011324 -0.006016 0.003381 0.000000 0.041334 0.000000
# 6 0.000000 0.000000 0.000000 -0.015589 0.000000 0.063223
#
#
# Mechanical properties :
#
#
# Convention : Reuss Voigt Hill
#
# Bulk Modulus (GPa) = 34.05287 41.95961 38.00624
# Shear Modulus (GPa) = 20.89245 26.02628 23.45936
#
# Velocity S-wave (km/s) = 3.19046 3.56094 3.38078
# Velocity P-wave (km/s) = 5.49209 6.11149 5.81005
#
# Compressibility (1/GPa) = 0.02936610
#
# Stress axis : x y z
#
# Youngs Moduli (GPa) = 39.74178 44.04562 70.63632
#
# Poissons Ratio (x) = 0.27692 0.46865
# Poissons Ratio (y) = 0.24986 0.24064
# Poissons Ratio (z) = 0.26367 0.15005
#
# Static dielectric constant tensor:
#      x y z
#    x 3.697130 0.000000 0.376930 
#    y 0.000000 3.441990 0.000000 
#    z 0.376930 0.000000 3.778260 
# 
# 
# High freq. dielectric constant tensor:
#      x y z
#    x 1.791650 0.000000 0.023260 
#    y 0.000000 1.782640 0.000000 
#    z 0.023260 0.000000 1.803910 
# 
# From -- ./inp_files/49130.got.cif
#   From: 2010.06.25/outbox.cif.g09.slc.cpg/sg15_25_cif.got.tgz:49130.got - 2010.06.28 07:06:18.
