data_PCOD8133968
_publ_section_title
;
Structure prediction by ZEFSAII (Michael W. Deem and Ramdas Pophale) SiO2 
 PCOD8133968
Probable space group: C 2/C
;
_chemical_formula_sum "Si O2"
_cell_formula_units_Z 64
_cell_length_a 11.561185
_cell_length_b 16.789811
_cell_length_c 17.164710
_cell_angle_alpha 90.000000
_cell_angle_beta 99.641350
_cell_angle_gamma 90.000000
_cell_volume 3284.782886
_symmetry_space_group_name_H-M "C 2/C"
_symmetry_group_IT_number 15
_symmetry_cell_setting 'monoclinic'
loop_
_space_group_symop_operation_xyz
x,y,z
-x,y,1/2-z
-x,-y,-z
x,-y,1/2+z
1/2+x,1/2+y,z
1/2-x,1/2+y,1/2-z
1/2-x,1/2-y,-z
1/2+x,1/2-y,1/2+z
loop_
_atom_site_type_symbol
_atom_site_label
_atom_site_fract_x
_atom_site_fract_y
_atom_site_fract_z
Si Si1 0.951275 0.595553 0.576707
Si Si2 0.168700 0.115974 0.116215
Si Si3 0.545439 0.532890 0.668442
Si Si4 0.318771 0.596991 0.565551
Si Si5 0.201165 0.603075 0.792466
Si Si6 0.634302 0.037386 0.086976
Si Si7 0.629139 0.066832 0.249598
Si Si8 0.840520 0.702855 0.858651
O O1 0.853301 0.616442 0.629108
O O2 0.884379 0.597218 0.486606
O O3 0.011727 0.508637 0.593539
O O4 0.048323 0.663393 0.587604
O O5 0.070964 0.052993 0.132695
O O6 0.290344 0.099499 0.173281
O O7 0.131665 0.204209 0.135333
O O8 0.189750 0.109390 0.027120
O O9 0.500000 0.517569 0.750000
O O10 0.451679 0.579527 0.605588
O O11 0.660632 0.587662 0.683786
O O12 0.238836 0.523127 0.581109
O O13 0.274652 0.676658 0.605079
O O14 0.134236 0.529139 0.745874
O O15 0.176073 0.677928 0.733518
O O16 0.668218 0.091501 0.166145
O O17 0.500000 0.099947 0.250000
#
# Coordination Sequence:
#
# PCOD8133968 Si02
#       8
#     8   8   8   8   8   8   8   8
#     4  10  20  33  62  89 118 152 196 255 307 364
#     4  11  26  38  59  93 123 163 206 256 312 362
#     4  11  22  41  64  88 120 167 211 253 299 379
#     4  11  21  41  63  87 124 162 209 249 305 373
#     4  11  19  38  63  89 116 157 210 242 306 369
#     4  10  19  34  62  93 116 149 205 256 297 358
#     4  11  19  36  59  89 121 153 200 255 301 355
#     4  11  22  40  60  89 126 161 202 257 312 369
#
# _framework density 19.483784
#
# number of rings (size 3 to 8) (size 9 to 14) (size 15 to 20)
#    0.000    1.250    5.000    3.375    3.500    1.000 
#    2.250    0.000    0.000    2.250    0.000    0.000 
#    0.000    0.000    0.000    0.000    0.000    0.000 
#
# Total GULP energy -396814.219842 kJ/mol
# GULP energy per Si atom -12400.444370 kJ/mol
# Density = 1.943944 g / cm^3
# Si number density = 19.483784 Si / 1000 Ang^3
#
#
#
# Elastic Constant Matrix: (Units=GPa)
#
#
# Indices 1 2 3 4 5 6 
#
# 1 77.9680 -2.3190 24.2322 0.0000 -2.1317 0.0000
# 2 -2.3190 41.5663 16.6898 0.0000 -1.6445 0.0000
# 3 24.2322 16.6898 154.9866 0.0000 -10.8310 0.0000
# 4 0.0000 0.0000 0.0000 -16.9886 0.0000 -0.4743
# 5 -2.1317 -1.6445 -10.8310 0.0000 34.6739 0.0000
# 6 0.0000 0.0000 0.0000 -0.4743 0.0000 8.4396
#
#
#
# Elastic Compliance Matrix: (Units=1/GPa)
#
#
# Indices 1 2 3 4 5 6 
#
# 1 0.013594 0.001687 -0.002293 0.000000 0.000199 0.000000
# 2 0.001687 0.025359 -0.002968 0.000000 0.000379 0.000000
# 3 -0.002293 -0.002968 0.007269 0.000000 0.001989 0.000000
# 4 0.000000 0.000000 0.000000 -0.058771 0.000000 -0.003303
# 5 0.000199 0.000379 0.001989 0.000000 0.029492 0.000000
# 6 0.000000 0.000000 0.000000 -0.003303 0.000000 0.118304
#
#
# Mechanical properties :
#
#
# Convention : Reuss Voigt Hill
#
# Bulk Modulus (GPa) = 25.59250 39.08078 32.33664
# Shear Modulus (GPa) = 32.17086 20.95283 26.56184
#
# Velocity S-wave (km/s) = 4.06786 3.28288 3.69627
# Velocity P-wave (km/s) = 5.93524 5.87124 5.90332
#
# Compressibility (1/GPa) = 0.03907395
#
# Stress axis : x y z
#
# Youngs Moduli (GPa) = 73.56120 39.43406 137.56443
#
# Poissons Ratio (x) = -0.06653 0.31546
# Poissons Ratio (y) = -0.12410 0.40830
# Poissons Ratio (z) = 0.16869 0.11704
#
# Static dielectric constant tensor:
#      x y z
#    x 3.644710 0.000000 -0.087140 
#    y 0.000000 3.238240 0.000000 
#    z -0.087140 0.000000 3.878070 
# 
# 
# High freq. dielectric constant tensor:
#      x y z
#    x 1.761930 0.000000 -0.002820 
#    y 0.000000 1.713900 0.000000 
#    z -0.002820 0.000000 1.784910 
# 
# From -- ./inp_files/199214.got.cif
#   From: 2010.06.25/outbox.cif.g09.slc.cpg/sg15_100_cif.got.tgz:199214.got - 2010.06.28 07:06:18.
