data_PCOD8133770
_publ_section_title
;
Structure prediction by ZEFSAII (Michael W. Deem and Ramdas Pophale) SiO2 
 PCOD8133770
Probable space group: C 2/C
;
_chemical_formula_sum "Si O2"
_cell_formula_units_Z 56
_cell_length_a 11.895819
_cell_length_b 17.410815
_cell_length_c 14.627947
_cell_angle_alpha 90.000000
_cell_angle_beta 64.595630
_cell_angle_gamma 90.000000
_cell_volume 2736.718165
_symmetry_space_group_name_H-M "C 2/C"
_symmetry_group_IT_number 15
_symmetry_cell_setting 'monoclinic'
loop_
_space_group_symop_operation_xyz
x,y,z
-x,y,1/2-z
-x,-y,-z
x,-y,1/2+z
1/2+x,1/2+y,z
1/2-x,1/2+y,1/2-z
1/2-x,1/2-y,-z
1/2+x,1/2-y,1/2+z
loop_
_atom_site_type_symbol
_atom_site_label
_atom_site_fract_x
_atom_site_fract_y
_atom_site_fract_z
Si Si1 0.135381 0.163356 0.028556
Si Si2 0.015641 0.012650 0.137716
Si Si3 0.414926 0.957652 0.131272
Si Si4 0.274926 0.434145 0.148696
Si Si5 0.095689 0.328835 0.996991
Si Si6 0.726323 0.961404 0.504400
Si Si7 0.482645 0.878083 0.857481
O O1 0.040051 0.099718 0.098238
O O2 0.256279 0.157589 0.051667
O O3 0.176129 0.146917 0.908531
O O4 0.069232 0.246137 0.053531
O O5 0.000000 0.007581 0.250000
O O6 0.890481 0.988138 0.132444
O O7 0.127804 0.954854 0.069875
O O8 0.313055 0.920349 0.234217
O O9 0.469709 0.033812 0.157795
O O10 0.517872 0.892454 0.079052
O O11 0.352394 0.985461 0.058263
O O12 0.203054 0.473908 0.089362
O O13 0.056454 0.325974 0.903938
O O14 0.665264 0.881802 0.563717
O O15 0.500000 0.843312 0.750000
#
# Coordination Sequence:
#
# PCOD8133770 Si02
#       7
#     8   8   8   8   8   8   8
#     4  10  22  42  58  84 124 163 196 242 297 366
#     4  11  21  37  62  89 118 155 203 252 302 352
#     4  11  20  35  61  92 118 150 201 253 303 350
#     4  11  21  36  63  88 117 156 202 255 300 350
#     4  10  23  40  59  86 127 158 197 245 300 367
#     4  10  19  34  56  88 118 145 190 251 301 347
#     4  11  20  34  62  91 118 154 198 253 303 350
#
# _framework density 20.462465999999999
#
# number of rings (size 3 to 8) (size 9 to 14) (size 15 to 20)
#    0.000    1.429    2.857    6.857    0.000    0.000 
#    5.143    0.714    0.000    6.857    0.000    0.000 
#    0.000    0.000    0.000    0.000    0.000    0.000 
#
# Total GULP energy -347053.444933 kJ/mol
# GULP energy per Si atom -12394.765890 kJ/mol
# Density = 2.041589 g / cm^3
# Si number density = 20.462466 Si / 1000 Ang^3
#
#
#
# Elastic Constant Matrix: (Units=GPa)
#
#
# Indices 1 2 3 4 5 6 
#
# 1 96.0558 46.9770 54.1806 0.0000 7.9079 0.0000
# 2 46.9770 65.3844 23.4659 0.0000 3.8282 0.0000
# 3 54.1806 23.4659 122.4666 0.0000 1.3813 0.0000
# 4 0.0000 0.0000 0.0000 27.6428 0.0000 -7.9279
# 5 7.9079 3.8282 1.3813 0.0000 31.7086 0.0000
# 6 0.0000 0.0000 0.0000 -7.9279 0.0000 35.6927
#
#
#
# Elastic Compliance Matrix: (Units=1/GPa)
#
#
# Indices 1 2 3 4 5 6 
#
# 1 0.020306 -0.012010 -0.006645 0.000000 -0.003325 0.000000
# 2 -0.012010 0.023636 0.000783 0.000000 0.000107 0.000000
# 3 -0.006645 0.000783 0.010943 0.000000 0.001086 0.000000
# 4 0.000000 0.000000 0.000000 0.038637 0.000000 0.008582
# 5 -0.003325 0.000107 0.001086 0.000000 0.032306 0.000000
# 6 0.000000 0.000000 0.000000 0.008582 0.000000 0.029923
#
#
# Mechanical properties :
#
#
# Convention : Reuss Voigt Hill
#
# Bulk Modulus (GPa) = 52.24249 59.23929 55.74089
# Shear Modulus (GPa) = 25.26862 29.62771 27.44817
#
# Velocity S-wave (km/s) = 3.51789 3.80926 3.66647
# Velocity P-wave (km/s) = 6.48746 6.95416 6.72486
#
# Compressibility (1/GPa) = 0.01914151
#
# Stress axis : x y z
#
# Youngs Moduli (GPa) = 49.24674 42.30913 91.38329
#
# Poissons Ratio (x) = 0.50813 0.60723
# Poissons Ratio (y) = 0.59145 -0.07158
# Poissons Ratio (z) = 0.32724 -0.03314
#
# Static dielectric constant tensor:
#      x y z
#    x 3.949340 0.000000 0.024100 
#    y 0.000000 3.411330 0.000000 
#    z 0.024100 0.000000 4.017340 
# 
# 
# High freq. dielectric constant tensor:
#      x y z
#    x 1.815170 0.000000 0.006710 
#    y 0.000000 1.757200 0.000000 
#    z 0.006710 0.000000 1.808430 
# 
# From -- ./inp_files/146669.got.cif
#   From: 2010.06.25/outbox.cif.g09.slc.cpg/sg15_74_cif.got.tgz:146669.got - 2010.06.28 07:06:18.
