data_PCOD8133398
_publ_section_title
;
Structure prediction by ZEFSAII (Michael W. Deem and Ramdas Pophale) SiO2 
 PCOD8133398
Probable space group: C 2/C
;
_chemical_formula_sum "Si O2"
_cell_formula_units_Z 44
_cell_length_a 20.510674
_cell_length_b 19.590663
_cell_length_c 13.506434
_cell_angle_alpha 90.000000
_cell_angle_beta 154.753497
_cell_angle_gamma 90.000000
_cell_volume 2314.741967
_symmetry_space_group_name_H-M "C 2/C"
_symmetry_group_IT_number 15
_symmetry_cell_setting 'monoclinic'
loop_
_space_group_symop_operation_xyz
x,y,z
-x,y,1/2-z
-x,-y,-z
x,-y,1/2+z
1/2+x,1/2+y,z
1/2-x,1/2+y,1/2-z
1/2-x,1/2-y,-z
1/2+x,1/2-y,1/2+z
loop_
_atom_site_type_symbol
_atom_site_label
_atom_site_fract_x
_atom_site_fract_y
_atom_site_fract_z
Si Si1 0.109361 0.970028 0.257100
Si Si2 0.929979 0.550287 0.259192
Si Si3 0.000000 0.082671 0.250000
Si Si4 0.752825 0.330206 0.014129
Si Si5 0.674428 0.413663 0.715529
Si Si6 0.018232 0.593992 0.960853
O O1 0.245746 0.937393 0.508742
O O2 0.192179 0.007844 0.278136
O O3 0.009871 0.031056 0.170748
O O4 0.994414 0.909288 0.066594
O O5 0.007203 0.592362 0.455282
O O6 0.000000 0.573365 0.250000
O O7 0.953153 0.470928 0.312956
O O8 0.146534 0.133874 0.452591
O O9 0.927592 0.344315 0.285506
O O10 0.750000 0.250000 0.000000
O O11 0.696468 0.359035 0.832108
O O12 0.801297 0.398681 0.807594
#
# Coordination Sequence:
#
# PCOD8133398 Si02
#       6
#     8   8   4   8   8   8
#     4  10  19  33  54  87 120 147 189 245 298 345
#     4  11  20  34  57  87 122 148 189 244 297 357
#     4  10  20  34  52  86 114 152 192 242 288 344
#     4  11  24  38  57  85 122 158 198 240 284 358
#     4  10  20  34  57  82 120 155 190 236 297 353
#     4  11  21  35  57  85 118 158 190 235 301 343
#
# _framework density 19.008597999999999
#
# number of rings (size 3 to 8) (size 9 to 14) (size 15 to 20)
#    0.000    1.455    5.455    1.636    5.091    1.455 
#    0.000    0.000    0.000    1.091    2.364    0.000 
#    0.000    0.000    0.000    0.000    0.000    0.000 
#
# Total GULP energy -272600.040967 kJ/mol
# GULP energy per Si atom -12390.910953 kJ/mol
# Density = 1.896533 g / cm^3
# Si number density = 19.008598 Si / 1000 Ang^3
#
#
#
# Elastic Constant Matrix: (Units=GPa)
#
#
# Indices 1 2 3 4 5 6 
#
# 1 108.1569 35.9335 44.2914 0.0000 -0.8094 0.0000
# 2 35.9335 86.9618 58.8671 0.0000 -5.7908 0.0000
# 3 44.2914 58.8671 140.8449 0.0000 1.4618 0.0000
# 4 0.0000 0.0000 0.0000 22.5231 0.0000 -0.6177
# 5 -0.8094 -5.7908 1.4618 0.0000 27.4241 0.0000
# 6 0.0000 0.0000 0.0000 -0.6177 0.0000 12.8889
#
#
#
# Elastic Compliance Matrix: (Units=1/GPa)
#
#
# Indices 1 2 3 4 5 6 
#
# 1 0.011192 -0.003149 -0.002201 0.000000 -0.000217 0.000000
# 2 -0.003149 0.017317 -0.006288 0.000000 0.003899 0.000000
# 3 -0.002201 -0.006288 0.010440 0.000000 -0.001949 0.000000
# 4 0.000000 0.000000 0.000000 0.044457 0.000000 0.002131
# 5 -0.000217 0.003899 -0.001949 0.000000 0.037385 0.000000
# 6 0.000000 0.000000 0.000000 0.002131 0.000000 0.077688
#
#
# Mechanical properties :
#
#
# Convention : Reuss Voigt Hill
#
# Bulk Modulus (GPa) = 63.80403 68.23862 66.02133
# Shear Modulus (GPa) = 22.02843 25.69198 23.86021
#
# Velocity S-wave (km/s) = 3.40791 3.68040 3.54677
# Velocity P-wave (km/s) = 7.00884 7.35100 7.18196
#
# Compressibility (1/GPa) = 0.01567299
#
# Stress axis : x y z
#
# Youngs Moduli (GPa) = 89.35125 57.74835 95.78179
#
# Poissons Ratio (x) = 0.18185 0.21082
# Poissons Ratio (y) = 0.28138 0.60225
# Poissons Ratio (z) = 0.19667 0.36311
#
# Static dielectric constant tensor:
#      x y z
#    x 3.741690 0.000000 0.154880 
#    y 0.000000 2.948910 0.000000 
#    z 0.154880 0.000000 3.671630 
# 
# 
# High freq. dielectric constant tensor:
#      x y z
#    x 1.747210 0.000000 0.005740 
#    y 0.000000 1.670620 0.000000 
#    z 0.005740 0.000000 1.753040 
# 
# From -- ./inp_files/114149.got.cif
#   From: 2010.06.25/outbox.cif.g09.slc.cpg/sg15_58_cif.got.tgz:114149.got - 2010.06.28 07:06:18.
