data_PCOD8133713
_publ_section_title
;
Structure prediction by ZEFSAII (Michael W. Deem and Ramdas Pophale) SiO2 
 PCOD8133713
Probable space group: C 2/C
;
_chemical_formula_sum "Si O2"
_cell_formula_units_Z 56
_cell_length_a 9.144160
_cell_length_b 13.933831
_cell_length_c 21.560345
_cell_angle_alpha 90.000000
_cell_angle_beta 95.296171
_cell_angle_gamma 90.000000
_cell_volume 2735.344509
_symmetry_space_group_name_H-M "C 2/C"
_symmetry_group_IT_number 15
_symmetry_cell_setting 'monoclinic'
loop_
_space_group_symop_operation_xyz
x,y,z
-x,y,1/2-z
-x,-y,-z
x,-y,1/2+z
1/2+x,1/2+y,z
1/2-x,1/2+y,1/2-z
1/2-x,1/2-y,-z
1/2+x,1/2-y,1/2+z
loop_
_atom_site_type_symbol
_atom_site_label
_atom_site_fract_x
_atom_site_fract_y
_atom_site_fract_z
Si Si1 0.894897 0.275398 0.969753
Si Si2 0.900056 0.299115 0.693424
Si Si3 0.104474 0.569907 0.133345
Si Si4 0.428438 0.465603 0.680266
Si Si5 0.079898 0.138285 0.905408
Si Si6 0.907152 0.625184 0.922156
Si Si7 0.427445 0.727071 0.311288
O O1 0.854985 0.340386 0.909051
O O2 0.966509 0.172552 0.953721
O O3 0.750000 0.250000 0.000000
O O4 0.003782 0.333699 0.017505
O O5 0.892571 0.229937 0.635541
O O6 0.734788 0.313802 0.711669
O O7 0.000000 0.249754 0.750000
O O8 0.978887 0.399046 0.677336
O O9 0.250548 0.534321 0.175657
O O10 0.036763 0.481528 0.091898
O O11 0.500000 0.486816 0.750000
O O12 0.483923 0.547479 0.634777
O O13 0.481811 0.362476 0.657421
O O14 0.239583 0.114706 0.939720
O O15 0.926014 0.688677 0.861050
O O16 0.500000 0.764485 0.250000
#
# Coordination Sequence:
#
# PCOD8133713 Si02
#       7
#     8   8   8   8   8   8   8
#     4  11  22  38  59  84 114 147 190 240 282 333
#     4  10  19  34  55  80 111 146 181 228 284 339
#     4  10  22  38  57  84 113 147 191 232 280 339
#     4  10  19  37  59  83 115 146 183 235 284 337
#     4   9  21  37  57  81 109 148 190 228 282 340
#     4  10  21  40  59  79 112 153 189 231 282 335
#     4  10  21  36  56  83 114 147 186 232 281 337
#
# _framework density 20.472740999999999
#
# number of rings (size 3 to 8) (size 9 to 14) (size 15 to 20)
#    0.000    2.000    0.000    3.857    0.000    2.857 
#    0.000   10.714    0.000    0.000    0.000    0.000 
#    0.000    0.000    0.000    0.000    0.000    0.000 
#
# Total GULP energy -347152.786198 kJ/mol
# GULP energy per Si atom -12398.313793 kJ/mol
# Density = 2.042614 g / cm^3
# Si number density = 20.472741 Si / 1000 Ang^3
#
#
#
# Elastic Constant Matrix: (Units=GPa)
#
#
# Indices 1 2 3 4 5 6 
#
# 1 100.2709 16.8571 39.7286 0.0000 -10.8950 0.0000
# 2 16.8571 79.6172 8.8893 0.0000 -10.0047 0.0000
# 3 39.7286 8.8893 72.4530 0.0000 -1.6927 0.0000
# 4 0.0000 0.0000 0.0000 33.5210 0.0000 4.8280
# 5 -10.8950 -10.0047 -1.6927 0.0000 39.7162 0.0000
# 6 0.0000 0.0000 0.0000 4.8280 0.0000 16.4942
#
#
#
# Elastic Compliance Matrix: (Units=1/GPa)
#
#
# Indices 1 2 3 4 5 6 
#
# 1 0.013371 -0.001673 -0.007058 0.000000 0.002946 0.000000
# 2 -0.001673 0.013349 -0.000653 0.000000 0.002876 0.000000
# 3 -0.007058 -0.000653 0.017721 0.000000 -0.001345 0.000000
# 4 0.000000 0.000000 0.000000 0.031145 0.000000 -0.009116
# 5 0.002946 0.002876 -0.001345 0.000000 0.026654 0.000000
# 6 0.000000 0.000000 0.000000 -0.009116 0.000000 0.063296
#
#
# Mechanical properties :
#
#
# Convention : Reuss Voigt Hill
#
# Bulk Modulus (GPa) = 38.95205 42.58792 40.76998
# Shear Modulus (GPa) = 25.92566 30.40403 28.16485
#
# Velocity S-wave (km/s) = 3.56244 3.85788 3.71310
# Velocity P-wave (km/s) = 5.99908 6.37901 6.19196
#
# Compressibility (1/GPa) = 0.02567259
#
# Stress axis : x y z
#
# Youngs Moduli (GPa) = 74.79133 74.91428 56.43130
#
# Poissons Ratio (x) = 0.12531 0.39826
# Poissons Ratio (y) = 0.12511 0.03687
# Poissons Ratio (z) = 0.52784 0.04894
#
# Static dielectric constant tensor:
#      x y z
#    x 4.019980 0.000000 -0.012570 
#    y 0.000000 3.802170 0.000000 
#    z -0.012570 0.000000 3.611750 
# 
# 
# High freq. dielectric constant tensor:
#      x y z
#    x 1.805050 0.000000 0.005990 
#    y 0.000000 1.801160 0.000000 
#    z 0.005990 0.000000 1.794320 
# 
# From -- ./inp_files/231561.got.cif
#   From: 2010.06.25/outbox.cif.g09.slc.cpg/sg15_116_cif.got.tgz:231561.got - 2010.06.28 07:06:18.
