data_PCOD8133231
_publ_section_title
;
Structure prediction by ZEFSAII (Michael W. Deem and Ramdas Pophale) SiO2 
 PCOD8133231
Probable space group: C 2/C
;
_chemical_formula_sum "Si O2"
_cell_formula_units_Z 48
_cell_length_a 31.206794
_cell_length_b 10.936134
_cell_length_c 10.844049
_cell_angle_alpha 90.000000
_cell_angle_beta 144.043693
_cell_angle_gamma 90.000000
_cell_volume 2173.036033
_symmetry_space_group_name_H-M "C 2/C"
_symmetry_group_IT_number 15
_symmetry_cell_setting 'monoclinic'
loop_
_space_group_symop_operation_xyz
x,y,z
-x,y,1/2-z
-x,-y,-z
x,-y,1/2+z
1/2+x,1/2+y,z
1/2-x,1/2+y,1/2-z
1/2-x,1/2-y,-z
1/2+x,1/2-y,1/2+z
loop_
_atom_site_type_symbol
_atom_site_label
_atom_site_fract_x
_atom_site_fract_y
_atom_site_fract_z
Si Si1 0.678943 0.657124 0.712787
Si Si2 0.204659 0.068536 0.402073
Si Si3 0.579984 0.466981 0.791186
Si Si4 0.552278 0.248454 0.258637
Si Si5 0.291611 0.776019 0.286637
Si Si6 0.968196 0.754521 0.551515
O O1 0.724180 0.572379 0.913998
O O2 0.635391 0.558618 0.530157
O O3 0.733598 0.741928 0.762359
O O4 0.619499 0.740256 0.642646
O O5 0.122311 0.072008 0.264693
O O6 0.266061 0.111996 0.641126
O O7 0.206028 0.151388 0.283656
O O8 0.558048 0.607917 0.742558
O O9 0.506643 0.387859 0.635069
O O10 0.500000 0.218247 0.250000
O O11 0.630305 0.190971 0.474092
O O12 0.520071 0.188798 0.055038
O O13 0.000000 0.686498 0.750000
#
# Coordination Sequence:
#
# PCOD8133231 Si02
#       6
#     8   8   8   8   8   8
#     4  10  19  35  55  82 123 159 196 235 299 358
#     4  10  19  38  55  81 128 160 196 247 300 360
#     4  10  19  32  57  88 118 159 178 241 319 370
#     4  12  21  34  58  89 123 151 206 247 299 366
#     4  10  23  34  55  87 115 164 205 242 295 364
#     4  10  21  33  53  88 123 158 179 236 318 376
#
# _framework density 22.088909999999998
#
# number of rings (size 3 to 8) (size 9 to 14) (size 15 to 20)
#    0.000    1.667    3.333    3.000    0.000    2.000 
#    0.000    0.000    0.000    1.000    0.000    8.167 
#    0.000    0.000    0.000    0.000    0.000    0.000 
#
# Total GULP energy -297398.795208 kJ/mol
# GULP energy per Si atom -12391.616467 kJ/mol
# Density = 2.203863 g / cm^3
# Si number density = 22.088910 Si / 1000 Ang^3
#
#
#
# Elastic Constant Matrix: (Units=GPa)
#
#
# Indices 1 2 3 4 5 6 
#
# 1 185.8465 20.5523 61.5674 0.0000 1.8325 0.0000
# 2 20.5523 7.3849 12.7478 0.0000 1.4710 0.0000
# 3 61.5674 12.7478 126.6323 0.0000 -7.9563 0.0000
# 4 0.0000 0.0000 0.0000 24.8845 0.0000 1.6590
# 5 1.8325 1.4710 -7.9563 0.0000 43.6615 0.0000
# 6 0.0000 0.0000 0.0000 1.6590 0.0000 24.4636
#
#
#
# Elastic Compliance Matrix: (Units=1/GPa)
#
#
# Indices 1 2 3 4 5 6 
#
# 1 0.008187 -0.019236 -0.002049 0.000000 -0.000069 0.000000
# 2 -0.019236 0.212360 -0.012568 0.000000 -0.008638 0.000000
# 3 -0.002049 -0.012568 0.010308 0.000000 0.002388 0.000000
# 4 0.000000 0.000000 0.000000 0.040368 0.000000 -0.002738
# 5 -0.000069 -0.008638 0.002388 0.000000 0.023632 0.000000
# 6 0.000000 0.000000 0.000000 -0.002738 0.000000 0.041063
#
#
# Mechanical properties :
#
#
# Convention : Reuss Voigt Hill
#
# Bulk Modulus (GPa) = 6.12930 56.62207 31.37569
# Shear Modulus (GPa) = 10.91685 33.60167 22.25926
#
# Velocity S-wave (km/s) = 2.22552 3.90449 3.17789
# Velocity P-wave (km/s) = 3.06346 6.78351 5.26312
#
# Compressibility (1/GPa) = 0.16315085
#
# Stress axis : x y z
#
# Youngs Moduli (GPa) = 122.14002 4.70898 97.01109
#
# Poissons Ratio (x) = 0.09058 0.19873
# Poissons Ratio (y) = 2.34944 1.21927
# Poissons Ratio (z) = 0.25021 0.05918
#
# Static dielectric constant tensor:
#      x y z
#    x 4.608040 0.000000 -0.297710 
#    y 0.000000 3.223570 0.000000 
#    z -0.297710 0.000000 4.303260 
# 
# 
# High freq. dielectric constant tensor:
#      x y z
#    x 1.901840 0.000000 -0.013950 
#    y 0.000000 1.791660 0.000000 
#    z -0.013950 0.000000 1.876150 
# 
# From -- ./inp_files/103663.got.cif
#   From: 2010.06.25/outbox.cif.g09.slc.cpg/sg15_52_cif.got.tgz:103663.got - 2010.06.28 07:06:18.
