data_PCOD8133548
_publ_section_title
;
Structure prediction by ZEFSAII (Michael W. Deem and Ramdas Pophale) SiO2 
 PCOD8133548
Probable space group: C 2/C
;
_chemical_formula_sum "Si O2"
_cell_formula_units_Z 52
_cell_length_a 16.285926
_cell_length_b 14.658401
_cell_length_c 20.943120
_cell_angle_alpha 90.000000
_cell_angle_beta 151.767314
_cell_angle_gamma 90.000000
_cell_volume 2365.106235
_symmetry_space_group_name_H-M "C 2/C"
_symmetry_group_IT_number 15
_symmetry_cell_setting 'monoclinic'
loop_
_space_group_symop_operation_xyz
x,y,z
-x,y,1/2-z
-x,-y,-z
x,-y,1/2+z
1/2+x,1/2+y,z
1/2-x,1/2+y,1/2-z
1/2-x,1/2-y,-z
1/2+x,1/2-y,1/2+z
loop_
_atom_site_type_symbol
_atom_site_label
_atom_site_fract_x
_atom_site_fract_y
_atom_site_fract_z
Si Si1 0.803896 0.697791 0.230928
Si Si2 0.794949 0.451771 0.051821
Si Si3 0.045880 0.348938 0.010703
Si Si4 0.051528 0.887584 0.641926
Si Si5 0.214374 0.462280 0.595637
Si Si6 0.552140 0.771802 0.352912
Si Si7 0.000000 0.389246 0.750000
O O1 0.941429 0.706734 0.383736
O O2 0.661731 0.618052 0.151638
O O3 0.901252 0.673544 0.232585
O O4 0.703887 0.791769 0.148387
O O5 0.649546 0.417270 0.003356
O O6 0.706876 0.452885 0.921363
O O7 0.961624 0.382585 0.160195
O O8 0.860659 0.550126 0.117054
O O9 0.916101 0.377359 0.979285
O O10 0.115632 0.441803 0.027836
O O11 0.135835 0.960224 0.748372
O O12 0.064192 0.781526 0.675031
O O13 0.500000 0.727747 0.250000
O O14 0.750000 0.750000 0.500000
#
# Coordination Sequence:
#
# PCOD8133548 Si02
#       7
#     8   8   8   8   8   8   4
#     4  11  25  46  64  96 129 173 224 271 323 392
#     4  11  21  39  64  96 132 172 206 275 331 391
#     4  10  23  44  70  94 131 172 218 272 322 386
#     4  10  22  39  65  98 128 161 222 268 332 396
#     4  10  20  42  69  96 127 169 215 269 328 390
#     4  10  19  33  58  94 126 159 198 256 330 390
#     4  12  26  44  62  86 140 176 224 268 318 384
#
# _framework density 21.986328
#
# number of rings (size 3 to 8) (size 9 to 14) (size 15 to 20)
#    0.000    1.538    2.308    3.231    0.000    6.154 
#    5.538    0.000    0.000    0.000    0.000    0.000 
#    0.000    0.000    0.000    0.000    0.000    0.000 
#
# Total GULP energy -322203.625126 kJ/mol
# GULP energy per Si atom -12392.447120 kJ/mol
# Density = 2.193629 g / cm^3
# Si number density = 21.986328 Si / 1000 Ang^3
#
#
#
# Elastic Constant Matrix: (Units=GPa)
#
#
# Indices 1 2 3 4 5 6 
#
# 1 117.8482 14.3842 27.4146 0.0044 2.2400 0.0022
# 2 14.3842 75.0428 42.8361 0.0026 3.3789 -0.0006
# 3 27.4146 42.8361 98.2320 0.0149 -2.0326 0.0081
# 4 0.0044 0.0026 0.0149 36.8247 0.0067 6.7248
# 5 2.2400 3.3789 -2.0326 0.0067 30.7238 0.0038
# 6 0.0022 -0.0006 0.0081 6.7248 0.0038 19.1568
#
#
#
# Elastic Compliance Matrix: (Units=1/GPa)
#
#
# Indices 1 2 3 4 5 6 
#
# 1 0.009102 -0.000333 -0.002411 0.000000 -0.000787 0.000000
# 2 -0.000333 0.017943 -0.007782 0.000002 -0.002464 0.000004
# 3 -0.002411 -0.007782 0.014288 -0.000004 0.001977 -0.000005
# 4 0.000000 0.000002 -0.000004 0.029016 -0.000006 -0.010186
# 5 -0.000787 -0.002464 0.001977 -0.000006 0.033007 -0.000005
# 6 0.000000 0.000004 -0.000005 -0.010186 -0.000005 0.055777
#
#
# Mechanical properties :
#
#
# Convention : Reuss Voigt Hill
#
# Bulk Modulus (GPa) = 49.31158 51.15473 50.23316
# Shear Modulus (GPa) = 26.74586 31.10693 28.92639
#
# Velocity S-wave (km/s) = 3.49159 3.76550 3.63113
# Velocity P-wave (km/s) = 6.22349 6.49788 6.36217
#
# Compressibility (1/GPa) = 0.02027921
#
# Stress axis : x y z
#
# Youngs Moduli (GPa) = 109.86591 55.73243 69.99104
#
# Poissons Ratio (x) = 0.01855 0.16877
# Poissons Ratio (y) = 0.03656 0.54470
# Poissons Ratio (z) = 0.26492 0.43374
#
# Static dielectric constant tensor:
#      x y z
#    x 4.081070 -0.000060 0.064570 
#    y -0.000060 4.090660 -0.000040 
#    z 0.064570 -0.000040 3.883310 
# 
# 
# High freq. dielectric constant tensor:
#      x y z
#    x 1.864380 0.000000 0.000900 
#    y 0.000000 1.847370 0.000000 
#    z 0.000900 0.000000 1.861900 
# 
# From -- ./inp_files/249127.got.cif
#   From: 2010.06.25/outbox.cif.g09.slc.cpg/sg15_125_cif.got.tgz:249127.got - 2010.06.28 07:06:18.
