data_PCOD8133187
_publ_section_title
;
Structure prediction by ZEFSAII (Michael W. Deem and Ramdas Pophale) SiO2 
 PCOD8133187
Probable space group: C 2/C
;
_chemical_formula_sum "Si O2"
_cell_formula_units_Z 48
_cell_length_a 5.086746
_cell_length_b 21.982595
_cell_length_c 23.903067
_cell_angle_alpha 90.000000
_cell_angle_beta 119.303749
_cell_angle_gamma 90.000000
_cell_volume 2330.814311
_symmetry_space_group_name_H-M "C 2/C"
_symmetry_group_IT_number 15
_symmetry_cell_setting 'monoclinic'
loop_
_space_group_symop_operation_xyz
x,y,z
-x,y,1/2-z
-x,-y,-z
x,-y,1/2+z
1/2+x,1/2+y,z
1/2-x,1/2+y,1/2-z
1/2-x,1/2-y,-z
1/2+x,1/2-y,1/2+z
loop_
_atom_site_type_symbol
_atom_site_label
_atom_site_fract_x
_atom_site_fract_y
_atom_site_fract_z
Si Si1 0.498250 0.100596 0.084369
Si Si2 0.498476 0.184956 0.920869
Si Si3 0.465927 0.326836 0.563943
Si Si4 0.037375 0.526073 0.875696
Si Si5 0.338874 0.129532 0.790578
Si Si6 0.805230 0.919127 0.060147
O O1 0.307189 0.151811 0.095370
O O2 0.802894 0.133060 0.095007
O O3 0.538551 0.045770 0.133111
O O4 0.300665 0.071926 0.013999
O O5 0.493365 0.256942 0.916476
O O6 0.522661 0.161781 0.859877
O O7 0.207737 0.153176 0.922053
O O8 0.794384 0.164571 0.986864
O O9 0.382420 0.545512 0.898379
O O10 0.839029 0.557480 0.805790
O O11 0.947662 0.550526 0.927147
O O12 0.500000 0.144957 0.750000
O O13 0.000000 0.154035 0.750000
#
# Coordination Sequence:
#
# PCOD8133187 Si02
#       6
#     8   8   8   8   8   8
#     4  11  20  33  53  84 114 145 178 214 280 350
#     4   9  21  39  57  85 117 145 192 235 283 339
#     4  10  22  35  59  85 116 152 178 231 292 341
#     4  11  21  35  54  79 112 144 184 229 273 328
#     4  11  23  38  59  81 106 146 190 237 281 325
#     4  10  19  32  55  82 112 146 177 226 278 325
#
# _framework density 20.59366
#
# number of rings (size 3 to 8) (size 9 to 14) (size 15 to 20)
#    0.000    1.667    0.000    7.000    0.000   11.333 
#    0.000    0.000    0.000    6.000    0.000    0.000 
#    0.000    0.000    0.000    0.000    0.000    0.000 
#
# Total GULP energy -297408.473820 kJ/mol
# GULP energy per Si atom -12392.019742 kJ/mol
# Density = 2.054679 g / cm^3
# Si number density = 20.593660 Si / 1000 Ang^3
#
#
#
# Elastic Constant Matrix: (Units=GPa)
#
#
# Indices 1 2 3 4 5 6 
#
# 1 108.7873 28.7818 27.2646 0.0000 -17.1134 0.0000
# 2 28.7818 114.4914 34.9399 0.0000 -7.8850 0.0000
# 3 27.2646 34.9399 66.8314 0.0000 -16.3008 0.0000
# 4 0.0000 0.0000 0.0000 22.0251 0.0000 1.8379
# 5 -17.1134 -7.8850 -16.3008 0.0000 18.5787 0.0000
# 6 0.0000 0.0000 0.0000 1.8379 0.0000 33.6290
#
#
#
# Elastic Compliance Matrix: (Units=1/GPa)
#
#
# Indices 1 2 3 4 5 6 
#
# 1 0.011385 -0.001773 -0.001709 0.000000 0.008235 0.000000
# 2 -0.001773 0.010672 -0.005279 0.000000 -0.001736 0.000000
# 3 -0.001709 -0.005279 0.022252 0.000000 0.015709 0.000000
# 4 0.000000 0.000000 0.000000 0.045611 0.000000 -0.002493
# 5 0.008235 -0.001736 0.015709 0.000000 0.074457 0.000000
# 6 0.000000 0.000000 0.000000 -0.002493 0.000000 0.029872
#
#
# Mechanical properties :
#
#
# Convention : Reuss Voigt Hill
#
# Bulk Modulus (GPa) = 37.33369 52.45363 44.89366
# Shear Modulus (GPa) = 22.65519 28.12149 25.38834
#
# Velocity S-wave (km/s) = 3.32038 3.69933 3.51497
# Velocity P-wave (km/s) = 5.73306 6.61610 6.19035
#
# Compressibility (1/GPa) = 0.02678546
#
# Stress axis : x y z
#
# Youngs Moduli (GPa) = 87.83316 93.70669 44.94029
#
# Poissons Ratio (x) = 0.16618 0.07680
# Poissons Ratio (y) = 0.15577 0.23725
# Poissons Ratio (z) = 0.15010 0.49470
#
# Static dielectric constant tensor:
#      x y z
#    x 3.838010 0.000000 -0.041880 
#    y 0.000000 3.937880 0.000000 
#    z -0.041880 0.000000 3.470920 
# 
# 
# High freq. dielectric constant tensor:
#      x y z
#    x 1.817330 0.000000 -0.010800 
#    y 0.000000 1.806700 0.000000 
#    z -0.010800 0.000000 1.761070 
# 
# From -- ./inp_files/261612.got.cif
#   From: 2010.06.25/outbox.cif.g09.slc.cpg/sg15_131_cif.got.tgz:261612.got - 2010.06.28 07:06:18.
