data_PCOD8133852
_publ_section_title
;
Structure prediction by ZEFSAII (Michael W. Deem and Ramdas Pophale) SiO2 
 PCOD8133852
Probable space group: C 2/C
;
_chemical_formula_sum "Si O2"
_cell_formula_units_Z 64
_cell_length_a 16.578615
_cell_length_b 11.408074
_cell_length_c 17.485508
_cell_angle_alpha 90.000000
_cell_angle_beta 93.310010
_cell_angle_gamma 90.000000
_cell_volume 3301.518315
_symmetry_space_group_name_H-M "C 2/C"
_symmetry_group_IT_number 15
_symmetry_cell_setting 'monoclinic'
loop_
_space_group_symop_operation_xyz
x,y,z
-x,y,1/2-z
-x,-y,-z
x,-y,1/2+z
1/2+x,1/2+y,z
1/2-x,1/2+y,1/2-z
1/2-x,1/2-y,-z
1/2+x,1/2-y,1/2+z
loop_
_atom_site_type_symbol
_atom_site_label
_atom_site_fract_x
_atom_site_fract_y
_atom_site_fract_z
Si Si1 0.402471 0.356655 0.417303
Si Si2 0.414633 0.976344 0.528544
Si Si3 0.769234 0.295873 0.834918
Si Si4 0.924665 0.764544 0.089106
Si Si5 0.332897 0.593450 0.465567
Si Si6 0.786489 0.460398 0.408764
Si Si7 0.335366 0.224211 0.546701
Si Si8 0.767378 0.740976 0.162165
O O1 0.334573 0.304902 0.356817
O O2 0.490915 0.329710 0.386691
O O3 0.385519 0.495479 0.423848
O O4 0.401434 0.296761 0.502017
O O5 0.430520 0.877083 0.592648
O O6 0.365094 0.918263 0.457523
O O7 0.500000 0.000000 0.500000
O O8 0.364007 0.089435 0.554917
O O9 0.803256 0.414509 0.872634
O O10 0.680936 0.266177 0.867058
O O11 0.757239 0.315746 0.744400
O O12 0.859084 0.784193 0.151854
O O13 0.893304 0.810708 0.004683
O O14 0.287342 0.532914 0.534543
O O15 0.267250 0.653075 0.404980
O O16 0.778992 0.364504 0.341722
O O17 0.250000 0.250000 0.500000
#
# Coordination Sequence:
#
# PCOD8133852 Si02
#       8
#     8   8   8   8   8   8   8   8
#     4  11  21  37  61  90 116 155 204 252 297 361
#     4  12  19  34  63  90 114 147 201 262 298 344
#     4  11  23  38  60  90 122 163 202 247 309 370
#     4  11  22  38  59  91 118 155 202 253 309 352
#     4  11  21  39  63  87 117 161 209 251 293 365
#     4  11  19  40  60  86 120 154 208 252 291 358
#     4  10  19  34  58  87 112 152 203 247 285 355
#     4  11  25  36  61  90 126 160 198 254 310 370
#
# _framework density 19.385020000000001
#
# number of rings (size 3 to 8) (size 9 to 14) (size 15 to 20)
#    0.000    1.000    7.500    1.875    1.750    0.500 
#    0.000    0.000    0.000    4.500    0.000    0.000 
#    0.000    0.000    0.000    0.000    0.000    0.000 
#
# Total GULP energy -396483.937320 kJ/mol
# GULP energy per Si atom -12390.123041 kJ/mol
# Density = 1.934090 g / cm^3
# Si number density = 19.385020 Si / 1000 Ang^3
#
#
#
# Elastic Constant Matrix: (Units=GPa)
#
#
# Indices 1 2 3 4 5 6 
#
# 1 79.9617 14.2280 7.4757 0.0000 -8.5456 0.0000
# 2 14.2280 95.3215 8.0899 0.0000 -6.4593 0.0000
# 3 7.4757 8.0899 79.7394 0.0000 -8.2822 0.0000
# 4 0.0000 0.0000 0.0000 20.2704 0.0000 0.0422
# 5 -8.5456 -6.4593 -8.2822 0.0000 13.9616 0.0000
# 6 0.0000 0.0000 0.0000 0.0422 0.0000 31.1085
#
#
#
# Elastic Compliance Matrix: (Units=1/GPa)
#
#
# Indices 1 2 3 4 5 6 
#
# 1 0.013598 -0.001497 -0.000352 0.000000 0.007422 0.000000
# 2 -0.001497 0.011024 -0.000579 0.000000 0.003840 0.000000
# 3 -0.000352 -0.000579 0.013409 0.000000 0.007471 0.000000
# 4 0.000000 0.000000 0.000000 0.049333 0.000000 -0.000067
# 5 0.007422 0.003840 0.007471 0.000000 0.082376 0.000000
# 6 0.000000 0.000000 0.000000 -0.000067 0.000000 0.032146
#
#
# Mechanical properties :
#
#
# Convention : Reuss Voigt Hill
#
# Bulk Modulus (GPa) = 30.14399 34.95667 32.55033
# Shear Modulus (GPa) = 22.95686 28.08337 25.52011
#
# Velocity S-wave (km/s) = 3.44504 3.81033 3.63228
# Velocity P-wave (km/s) = 5.60431 6.11801 5.86679
#
# Compressibility (1/GPa) = 0.03317411
#
# Stress axis : x y z
#
# Youngs Moduli (GPa) = 73.53774 90.71418 74.57923
#
# Poissons Ratio (x) = 0.13579 0.02626
# Poissons Ratio (y) = 0.11008 0.04320
# Poissons Ratio (z) = 0.02590 0.05254
#
# Static dielectric constant tensor:
#      x y z
#    x 3.586300 0.000000 -0.169210 
#    y 0.000000 3.287310 0.000000 
#    z -0.169210 0.000000 3.384440 
# 
# 
# High freq. dielectric constant tensor:
#      x y z
#    x 1.748800 0.000000 -0.007920 
#    y 0.000000 1.771530 0.000000 
#    z -0.007920 0.000000 1.714580 
# 
# From -- ./inp_files/210334.got.cif
#   From: 2010.06.25/outbox.cif.g09.slc.cpg/sg15_106_cif.got.tgz:210334.got - 2010.06.28 07:06:18.
