data_PCOD8133882
_publ_section_title
;
Structure prediction by ZEFSAII (Michael W. Deem and Ramdas Pophale) SiO2 
 PCOD8133882
Probable space group: C 2/C
;
_chemical_formula_sum "Si O2"
_cell_formula_units_Z 56
_cell_length_a 14.156961
_cell_length_b 19.999263
_cell_length_c 18.348240
_cell_angle_alpha 90.000000
_cell_angle_beta 149.062440
_cell_angle_gamma 90.000000
_cell_volume 2670.724684
_symmetry_space_group_name_H-M "C 2/C"
_symmetry_group_IT_number 15
_symmetry_cell_setting 'monoclinic'
loop_
_space_group_symop_operation_xyz
x,y,z
-x,y,1/2-z
-x,-y,-z
x,-y,1/2+z
1/2+x,1/2+y,z
1/2-x,1/2+y,1/2-z
1/2-x,1/2-y,-z
1/2+x,1/2-y,1/2+z
loop_
_atom_site_type_symbol
_atom_site_label
_atom_site_fract_x
_atom_site_fract_y
_atom_site_fract_z
Si Si1 0.707431 0.517072 0.793824
Si Si2 0.494070 0.359558 0.390790
Si Si3 0.669965 0.827150 0.543434
Si Si4 0.214472 0.675728 0.310066
Si Si5 0.000000 0.214274 0.750000
Si Si6 0.320777 0.764977 0.257100
Si Si7 0.500000 0.583607 0.250000
Si Si8 0.517964 0.913914 0.574162
O O1 0.595287 0.568110 0.671244
O O2 0.563084 0.462548 0.725751
O O3 0.853341 0.479526 0.838743
O O4 0.809497 0.558480 0.927158
O O5 0.662804 0.370391 0.557191
O O6 0.567960 0.332956 0.361220
O O7 0.348133 0.308974 0.327809
O O8 0.516249 0.803497 0.383693
O O9 0.774778 0.763356 0.647014
O O10 0.826509 0.871866 0.607989
O O11 0.561323 0.868491 0.532882
O O12 0.158779 0.738239 0.323883
O O13 0.337016 0.702698 0.324087
O O14 0.045820 0.630664 0.165972
#
# Coordination Sequence:
#
# PCOD8133882 Si02
#       8
#     8   8   8   8   4   8   4   8
#     4  10  20  37  58  82 107 150 195 227 270 338
#     4  11  20  34  58  85 110 151 184 236 280 345
#     4  10  19  37  58  85 113 143 186 237 281 337
#     4  10  21  35  54  86 117 147 184 234 288 338
#     4  10  23  32  52  86 125 146 176 230 298 346
#     4  10  19  34  59  85 113 145 188 230 287 339
#     4  10  23  36  58  82 111 150 192 228 276 332
#     4   9  20  37  59  78 110 152 190 227 273 335
#
# _framework density 20.968091999999999
#
# number of rings (size 3 to 8) (size 9 to 14) (size 15 to 20)
#    0.000    2.000    2.857    0.857    0.000    3.429 
#    0.000    0.000    0.000    1.714    0.000    0.000 
#    0.000    0.000    0.000    0.000    0.000    0.000 
#
# Total GULP energy -347091.111808 kJ/mol
# GULP energy per Si atom -12396.111136 kJ/mol
# Density = 2.092037 g / cm^3
# Si number density = 20.968092 Si / 1000 Ang^3
#
#
#
# Elastic Constant Matrix: (Units=GPa)
#
#
# Indices 1 2 3 4 5 6 
#
# 1 37.6488 11.3051 16.5205 0.0005 9.9522 0.0019
# 2 11.3051 85.5936 25.5301 -0.0057 1.4359 0.0017
# 3 16.5205 25.5301 92.5156 -0.0174 4.2414 0.0024
# 4 0.0005 -0.0057 -0.0174 28.8782 -0.0007 7.3844
# 5 9.9522 1.4359 4.2414 -0.0007 17.9936 0.0016
# 6 0.0019 0.0017 0.0024 7.3844 0.0016 22.8089
#
#
#
# Elastic Compliance Matrix: (Units=1/GPa)
#
#
# Indices 1 2 3 4 5 6 
#
# 1 0.034022 -0.002863 -0.004482 -0.000004 -0.017533 0.000000
# 2 -0.002863 0.012973 -0.003128 0.000001 0.001285 -0.000001
# 3 -0.004482 -0.003128 0.012482 0.000008 -0.000214 -0.000003
# 4 -0.000004 0.000001 0.000008 0.037754 0.000003 -0.012223
# 5 -0.017533 0.001285 -0.000214 0.000003 0.065220 -0.000004
# 6 0.000000 -0.000001 -0.000003 -0.012223 -0.000004 0.047800
#
#
# Mechanical properties :
#
#
# Convention : Reuss Voigt Hill
#
# Bulk Modulus (GPa) = 25.95180 35.82995 30.89087
# Shear Modulus (GPa) = 20.48857 24.76296 22.62576
#
# Velocity S-wave (km/s) = 3.12930 3.44027 3.28846
# Velocity P-wave (km/s) = 5.04583 5.73634 5.40213
#
# Compressibility (1/GPa) = 0.03853298
#
# Stress axis : x y z
#
# Youngs Moduli (GPa) = 29.39267 77.08598 80.11453
#
# Poissons Ratio (x) = 0.22068 0.35904
# Poissons Ratio (y) = 0.08414 0.25056
# Poissons Ratio (z) = 0.13172 0.24109
#
# Static dielectric constant tensor:
#      x y z
#    x 3.544940 -0.000010 0.104640 
#    y -0.000010 4.022810 -0.000010 
#    z 0.104640 -0.000010 3.780300 
# 
# 
# High freq. dielectric constant tensor:
#      x y z
#    x 1.785890 0.000000 0.016490 
#    y 0.000000 1.828280 0.000000 
#    z 0.016490 0.000000 1.815520 
# 
# From -- ./inp_files/50368.got.cif
#   From: 2010.06.25/outbox.cif.g09.slc.cpg/sg15_26_cif.got.tgz:50368.got - 2010.06.28 07:06:18.
