data_PCOD8133915
_publ_section_title
;
Structure prediction by ZEFSAII (Michael W. Deem and Ramdas Pophale) SiO2 
 PCOD8133915
Probable space group: C 2/C
;
_chemical_formula_sum "Si O2"
_cell_formula_units_Z 52
_cell_length_a 10.935566
_cell_length_b 15.231685
_cell_length_c 19.993569
_cell_angle_alpha 90.000000
_cell_angle_beta 130.939669
_cell_angle_gamma 90.000000
_cell_volume 2515.686434
_symmetry_space_group_name_H-M "C 2/C"
_symmetry_group_IT_number 15
_symmetry_cell_setting 'monoclinic'
loop_
_space_group_symop_operation_xyz
x,y,z
-x,y,1/2-z
-x,-y,-z
x,-y,1/2+z
1/2+x,1/2+y,z
1/2-x,1/2+y,1/2-z
1/2-x,1/2-y,-z
1/2+x,1/2-y,1/2+z
loop_
_atom_site_type_symbol
_atom_site_label
_atom_site_fract_x
_atom_site_fract_y
_atom_site_fract_z
Si Si1 0.000000 0.255416 0.750000
Si Si2 0.772525 0.424588 0.107569
Si Si3 0.282835 0.151427 0.890802
Si Si4 0.227938 0.091970 0.011024
Si Si5 0.577059 0.857600 0.663079
Si Si6 0.144412 0.549946 0.712896
Si Si7 0.538624 0.275327 0.038937
O O1 0.887996 0.199175 0.660629
O O2 0.874265 0.312319 0.749666
O O3 0.685844 0.499582 0.031579
O O4 0.758084 0.442883 0.182339
O O5 0.682171 0.333052 0.057145
O O6 0.959854 0.419368 0.155185
O O7 0.276155 0.109284 0.815235
O O8 0.283134 0.081413 0.952510
O O9 0.435307 0.218484 0.948936
O O10 0.383047 0.133390 0.102660
O O11 0.078110 0.157818 0.963484
O O12 0.625323 0.794910 0.619055
O O13 0.661071 0.951938 0.689195
#
# Coordination Sequence:
#
# PCOD8133915 Si02
#       7
#     4   8   8   8   8   8   8
#     4  12  18  36  60  88 116 156 190 264 290 338
#     4  10  22  39  61  82 128 159 197 234 308 357
#     4  11  23  36  62  90 122 147 210 249 299 339
#     4  10  19  38  58  90 117 152 195 252 290 355
#     4  10  19  34  60  82 117 152 201 233 296 346
#     4  10  23  40  57  91 117 164 195 243 294 365
#     4  11  20  37  59  92 116 156 197 251 288 362
#
# _framework density 20.670303000000001
#
# number of rings (size 3 to 8) (size 9 to 14) (size 15 to 20)
#    0.000    1.538    3.077    4.154    0.000    6.154 
#    0.000    0.000    0.000    1.846    0.000    0.000 
#    0.000    0.000    0.000    0.000    0.000    0.000 
#
# Total GULP energy -322229.659920 kJ/mol
# GULP energy per Si atom -12393.448458 kJ/mol
# Density = 2.062326 g / cm^3
# Si number density = 20.670303 Si / 1000 Ang^3
#
#
#
# Elastic Constant Matrix: (Units=GPa)
#
#
# Indices 1 2 3 4 5 6 
#
# 1 49.9994 41.0015 19.0628 0.0000 -17.7655 0.0000
# 2 41.0015 131.2227 43.9829 0.0000 -11.5122 0.0000
# 3 19.0628 43.9829 82.1148 0.0000 -17.4259 0.0000
# 4 0.0000 0.0000 0.0000 28.9672 0.0000 -7.7536
# 5 -17.7655 -11.5122 -17.4259 0.0000 29.7259 0.0000
# 6 0.0000 0.0000 0.0000 -7.7536 0.0000 29.7402
#
#
#
# Elastic Compliance Matrix: (Units=1/GPa)
#
#
# Indices 1 2 3 4 5 6 
#
# 1 0.033149 -0.009142 0.000747 0.000000 0.016709 0.000000
# 2 -0.009142 0.011825 -0.005024 0.000000 -0.003829 0.000000
# 3 0.000747 -0.005024 0.016420 0.000000 0.008127 0.000000
# 4 0.000000 0.000000 0.000000 0.037112 0.000000 0.009675
# 5 0.016709 -0.003829 0.008127 0.000000 0.046908 0.000000
# 6 0.000000 0.000000 0.000000 0.009675 0.000000 0.036147
#
#
# Mechanical properties :
#
#
# Convention : Reuss Voigt Hill
#
# Bulk Modulus (GPa) = 28.93835 52.38126 40.65980
# Shear Modulus (GPa) = 22.73566 28.30594 25.52080
#
# Velocity S-wave (km/s) = 3.32010 3.70456 3.51759
# Velocity P-wave (km/s) = 5.35983 6.61019 6.01758
#
# Compressibility (1/GPa) = 0.03455622
#
# Stress axis : x y z
#
# Youngs Moduli (GPa) = 30.16644 84.56468 60.90014
#
# Poissons Ratio (x) = 0.77312 -0.04550
# Poissons Ratio (y) = 0.27579 0.30598
# Poissons Ratio (z) = -0.02254 0.42487
#
# Static dielectric constant tensor:
#      x y z
#    x 3.317260 0.000000 -0.059620 
#    y 0.000000 3.835160 0.000000 
#    z -0.059620 0.000000 3.749150 
# 
# 
# High freq. dielectric constant tensor:
#      x y z
#    x 1.774580 0.000000 -0.011320 
#    y 0.000000 1.807900 0.000000 
#    z -0.011320 0.000000 1.814620 
# 
# From -- ./inp_files/225448.got.cif
#   From: 2010.06.25/outbox.cif.g09.slc.cpg/sg15_113_cif.got.tgz:225448.got - 2010.06.28 07:06:18.
