data_PCOD8133020
_publ_section_title
;
Structure prediction by ZEFSAII (Michael W. Deem and Ramdas Pophale) SiO2 
 PCOD8133020
Probable space group: C 2/C
;
_chemical_formula_sum "Si O2"
_cell_formula_units_Z 64
_cell_length_a 16.440922
_cell_length_b 13.331855
_cell_length_c 18.242288
_cell_angle_alpha 90.000000
_cell_angle_beta 121.442530
_cell_angle_gamma 90.000000
_cell_volume 3411.367360
_symmetry_space_group_name_H-M "C 2/C"
_symmetry_group_IT_number 15
_symmetry_cell_setting 'monoclinic'
loop_
_space_group_symop_operation_xyz
x,y,z
-x,y,1/2-z
-x,-y,-z
x,-y,1/2+z
1/2+x,1/2+y,z
1/2-x,1/2+y,1/2-z
1/2-x,1/2-y,-z
1/2+x,1/2-y,1/2+z
loop_
_atom_site_type_symbol
_atom_site_label
_atom_site_fract_x
_atom_site_fract_y
_atom_site_fract_z
Si Si1 0.755214 0.730649 0.232443
Si Si2 0.232139 0.917693 0.357799
Si Si3 0.941804 0.592315 0.004021
Si Si4 0.075802 0.191658 0.055991
Si Si5 0.570287 0.375156 0.391465
Si Si6 0.844768 0.866174 0.693856
Si Si7 0.528571 0.602724 0.369564
Si Si8 0.466636 0.822377 0.812007
O O1 0.759640 0.846728 0.210172
O O2 0.673693 0.676132 0.146374
O O3 0.727153 0.717813 0.306200
O O4 0.853043 0.670025 0.266775
O O5 0.330121 0.932737 0.448371
O O6 0.162076 0.864101 0.382722
O O7 0.198798 0.024264 0.312167
O O8 0.977069 0.610403 0.103079
O O9 0.958337 0.693159 0.964825
O O10 0.000000 0.500000 0.000000
O O11 0.986160 0.136217 0.053161
O O12 0.099166 0.143510 0.988799
O O13 0.523951 0.483335 0.360327
O O14 0.491716 0.295157 0.330111
O O15 0.871509 0.855542 0.619361
O O16 0.942720 0.852229 0.782985
O O17 0.500000 0.865934 0.750000
#
# Coordination Sequence:
#
# PCOD8133020 Si02
#       8
#     8   8   8   8   8   8   8   8
#     4  10  19  32  51  76 109 130 176 220 263 318
#     4  10  19  33  55  78 107 139 184 216 273 326
#     4  10  22  37  55  72 108 154 184 214 266 322
#     4   9  20  33  55  78 105 140 174 220 264 324
#     4  10  19  31  54  82 106 132 167 228 283 319
#     4   9  18  31  53  77 103 143 174 218 265 317
#     4   9  17  32  54  79 107 135 176 215 273 324
#     4  11  21  32  54  81 109 135 178 231 277 316
#
# _framework density 18.760805000000001
#
# number of rings (size 3 to 8) (size 9 to 14) (size 15 to 20)
#    0.000    2.250    1.250    1.875    3.500    1.500 
#    0.000    0.000   11.000   13.500    0.000    0.000 
#    0.000    0.000    0.000    0.000    0.000    0.000 
#
# Total GULP energy -396608.628939 kJ/mol
# GULP energy per Si atom -12394.019654 kJ/mol
# Density = 1.871811 g / cm^3
# Si number density = 18.760805 Si / 1000 Ang^3
#
#
#
# Elastic Constant Matrix: (Units=GPa)
#
#
# Indices 1 2 3 4 5 6 
#
# 1 145.2899 60.1271 45.4453 0.0000 -15.6804 0.0000
# 2 60.1271 64.6159 20.4239 0.0000 -17.1662 0.0000
# 3 45.4453 20.4239 71.6482 0.0000 -7.5954 0.0000
# 4 0.0000 0.0000 0.0000 17.2993 0.0000 -4.0866
# 5 -15.6804 -17.1662 -7.5954 0.0000 31.1862 0.0000
# 6 0.0000 0.0000 0.0000 -4.0866 0.0000 32.1849
#
#
#
# Elastic Compliance Matrix: (Units=1/GPa)
#
#
# Indices 1 2 3 4 5 6 
#
# 1 0.012728 -0.010356 -0.005181 0.000000 -0.000562 0.000000
# 2 -0.010356 0.027886 -0.000313 0.000000 0.010066 0.000000
# 3 -0.005181 -0.000313 0.017490 0.000000 0.001482 0.000000
# 4 0.000000 0.000000 0.000000 0.059593 0.000000 0.007567
# 5 -0.000562 0.010066 0.001482 0.000000 0.037685 0.000000
# 6 0.000000 0.000000 0.000000 0.007567 0.000000 0.032031
#
#
# Mechanical properties :
#
#
# Convention : Reuss Voigt Hill
#
# Bulk Modulus (GPa) = 37.87385 59.28294 48.57839
# Shear Modulus (GPa) = 21.93802 26.50459 24.22130
#
# Velocity S-wave (km/s) = 3.42329 3.76275 3.59703
# Velocity P-wave (km/s) = 5.98806 7.10955 6.57277
#
# Compressibility (1/GPa) = 0.02640345
#
# Stress axis : x y z
#
# Youngs Moduli (GPa) = 78.56468 35.86046 57.17639
#
# Poissons Ratio (x) = 0.37137 0.29623
# Poissons Ratio (y) = 0.81361 0.01792
# Poissons Ratio (z) = 0.40704 0.01124
#
# Static dielectric constant tensor:
#      x y z
#    x 3.959860 0.000000 -0.229930 
#    y 0.000000 3.265570 0.000000 
#    z -0.229930 0.000000 3.486550 
# 
# 
# High freq. dielectric constant tensor:
#      x y z
#    x 1.741630 0.000000 -0.002930 
#    y 0.000000 1.706420 0.000000 
#    z -0.002930 0.000000 1.719770 
# 
# From -- ./inp_files/205412.got.cif
#   From: 2010.06.25/outbox.cif.g09.slc.cpg/sg15_103_cif.got.tgz:205412.got - 2010.06.28 07:06:18.
