data_PCOD8133550
_publ_section_title
;
Structure prediction by ZEFSAII (Michael W. Deem and Ramdas Pophale) SiO2 
 PCOD8133550
Probable space group: C 2/C
;
_chemical_formula_sum "Si O2"
_cell_formula_units_Z 64
_cell_length_a 9.682616
_cell_length_b 29.701448
_cell_length_c 15.238458
_cell_angle_alpha 90.000000
_cell_angle_beta 134.622898
_cell_angle_gamma 90.000000
_cell_volume 3119.148189
_symmetry_space_group_name_H-M "C 2/C"
_symmetry_group_IT_number 15
_symmetry_cell_setting 'monoclinic'
loop_
_space_group_symop_operation_xyz
x,y,z
-x,y,1/2-z
-x,-y,-z
x,-y,1/2+z
1/2+x,1/2+y,z
1/2-x,1/2+y,1/2-z
1/2-x,1/2-y,-z
1/2+x,1/2-y,1/2+z
loop_
_atom_site_type_symbol
_atom_site_label
_atom_site_fract_x
_atom_site_fract_y
_atom_site_fract_z
Si Si1 0.592812 0.042338 0.885795
Si Si2 0.552608 0.332331 0.534771
Si Si3 0.449123 0.573936 0.955138
Si Si4 0.376919 0.944990 0.608490
Si Si5 0.684089 0.883667 0.194638
Si Si6 0.623533 0.788016 0.718353
Si Si7 0.697286 0.207005 0.799762
Si Si8 0.167909 0.352279 0.996607
O O1 0.500000 0.048543 0.750000
O O2 0.821054 0.045711 0.966524
O O3 0.501144 0.082694 0.903471
O O4 0.554677 0.991967 0.907921
O O5 0.486142 0.381878 0.529488
O O6 0.694193 0.318446 0.675321
O O7 0.365367 0.299754 0.447751
O O8 0.653517 0.335216 0.483049
O O9 0.353530 0.587005 0.817189
O O10 0.649082 0.548272 0.026824
O O11 0.500000 0.937740 0.750000
O O12 0.417022 0.900672 0.570114
O O13 0.632278 0.841200 0.232148
O O14 0.743757 0.860651 0.128984
O O15 0.500000 0.779054 0.750000
O O16 0.706288 0.740223 0.726850
O O17 0.500730 0.814166 0.588072
O O18 0.500000 0.229001 0.750000
#
# Coordination Sequence:
#
# PCOD8133550 Si02
#       8
#     8   8   8   8   8   8   8   8
#     4   9  18  34  56  85 114 154 196 242 296 354
#     4   9  20  37  59  81 114 152 194 241 291 354
#     4   9  17  34  57  82 111 152 196 237 293 348
#     4  10  19  33  59  84 114 153 202 241 286 351
#     4  10  21  36  58  85 120 151 191 249 301 353
#     4  10  23  40  61  85 117 153 201 247 299 359
#     4  11  24  39  60  87 116 156 199 247 298 353
#     4  10  21  37  59  88 116 154 192 246 304 345
#
# _framework density 20.518422000000001
#
# number of rings (size 3 to 8) (size 9 to 14) (size 15 to 20)
#    0.000    2.250    0.000    4.125    3.500    6.000 
#    2.250    0.000    0.000    3.000    0.000    0.000 
#    0.000    0.000    0.000    0.000    0.000    0.000 
#
# Total GULP energy -396418.435772 kJ/mol
# GULP energy per Si atom -12388.076118 kJ/mol
# Density = 2.047172 g / cm^3
# Si number density = 20.518422 Si / 1000 Ang^3
#
#
#
# Elastic Constant Matrix: (Units=GPa)
#
#
# Indices 1 2 3 4 5 6 
#
# 1 38.9969 24.3219 23.9318 0.0000 20.1442 0.0000
# 2 24.3219 101.2320 17.9303 0.0000 8.7239 0.0000
# 3 23.9318 17.9303 76.6381 0.0000 18.0108 0.0000
# 4 0.0000 0.0000 0.0000 -16.5848 0.0000 -29.1018
# 5 20.1442 8.7239 18.0108 0.0000 20.5903 0.0000
# 6 0.0000 0.0000 0.0000 -29.1018 0.0000 0.7687
#
#
#
# Elastic Compliance Matrix: (Units=1/GPa)
#
#
# Indices 1 2 3 4 5 6 
#
# 1 0.061076 -0.009385 -0.004744 0.000000 -0.051627 0.000000
# 2 -0.009385 0.011881 -0.001037 0.000000 0.005055 0.000000
# 3 -0.004744 -0.001037 0.017092 0.000000 -0.009870 0.000000
# 4 0.000000 0.000000 0.000000 -0.000894 0.000000 -0.033853
# 5 -0.051627 0.005055 -0.009870 0.000000 0.105568 0.000000
# 6 0.000000 0.000000 0.000000 -0.033853 0.000000 0.019292
#
#
# Mechanical properties :
#
#
# Convention : Reuss Voigt Hill
#
# Bulk Modulus (GPa) = 16.74530 38.80390 27.77460
# Shear Modulus (GPa) = 18.92140 11.00037 14.96088
#
# Velocity S-wave (km/s) = 3.04001 2.31794 2.70320
# Velocity P-wave (km/s) = 4.52781 5.11044 4.82792
#
# Compressibility (1/GPa) = 0.05971823
#
# Stress axis : x y z
#
# Youngs Moduli (GPa) = 16.37311 84.16699 58.50724
#
# Poissons Ratio (x) = 0.78988 0.27753
# Poissons Ratio (y) = 0.15366 0.06067
# Poissons Ratio (z) = 0.07767 0.08729
#
# Static dielectric constant tensor:
#      x y z
#    x 3.614260 0.000000 0.388680 
#    y 0.000000 3.943960 0.000000 
#    z 0.388680 0.000000 3.804230 
# 
# 
# High freq. dielectric constant tensor:
#      x y z
#    x 1.771230 0.000000 0.028420 
#    y 0.000000 1.817880 0.000000 
#    z 0.028420 0.000000 1.791350 
# 
# From -- ./inp_files/139840.got.cif
#   From: 2010.06.25/outbox.cif.g09.slc.cpg/sg15_70_cif.got.tgz:139840.got - 2010.06.28 07:06:18.
