data_PCOD8133883
_publ_section_title
;
Structure prediction by ZEFSAII (Michael W. Deem and Ramdas Pophale) SiO2 
 PCOD8133883
Probable space group: C 2/C
;
_chemical_formula_sum "Si O2"
_cell_formula_units_Z 48
_cell_length_a 20.419572
_cell_length_b 19.486039
_cell_length_c 8.085195
_cell_angle_alpha 90.000000
_cell_angle_beta 46.351630
_cell_angle_gamma 90.000000
_cell_volume 2327.838822
_symmetry_space_group_name_H-M "C 2/C"
_symmetry_group_IT_number 15
_symmetry_cell_setting 'monoclinic'
loop_
_space_group_symop_operation_xyz
x,y,z
-x,y,1/2-z
-x,-y,-z
x,-y,1/2+z
1/2+x,1/2+y,z
1/2-x,1/2+y,1/2-z
1/2-x,1/2-y,-z
1/2+x,1/2-y,1/2+z
loop_
_atom_site_type_symbol
_atom_site_label
_atom_site_fract_x
_atom_site_fract_y
_atom_site_fract_z
Si Si1 0.500000 0.389304 0.250000
Si Si2 0.500000 0.186040 0.750000
Si Si3 0.049967 0.817090 0.503177
Si Si4 0.630157 0.074808 0.481261
Si Si5 0.681123 0.463099 0.953980
Si Si6 0.216783 0.901943 0.238700
Si Si7 0.909769 0.574660 0.324535
O O1 0.517220 0.343309 0.382140
O O2 0.415400 0.437470 0.443832
O O3 0.531982 0.235056 0.541423
O O4 0.586235 0.139294 0.656145
O O5 0.156989 0.832924 0.343841
O O6 0.000000 0.852178 0.750000
O O7 0.739028 0.077624 0.283148
O O8 0.584145 0.081600 0.381779
O O9 0.599397 0.005687 0.622196
O O10 0.693115 0.545660 0.928228
O O11 0.689591 0.448355 0.131050
O O12 0.323375 0.883575 0.049250
O O13 0.000000 0.605409 0.250000
#
# Coordination Sequence:
#
# PCOD8133883 Si02
#       7
#     4   4   8   8   8   8   8
#     4  10  20  39  56  83 118 150 206 230 286 340
#     4  10  22  39  60  75 116 158 194 234 280 342
#     4   9  22  39  59  81 116 159 190 236 277 345
#     4  10  20  38  55  89 115 145 190 237 296 333
#     4   9  20  32  59  85 114 148 182 249 288 342
#     4   9  19  34  53  87 116 144 190 233 297 335
#     4  10  19  34  59  85 115 144 183 242 293 341
#
# _framework density 20.619983000000001
#
# number of rings (size 3 to 8) (size 9 to 14) (size 15 to 20)
#    0.500    2.000    0.833    0.500    3.500    1.333 
#    1.500    8.333    0.000    0.000    0.000    0.000 
#    0.000    0.000    0.000    0.000    0.000    0.000 
#
# Total GULP energy -297381.875991 kJ/mol
# GULP energy per Si atom -12390.911500 kJ/mol
# Density = 2.057305 g / cm^3
# Si number density = 20.619983 Si / 1000 Ang^3
#
#
#
# Elastic Constant Matrix: (Units=GPa)
#
#
# Indices 1 2 3 4 5 6 
#
# 1 106.6285 30.0764 48.1602 0.0000 -34.5918 0.0000
# 2 30.0764 51.7111 40.3189 0.0000 -12.0654 0.0000
# 3 48.1602 40.3189 96.1070 0.0000 -22.9053 0.0000
# 4 0.0000 0.0000 0.0000 33.9051 0.0000 -5.5599
# 5 -34.5918 -12.0654 -22.9053 0.0000 40.0261 0.0000
# 6 0.0000 0.0000 0.0000 -5.5599 0.0000 19.5154
#
#
#
# Elastic Compliance Matrix: (Units=1/GPa)
#
#
# Indices 1 2 3 4 5 6 
#
# 1 0.015365 -0.003652 -0.003781 0.000000 0.010014 0.000000
# 2 -0.003652 0.029752 -0.010729 0.000000 -0.000328 0.000000
# 3 -0.003781 -0.010729 0.017660 0.000000 0.003604 0.000000
# 4 0.000000 0.000000 0.000000 0.030940 0.000000 0.008815
# 5 0.010014 -0.000328 0.003604 0.000000 0.035602 0.000000
# 6 0.000000 0.000000 0.000000 0.008815 0.000000 0.053753
#
#
# Mechanical properties :
#
#
# Convention : Reuss Voigt Hill
#
# Bulk Modulus (GPa) = 37.80473 54.61753 46.21113
# Shear Modulus (GPa) = 21.90935 27.74870 24.82902
#
# Velocity S-wave (km/s) = 3.26318 3.67238 3.47381
# Velocity P-wave (km/s) = 5.70716 6.67286 6.20881
#
# Compressibility (1/GPa) = 0.02645172
#
# Stress axis : x y z
#
# Youngs Moduli (GPa) = 65.08324 33.61165 56.62570
#
# Poissons Ratio (x) = 0.12276 0.21408
# Poissons Ratio (y) = 0.23771 0.60756
# Poissons Ratio (z) = 0.24605 0.36063
#
# Static dielectric constant tensor:
#      x y z
#    x 3.878930 0.000000 -0.342890 
#    y 0.000000 3.437260 0.000000 
#    z -0.342890 0.000000 4.091570 
# 
# 
# High freq. dielectric constant tensor:
#      x y z
#    x 1.799950 0.000000 -0.010940 
#    y 0.000000 1.768320 0.000000 
#    z -0.010940 0.000000 1.824080 
# 
# From -- ./inp_files/56441.got.cif
#   From: 2010.06.25/outbox.cif.g09.slc.cpg/sg15_29_cif.got.tgz:56441.got - 2010.06.28 07:06:18.
