data_PCOD8133859
_publ_section_title
;
Structure prediction by ZEFSAII (Michael W. Deem and Ramdas Pophale) SiO2 
 PCOD8133859
Probable space group: C 2/C
;
_chemical_formula_sum "Si O2"
_cell_formula_units_Z 60
_cell_length_a 17.694271
_cell_length_b 12.482306
_cell_length_c 21.020219
_cell_angle_alpha 90.000000
_cell_angle_beta 138.790788
_cell_angle_gamma 90.000000
_cell_volume 3058.617708
_symmetry_space_group_name_H-M "C 2/C"
_symmetry_group_IT_number 15
_symmetry_cell_setting 'monoclinic'
loop_
_space_group_symop_operation_xyz
x,y,z
-x,y,1/2-z
-x,-y,-z
x,-y,1/2+z
1/2+x,1/2+y,z
1/2-x,1/2+y,1/2-z
1/2-x,1/2-y,-z
1/2+x,1/2-y,1/2+z
loop_
_atom_site_type_symbol
_atom_site_label
_atom_site_fract_x
_atom_site_fract_y
_atom_site_fract_z
Si Si1 0.086956 0.626314 0.750825
Si Si2 0.037887 0.170166 0.149606
Si Si3 0.801716 0.916007 0.057615
Si Si4 0.000000 0.033724 0.250000
Si Si5 0.336875 0.372478 0.893173
Si Si6 0.071424 0.619434 0.231505
Si Si7 0.183369 0.925514 0.042973
Si Si8 0.100679 0.724916 0.463402
O O1 0.067269 0.705619 0.679402
O O2 0.063842 0.506602 0.712189
O O3 0.214872 0.640186 0.859632
O O4 0.000000 0.662317 0.750000
O O5 0.135334 0.125025 0.163909
O O6 0.041207 0.104928 0.217085
O O7 0.913370 0.159179 0.038252
O O8 0.857118 0.817247 0.056442
O O9 0.892313 0.959005 0.165923
O O10 0.687057 0.876283 0.020041
O O11 0.766871 0.010228 0.986457
O O12 0.203343 0.346818 0.823622
O O13 0.370863 0.488532 0.942476
O O14 0.410545 0.277642 0.973701
O O15 0.000000 0.648436 0.250000
O O16 0.021471 0.682778 0.139286
#
# Coordination Sequence:
#
# PCOD8133859 Si02
#       8
#     8   8   8   4   8   8   8   8
#     4  10  20  38  60  85 113 157 201 233 282 344
#     4  11  22  41  58  84 115 154 203 239 281 343
#     4   9  18  34  58  90 112 145 187 237 290 342
#     4  10  22  38  58  84 112 148 202 246 276 328
#     4  10  22  38  59  87 118 155 188 234 299 350
#     4  10  20  37  63  86 118 156 189 235 288 351
#     4   9  20  39  61  80 115 154 191 237 293 347
#     4  10  19  34  58  88 121 142 185 234 294 352
#
# _framework density 19.616703999999999
#
# number of rings (size 3 to 8) (size 9 to 14) (size 15 to 20)
#    0.000    2.133    0.667    4.400    2.800    1.600 
#    7.200    0.667    0.000    0.000    0.000    0.000 
#    0.000    0.000    0.000    0.000    0.000    0.000 
#
# Total GULP energy -372022.771216 kJ/mol
# GULP energy per Si atom -12400.759041 kJ/mol
# Density = 1.957206 g / cm^3
# Si number density = 19.616704 Si / 1000 Ang^3
#
#
#
# Elastic Constant Matrix: (Units=GPa)
#
#
# Indices 1 2 3 4 5 6 
#
# 1 88.5976 25.2824 39.7858 0.0000 -12.8796 0.0000
# 2 25.2824 81.8447 64.7988 0.0000 -2.9298 0.0000
# 3 39.7858 64.7988 132.7234 0.0000 0.8188 0.0000
# 4 0.0000 0.0000 0.0000 44.3791 0.0000 -4.8758
# 5 -12.8796 -2.9298 0.8188 0.0000 25.5192 0.0000
# 6 0.0000 0.0000 0.0000 -4.8758 0.0000 6.1550
#
#
#
# Elastic Compliance Matrix: (Units=1/GPa)
#
#
# Indices 1 2 3 4 5 6 
#
# 1 0.014373 -0.001197 -0.003769 0.000000 0.007238 0.000000
# 2 -0.001197 0.020191 -0.009511 0.000000 0.002019 0.000000
# 3 -0.003769 -0.009511 0.013329 0.000000 -0.003422 0.000000
# 4 0.000000 0.000000 0.000000 0.024681 0.000000 0.019552
# 5 0.007238 0.002019 -0.003422 0.000000 0.043181 0.000000
# 6 0.000000 0.000000 0.000000 0.019552 0.000000 0.177957
#
#
# Mechanical properties :
#
#
# Convention : Reuss Voigt Hill
#
# Bulk Modulus (GPa) = 52.80196 62.54440 57.67318
# Shear Modulus (GPa) = 15.19856 26.76391 20.98123
#
# Velocity S-wave (km/s) = 2.78650 3.69771 3.27396
# Velocity P-wave (km/s) = 6.10967 7.08401 6.61480
#
# Compressibility (1/GPa) = 0.01893869
#
# Stress axis : x y z
#
# Youngs Moduli (GPa) = 69.57418 49.52803 75.02476
#
# Poissons Ratio (x) = 0.05928 0.28275
# Poissons Ratio (y) = 0.08328 0.71357
# Poissons Ratio (z) = 0.26221 0.47107
#
# Static dielectric constant tensor:
#      x y z
#    x 3.359230 0.000000 -0.021490 
#    y 0.000000 3.580100 0.000000 
#    z -0.021490 0.000000 3.672560 
# 
# 
# High freq. dielectric constant tensor:
#      x y z
#    x 1.737280 0.000000 0.003620 
#    y 0.000000 1.760590 0.000000 
#    z 0.003620 0.000000 1.772860 
# 
# From -- ./inp_files/167286.got.cif
#   From: 2010.06.25/outbox.cif.g09.slc.cpg/sg15_84_cif.got.tgz:167286.got - 2010.06.28 07:06:18.
