data_PCOD8133375
_publ_section_title
;
Structure prediction by ZEFSAII (Michael W. Deem and Ramdas Pophale) SiO2 
 PCOD8133375
Probable space group: C 2/C
;
_chemical_formula_sum "Si O2"
_cell_formula_units_Z 52
_cell_length_a 16.048677
_cell_length_b 32.278174
_cell_length_c 5.074907
_cell_angle_alpha 90.000000
_cell_angle_beta 107.540599
_cell_angle_gamma 90.000000
_cell_volume 2506.678500
_symmetry_space_group_name_H-M "C 2/C"
_symmetry_group_IT_number 15
_symmetry_cell_setting 'monoclinic'
loop_
_space_group_symop_operation_xyz
x,y,z
-x,y,1/2-z
-x,-y,-z
x,-y,1/2+z
1/2+x,1/2+y,z
1/2-x,1/2+y,1/2-z
1/2-x,1/2-y,-z
1/2+x,1/2-y,1/2+z
loop_
_atom_site_type_symbol
_atom_site_label
_atom_site_fract_x
_atom_site_fract_y
_atom_site_fract_z
Si Si1 0.329757 0.843189 0.047154
Si Si2 0.588786 0.027301 0.660482
Si Si3 0.343165 0.392118 0.635200
Si Si4 0.000000 0.603891 0.750000
Si Si5 0.403321 0.649580 0.687694
Si Si6 0.735112 0.798427 0.995580
Si Si7 0.291910 0.475380 0.361724
O O1 0.422305 0.865685 0.091616
O O2 0.316352 0.817265 0.303168
O O3 0.257769 0.878897 0.946436
O O4 0.323611 0.809867 0.809761
O O5 0.539537 0.071678 0.568604
O O6 0.563957 0.992561 0.422335
O O7 0.690871 0.037429 0.767651
O O8 0.395356 0.363529 0.482307
O O9 0.350258 0.438166 0.526842
O O10 0.387586 0.388461 0.966115
O O11 0.500000 0.668356 0.750000
O O12 0.332633 0.684234 0.554376
O O13 0.750000 0.750000 0.000000
O O14 0.313591 0.486475 0.079836
#
# Coordination Sequence:
#
# PCOD8133375 Si02
#       7
#     8   8   8   4   8   8   8
#     4  10  23  37  61  89 113 170 184 240 288 345
#     4  10  22  35  53  81 120 172 209 248 287 324
#     4  10  19  38  57  83 117 146 196 237 291 333
#     4  12  22  40  56  90 138 152 220 240 286 358
#     4  10  21  37  64  89 107 144 191 238 290 353
#     4  10  22  44  65  85 123 147 192 232 306 356
#     4  10  19  33  54  80 110 156 204 235 285 342
#
# _framework density 20.744582000000001
#
# number of rings (size 3 to 8) (size 9 to 14) (size 15 to 20)
#    0.000    1.846    1.538    2.308    0.000    3.077 
#    2.769    0.000    0.000    9.231    0.000    0.000 
#    0.000    0.000    0.000    0.000    0.000    0.000 
#
# Total GULP energy -322239.420443 kJ/mol
# GULP energy per Si atom -12393.823863 kJ/mol
# Density = 2.069737 g / cm^3
# Si number density = 20.744582 Si / 1000 Ang^3
#
#
#
# Elastic Constant Matrix: (Units=GPa)
#
#
# Indices 1 2 3 4 5 6 
#
# 1 82.5842 30.0492 37.0045 0.0000 12.8551 0.0000
# 2 30.0492 110.3990 28.1524 0.0000 17.6298 0.0000
# 3 37.0045 28.1524 101.3780 0.0000 -6.3431 0.0000
# 4 0.0000 0.0000 0.0000 25.7642 0.0000 8.1090
# 5 12.8551 17.6298 -6.3431 0.0000 25.8936 0.0000
# 6 0.0000 0.0000 0.0000 8.1090 0.0000 12.5881
#
#
#
# Elastic Compliance Matrix: (Units=1/GPa)
#
#
# Indices 1 2 3 4 5 6 
#
# 1 0.016870 -0.001582 -0.006271 0.000000 -0.008834 0.000000
# 2 -0.001582 0.011533 -0.003115 0.000000 -0.007831 0.000000
# 3 -0.006271 -0.003115 0.013554 0.000000 0.008555 0.000000
# 4 0.000000 0.000000 0.000000 0.048684 0.000000 -0.031361
# 5 -0.008834 -0.007831 0.008555 0.000000 0.050433 0.000000
# 6 0.000000 0.000000 0.000000 -0.031361 0.000000 0.099642
#
#
# Mechanical properties :
#
#
# Convention : Reuss Voigt Hill
#
# Bulk Modulus (GPa) = 49.95006 53.86370 51.90688
# Shear Modulus (GPa) = 18.56491 26.12620 22.34556
#
# Velocity S-wave (km/s) = 2.99478 3.55269 3.28560
# Velocity P-wave (km/s) = 6.00743 6.54602 6.28249
#
# Compressibility (1/GPa) = 0.02002000
#
# Stress axis : x y z
#
# Youngs Moduli (GPa) = 59.27848 86.70399 73.78148
#
# Poissons Ratio (x) = 0.13714 0.46269
# Poissons Ratio (y) = 0.09376 0.22986
# Poissons Ratio (z) = 0.37174 0.27012
#
# Static dielectric constant tensor:
#      x y z
#    x 3.762610 0.000000 -0.039380 
#    y 0.000000 3.538950 0.000000 
#    z -0.039380 0.000000 3.939550 
# 
# 
# High freq. dielectric constant tensor:
#      x y z
#    x 1.809300 0.000000 -0.004560 
#    y 0.000000 1.794770 0.000000 
#    z -0.004560 0.000000 1.819710 
# 
# From -- ./inp_files/11630.got.cif
#   From: 2010.06.25/outbox.cif.g09.slc.cpg/sg15_6_cif.got.tgz:11630.got - 2010.06.28 07:06:18.
