data_PCOD8133602
_publ_section_title
;
Structure prediction by ZEFSAII (Michael W. Deem and Ramdas Pophale) SiO2 
 PCOD8133602
Probable space group: C 2/C
;
_chemical_formula_sum "Si O2"
_cell_formula_units_Z 48
_cell_length_a 11.842238
_cell_length_b 20.242392
_cell_length_c 17.352065
_cell_angle_alpha 90.000000
_cell_angle_beta 140.198242
_cell_angle_gamma 90.000000
_cell_volume 2662.669006
_symmetry_space_group_name_H-M "C 2/C"
_symmetry_group_IT_number 15
_symmetry_cell_setting 'monoclinic'
loop_
_space_group_symop_operation_xyz
x,y,z
-x,y,1/2-z
-x,-y,-z
x,-y,1/2+z
1/2+x,1/2+y,z
1/2-x,1/2+y,1/2-z
1/2-x,1/2-y,-z
1/2+x,1/2-y,1/2+z
loop_
_atom_site_type_symbol
_atom_site_label
_atom_site_fract_x
_atom_site_fract_y
_atom_site_fract_z
Si Si1 0.569060 0.927383 0.201495
Si Si2 0.642603 0.944871 0.553104
Si Si3 0.228007 0.353821 0.906817
Si Si4 0.914244 0.129245 0.823112
Si Si5 0.408821 0.919184 0.810286
Si Si6 0.000000 0.981872 0.250000
Si Si7 0.500000 0.263969 0.250000
O O1 0.500000 0.911288 0.250000
O O2 0.735517 0.879485 0.276868
O O3 0.625256 0.003727 0.223702
O O4 0.422216 0.909145 0.059213
O O5 0.643668 0.898141 0.629794
O O6 0.500000 0.000000 0.500000
O O7 0.836020 0.973159 0.639179
O O8 0.214477 0.377194 0.811215
O O9 0.146016 0.280344 0.870218
O O10 0.114934 0.402732 0.902640
O O11 0.429704 0.354786 0.035975
O O12 0.949786 0.061622 0.796924
O O13 0.894632 0.190322 0.754690
#
# Coordination Sequence:
#
# PCOD8133602 Si02
#       7
#     8   8   8   8   8   4   4
#     4  11  21  35  52  83 120 152 182 229 284 337
#     4  10  19  34  47  78 122 151 184 222 276 349
#     4  10  20  36  59  84 112 145 194 236 287 329
#     4  11  21  33  57  84 111 148 193 234 277 345
#     4   9  18  34  52  79 118 150 167 235 286 326
#     4  11  20  30  56  84 114 156 185 220 296 339
#     4   9  22  38  54  88 108 146 189 244 292 313
#
# _framework density 18.027024999999998
#
# number of rings (size 3 to 8) (size 9 to 14) (size 15 to 20)
#    0.000    2.000    5.000    2.500    2.333    2.000 
#    0.000    0.000    0.000    1.000    8.667    0.000 
#    0.000    0.000    0.000    0.000    0.000    0.000 
#
# Total GULP energy -297530.955838 kJ/mol
# GULP energy per Si atom -12397.123160 kJ/mol
# Density = 1.798599 g / cm^3
# Si number density = 18.027025 Si / 1000 Ang^3
#
#
#
# Elastic Constant Matrix: (Units=GPa)
#
#
# Indices 1 2 3 4 5 6 
#
# 1 127.3581 42.3301 63.5871 -0.0002 -13.0952 0.0000
# 2 42.3301 68.3684 32.5871 0.0000 6.0439 0.0000
# 3 63.5871 32.5871 124.8083 -0.0008 7.6380 -0.0001
# 4 -0.0002 0.0000 -0.0008 8.5724 -0.0005 2.1878
# 5 -13.0952 6.0439 7.6380 -0.0005 40.5190 -0.0001
# 6 0.0000 0.0000 -0.0001 2.1878 -0.0001 17.6599
#
#
#
# Elastic Compliance Matrix: (Units=1/GPa)
#
#
# Indices 1 2 3 4 5 6 
#
# 1 0.013318 -0.006148 -0.005564 0.000000 0.006270 0.000000
# 2 -0.006148 0.019659 -0.001719 0.000000 -0.004595 0.000000
# 3 -0.005564 -0.001719 0.011523 0.000001 -0.003714 0.000000
# 4 0.000000 0.000000 0.000001 0.120462 0.000001 -0.014923
# 5 0.006270 -0.004595 -0.003714 0.000001 0.028092 0.000000
# 6 0.000000 0.000000 0.000000 -0.014923 0.000000 0.058474
#
#
# Mechanical properties :
#
#
# Convention : Reuss Voigt Hill
#
# Bulk Modulus (GPa) = 56.69683 66.39371 61.54527
# Shear Modulus (GPa) = 17.58898 25.48563 21.53730
#
# Velocity S-wave (km/s) = 3.12701 3.76406 3.46023
# Velocity P-wave (km/s) = 6.67509 7.47000 7.08371
#
# Compressibility (1/GPa) = 0.01763767
#
# Stress axis : x y z
#
# Youngs Moduli (GPa) = 75.08755 50.86731 86.78298
#
# Poissons Ratio (x) = 0.31274 0.48282
# Poissons Ratio (y) = 0.46165 0.14921
# Poissons Ratio (z) = 0.41775 0.08746
#
# Static dielectric constant tensor:
#      x y z
#    x 3.556430 0.000000 -0.310520 
#    y 0.000000 3.134120 0.000000 
#    z -0.310520 0.000000 3.596720 
# 
# 
# High freq. dielectric constant tensor:
#      x y z
#    x 1.688880 0.000000 -0.012920 
#    y 0.000000 1.661440 0.000000 
#    z -0.012920 0.000000 1.710290 
# 
# From -- ./inp_files/200099.got.cif
#   From: 2010.06.25/outbox.cif.g09.slc.cpg/sg15_101_cif.got.tgz:200099.got - 2010.06.28 07:06:18.
