data_PCOD8133066
_publ_section_title
;
Structure prediction by ZEFSAII (Michael W. Deem and Ramdas Pophale) SiO2 
 PCOD8133066
Probable space group: C 2/C
;
_chemical_formula_sum "Si O2"
_cell_formula_units_Z 48
_cell_length_a 20.325857
_cell_length_b 33.582229
_cell_length_c 5.193523
_cell_angle_alpha 90.000000
_cell_angle_beta 68.908169
_cell_angle_gamma 90.000000
_cell_volume 3307.534221
_symmetry_space_group_name_H-M "C 2/C"
_symmetry_group_IT_number 15
_symmetry_cell_setting 'monoclinic'
loop_
_space_group_symop_operation_xyz
x,y,z
-x,y,1/2-z
-x,-y,-z
x,-y,1/2+z
1/2+x,1/2+y,z
1/2-x,1/2+y,1/2-z
1/2-x,1/2-y,-z
1/2+x,1/2-y,1/2+z
loop_
_atom_site_type_symbol
_atom_site_label
_atom_site_fract_x
_atom_site_fract_y
_atom_site_fract_z
Si Si1 0.582340 0.112410 0.075259
Si Si2 0.761667 0.202812 0.446171
Si Si3 0.457043 0.235507 0.046559
Si Si4 0.881297 0.658752 0.989782
Si Si5 0.916237 0.478028 0.882595
Si Si6 0.814390 0.780788 0.371897
O O1 0.500000 0.115443 0.250000
O O2 0.627691 0.133916 0.234205
O O3 0.608660 0.067001 0.034395
O O4 0.594367 0.130986 0.777996
O O5 0.750000 0.250000 0.500000
O O6 0.690954 0.179532 0.486960
O O7 0.796083 0.188348 0.666573
O O8 0.817861 0.195151 0.135992
O O9 0.500000 0.231647 0.250000
O O10 0.387002 0.259423 0.209027
O O11 0.500000 0.256564 0.750000
O O12 0.439521 0.192010 0.963131
O O13 0.885781 0.494956 0.657434
O O14 0.000000 0.480374 0.750000
O O15 0.750000 0.750000 0.500000
#
# Coordination Sequence:
#
# PCOD8133066 Si02
#       6
#     8   8   8   8   8   8
#     4  11  22  32  42  66  91 108 132 182 242 278
#     4  10  19  32  49  57  74 114 153 169 202 279
#     4  12  23  31  45  65  85 107 139 185 239 276
#     4  12  21  32  44  63  89 110 136 182 236 280
#     4   9  17  31  48  59  76 110 145 167 203 274
#     4  10  19  34  47  57  77 109 150 174 204 281
#
# _framework density 14.512321
#
# number of rings (size 3 to 8) (size 9 to 14) (size 15 to 20)
#    0.000    1.333    3.333    6.000    4.667    2.667 
#    0.000    0.000    0.000    0.000    0.000    0.000 
#    0.000    0.000    0.000    0.000    0.000    0.000 
#
# Total GULP energy -297407.816700 kJ/mol
# GULP energy per Si atom -12391.992362 kJ/mol
# Density = 1.447929 g / cm^3
# Si number density = 14.512321 Si / 1000 Ang^3
#
#
#
# Elastic Constant Matrix: (Units=GPa)
#
#
# Indices 1 2 3 4 5 6 
#
# 1 73.1903 35.7501 48.2279 0.0000 10.2138 0.0000
# 2 35.7501 50.0088 23.7928 0.0000 2.2996 0.0000
# 3 48.2279 23.7928 128.8687 0.0000 19.1889 0.0000
# 4 0.0000 0.0000 0.0000 18.1640 0.0000 3.9308
# 5 10.2138 2.2996 19.1889 0.0000 32.9692 0.0000
# 6 0.0000 0.0000 0.0000 3.9308 0.0000 11.7317
#
#
#
# Elastic Compliance Matrix: (Units=1/GPa)
#
#
# Indices 1 2 3 4 5 6 
#
# 1 0.025726 -0.015228 -0.006337 0.000000 -0.003220 0.000000
# 2 -0.015228 0.030961 -0.000436 0.000000 0.002812 0.000000
# 3 -0.006337 -0.000436 0.010856 0.000000 -0.004325 0.000000
# 4 0.000000 0.000000 0.000000 0.059358 0.000000 -0.019888
# 5 -0.003220 0.002812 -0.004325 0.000000 0.033650 0.000000
# 6 0.000000 0.000000 0.000000 -0.019888 0.000000 0.091903
#
#
# Mechanical properties :
#
#
# Convention : Reuss Voigt Hill
#
# Bulk Modulus (GPa) = 42.47906 51.95657 47.21781
# Shear Modulus (GPa) = 16.43105 22.19277 19.31191
#
# Velocity S-wave (km/s) = 3.36849 3.91479 3.65187
# Velocity P-wave (km/s) = 6.66810 7.50423 7.09849
#
# Compressibility (1/GPa) = 0.02354101
#
# Stress axis : x y z
#
# Youngs Moduli (GPa) = 38.87111 32.29895 92.11668
#
# Poissons Ratio (x) = 0.49185 0.58373
# Poissons Ratio (y) = 0.59193 0.04016
# Poissons Ratio (z) = 0.24632 0.01408
#
# Static dielectric constant tensor:
#      x y z
#    x 2.737750 0.000000 0.161800 
#    y 0.000000 2.639630 0.000000 
#    z 0.161800 0.000000 3.549420 
# 
# 
# High freq. dielectric constant tensor:
#      x y z
#    x 1.528150 0.000000 0.029820 
#    y 0.000000 1.510930 0.000000 
#    z 0.029820 0.000000 1.585890 
# 
# From -- ./inp_files/11792.got.cif
#   From: 2010.06.25/outbox.cif.g09.slc.cpg/sg15_6_cif.got.tgz:11792.got - 2010.06.28 07:06:18.
