data_PCOD8133527
_publ_section_title
;
Structure prediction by ZEFSAII (Michael W. Deem and Ramdas Pophale) SiO2 
 PCOD8133527
Probable space group: C 2/C
;
_chemical_formula_sum "Si O2"
_cell_formula_units_Z 64
_cell_length_a 14.618154
_cell_length_b 9.095608
_cell_length_c 29.342105
_cell_angle_alpha 90.000000
_cell_angle_beta 58.354386
_cell_angle_gamma 90.000000
_cell_volume 3321.261111
_symmetry_space_group_name_H-M "C 2/C"
_symmetry_group_IT_number 15
_symmetry_cell_setting 'monoclinic'
loop_
_space_group_symop_operation_xyz
x,y,z
-x,y,1/2-z
-x,-y,-z
x,-y,1/2+z
1/2+x,1/2+y,z
1/2-x,1/2+y,1/2-z
1/2-x,1/2-y,-z
1/2+x,1/2-y,1/2+z
loop_
_atom_site_type_symbol
_atom_site_label
_atom_site_fract_x
_atom_site_fract_y
_atom_site_fract_z
Si Si1 0.261628 0.498976 0.376780
Si Si2 0.795430 0.530284 0.709839
Si Si3 0.961928 0.392405 0.548221
Si Si4 0.173242 0.131212 0.317721
Si Si5 0.501615 0.859229 0.638231
Si Si6 0.459282 0.523273 0.883959
Si Si7 0.082180 0.092937 0.505834
Si Si8 0.736562 0.839617 0.609142
O O1 0.263979 0.512098 0.321595
O O2 0.168661 0.608772 0.419357
O O3 0.377338 0.538241 0.367264
O O4 0.238798 0.333252 0.399156
O O5 0.817415 0.704604 0.704661
O O6 0.714045 0.488936 0.771149
O O7 0.903920 0.435658 0.691029
O O8 0.000000 0.500000 0.500000
O O9 0.999046 0.437993 0.589386
O O10 0.019063 0.243200 0.522596
O O11 0.236282 0.101510 0.348036
O O12 0.049623 0.100717 0.361737
O O13 0.487030 0.682204 0.640642
O O14 0.614417 0.889359 0.633083
O O15 0.397046 0.533042 0.948598
O O16 0.194984 0.092586 0.450068
O O17 0.000000 0.000000 0.500000
#
# Coordination Sequence:
#
# PCOD8133527 Si02
#       8
#     8   8   8   8   8   8   8   8
#     4   9  20  38  59  85 111 152 195 233 273 339
#     4  10  22  41  61  83 114 146 190 240 290 332
#     4  10  19  33  58  80 116 153 193 224 270 333
#     4  11  22  40  62  82 113 150 186 241 286 341
#     4   9  21  37  58  87 111 148 194 234 273 342
#     4  10  21  37  60  86 115 149 194 229 282 336
#     4  11  21  35  55  86 122 153 183 233 281 336
#     4  10  20  37  60  84 117 151 190 229 284 338
#
# _framework density 19.269788999999999
#
# number of rings (size 3 to 8) (size 9 to 14) (size 15 to 20)
#    0.000    2.000    2.500    0.750    1.750    2.500 
#    2.250    5.625    0.000    0.000    0.000    0.000 
#    0.000    0.000    0.000    0.000    0.000    0.000 
#
# Total GULP energy -396639.941940 kJ/mol
# GULP energy per Si atom -12394.998186 kJ/mol
# Density = 1.922593 g / cm^3
# Si number density = 19.269789 Si / 1000 Ang^3
#
#
#
# Elastic Constant Matrix: (Units=GPa)
#
#
# Indices 1 2 3 4 5 6 
#
# 1 140.0529 26.2770 31.7151 0.0000 1.6791 0.0000
# 2 26.2770 29.7839 23.3298 0.0000 7.1344 0.0000
# 3 31.7151 23.3298 84.9711 0.0000 8.6937 0.0000
# 4 0.0000 0.0000 0.0000 33.7553 0.0000 -2.2898
# 5 1.6791 7.1344 8.6937 0.0000 17.7860 0.0000
# 6 0.0000 0.0000 0.0000 -2.2898 0.0000 29.6675
#
#
#
# Elastic Compliance Matrix: (Units=1/GPa)
#
#
# Indices 1 2 3 4 5 6 
#
# 1 0.008822 -0.007207 -0.001605 0.000000 0.002842 0.000000
# 2 -0.007207 0.051251 -0.009840 0.000000 -0.015068 0.000000
# 3 -0.001605 -0.009840 0.015421 0.000000 -0.003439 0.000000
# 4 0.000000 0.000000 0.000000 0.029781 0.000000 0.002299
# 5 0.002842 -0.015068 -0.003439 0.000000 0.063681 0.000000
# 6 0.000000 0.000000 0.000000 0.002299 0.000000 0.033884
#
#
# Mechanical properties :
#
#
# Convention : Reuss Voigt Hill
#
# Bulk Modulus (GPa) = 26.18454 46.38352 36.28403
# Shear Modulus (GPa) = 19.77278 27.80746 23.79012
#
# Velocity S-wave (km/s) = 3.20676 3.80288 3.51747
# Velocity P-wave (km/s) = 5.22771 6.58828 5.94703
#
# Compressibility (1/GPa) = 0.03819047
#
# Stress axis : x y z
#
# Youngs Moduli (GPa) = 113.35760 19.51199 64.84574
#
# Poissons Ratio (x) = 0.14062 0.10406
# Poissons Ratio (y) = 0.81695 0.63807
# Poissons Ratio (z) = 0.18191 0.19200
#
# Static dielectric constant tensor:
#      x y z
#    x 3.697740 0.000000 0.111300 
#    y 0.000000 3.464250 0.000000 
#    z 0.111300 0.000000 3.686910 
# 
# 
# High freq. dielectric constant tensor:
#      x y z
#    x 1.754700 0.000000 0.003540 
#    y 0.000000 1.735300 0.000000 
#    z 0.003540 0.000000 1.755420 
# 
# From -- ./inp_files/273164.got.cif
#   From: 2010.06.25/outbox.cif.g09.slc.cpg/sg15_137_cif.got.tgz:273164.got - 2010.06.28 07:06:18.
