data_PCOD8133185
_publ_section_title
;
Structure prediction by ZEFSAII (Michael W. Deem and Ramdas Pophale) SiO2 
 PCOD8133185
Probable space group: C 2/C
;
_chemical_formula_sum "Si O2"
_cell_formula_units_Z 64
_cell_length_a 27.240717
_cell_length_b 22.066305
_cell_length_c 9.761849
_cell_angle_alpha 90.000000
_cell_angle_beta 35.014585
_cell_angle_gamma 90.000000
_cell_volume 3366.893509
_symmetry_space_group_name_H-M "C 2/C"
_symmetry_group_IT_number 15
_symmetry_cell_setting 'monoclinic'
loop_
_space_group_symop_operation_xyz
x,y,z
-x,y,1/2-z
-x,-y,-z
x,-y,1/2+z
1/2+x,1/2+y,z
1/2-x,1/2+y,1/2-z
1/2-x,1/2-y,-z
1/2+x,1/2-y,1/2+z
loop_
_atom_site_type_symbol
_atom_site_label
_atom_site_fract_x
_atom_site_fract_y
_atom_site_fract_z
Si Si1 0.232417 0.364111 0.271615
Si Si2 0.131645 0.353296 0.078444
Si Si3 0.593890 0.027900 0.521626
Si Si4 0.898467 0.815518 0.491737
Si Si5 0.081808 0.689463 0.966568
Si Si6 0.701191 0.972480 0.509480
Si Si7 0.210432 0.088714 0.126936
Si Si8 0.752486 0.234225 0.152595
O O1 0.139820 0.360561 0.410131
O O2 0.232394 0.403580 0.412720
O O3 0.261761 0.296645 0.234968
O O4 0.296645 0.396766 0.018273
O O5 0.084548 0.403490 0.096203
O O6 0.064679 0.327714 0.345936
O O7 0.207009 0.380323 0.997057
O O8 0.169972 0.304727 0.885257
O O9 0.500000 0.997632 0.750000
O O10 0.662828 0.991675 0.451488
O O11 0.626051 0.025506 0.292649
O O12 0.876390 0.757116 0.637345
O O13 0.871277 0.880583 0.614989
O O14 0.842691 0.800496 0.481059
O O15 0.000000 0.821170 0.250000
O O16 0.000000 0.694263 0.250000
O O17 0.781254 0.016089 0.367044
O O18 0.750000 0.250000 0.000000
#
# Coordination Sequence:
#
# PCOD8133185 Si02
#       8
#     8   8   8   8   8   8   8   8
#     4  10  19  32  55  77 106 146 185 225 277 331
#     4   9  19  34  51  79 108 146 187 223 275 339
#     4  11  23  35  50  75 112 150 186 228 277 328
#     4   9  18  35  60  85 109 140 186 233 284 336
#     4   9  18  31  53  83 112 140 178 228 276 339
#     4  11  21  36  51  79 105 148 196 227 270 331
#     4   9  18  35  55  77 103 143 191 234 268 326
#     4  10  19  34  56  85 114 146 181 230 289 343
#
# _framework density 19.008620000000001
#
# number of rings (size 3 to 8) (size 9 to 14) (size 15 to 20)
#    0.000    2.250    1.250    1.875    1.750    3.500 
#    2.250    0.000    0.000    0.750    0.000    0.000 
#    0.000    0.000    0.000    0.000    0.000    0.000 
#
# Total GULP energy -396474.472726 kJ/mol
# GULP energy per Si atom -12389.827273 kJ/mol
# Density = 1.896536 g / cm^3
# Si number density = 19.008620 Si / 1000 Ang^3
#
#
#
# Elastic Constant Matrix: (Units=GPa)
#
#
# Indices 1 2 3 4 5 6 
#
# 1 45.2877 5.1290 26.3484 0.0000 5.4777 0.0000
# 2 5.1290 74.7892 25.4944 0.0000 -3.0137 0.0000
# 3 26.3484 25.4944 88.1681 0.0000 9.0412 0.0000
# 4 0.0000 0.0000 0.0000 28.8512 0.0000 3.5475
# 5 5.4777 -3.0137 9.0412 0.0000 27.9952 0.0000
# 6 0.0000 0.0000 0.0000 3.5475 0.0000 18.3273
#
#
#
# Elastic Compliance Matrix: (Units=1/GPa)
#
#
# Indices 1 2 3 4 5 6 
#
# 1 0.026973 0.000779 -0.008019 0.000000 -0.002604 0.000000
# 2 0.000779 0.015117 -0.004918 0.000000 0.003063 0.000000
# 3 -0.008019 -0.004918 0.015570 0.000000 -0.003989 0.000000
# 4 0.000000 0.000000 0.000000 0.035506 0.000000 -0.006873
# 5 -0.002604 0.003063 -0.003989 0.000000 0.037848 0.000000
# 6 0.000000 0.000000 0.000000 -0.006873 0.000000 0.055894
#
#
# Mechanical properties :
#
#
# Convention : Reuss Voigt Hill
#
# Bulk Modulus (GPa) = 29.99082 35.79875 32.89478
# Shear Modulus (GPa) = 22.48821 25.11961 23.80391
#
# Velocity S-wave (km/s) = 3.44329 3.63917 3.54258
# Velocity P-wave (km/s) = 5.62317 6.04416 5.83746
#
# Compressibility (1/GPa) = 0.03334354
#
# Stress axis : x y z
#
# Youngs Moduli (GPa) = 37.07385 66.14861 64.22810
#
# Poissons Ratio (x) = -0.05151 0.51504
# Poissons Ratio (y) = -0.02887 0.31589
# Poissons Ratio (z) = 0.29729 0.32533
#
# Static dielectric constant tensor:
#      x y z
#    x 3.334880 0.000000 0.168320 
#    y 0.000000 3.885760 0.000000 
#    z 0.168320 0.000000 3.347650 
# 
# 
# High freq. dielectric constant tensor:
#      x y z
#    x 1.711060 0.000000 0.025040 
#    y 0.000000 1.746930 0.000000 
#    z 0.025040 0.000000 1.724270 
# 
# From -- ./inp_files/58656.got.cif
#   From: 2010.06.25/outbox.cif.g09.slc.cpg/sg15_30_cif.got.tgz:58656.got - 2010.06.28 07:06:18.
