data_PCOD8133240
_publ_section_title
;
Structure prediction by ZEFSAII (Michael W. Deem and Ramdas Pophale) SiO2 
 PCOD8133240
Probable space group: C 2/C
;
_chemical_formula_sum "Si O2"
_cell_formula_units_Z 48
_cell_length_a 5.170015
_cell_length_b 22.055698
_cell_length_c 23.613930
_cell_angle_alpha 90.000000
_cell_angle_beta 62.994560
_cell_angle_gamma 90.000000
_cell_volume 2399.058028
_symmetry_space_group_name_H-M "C 2/C"
_symmetry_group_IT_number 15
_symmetry_cell_setting 'monoclinic'
loop_
_space_group_symop_operation_xyz
x,y,z
-x,y,1/2-z
-x,-y,-z
x,-y,1/2+z
1/2+x,1/2+y,z
1/2-x,1/2+y,1/2-z
1/2-x,1/2-y,-z
1/2+x,1/2-y,1/2+z
loop_
_atom_site_type_symbol
_atom_site_label
_atom_site_fract_x
_atom_site_fract_y
_atom_site_fract_z
Si Si1 0.182515 0.549169 0.585254
Si Si2 0.936534 0.329454 0.443636
Si Si3 0.057412 0.625238 0.384433
Si Si4 0.494806 0.696117 0.417329
Si Si5 0.174729 0.525562 0.290272
Si Si6 0.831986 0.433138 0.014650
O O1 0.061140 0.530161 0.533519
O O2 0.522617 0.534093 0.552750
O O3 0.143385 0.621836 0.597038
O O4 0.012448 0.519986 0.653451
O O5 0.170555 0.362686 0.462023
O O6 0.641724 0.315593 0.507590
O O7 0.054540 0.268005 0.403768
O O8 0.799690 0.663207 0.382550
O O9 0.932287 0.573141 0.439298
O O10 0.286194 0.670902 0.389300
O O11 0.211309 0.589897 0.317995
O O12 0.500000 0.499028 0.250000
O O13 0.000000 0.534408 0.250000
#
# Coordination Sequence:
#
# PCOD8133240 Si02
#       6
#     8   8   8   8   8   8
#     4  10  20  37  58  87 116 150 191 241 290 348
#     4   8  19  31  58  91 131 141 179 219 303 367
#     4  11  21  37  57  89 119 155 190 233 294 356
#     4  10  19  32  58  92 128 152 171 224 300 373
#     4  12  27  44  61  76 111 165 210 251 283 335
#     4   9  18  33  57  95 118 140 176 236 303 345
#
# _framework density 20.007853999999998
#
# number of rings (size 3 to 8) (size 9 to 14) (size 15 to 20)
#    1.000    1.000    1.667    2.000    2.333    3.333 
#    0.000    0.000    0.000    6.000    0.000    0.000 
#    0.000    0.000    0.000    0.000    0.000    0.000 
#
# Total GULP energy -297516.006058 kJ/mol
# GULP energy per Si atom -12396.500252 kJ/mol
# Density = 1.996231 g / cm^3
# Si number density = 20.007854 Si / 1000 Ang^3
#
#
#
# Elastic Constant Matrix: (Units=GPa)
#
#
# Indices 1 2 3 4 5 6 
#
# 1 141.6880 24.8572 46.9268 0.0000 -15.4078 0.0000
# 2 24.8572 76.4752 40.4696 0.0000 -6.4057 0.0000
# 3 46.9268 40.4696 91.2308 0.0000 3.1554 0.0000
# 4 0.0000 0.0000 0.0000 13.9323 0.0000 -2.9542
# 5 -15.4078 -6.4057 3.1554 0.0000 23.2250 0.0000
# 6 0.0000 0.0000 0.0000 -2.9542 0.0000 20.8094
#
#
#
# Elastic Compliance Matrix: (Units=1/GPa)
#
#
# Indices 1 2 3 4 5 6 
#
# 1 0.009528 0.000292 -0.005277 0.000000 0.007119 0.000000
# 2 0.000292 0.017902 -0.008308 0.000000 0.006260 0.000000
# 3 -0.005277 -0.008308 0.017644 0.000000 -0.008189 0.000000
# 4 0.000000 0.000000 0.000000 0.074003 0.000000 0.010506
# 5 0.007119 0.006260 -0.008189 0.000000 0.050619 0.000000
# 6 0.000000 0.000000 0.000000 0.010506 0.000000 0.049547
#
#
# Mechanical properties :
#
#
# Convention : Reuss Voigt Hill
#
# Bulk Modulus (GPa) = 54.08748 59.32233 56.70491
# Shear Modulus (GPa) = 19.84195 24.73605 22.28900
#
# Velocity S-wave (km/s) = 3.15256 3.51994 3.34130
# Velocity P-wave (km/s) = 6.35164 6.79955 6.57941
#
# Compressibility (1/GPa) = 0.01848857
#
# Stress axis : x y z
#
# Youngs Moduli (GPa) = 104.95015 55.85956 56.67673
#
# Poissons Ratio (x) = -0.01629 0.29906
# Poissons Ratio (y) = -0.03060 0.47086
# Poissons Ratio (z) = 0.55379 0.46407
#
# Static dielectric constant tensor:
#      x y z
#    x 3.621120 0.000000 0.028710 
#    y 0.000000 3.931780 0.000000 
#    z 0.028710 0.000000 3.312870 
# 
# 
# High freq. dielectric constant tensor:
#      x y z
#    x 1.790990 0.000000 0.003550 
#    y 0.000000 1.797830 0.000000 
#    z 0.003550 0.000000 1.737900 
# 
# From -- ./inp_files/227293.got.cif
#   From: 2010.06.25/outbox.cif.g09.slc.cpg/sg15_114_cif.got.tgz:227293.got - 2010.06.28 07:06:18.
