data_PCOD8133033
_publ_section_title
;
Structure prediction by ZEFSAII (Michael W. Deem and Ramdas Pophale) SiO2 
 PCOD8133033
Probable space group: C 2/C
;
_chemical_formula_sum "Si O2"
_cell_formula_units_Z 64
_cell_length_a 22.853517
_cell_length_b 19.035184
_cell_length_c 19.572267
_cell_angle_alpha 90.000000
_cell_angle_beta 159.184942
_cell_angle_gamma 90.000000
_cell_volume 3025.594997
_symmetry_space_group_name_H-M "C 2/C"
_symmetry_group_IT_number 15
_symmetry_cell_setting 'monoclinic'
loop_
_space_group_symop_operation_xyz
x,y,z
-x,y,1/2-z
-x,-y,-z
x,-y,1/2+z
1/2+x,1/2+y,z
1/2-x,1/2+y,1/2-z
1/2-x,1/2-y,-z
1/2+x,1/2-y,1/2+z
loop_
_atom_site_type_symbol
_atom_site_label
_atom_site_fract_x
_atom_site_fract_y
_atom_site_fract_z
Si Si1 0.795199 0.218071 0.942034
Si Si2 0.954761 0.036031 0.622123
Si Si3 0.544142 0.605718 0.168476
Si Si4 0.723357 0.122404 0.551478
Si Si5 0.592910 0.702810 0.111343
Si Si6 0.869502 0.382717 0.702666
Si Si7 0.199437 0.742023 0.280207
Si Si8 0.327410 0.855296 0.064610
O O1 0.679246 0.238770 0.752990
O O2 0.708888 0.161024 0.896387
O O3 0.852145 0.284946 0.047229
O O4 0.958855 0.179945 0.093880
O O5 0.771400 0.068746 0.416167
O O6 0.000000 0.020601 0.750000
O O7 0.105149 0.079747 0.750972
O O8 0.935618 0.964000 0.557209
O O9 0.604366 0.623667 0.156846
O O10 0.692577 0.593864 0.384050
O O11 0.701288 0.139418 0.447889
O O12 0.555156 0.083639 0.396907
O O13 0.731395 0.196426 0.597656
O O14 0.657834 0.700124 0.104306
O O15 0.406216 0.727585 0.898027
O O16 0.895578 0.313249 0.776176
O O17 0.500000 0.897121 0.250000
#
# Coordination Sequence:
#
# PCOD8133033 Si02
#       8
#     8   8   8   8   8   8   8   8
#     4  10  19  34  54  81 121 160 211 260 311 360
#     4  10  22  42  65  95 131 169 211 264 326 387
#     4  11  22  40  58  88 128 170 207 258 318 380
#     4  10  22  41  67  97 127 157 215 272 324 391
#     4  11  23  35  62  89 127 168 211 260 312 378
#     4  10  22  41  67  97 125 164 210 270 330 384
#     4  12  21  41  63  94 125 163 207 270 328 372
#     4  10  19  31  55  87 112 156 214 267 309 360
#
# _framework density 21.152864999999998
#
# number of rings (size 3 to 8) (size 9 to 14) (size 15 to 20)
#    0.000    1.500    2.500    4.500    1.750    0.000 
#    6.750    2.500    0.000    2.250    0.000    0.000 
#    0.000    0.000    0.000    0.000    0.000    0.000 
#
# Total GULP energy -396529.122634 kJ/mol
# GULP energy per Si atom -12391.535082 kJ/mol
# Density = 2.110472 g / cm^3
# Si number density = 21.152865 Si / 1000 Ang^3
#
#
#
# Elastic Constant Matrix: (Units=GPa)
#
#
# Indices 1 2 3 4 5 6 
#
# 1 96.1955 47.7021 32.2979 0.0119 14.7423 0.0081
# 2 47.7021 79.8617 29.4560 -0.0344 10.5965 -0.0266
# 3 32.2979 29.4560 108.4615 -0.0261 18.6789 -0.0185
# 4 0.0119 -0.0344 -0.0261 16.1104 -0.0189 4.2650
# 5 14.7423 10.5965 18.6789 -0.0189 36.8790 -0.0286
# 6 0.0081 -0.0266 -0.0185 4.2650 -0.0286 32.0459
#
#
#
# Elastic Compliance Matrix: (Units=1/GPa)
#
#
# Indices 1 2 3 4 5 6 
#
# 1 0.015544 -0.008198 -0.001904 -0.000033 -0.002894 -0.000010
# 2 -0.008198 0.018417 -0.002425 0.000038 -0.000786 0.000010
# 3 -0.001904 -0.002425 0.011169 0.000009 -0.004199 0.000000
# 4 -0.000033 0.000038 0.000009 0.064339 0.000024 -0.008563
# 5 -0.002894 -0.000786 -0.004199 0.000024 0.030625 0.000022
# 6 -0.000010 0.000010 0.000000 -0.008563 0.000022 0.032345
#
#
# Mechanical properties :
#
#
# Convention : Reuss Voigt Hill
#
# Bulk Modulus (GPa) = 49.81253 55.93672 52.87463
# Shear Modulus (GPa) = 24.48772 28.67791 26.58282
#
# Velocity S-wave (km/s) = 3.40612 3.68604 3.54884
# Velocity P-wave (km/s) = 6.25051 6.67962 6.46862
#
# Compressibility (1/GPa) = 0.02007527
#
# Stress axis : x y z
#
# Youngs Moduli (GPa) = 64.33543 54.29675 89.53751
#
# Poissons Ratio (x) = 0.44513 0.17046
# Poissons Ratio (y) = 0.52743 0.21714
# Poissons Ratio (z) = 0.12248 0.13167
#
# Static dielectric constant tensor:
#      x y z
#    x 4.102370 -0.000250 0.235570 
#    y -0.000250 3.405450 -0.000350 
#    z 0.235570 -0.000350 3.960030 
# 
# 
# High freq. dielectric constant tensor:
#      x y z
#    x 1.842230 -0.000010 0.016740 
#    y -0.000010 1.787590 -0.000010 
#    z 0.016740 -0.000010 1.835250 
# 
# From -- ./inp_files/256049.got.cif
#   From: 2010.06.25/outbox.cif.g09.slc.cpg/sg15_129_cif.got.tgz:256049.got - 2010.06.28 07:06:18.
