data_PCOD8133927
_publ_section_title
;
Structure prediction by ZEFSAII (Michael W. Deem and Ramdas Pophale) SiO2 
 PCOD8133927
Probable space group: C 2/C
;
_chemical_formula_sum "Si O2"
_cell_formula_units_Z 48
_cell_length_a 14.540198
_cell_length_b 15.559189
_cell_length_c 14.555763
_cell_angle_alpha 90.000000
_cell_angle_beta 40.790533
_cell_angle_gamma 90.000000
_cell_volume 2151.304721
_symmetry_space_group_name_H-M "C 2/C"
_symmetry_group_IT_number 15
_symmetry_cell_setting 'monoclinic'
loop_
_space_group_symop_operation_xyz
x,y,z
-x,y,1/2-z
-x,-y,-z
x,-y,1/2+z
1/2+x,1/2+y,z
1/2-x,1/2+y,1/2-z
1/2-x,1/2-y,-z
1/2+x,1/2-y,1/2+z
loop_
_atom_site_type_symbol
_atom_site_label
_atom_site_fract_x
_atom_site_fract_y
_atom_site_fract_z
Si Si1 0.878062 0.509192 0.197628
Si Si2 0.915954 0.313772 0.220055
Si Si3 0.684969 0.026439 0.950730
Si Si4 0.928738 0.861655 0.215067
Si Si5 0.644000 0.490897 0.509497
Si Si6 0.104588 0.193045 0.957457
O O1 0.893303 0.406315 0.192430
O O2 0.834779 0.532047 0.125582
O O3 0.754301 0.540663 0.358890
O O4 0.029364 0.551694 0.107116
O O5 0.762545 0.273519 0.356885
O O6 0.000000 0.322351 0.250000
O O7 0.994897 0.253781 0.089218
O O8 0.770711 0.970537 0.961038
O O9 0.769261 0.113523 0.863042
O O10 0.928117 0.800988 0.126943
O O11 0.000000 0.815489 0.250000
O O12 0.011207 0.949704 0.129749
O O13 0.585948 0.404108 0.508386
#
# Coordination Sequence:
#
# PCOD8133927 Si02
#       6
#     8   8   8   8   8   8
#     4  10  20  36  59  86 123 146 192 237 298 344
#     4  11  23  40  60  85 120 160 193 235 287 354
#     4  10  19  34  60  87 114 153 182 245 295 343
#     4  10  21  39  62  85 115 152 196 245 296 338
#     4  10  20  36  61  87 118 147 195 242 297 338
#     4  11  23  41  57  87 122 155 196 240 284 351
#
# _framework density 22.312041000000001
#
# number of rings (size 3 to 8) (size 9 to 14) (size 15 to 20)
#    0.000    1.667    3.333    3.500    0.000    3.333 
#    3.000    0.833    0.000    0.000    0.000    0.000 
#    0.000    0.000    0.000    0.000    0.000    0.000 
#
# Total GULP energy -297552.665835 kJ/mol
# GULP energy per Si atom -12398.027743 kJ/mol
# Density = 2.226126 g / cm^3
# Si number density = 22.312041 Si / 1000 Ang^3
#
#
#
# Elastic Constant Matrix: (Units=GPa)
#
#
# Indices 1 2 3 4 5 6 
#
# 1 114.9582 3.9465 3.5285 -0.0001 14.7539 0.0001
# 2 3.9465 17.0286 21.9428 -0.0001 0.4752 0.0001
# 3 3.5285 21.9428 102.6017 -0.0002 -5.5897 0.0002
# 4 -0.0001 -0.0001 -0.0002 17.5814 0.0001 -4.6190
# 5 14.7539 0.4752 -5.5897 0.0001 44.7881 -0.0001
# 6 0.0001 0.0001 0.0002 -4.6190 -0.0001 2.8894
#
#
#
# Elastic Compliance Matrix: (Units=1/GPa)
#
#
# Indices 1 2 3 4 5 6 
#
# 1 0.009153 -0.001962 -0.000059 0.000000 -0.003002 0.000000
# 2 -0.001962 0.081900 -0.017580 0.000000 -0.002417 -0.000002
# 3 -0.000059 -0.017580 0.013612 0.000000 0.001905 0.000000
# 4 0.000000 0.000000 0.000000 0.098063 0.000000 0.156763
# 5 -0.003002 -0.002417 0.001905 0.000000 0.023580 0.000001
# 6 0.000000 -0.000002 0.000000 0.156763 0.000001 0.596688
#
#
# Mechanical properties :
#
#
# Convention : Reuss Voigt Hill
#
# Bulk Modulus (GPa) = 15.27547 32.60268 23.93907
# Shear Modulus (GPa) = 5.65600 26.72985 16.19292
#
# Velocity S-wave (km/s) = 1.59388 3.46497 2.69689
# Velocity P-wave (km/s) = 3.20132 5.53642 4.52219
#
# Compressibility (1/GPa) = 0.06546443
#
# Stress axis : x y z
#
# Youngs Moduli (GPa) = 109.25126 12.21005 73.46533
#
# Poissons Ratio (x) = 0.02395 0.00432
# Poissons Ratio (y) = 0.21433 1.29149
# Poissons Ratio (z) = 0.00642 0.21465
#
# Static dielectric constant tensor:
#      x y z
#    x 4.486110 0.000000 -0.028560 
#    y 0.000000 3.274330 0.000000 
#    z -0.028560 0.000000 4.495220 
# 
# 
# High freq. dielectric constant tensor:
#      x y z
#    x 1.907680 0.000000 -0.000990 
#    y 0.000000 1.803900 0.000000 
#    z -0.000990 0.000000 1.903250 
# 
# From -- ./inp_files/155080.got.cif
#   From: 2010.06.25/outbox.cif.g09.slc.cpg/sg15_78_cif.got.tgz:155080.got - 2010.06.28 07:06:18.
