data_PCOD8133789
_publ_section_title
;
Structure prediction by ZEFSAII (Michael W. Deem and Ramdas Pophale) SiO2 
 PCOD8133789
Probable space group: C 2/C
;
_chemical_formula_sum "Si O2"
_cell_formula_units_Z 40
_cell_length_a 5.050079
_cell_length_b 23.372363
_cell_length_c 16.503621
_cell_angle_alpha 90.000000
_cell_angle_beta 92.614545
_cell_angle_gamma 90.000000
_cell_volume 1945.932224
_symmetry_space_group_name_H-M "C 2/C"
_symmetry_group_IT_number 15
_symmetry_cell_setting 'monoclinic'
loop_
_space_group_symop_operation_xyz
x,y,z
-x,y,1/2-z
-x,-y,-z
x,-y,1/2+z
1/2+x,1/2+y,z
1/2-x,1/2+y,1/2-z
1/2-x,1/2-y,-z
1/2+x,1/2-y,1/2+z
loop_
_atom_site_type_symbol
_atom_site_label
_atom_site_fract_x
_atom_site_fract_y
_atom_site_fract_z
Si Si1 0.559364 0.668098 0.845988
Si Si2 0.059565 0.729378 0.843169
Si Si3 0.755640 0.933271 0.049606
Si Si4 0.248884 0.851085 0.804437
Si Si5 0.736404 0.435339 0.946528
O O1 0.500000 0.668250 0.750000
O O2 0.285114 0.687904 0.884357
O O3 0.661085 0.605745 0.873415
O O4 0.777436 0.714974 0.880490
O O5 0.157163 0.794573 0.852022
O O6 0.000000 0.713158 0.750000
O O7 0.780255 0.998439 0.079427
O O8 0.454154 0.922952 0.018573
O O9 0.949604 0.918048 0.977287
O O10 0.500000 0.837473 0.750000
O O11 0.321305 0.899815 0.869109
O O12 0.000000 0.873898 0.750000
#
# Coordination Sequence:
#
# PCOD8133789 Si02
#       5
#     8   8   8   8   8
#     4  10  19  34  57  82 108 142 184 223 265 324
#     4   9  18  33  53  80 111 141 173 223 280 316
#     4  10  21  39  57  78 114 149 179 224 280 327
#     4  11  21  37  60  83 109 143 187 228 266 325
#     4  10  22  39  57  79 112 150 181 223 282 325
#
# _framework density 20.555700000000002
#
# number of rings (size 3 to 8) (size 9 to 14) (size 15 to 20)
#    0.000    2.000    0.000    5.400    0.000    0.800 
#    0.000    9.000    0.000    0.000    0.000    0.000 
#    0.000    0.000    0.000    0.000    0.000    0.000 
#
# Total GULP energy -247876.629449 kJ/mol
# GULP energy per Si atom -12393.831472 kJ/mol
# Density = 2.050891 g / cm^3
# Si number density = 20.555700 Si / 1000 Ang^3
#
#
#
# Elastic Constant Matrix: (Units=GPa)
#
#
# Indices 1 2 3 4 5 6 
#
# 1 116.1065 45.3260 23.5288 0.0000 11.7938 0.0000
# 2 45.3260 119.3388 46.6908 0.0000 8.0027 0.0000
# 3 23.5288 46.6908 38.1744 0.0000 6.7151 0.0000
# 4 0.0000 0.0000 0.0000 24.1755 0.0000 4.4084
# 5 11.7938 8.0027 6.7151 0.0000 21.0293 0.0000
# 6 0.0000 0.0000 0.0000 4.4084 0.0000 30.5939
#
#
#
# Elastic Compliance Matrix: (Units=1/GPa)
#
#
# Indices 1 2 3 4 5 6 
#
# 1 0.010615 -0.002837 -0.002348 0.000000 -0.004124 0.000000
# 2 -0.002837 0.016828 -0.019057 0.000000 0.001272 0.000000
# 3 -0.002348 -0.019057 0.052386 0.000000 -0.008159 0.000000
# 4 0.000000 0.000000 0.000000 0.042480 0.000000 -0.006121
# 5 -0.004124 0.001272 -0.008159 0.000000 0.051987 0.000000
# 6 0.000000 0.000000 0.000000 -0.006121 0.000000 0.033568
#
#
# Mechanical properties :
#
#
# Convention : Reuss Voigt Hill
#
# Bulk Modulus (GPa) = 31.90189 56.07897 43.99043
# Shear Modulus (GPa) = 18.74095 25.69802 22.21949
#
# Velocity S-wave (km/s) = 3.02274 3.53960 3.29133
# Velocity P-wave (km/s) = 5.26650 6.63670 5.99090
#
# Compressibility (1/GPa) = 0.03134610
#
# Stress axis : x y z
#
# Youngs Moduli (GPa) = 94.20844 59.42637 19.08890
#
# Poissons Ratio (x) = 0.16857 0.04481
# Poissons Ratio (y) = 0.26723 0.36378
# Poissons Ratio (z) = 0.22117 1.13250
#
# Static dielectric constant tensor:
#      x y z
#    x 4.327080 0.000000 0.141110 
#    y 0.000000 3.642210 0.000000 
#    z 0.141110 0.000000 3.208210 
# 
# 
# High freq. dielectric constant tensor:
#      x y z
#    x 1.833790 0.000000 0.016920 
#    y 0.000000 1.802800 0.000000 
#    z 0.016920 0.000000 1.758300 
# 
# From -- ./inp_files/129107.got.cif
#   From: 2010.06.25/outbox.cif.g09.slc.cpg/sg15_65_cif.got.tgz:129107.got - 2010.06.28 07:06:18.
