data_PCOD8133478
_publ_section_title
;
Structure prediction by ZEFSAII (Michael W. Deem and Ramdas Pophale) SiO2 
 PCOD8133478
Probable space group: C 2/C
;
_chemical_formula_sum "Si O2"
_cell_formula_units_Z 32
_cell_length_a 8.162605
_cell_length_b 22.386726
_cell_length_c 12.165852
_cell_angle_alpha 90.000000
_cell_angle_beta 48.568448
_cell_angle_gamma 90.000000
_cell_volume 1666.773178
_symmetry_space_group_name_H-M "C 2/C"
_symmetry_group_IT_number 15
_symmetry_cell_setting 'monoclinic'
loop_
_space_group_symop_operation_xyz
x,y,z
-x,y,1/2-z
-x,-y,-z
x,-y,1/2+z
1/2+x,1/2+y,z
1/2-x,1/2+y,1/2-z
1/2-x,1/2-y,-z
1/2+x,1/2-y,1/2+z
loop_
_atom_site_type_symbol
_atom_site_label
_atom_site_fract_x
_atom_site_fract_y
_atom_site_fract_z
Si Si1 0.699252 0.949545 0.585214
Si Si2 0.107238 0.307016 0.088061
Si Si3 0.751199 0.878256 0.344635
Si Si4 0.677238 0.420872 0.426836
O O1 0.500000 0.928443 0.750000
O O2 0.676037 0.922841 0.473744
O O3 0.916854 0.925322 0.546591
O O4 0.710901 0.021044 0.569763
O O5 0.262085 0.364857 0.024792
O O6 0.000000 0.291726 0.250000
O O7 0.913217 0.321154 0.085904
O O8 0.250000 0.250000 0.000000
O O9 0.731216 0.913558 0.237953
O O10 0.000000 0.855281 0.250000
#
# Coordination Sequence:
#
# PCOD8133478 Si02
#       4
#     8   8   8   8
#     4  10  19  33  56  84 108 138 180 219 260 320
#     4  10  21  38  56  76 106 143 181 220 267 316
#     4   9  19  37  56  78 111 145 172 215 277 321
#     4   9  20  36  53  78 113 143 171 217 275 318
#
# _framework density 19.198772000000002
#
# number of rings (size 3 to 8) (size 9 to 14) (size 15 to 20)
#    0.000    2.500    0.000    2.250    0.000    6.000 
#    0.000   18.750    0.000    0.000    0.000    0.000 
#    0.000    0.000    0.000    0.000    0.000    0.000 
#
# Total GULP energy -198369.427927 kJ/mol
# GULP energy per Si atom -12398.089245 kJ/mol
# Density = 1.915508 g / cm^3
# Si number density = 19.198772 Si / 1000 Ang^3
#
#
#
# Elastic Constant Matrix: (Units=GPa)
#
#
# Indices 1 2 3 4 5 6 
#
# 1 116.6994 83.2010 53.6116 0.0000 -5.6510 0.0000
# 2 83.2010 144.7901 62.0142 0.0000 -14.1017 0.0000
# 3 53.6116 62.0142 98.8436 0.0000 -18.9292 0.0000
# 4 0.0000 0.0000 0.0000 23.9554 0.0000 -12.1405
# 5 -5.6510 -14.1017 -18.9292 0.0000 29.1525 0.0000
# 6 0.0000 0.0000 0.0000 -12.1405 0.0000 33.0123
#
#
#
# Elastic Compliance Matrix: (Units=1/GPa)
#
#
# Indices 1 2 3 4 5 6 
#
# 1 0.015832 -0.007485 -0.004564 0.000000 -0.003515 0.000000
# 2 -0.007485 0.013001 -0.003620 0.000000 0.002487 0.000000
# 3 -0.004564 -0.003620 0.016398 0.000000 0.008012 0.000000
# 4 0.000000 0.000000 0.000000 0.051307 0.000000 0.018868
# 5 -0.003515 0.002487 0.008012 0.000000 0.040026 0.000000
# 6 0.000000 0.000000 0.000000 0.018868 0.000000 0.037231
#
#
# Mechanical properties :
#
#
# Convention : Reuss Voigt Hill
#
# Bulk Modulus (GPa) = 71.98675 84.22076 78.10375
# Shear Modulus (GPa) = 23.83623 27.99111 25.91367
#
# Velocity S-wave (km/s) = 3.52739 3.82247 3.67789
# Velocity P-wave (km/s) = 7.35981 7.96522 7.66849
#
# Compressibility (1/GPa) = 0.01389145
#
# Stress axis : x y z
#
# Youngs Moduli (GPa) = 63.16264 76.91949 60.98188
#
# Poissons Ratio (x) = 0.57575 0.27834
# Poissons Ratio (y) = 0.47278 0.22078
# Poissons Ratio (z) = 0.28829 0.27848
#
# Static dielectric constant tensor:
#      x y z
#    x 3.796170 0.000000 -0.221630 
#    y 0.000000 3.369900 0.000000 
#    z -0.221630 0.000000 3.488270 
# 
# 
# High freq. dielectric constant tensor:
#      x y z
#    x 1.761840 0.000000 -0.017560 
#    y 0.000000 1.727700 0.000000 
#    z -0.017560 0.000000 1.741880 
# 
# From -- ./inp_files/22094.got.cif
#   From: 2010.06.25/outbox.cif.g09.slc.cpg/sg15_12_cif.got.tgz:22094.got - 2010.06.28 07:06:18.
