data_PCOD8133739
_publ_section_title
;
Structure prediction by ZEFSAII (Michael W. Deem and Ramdas Pophale) SiO2 
 PCOD8133739
Probable space group: C 2/C
;
_chemical_formula_sum "Si O2"
_cell_formula_units_Z 64
_cell_length_a 20.792362
_cell_length_b 9.291044
_cell_length_c 23.149756
_cell_angle_alpha 90.000000
_cell_angle_beta 126.432762
_cell_angle_gamma 90.000000
_cell_volume 3598.074468
_symmetry_space_group_name_H-M "C 2/C"
_symmetry_group_IT_number 15
_symmetry_cell_setting 'monoclinic'
loop_
_space_group_symop_operation_xyz
x,y,z
-x,y,1/2-z
-x,-y,-z
x,-y,1/2+z
1/2+x,1/2+y,z
1/2-x,1/2+y,1/2-z
1/2-x,1/2-y,-z
1/2+x,1/2-y,1/2+z
loop_
_atom_site_type_symbol
_atom_site_label
_atom_site_fract_x
_atom_site_fract_y
_atom_site_fract_z
Si Si1 0.243274 0.564173 0.909938
Si Si2 0.651327 0.964564 0.468555
Si Si3 0.076199 0.594675 0.530943
Si Si4 0.267110 0.942280 0.318507
Si Si5 0.197220 0.882828 0.877888
Si Si6 0.278058 0.603848 0.317041
Si Si7 0.957912 0.897418 0.932631
Si Si8 0.396838 0.649002 0.064573
O O1 0.177847 0.492082 0.918133
O O2 0.211106 0.716246 0.867705
O O3 0.246291 0.449653 0.861037
O O4 0.329989 0.583293 0.985905
O O5 0.732987 0.929003 0.543164
O O6 0.599173 0.820844 0.438568
O O7 0.602742 0.088695 0.477149
O O8 0.147588 0.526744 0.606749
O O9 0.054349 0.753183 0.537626
O O10 0.000000 0.500000 0.500000
O O11 0.256994 0.772503 0.302868
O O12 0.196975 0.012820 0.321538
O O13 0.268349 0.023291 0.258414
O O14 0.118014 0.897066 0.876224
O O15 0.371325 0.559091 0.362159
O O16 0.014492 0.896100 0.906768
O O17 0.000000 0.000000 0.000000
#
# Coordination Sequence:
#
# PCOD8133739 Si02
#       8
#     8   8   8   8   8   8   8   8
#     4   9  16  30  54  77 105 138 174 211 259 306
#     4   8  15  29  52  80 103 137 174 211 253 309
#     4  10  19  34  56  79 107 134 175 218 258 313
#     4  10  22  36  51  79 103 139 184 211 263 313
#     4   8  16  31  53  76 101 140 176 212 254 307
#     4  11  22  36  54  76 106 141 176 219 259 318
#     4  11  21  32  50  84 111 134 169 215 273 309
#     4   9  15  30  52  78 110 134 170 214 259 311
#
# _framework density 17.787292000000001
#
# number of rings (size 3 to 8) (size 9 to 14) (size 15 to 20)
#    0.000    2.500    2.500    2.250    0.000    1.000 
#    2.250    3.125    0.000    0.750    3.250    0.000 
#    0.000    0.000    0.000    0.000    0.000    0.000 
#
# Total GULP energy -396494.300121 kJ/mol
# GULP energy per Si atom -12390.446879 kJ/mol
# Density = 1.774681 g / cm^3
# Si number density = 17.787292 Si / 1000 Ang^3
#
#
#
# Elastic Constant Matrix: (Units=GPa)
#
#
# Indices 1 2 3 4 5 6 
#
# 1 135.1001 43.2743 39.8994 0.0000 -16.7225 0.0000
# 2 43.2743 72.6626 39.3243 0.0000 -9.4946 0.0000
# 3 39.8994 39.3243 68.9692 0.0000 -14.8789 0.0000
# 4 0.0000 0.0000 0.0000 26.2794 0.0000 -6.2461
# 5 -16.7225 -9.4946 -14.8789 0.0000 20.2122 0.0000
# 6 0.0000 0.0000 0.0000 -6.2461 0.0000 29.8989
#
#
#
# Elastic Compliance Matrix: (Units=1/GPa)
#
#
# Indices 1 2 3 4 5 6 
#
# 1 0.009986 -0.003988 -0.002526 0.000000 0.004529 0.000000
# 2 -0.003988 0.021521 -0.010098 0.000000 -0.000624 0.000000
# 3 -0.002526 -0.010098 0.024066 0.000000 0.010882 0.000000
# 4 0.000000 0.000000 0.000000 0.040041 0.000000 0.008365
# 5 0.004529 -0.000624 0.010882 0.000000 0.060940 0.000000
# 6 0.000000 0.000000 0.000000 0.008365 0.000000 0.035194
#
#
# Mechanical properties :
#
#
# Convention : Reuss Voigt Hill
#
# Bulk Modulus (GPa) = 44.74616 57.96977 51.35796
# Shear Modulus (GPa) = 21.51274 25.56036 23.53655
#
# Velocity S-wave (km/s) = 3.48148 3.79489 3.64156
# Velocity P-wave (km/s) = 6.43209 7.20159 6.82769
#
# Compressibility (1/GPa) = 0.02234829
#
# Stress axis : x y z
#
# Youngs Moduli (GPa) = 100.14001 46.46656 41.55304
#
# Poissons Ratio (x) = 0.18533 0.10496
# Poissons Ratio (y) = 0.39940 0.41959
# Poissons Ratio (z) = 0.25294 0.46921
#
# Static dielectric constant tensor:
#      x y z
#    x 5.244720 0.000000 -2.001270 
#    y 0.000000 0.509840 0.000000 
#    z -2.001270 0.000000 4.810350 
# 
# 
# High freq. dielectric constant tensor:
#      x y z
#    x 1.700620 0.000000 -0.019690 
#    y 0.000000 1.678710 0.000000 
#    z -0.019690 0.000000 1.656160 
# 
# From -- ./inp_files/279391.got.cif
#   From: 2010.06.25/outbox.cif.g09.slc.cpg/sg15_140_cif.got.tgz:279391.got - 2010.06.28 07:06:18.
