data_PCOD8133909
_publ_section_title
;
Structure prediction by ZEFSAII (Michael W. Deem and Ramdas Pophale) SiO2 
 PCOD8133909
Probable space group: C 2/C
;
_chemical_formula_sum "Si O2"
_cell_formula_units_Z 32
_cell_length_a 8.769791
_cell_length_b 33.952541
_cell_length_c 5.152022
_cell_angle_alpha 90.000000
_cell_angle_beta 91.359256
_cell_angle_gamma 90.000000
_cell_volume 1533.617345
_symmetry_space_group_name_H-M "C 2/C"
_symmetry_group_IT_number 15
_symmetry_cell_setting 'monoclinic'
loop_
_space_group_symop_operation_xyz
x,y,z
-x,y,1/2-z
-x,-y,-z
x,-y,1/2+z
1/2+x,1/2+y,z
1/2-x,1/2+y,1/2-z
1/2-x,1/2-y,-z
1/2+x,1/2-y,1/2+z
loop_
_atom_site_type_symbol
_atom_site_label
_atom_site_fract_x
_atom_site_fract_y
_atom_site_fract_z
Si Si1 0.824277 0.268676 0.250479
Si Si2 0.824666 0.638906 0.701878
Si Si3 0.169259 0.015985 0.075248
Si Si4 0.169264 0.893846 0.693817
O O1 0.750000 0.250000 0.500000
O O2 0.798326 0.315028 0.237606
O O3 0.000000 0.257416 0.250000
O O4 0.750000 0.250000 0.000000
O O5 0.782063 0.624465 0.411920
O O6 0.000000 0.627167 0.750000
O O7 0.717135 0.618511 0.908063
O O8 0.252236 0.011603 0.798542
O O9 0.171477 0.059124 0.196983
O O10 0.000000 0.000000 0.000000
O O11 0.000000 0.878202 0.750000
#
# Coordination Sequence:
#
# PCOD8133909 Si02
#       4
#     8   8   8   8
#     4  11  24  43  68  93 126 173 211 262 316 384
#     4  11  26  44  61  92 139 173 200 252 347 390
#     4  10  19  34  59  92 122 156 206 268 327 359
#     4  12  23  38  68  99 120 165 222 275 303 371
#
# _framework density 20.865701999999999
#
# number of rings (size 3 to 8) (size 9 to 14) (size 15 to 20)
#    0.000    1.000    2.500    5.250    3.500   10.000 
#    0.000    0.000    0.000   15.000    0.000    0.000 
#    0.000    0.000    0.000    0.000    0.000    0.000 
#
# Total GULP energy -198336.657439 kJ/mol
# GULP energy per Si atom -12396.041090 kJ/mol
# Density = 2.081821 g / cm^3
# Si number density = 20.865702 Si / 1000 Ang^3
#
#
#
# Elastic Constant Matrix: (Units=GPa)
#
#
# Indices 1 2 3 4 5 6 
#
# 1 88.7217 49.7237 30.5594 0.0000 1.7715 0.0000
# 2 49.7237 91.1321 36.9365 0.0000 5.6760 0.0000
# 3 30.5594 36.9365 165.5195 0.0000 3.0930 0.0000
# 4 0.0000 0.0000 0.0000 46.0076 0.0000 7.3092
# 5 1.7715 5.6760 3.0930 0.0000 40.8092 0.0000
# 6 0.0000 0.0000 0.0000 7.3092 0.0000 21.3365
#
#
#
# Elastic Compliance Matrix: (Units=1/GPa)
#
#
# Indices 1 2 3 4 5 6 
#
# 1 0.016441 -0.008544 -0.001139 0.000000 0.000561 0.000000
# 2 -0.008544 0.016593 -0.002092 0.000000 -0.001778 0.000000
# 3 -0.001139 -0.002092 0.006722 0.000000 -0.000169 0.000000
# 4 0.000000 0.000000 0.000000 0.022987 0.000000 -0.007874
# 5 0.000561 -0.001778 -0.000169 0.000000 0.024740 0.000000
# 6 0.000000 0.000000 0.000000 -0.007874 0.000000 0.049566
#
#
# Mechanical properties :
#
#
# Convention : Reuss Voigt Hill
#
# Bulk Modulus (GPa) = 61.70668 64.42362 63.06515
# Shear Modulus (GPa) = 30.12040 36.84092 33.48066
#
# Velocity S-wave (km/s) = 3.80351 4.20649 4.01006
# Velocity P-wave (km/s) = 6.99474 7.38479 7.19241
#
# Compressibility (1/GPa) = 0.01620570
#
# Stress axis : x y z
#
# Youngs Moduli (GPa) = 60.82495 60.26489 148.76525
#
# Poissons Ratio (x) = 0.51487 0.16949
# Poissons Ratio (y) = 0.51966 0.31126
# Poissons Ratio (z) = 0.06930 0.12609
#
# Static dielectric constant tensor:
#      x y z
#    x 3.737110 0.000000 0.362520 
#    y 0.000000 3.836570 0.000000 
#    z 0.362520 0.000000 -7.725460 
# 
# 
# High freq. dielectric constant tensor:
#      x y z
#    x 1.795740 0.000000 -0.000090 
#    y 0.000000 1.827650 0.000000 
#    z -0.000090 0.000000 1.854050 
# 
# From -- ./inp_files/2395.got.cif
#   From: 2010.06.25/outbox.cif.g09.slc.cpg/sg15_2_cif.got.tgz:2395.got - 2010.06.28 07:06:18.
