data_PCOD8133594
_publ_section_title
;
Structure prediction by ZEFSAII (Michael W. Deem and Ramdas Pophale) SiO2 
 PCOD8133594
Probable space group: C 2/C
;
_chemical_formula_sum "Si O2"
_cell_formula_units_Z 64
_cell_length_a 20.227924
_cell_length_b 19.923443
_cell_length_c 9.387825
_cell_angle_alpha 90.000000
_cell_angle_beta 57.267262
_cell_angle_gamma 90.000000
_cell_volume 3182.591991
_symmetry_space_group_name_H-M "C 2/C"
_symmetry_group_IT_number 15
_symmetry_cell_setting 'monoclinic'
loop_
_space_group_symop_operation_xyz
x,y,z
-x,y,1/2-z
-x,-y,-z
x,-y,1/2+z
1/2+x,1/2+y,z
1/2-x,1/2+y,1/2-z
1/2-x,1/2-y,-z
1/2+x,1/2-y,1/2+z
loop_
_atom_site_type_symbol
_atom_site_label
_atom_site_fract_x
_atom_site_fract_y
_atom_site_fract_z
Si Si1 0.800227 0.418141 0.173989
Si Si2 0.176516 0.833408 0.703353
Si Si3 0.714608 0.951272 0.976493
Si Si4 0.332049 0.249091 0.042513
Si Si5 0.575827 0.696475 0.576322
Si Si6 0.538916 0.149125 0.065871
Si Si7 0.068578 0.626868 0.570003
Si Si8 0.799086 0.802912 0.355248
O O1 0.784372 0.443493 0.353303
O O2 0.751258 0.353289 0.183204
O O3 0.774141 0.472536 0.086287
O O4 0.891847 0.399627 0.064925
O O5 0.214241 0.907002 0.669309
O O6 0.240753 0.775062 0.662891
O O7 0.153138 0.815668 0.568465
O O8 0.097947 0.831614 0.893403
O O9 0.633838 0.930979 0.989852
O O10 0.356592 0.265071 0.176149
O O11 0.387459 0.191333 0.912605
O O12 0.500000 0.668708 0.750000
O O13 0.571617 0.776878 0.564733
O O14 0.645531 0.665067 0.590697
O O15 0.500000 0.116552 0.250000
O O16 0.467547 0.148424 0.037661
O O17 0.000000 0.600845 0.750000
O O18 0.750000 0.750000 0.500000
#
# Coordination Sequence:
#
# PCOD8133594 Si02
#       8
#     8   8   8   8   8   8   8   8
#     4  12  26  44  63  93 127 176 231 265 314 391
#     4  10  20  38  60  90 124 161 215 273 322 376
#     4  11  27  42  64  92 127 181 230 264 315 386
#     4  10  19  33  62  89 123 168 210 267 325 371
#     4  11  23  39  65 100 132 163 206 271 343 396
#     4  11  23  38  59  94 139 172 212 261 315 391
#     4  11  22  38  60  93 136 172 210 261 318 382
#     4  12  22  39  66  95 129 165 212 273 329 378
#
# _framework density 20.109394999999999
#
# number of rings (size 3 to 8) (size 9 to 14) (size 15 to 20)
#    0.000    1.000    5.000    2.250    5.250    1.000 
#    0.000    0.000    0.000    0.750    0.000    0.000 
#    0.000    0.000    0.000    0.000    0.000    0.000 
#
# Total GULP energy -396483.711699 kJ/mol
# GULP energy per Si atom -12390.115991 kJ/mol
# Density = 2.006362 g / cm^3
# Si number density = 20.109395 Si / 1000 Ang^3
#
#
#
# Elastic Constant Matrix: (Units=GPa)
#
#
# Indices 1 2 3 4 5 6 
#
# 1 79.1553 21.7764 35.7742 0.0000 10.4711 0.0000
# 2 21.7764 69.9901 31.2659 0.0000 -3.4171 0.0000
# 3 35.7742 31.2659 150.8024 0.0000 -4.4209 0.0000
# 4 0.0000 0.0000 0.0000 24.9411 0.0000 7.2211
# 5 10.4711 -3.4171 -4.4209 0.0000 37.9293 0.0000
# 6 0.0000 0.0000 0.0000 7.2211 0.0000 21.2934
#
#
#
# Elastic Compliance Matrix: (Units=1/GPa)
#
#
# Indices 1 2 3 4 5 6 
#
# 1 0.015736 -0.003757 -0.003102 0.000000 -0.005044 0.000000
# 2 -0.003757 0.016684 -0.002502 0.000000 0.002249 0.000000
# 3 -0.003102 -0.002502 0.007931 0.000000 0.001555 0.000000
# 4 0.000000 0.000000 0.000000 0.044460 0.000000 -0.015077
# 5 -0.005044 0.002249 0.001555 0.000000 0.028141 0.000000
# 6 0.000000 0.000000 0.000000 -0.015077 0.000000 0.052076
#
#
# Mechanical properties :
#
#
# Convention : Reuss Voigt Hill
#
# Bulk Modulus (GPa) = 46.23155 53.06454 49.64804
# Shear Modulus (GPa) = 26.18351 30.90818 28.54585
#
# Velocity S-wave (km/s) = 3.61231 3.92472 3.77175
# Velocity P-wave (km/s) = 6.35911 6.85442 6.61141
#
# Compressibility (1/GPa) = 0.02163025
#
# Stress axis : x y z
#
# Youngs Moduli (GPa) = 63.54810 59.93753 126.08091
#
# Poissons Ratio (x) = 0.22516 0.39111
# Poissons Ratio (y) = 0.23873 0.31546
# Poissons Ratio (z) = 0.19713 0.14996
#
# Static dielectric constant tensor:
#      x y z
#    x 3.980570 0.000000 0.188980 
#    y 0.000000 3.339990 0.000000 
#    z 0.188980 0.000000 3.808730 
# 
# 
# High freq. dielectric constant tensor:
#      x y z
#    x 1.778490 0.000000 0.011790 
#    y 0.000000 1.750440 0.000000 
#    z 0.011790 0.000000 1.803750 
# 
# From -- ./inp_files/57841.got.cif
#   From: 2010.06.25/outbox.cif.g09.slc.cpg/sg15_29_cif.got.tgz:57841.got - 2010.06.28 07:06:18.
