data_PCOD8133101
_publ_section_title
;
Structure prediction by ZEFSAII (Michael W. Deem and Ramdas Pophale) SiO2 
 PCOD8133101
Probable space group: C 2/C
;
_chemical_formula_sum "Si O2"
_cell_formula_units_Z 56
_cell_length_a 15.075650
_cell_length_b 12.444069
_cell_length_c 21.133993
_cell_angle_alpha 90.000000
_cell_angle_beta 55.119706
_cell_angle_gamma 90.000000
_cell_volume 3252.508660
_symmetry_space_group_name_H-M "C 2/C"
_symmetry_group_IT_number 15
_symmetry_cell_setting 'monoclinic'
loop_
_space_group_symop_operation_xyz
x,y,z
-x,y,1/2-z
-x,-y,-z
x,-y,1/2+z
1/2+x,1/2+y,z
1/2-x,1/2+y,1/2-z
1/2-x,1/2-y,-z
1/2+x,1/2-y,1/2+z
loop_
_atom_site_type_symbol
_atom_site_label
_atom_site_fract_x
_atom_site_fract_y
_atom_site_fract_z
Si Si1 0.339088 0.870370 0.583924
Si Si2 0.000000 0.197566 0.750000
Si Si3 0.840624 0.433294 0.237634
Si Si4 0.000000 0.138696 0.250000
Si Si5 0.330516 0.474166 0.291070
Si Si6 0.947374 0.569988 0.917027
Si Si7 0.166032 0.704466 0.633511
Si Si8 0.956489 0.367717 0.663308
O O1 0.260862 0.973262 0.626659
O O2 0.431599 0.908239 0.497734
O O3 0.277495 0.768078 0.579891
O O4 0.390528 0.829339 0.628486
O O5 0.001780 0.268374 0.812919
O O6 0.108673 0.125918 0.700517
O O7 0.724049 0.432052 0.251201
O O8 0.833950 0.363807 0.302621
O O9 0.876391 0.556729 0.238865
O O10 0.934123 0.385188 0.152635
O O11 0.080001 0.065765 0.260287
O O12 0.067666 0.211290 0.174157
O O13 0.849402 0.626040 0.919332
O O14 0.943847 0.442076 0.902370
#
# Coordination Sequence:
#
# PCOD8133101 Si02
#       8
#     8   4   8   4   8   8   8   8
#     4  10  20  33  50  73 101 133 157 193 251 297
#     4  11  18  35  50  78  94 125 168 211 238 270
#     4   9  18  32  51  75  95 126 165 203 237 282
#     4   9  16  31  46  72  98 121 160 203 244 276
#     4   9  20  30  50  70 100 128 160 199 242 294
#     4  10  19  32  51  73 102 126 161 202 243 287
#     4  11  17  31  53  76  95 124 166 206 238 282
#     4   9  19  31  53  69 100 126 161 201 241 282
#
# _framework density 17.217479000000001
#
# number of rings (size 3 to 8) (size 9 to 14) (size 15 to 20)
#    0.857    1.429    1.429    2.571    0.000    0.000 
#    0.000    0.714    0.000    0.000    0.000    8.000 
#    0.000    0.000    0.000    0.000    0.000    0.000 
#
# Total GULP energy -346928.501894 kJ/mol
# GULP energy per Si atom -12390.303639 kJ/mol
# Density = 1.717829 g / cm^3
# Si number density = 17.217479 Si / 1000 Ang^3
#
#
#
# Elastic Constant Matrix: (Units=GPa)
#
#
# Indices 1 2 3 4 5 6 
#
# 1 103.8521 49.4484 21.1293 0.0000 8.5599 0.0000
# 2 49.4484 68.7050 8.9308 0.0000 5.7183 0.0000
# 3 21.1293 8.9308 48.1214 0.0000 7.7325 0.0000
# 4 0.0000 0.0000 0.0000 14.2073 0.0000 2.2705
# 5 8.5599 5.7183 7.7325 0.0000 11.5570 0.0000
# 6 0.0000 0.0000 0.0000 2.2705 0.0000 32.8832
#
#
#
# Elastic Compliance Matrix: (Units=1/GPa)
#
#
# Indices 1 2 3 4 5 6 
#
# 1 0.015834 -0.010525 -0.004428 0.000000 -0.003558 0.000000
# 2 -0.010525 0.022317 0.001122 0.000000 -0.003997 0.000000
# 3 -0.004428 0.001122 0.024739 0.000000 -0.013828 0.000000
# 4 0.000000 0.000000 0.000000 0.071171 0.000000 -0.004914
# 5 -0.003558 -0.003997 -0.013828 0.000000 0.100393 0.000000
# 6 0.000000 0.000000 0.000000 -0.004914 0.000000 0.030750
#
#
# Mechanical properties :
#
#
# Convention : Reuss Voigt Hill
#
# Bulk Modulus (GPa) = 28.38589 42.18838 35.28713
# Shear Modulus (GPa) = 16.41454 21.14083 18.77769
#
# Velocity S-wave (km/s) = 3.09101 3.50790 3.30603
# Velocity P-wave (km/s) = 5.40940 6.40028 5.92559
#
# Compressibility (1/GPa) = 0.03522877
#
# Stress axis : x y z
#
# Youngs Moduli (GPa) = 63.15358 44.80956 40.42261
#
# Poissons Ratio (x) = 0.47161 0.17898
# Poissons Ratio (y) = 0.66467 -0.04535
# Poissons Ratio (z) = 0.27962 -0.05027
#
# Static dielectric constant tensor:
#      x y z
#    x 3.355370 0.000000 -0.058010 
#    y 0.000000 3.287800 0.000000 
#    z -0.058010 0.000000 2.827520 
# 
# 
# High freq. dielectric constant tensor:
#      x y z
#    x 1.672360 0.000000 0.002510 
#    y 0.000000 1.663240 0.000000 
#    z 0.002510 0.000000 1.628940 
# 
# From -- ./inp_files/248341.got.cif
#   From: 2010.06.25/outbox.cif.g09.slc.cpg/sg15_125_cif.got.tgz:248341.got - 2010.06.28 07:06:18.
