data_PCOD8133758
_publ_section_title
;
Structure prediction by ZEFSAII (Michael W. Deem and Ramdas Pophale) SiO2 
 PCOD8133758
Probable space group: C 2/C
;
_chemical_formula_sum "Si O2"
_cell_formula_units_Z 64
_cell_length_a 14.684587
_cell_length_b 8.659839
_cell_length_c 25.024570
_cell_angle_alpha 90.000000
_cell_angle_beta 89.529649
_cell_angle_gamma 90.000000
_cell_volume 3182.171225
_symmetry_space_group_name_H-M "C 2/C"
_symmetry_group_IT_number 15
_symmetry_cell_setting 'monoclinic'
loop_
_space_group_symop_operation_xyz
x,y,z
-x,y,1/2-z
-x,-y,-z
x,-y,1/2+z
1/2+x,1/2+y,z
1/2-x,1/2+y,1/2-z
1/2-x,1/2-y,-z
1/2+x,1/2-y,1/2+z
loop_
_atom_site_type_symbol
_atom_site_label
_atom_site_fract_x
_atom_site_fract_y
_atom_site_fract_z
Si Si1 0.114864 0.870111 0.607540
Si Si2 0.867217 0.226812 0.865299
Si Si3 0.580701 0.651280 0.368698
Si Si4 0.274559 0.335815 0.552826
Si Si5 0.764095 0.876996 0.711457
Si Si6 0.430953 0.290379 0.115507
Si Si7 0.339281 0.659139 0.512103
Si Si8 0.742807 0.269551 0.321003
O O1 0.106268 0.873403 0.543042
O O2 0.193818 0.757239 0.627690
O O3 0.023295 0.790506 0.632895
O O4 0.138274 0.042920 0.626856
O O5 0.813874 0.325568 0.909784
O O6 0.820521 0.272763 0.809249
O O7 0.971975 0.282439 0.868721
O O8 0.638773 0.735960 0.415511
O O9 0.638152 0.673736 0.313954
O O10 0.565149 0.473332 0.382193
O O11 0.250000 0.250000 0.500000
O O12 0.301045 0.509006 0.541093
O O13 0.770711 0.849930 0.774564
O O14 0.745896 0.055682 0.698982
O O15 0.403731 0.248970 0.054040
O O16 0.358905 0.228683 0.159194
O O17 0.250000 0.750000 0.500000
#
# Coordination Sequence:
#
# PCOD8133758 Si02
#       8
#     8   8   8   8   8   8   8   8
#     4  11  21  36  62  87 114 155 197 236 285 342
#     4  10  21  38  60  87 116 151 199 240 282 342
#     4   8  20  36  57  84 114 149 197 235 275 350
#     4  10  19  34  56  84 116 153 195 233 275 330
#     4  10  22  42  62  84 116 148 191 247 294 341
#     4   9  20  37  59  85 116 157 196 227 286 355
#     4  11  21  36  57  84 124 159 190 232 286 346
#     4  11  22  41  64  84 115 153 192 242 296 347
#
# _framework density 20.112055000000002
#
# number of rings (size 3 to 8) (size 9 to 14) (size 15 to 20)
#    0.000    2.000    2.500    1.500    1.750    2.500 
#    0.000   10.625    0.000    0.000    0.000    0.000 
#    0.000    0.000    0.000    0.000    0.000    0.000 
#
# Total GULP energy -396584.017415 kJ/mol
# GULP energy per Si atom -12393.250544 kJ/mol
# Density = 2.006628 g / cm^3
# Si number density = 20.112055 Si / 1000 Ang^3
#
#
#
# Elastic Constant Matrix: (Units=GPa)
#
#
# Indices 1 2 3 4 5 6 
#
# 1 149.0353 22.8516 33.3009 0.0000 -10.5855 0.0000
# 2 22.8516 43.0669 19.7173 0.0000 -7.3048 0.0000
# 3 33.3009 19.7173 98.8148 0.0000 -6.4879 0.0000
# 4 0.0000 0.0000 0.0000 33.6647 0.0000 2.6925
# 5 -10.5855 -7.3048 -6.4879 0.0000 21.5095 0.0000
# 6 0.0000 0.0000 0.0000 2.6925 0.0000 25.7476
#
#
#
# Elastic Compliance Matrix: (Units=1/GPa)
#
#
# Indices 1 2 3 4 5 6 
#
# 1 0.007730 -0.002853 -0.001887 0.000000 0.002266 0.000000
# 2 -0.002853 0.027777 -0.004136 0.000000 0.006782 0.000000
# 3 -0.001887 -0.004136 0.011659 0.000000 0.001183 0.000000
# 4 0.000000 0.000000 0.000000 0.029955 0.000000 -0.003132
# 5 0.002266 0.006782 0.001183 0.000000 0.050266 0.000000
# 6 0.000000 0.000000 0.000000 -0.003132 0.000000 0.039166
#
#
# Mechanical properties :
#
#
# Convention : Reuss Voigt Hill
#
# Bulk Modulus (GPa) = 33.99725 49.18407 41.59066
# Shear Modulus (GPa) = 25.75852 30.52085 28.13968
#
# Velocity S-wave (km/s) = 3.58264 3.89979 3.74457
# Velocity P-wave (km/s) = 5.83561 6.69223 6.27854
#
# Compressibility (1/GPa) = 0.02941414
#
# Stress axis : x y z
#
# Youngs Moduli (GPa) = 129.36829 36.00037 85.77234
#
# Poissons Ratio (x) = 0.10272 0.16184
# Poissons Ratio (y) = 0.36913 0.35474
# Poissons Ratio (z) = 0.24410 0.14889
#
# Static dielectric constant tensor:
#      x y z
#    x 4.078760 0.000000 0.218270 
#    y 0.000000 3.275110 0.000000 
#    z 0.218270 0.000000 4.049240 
# 
# 
# High freq. dielectric constant tensor:
#      x y z
#    x 1.794410 0.000000 0.001340 
#    y 0.000000 1.755630 0.000000 
#    z 0.001340 0.000000 1.792900 
# 
# From -- ./inp_files/273166.got.cif
#   From: 2010.06.25/outbox.cif.g09.slc.cpg/sg15_137_cif.got.tgz:273166.got - 2010.06.28 07:06:18.
