data_PCOD8133278
_publ_section_title
;
Structure prediction by ZEFSAII (Michael W. Deem and Ramdas Pophale) SiO2 
 PCOD8133278
Probable space group: C 2/C
;
_chemical_formula_sum "Si O2"
_cell_formula_units_Z 64
_cell_length_a 19.071925
_cell_length_b 18.054654
_cell_length_c 17.346214
_cell_angle_alpha 90.000000
_cell_angle_beta 32.375946
_cell_angle_gamma 90.000000
_cell_volume 3198.345631
_symmetry_space_group_name_H-M "C 2/C"
_symmetry_group_IT_number 15
_symmetry_cell_setting 'monoclinic'
loop_
_space_group_symop_operation_xyz
x,y,z
-x,y,1/2-z
-x,-y,-z
x,-y,1/2+z
1/2+x,1/2+y,z
1/2-x,1/2+y,1/2-z
1/2-x,1/2-y,-z
1/2+x,1/2-y,1/2+z
loop_
_atom_site_type_symbol
_atom_site_label
_atom_site_fract_x
_atom_site_fract_y
_atom_site_fract_z
Si Si1 0.126715 0.479869 0.229289
Si Si2 0.231536 0.656521 0.940821
Si Si3 0.664391 0.006860 0.517844
Si Si4 0.363373 0.456519 0.704810
Si Si5 0.797924 0.371192 0.767307
Si Si6 0.637488 0.413080 0.410179
Si Si7 0.878320 0.804925 0.441412
Si Si8 0.114601 0.783963 0.329866
O O1 0.186098 0.489066 0.088903
O O2 0.124178 0.555593 0.280860
O O3 0.222422 0.419342 0.178146
O O4 0.975148 0.453859 0.371952
O O5 0.364645 0.652167 0.871384
O O6 0.252451 0.689413 0.835496
O O7 0.157320 0.579288 0.002300
O O8 0.135938 0.717763 0.067888
O O9 0.781761 0.045428 0.360709
O O10 0.308500 0.393444 0.698318
O O11 0.517508 0.440002 0.576495
O O12 0.355835 0.537929 0.674084
O O13 0.890660 0.304549 0.648486
O O14 0.737935 0.338065 0.899953
O O15 0.609359 0.327414 0.415716
O O16 0.008191 0.816033 0.369556
#
# Coordination Sequence:
#
# PCOD8133278 Si02
#       8
#     8   8   8   8   8   8   8   8
#     4  10  23  38  58  84 117 152 194 246 291 352
#     4  10  20  31  52  83 113 159 196 228 281 354
#     4  11  21  39  57  81 116 155 195 239 300 341
#     4  10  21  38  57  82 116 154 196 243 286 346
#     4  10  20  35  55  82 115 154 189 236 290 343
#     4  10  21  38  57  83 117 154 200 243 285 345
#     4  10  19  33  49  79 122 153 193 230 278 345
#     4  11  20  35  55  82 118 158 195 239 288 344
#
# _framework density 20.010345999999998
#
# number of rings (size 3 to 8) (size 9 to 14) (size 15 to 20)
#    0.000    1.750    3.750    1.125    0.000    2.500 
#    6.750    0.000    0.000    0.750    0.000    0.000 
#    0.000    0.000    0.000    0.000    0.000    0.000 
#
# Total GULP energy -396462.881220 kJ/mol
# GULP energy per Si atom -12389.465038 kJ/mol
# Density = 1.996480 g / cm^3
# Si number density = 20.010346 Si / 1000 Ang^3
#
#
#
# Elastic Constant Matrix: (Units=GPa)
#
#
# Indices 1 2 3 4 5 6 
#
# 1 83.4373 33.4259 20.2667 -0.0015 -13.2857 0.0013
# 2 33.4259 64.1091 20.0696 -0.0003 4.0766 0.0004
# 3 20.2667 20.0696 84.6464 -0.0018 -0.4912 0.0017
# 4 -0.0015 -0.0003 -0.0018 19.5941 0.0015 4.0207
# 5 -13.2857 4.0766 -0.4912 0.0015 24.2716 -0.0014
# 6 0.0013 0.0004 0.0017 4.0207 -0.0014 25.8542
#
#
#
# Elastic Compliance Matrix: (Units=1/GPa)
#
#
# Indices 1 2 3 4 5 6 
#
# 1 0.018130 -0.009554 -0.002009 0.000000 0.011488 0.000000
# 2 -0.009554 0.022092 -0.003003 0.000000 -0.009001 0.000000
# 3 -0.002009 -0.003003 0.013005 0.000001 -0.000332 -0.000001
# 4 0.000000 0.000000 0.000001 0.052718 -0.000004 -0.008199
# 5 0.011488 -0.009001 -0.000332 -0.000004 0.048994 0.000003
# 6 0.000000 0.000000 -0.000001 -0.008199 0.000003 0.039953
#
#
# Mechanical properties :
#
#
# Convention : Reuss Voigt Hill
#
# Bulk Modulus (GPa) = 41.50199 42.19080 41.84640
# Shear Modulus (GPa) = 21.54658 24.50603 23.02630
#
# Velocity S-wave (km/s) = 3.28498 3.50332 3.39591
# Velocity P-wave (km/s) = 5.93072 6.12329 6.02777
#
# Compressibility (1/GPa) = 0.02409523
#
# Stress axis : x y z
#
# Youngs Moduli (GPa) = 55.15802 45.26458 76.89448
#
# Poissons Ratio (x) = 0.43247 0.15446
# Poissons Ratio (y) = 0.52700 0.23090
# Poissons Ratio (z) = 0.11080 0.13592
#
# Static dielectric constant tensor:
#      x y z
#    x 3.537570 0.000000 -0.043930 
#    y 0.000000 3.518220 0.000000 
#    z -0.043930 0.000000 3.614950 
# 
# 
# High freq. dielectric constant tensor:
#      x y z
#    x 1.767700 0.000000 -0.011040 
#    y 0.000000 1.750340 0.000000 
#    z -0.011040 0.000000 1.773110 
# 
# From -- ./inp_files/163240.got.cif
#   From: 2010.06.25/outbox.cif.g09.slc.cpg/sg15_82_cif.got.tgz:163240.got - 2010.06.28 07:06:18.
