data_PCOD8133373
_publ_section_title
;
Structure prediction by ZEFSAII (Michael W. Deem and Ramdas Pophale) SiO2 
 PCOD8133373
Probable space group: C 2/C
;
_chemical_formula_sum "Si O2"
_cell_formula_units_Z 64
_cell_length_a 14.979890
_cell_length_b 12.438080
_cell_length_c 24.481064
_cell_angle_alpha 90.000000
_cell_angle_beta 128.274981
_cell_angle_gamma 90.000000
_cell_volume 3580.864432
_symmetry_space_group_name_H-M "C 2/C"
_symmetry_group_IT_number 15
_symmetry_cell_setting 'monoclinic'
loop_
_space_group_symop_operation_xyz
x,y,z
-x,y,1/2-z
-x,-y,-z
x,-y,1/2+z
1/2+x,1/2+y,z
1/2-x,1/2+y,1/2-z
1/2-x,1/2-y,-z
1/2+x,1/2-y,1/2+z
loop_
_atom_site_type_symbol
_atom_site_label
_atom_site_fract_x
_atom_site_fract_y
_atom_site_fract_z
Si Si1 0.731856 0.841012 0.191577
Si Si2 0.358247 0.469891 0.561663
Si Si3 0.094318 0.450767 0.610663
Si Si4 0.383424 0.911052 0.005400
Si Si5 0.473708 0.709055 0.414534
Si Si6 0.961241 0.104151 0.517316
Si Si7 0.409742 0.373499 0.171879
Si Si8 0.078774 0.222635 0.655299
O O1 0.633344 0.751345 0.160598
O O2 0.803326 0.819388 0.162986
O O3 0.810771 0.830293 0.274663
O O4 0.676578 0.959506 0.168025
O O5 0.237084 0.414334 0.509600
O O6 0.466055 0.391681 0.591946
O O7 0.359039 0.568038 0.518224
O O8 0.369426 0.519331 0.625938
O O9 0.137322 0.417017 0.567193
O O10 0.097334 0.348574 0.651692
O O11 0.964861 0.492600 0.556324
O O12 0.431496 0.798538 0.042779
O O13 0.423651 0.687141 0.456372
O O14 0.060482 0.157786 0.591915
O O15 0.000000 0.000000 0.500000
O O16 0.500000 0.415470 0.250000
O O17 0.468573 0.288385 0.152988
#
# Coordination Sequence:
#
# PCOD8133373 Si02
#       8
#     8   8   8   8   8   8   8   8
#     4  10  21  36  56  80 109 141 183 224 269 326
#     4  10  19  33  54  80 109 141 179 232 268 313
#     4  10  20  34  55  81 106 140 180 223 272 325
#     4  10  19  34  54  78 108 139 180 224 270 324
#     4  10  20  35  53  81 110 143 183 222 273 325
#     4   9  19  33  51  79 109 138 178 223 268 318
#     4   9  19  34  51  77 106 138 179 222 269 321
#     4  10  20  35  56  80 109 145 181 223 276 325
#
# _framework density 17.872778
#
# number of rings (size 3 to 8) (size 9 to 14) (size 15 to 20)
#    0.000    2.250    2.500    0.375    0.000    5.000 
#    0.000    2.500    0.000    0.000    0.000    0.000 
#    0.000    0.000    0.000    0.000    0.000    0.000 
#
# Total GULP energy -396618.224878 kJ/mol
# GULP energy per Si atom -12394.319527 kJ/mol
# Density = 1.783210 g / cm^3
# Si number density = 17.872778 Si / 1000 Ang^3
#
#
#
# Elastic Constant Matrix: (Units=GPa)
#
#
# Indices 1 2 3 4 5 6 
#
# 1 77.7589 39.6485 16.5627 0.0000 9.4792 0.0000
# 2 39.6485 70.3058 45.3270 0.0000 7.2235 0.0000
# 3 16.5627 45.3270 50.2947 0.0000 -6.0978 0.0000
# 4 0.0000 0.0000 0.0000 26.1253 0.0000 -3.1591
# 5 9.4792 7.2235 -6.0978 0.0000 22.7337 0.0000
# 6 0.0000 0.0000 0.0000 -3.1591 0.0000 22.8746
#
#
#
# Elastic Compliance Matrix: (Units=1/GPa)
#
#
# Indices 1 2 3 4 5 6 
#
# 1 0.019411 -0.015879 0.007802 0.000000 -0.000956 0.000000
# 2 -0.015879 0.058237 -0.050333 0.000000 -0.025384 0.000000
# 3 0.007802 -0.050333 0.066379 0.000000 0.030544 0.000000
# 4 0.000000 0.000000 0.000000 0.038927 0.000000 0.005376
# 5 -0.000956 -0.025384 0.030544 0.000000 0.060645 0.000000
# 6 0.000000 0.000000 0.000000 0.005376 0.000000 0.044459
#
#
# Mechanical properties :
#
#
# Convention : Reuss Voigt Hill
#
# Bulk Modulus (GPa) = 36.75542 44.60398 40.67970
# Shear Modulus (GPa) = 12.07883 20.80146 16.44015
#
# Velocity S-wave (km/s) = 2.60248 3.41524 3.03618
# Velocity P-wave (km/s) = 5.44428 6.36886 5.92464
#
# Compressibility (1/GPa) = 0.02720687
#
# Stress axis : x y z
#
# Youngs Moduli (GPa) = 51.51609 17.17119 15.06509
#
# Poissons Ratio (x) = 0.27266 -0.11754
# Poissons Ratio (y) = 0.81802 0.75828
# Poissons Ratio (z) = -0.40194 0.86428
#
# Static dielectric constant tensor:
#      x y z
#    x 3.418820 0.000000 -0.106040 
#    y 0.000000 3.316110 0.000000 
#    z -0.106040 0.000000 3.363990 
# 
# 
# High freq. dielectric constant tensor:
#      x y z
#    x 1.688280 0.000000 -0.000810 
#    y 0.000000 1.691220 0.000000 
#    z -0.000810 0.000000 1.687120 
# 
# From -- ./inp_files/298689.got.cif
#   From: 2010.06.25/outbox.cif.g09.slc.cpg/sg15_150_cif.got.tgz:298689.got - 2010.06.28 07:06:18.
