data_PCOD8133810
_publ_section_title
;
Structure prediction by ZEFSAII (Michael W. Deem and Ramdas Pophale) SiO2 
 PCOD8133810
Probable space group: C 2/C
;
_chemical_formula_sum "Si O2"
_cell_formula_units_Z 44
_cell_length_a 15.620138
_cell_length_b 17.505744
_cell_length_c 6.868911
_cell_angle_alpha 90.000000
_cell_angle_beta 117.363143
_cell_angle_gamma 90.000000
_cell_volume 1668.094667
_symmetry_space_group_name_H-M "C 2/C"
_symmetry_group_IT_number 15
_symmetry_cell_setting 'monoclinic'
loop_
_space_group_symop_operation_xyz
x,y,z
-x,y,1/2-z
-x,-y,-z
x,-y,1/2+z
1/2+x,1/2+y,z
1/2-x,1/2+y,1/2-z
1/2-x,1/2-y,-z
1/2+x,1/2-y,1/2+z
loop_
_atom_site_type_symbol
_atom_site_label
_atom_site_fract_x
_atom_site_fract_y
_atom_site_fract_z
Si Si1 0.337933 0.883759 0.889743
Si Si2 0.000000 0.052315 0.250000
Si Si3 0.617617 0.416012 0.217679
Si Si4 0.968048 0.330259 0.496757
Si Si5 0.828631 0.447793 0.450812
Si Si6 0.677814 0.292741 0.573452
O O1 0.435252 0.834000 0.038724
O O2 0.340317 0.905951 0.666617
O O3 0.240771 0.833877 0.810092
O O4 0.337743 0.962535 0.008858
O O5 0.044357 0.106324 0.465603
O O6 0.086588 0.998581 0.266556
O O7 0.725772 0.426392 0.248976
O O8 0.612846 0.352686 0.382508
O O9 0.912415 0.411275 0.403545
O O10 0.892246 0.262325 0.375309
O O11 0.000000 0.317006 0.750000
O O12 0.750000 0.250000 0.500000
#
# Coordination Sequence:
#
# PCOD8133810 Si02
#       6
#     8   4   8   8   8   8
#     4  10  21  35  63  90 119 155 200 257 302 359
#     4  10  22  36  54  92 118 164 208 260 304 366
#     4  10  20  35  58  85 126 162 210 252 310 364
#     4  10  19  34  57  87 115 152 201 246 295 359
#     4  10  19  36  57  87 118 154 200 260 295 354
#     4  11  19  35  57  88 119 158 200 247 299 369
#
# _framework density 26.377400000000002
#
# number of rings (size 3 to 8) (size 9 to 14) (size 15 to 20)
#    0.000    1.818    5.455    2.727    1.273    0.000 
#    0.000    0.000    0.000    5.455    0.000    1.273 
#    0.000    0.000    0.000    0.000    0.000    0.000 
#
# Total GULP energy -272660.145038 kJ/mol
# GULP energy per Si atom -12393.642956 kJ/mol
# Density = 2.631736 g / cm^3
# Si number density = 26.377400 Si / 1000 Ang^3
#
#
#
# Elastic Constant Matrix: (Units=GPa)
#
#
# Indices 1 2 3 4 5 6 
#
# 1 74.2156 34.3033 25.7252 0.0000 33.3976 0.0000
# 2 34.3033 122.1681 38.9555 0.0000 30.4852 0.0000
# 3 25.7252 38.9555 104.6427 0.0000 40.8886 0.0000
# 4 0.0000 0.0000 0.0000 38.0069 0.0000 24.1552
# 5 33.3976 30.4852 40.8886 0.0000 27.2601 0.0000
# 6 0.0000 0.0000 0.0000 24.1552 0.0000 39.7229
#
#
#
# Elastic Compliance Matrix: (Units=1/GPa)
#
#
# Indices 1 2 3 4 5 6 
#
# 1 0.052500 0.004136 0.030186 0.000000 -0.114222 0.000000
# 2 0.004136 0.011818 0.004174 0.000000 -0.024544 0.000000
# 3 0.030186 0.004174 0.040725 0.000000 -0.102734 0.000000
# 4 0.000000 0.000000 0.000000 0.042885 0.000000 -0.026078
# 5 -0.114222 -0.024544 -0.102734 0.000000 0.358167 0.000000
# 6 0.000000 0.000000 0.000000 -0.026078 0.000000 0.041032
#
#
# Mechanical properties :
#
#
# Convention : Reuss Voigt Hill
#
# Bulk Modulus (GPa) = 5.49348 55.44383 30.46865
# Shear Modulus (GPa) = 9.41951 34.46747 21.94349
#
# Velocity S-wave (km/s) = 1.89177 3.61876 2.88741
# Velocity P-wave (km/s) = 2.61895 6.20690 4.76364
#
# Compressibility (1/GPa) = 0.18203404
#
# Stress axis : x y z
#
# Youngs Moduli (GPa) = 19.04747 84.61888 24.55524
#
# Poissons Ratio (x) = -0.34997 -0.74121
# Poissons Ratio (y) = -0.07878 -0.10250
# Poissons Ratio (z) = -0.57496 -0.35323
#
# Static dielectric constant tensor:
#      x y z
#    x 4.975160 0.000000 0.614430 
#    y 0.000000 5.333580 0.000000 
#    z 0.614430 0.000000 5.025290 
# 
# 
# High freq. dielectric constant tensor:
#      x y z
#    x 2.046180 0.000000 0.030160 
#    y 0.000000 2.043590 0.000000 
#    z 0.030160 0.000000 2.063910 
# 
# From -- ./inp_files/39272.got.cif
#   From: 2010.06.25/outbox.cif.g09.slc.cpg/sg15_20_cif.got.tgz:39272.got - 2010.06.28 07:06:18.
