data_PCOD8133591
_publ_section_title
;
Structure prediction by ZEFSAII (Michael W. Deem and Ramdas Pophale) SiO2 
 PCOD8133591
Probable space group: C 2/C
;
_chemical_formula_sum "Si O2"
_cell_formula_units_Z 36
_cell_length_a 11.563501
_cell_length_b 5.082978
_cell_length_c 25.673826
_cell_angle_alpha 90.000000
_cell_angle_beta 127.011891
_cell_angle_gamma 90.000000
_cell_volume 1204.977252
_symmetry_space_group_name_H-M "C 2/C"
_symmetry_group_IT_number 15
_symmetry_cell_setting 'monoclinic'
loop_
_space_group_symop_operation_xyz
x,y,z
-x,y,1/2-z
-x,-y,-z
x,-y,1/2+z
1/2+x,1/2+y,z
1/2-x,1/2+y,1/2-z
1/2-x,1/2-y,-z
1/2+x,1/2-y,1/2+z
loop_
_atom_site_type_symbol
_atom_site_label
_atom_site_fract_x
_atom_site_fract_y
_atom_site_fract_z
Si Si1 0.715296 0.009022 0.377223
Si Si2 0.953112 0.263047 0.083135
Si Si3 0.666582 0.470934 0.712697
Si Si4 0.179861 0.480557 0.547743
Si Si5 0.000000 0.235630 0.750000
O O1 0.575506 0.973470 0.378002
O O2 0.822419 0.230236 0.429009
O O3 0.644675 0.087855 0.301122
O O4 0.805220 0.734871 0.401338
O O5 0.819485 0.053802 0.046208
O O6 0.106469 0.113943 0.138257
O O7 0.959823 0.417327 0.028615
O O8 0.764944 0.729794 0.737131
O O9 0.522389 0.549865 0.706206
#
# Coordination Sequence:
#
# PCOD8133591 Si02
#       5
#     8   8   8   8   4
#     4  10  19  33  61  97 118 173 215 261 329 386
#     4   9  20  37  62  95 129 165 227 268 319 395
#     4  12  28  43  67 101 134 178 223 270 336 401
#     4   9  19  32  64  97 121 167 230 261 322 397
#     4  12  24  46  68  94 146 174 218 278 330 402
#
# _framework density 29.876080999999999
#
# number of rings (size 3 to 8) (size 9 to 14) (size 15 to 20)
#    1.333    0.444    2.222    2.000    0.000    8.000 
#    0.000    0.000    0.000    8.000    0.000    0.000 
#    0.000    0.000    0.000    0.000    0.000    0.000 
#
# Total GULP energy -223242.753388 kJ/mol
# GULP energy per Si atom -12402.375188 kJ/mol
# Density = 2.980808 g / cm^3
# Si number density = 29.876081 Si / 1000 Ang^3
#
#
#
# Elastic Constant Matrix: (Units=GPa)
#
#
# Indices 1 2 3 4 5 6 
#
# 1 62.4604 18.8467 34.9878 0.0000 8.9209 0.0000
# 2 18.8467 161.3652 36.1892 0.0000 5.0947 0.0001
# 3 34.9878 36.1892 162.2156 0.0001 2.1493 0.0000
# 4 0.0000 0.0000 0.0001 54.8672 0.0000 -5.3305
# 5 8.9209 5.0947 2.1493 0.0000 67.1194 0.0000
# 6 0.0000 0.0001 0.0000 -5.3305 0.0000 40.1136
#
#
#
# Elastic Compliance Matrix: (Units=1/GPa)
#
#
# Indices 1 2 3 4 5 6 
#
# 1 0.018821 -0.001287 -0.003742 0.000000 -0.002284 0.000000
# 2 -0.001287 0.006625 -0.001197 0.000000 -0.000294 0.000000
# 3 -0.003742 -0.001197 0.007234 0.000000 0.000357 0.000000
# 4 0.000000 0.000000 0.000000 0.018464 0.000000 0.002454
# 5 -0.002284 -0.000294 0.000357 0.000000 0.015213 0.000000
# 6 0.000000 0.000000 0.000000 0.002454 0.000000 0.025255
#
#
# Mechanical properties :
#
#
# Convention : Reuss Voigt Hill
#
# Bulk Modulus (GPa) = 49.43427 62.89875 56.16651
# Shear Modulus (GPa) = 45.12375 52.15452 48.63914
#
# Velocity S-wave (km/s) = 3.89056 4.18268 4.03926
# Velocity P-wave (km/s) = 6.06335 6.66524 6.37141
#
# Compressibility (1/GPa) = 0.02022888
#
# Stress axis : x y z
#
# Youngs Moduli (GPa) = 53.13276 150.94254 138.23682
#
# Poissons Ratio (x) = 0.19424 0.51729
# Poissons Ratio (y) = 0.06837 0.16541
# Poissons Ratio (z) = 0.19883 0.18061
#
# Static dielectric constant tensor:
#      x y z
#    x 5.812530 0.000000 -0.068210 
#    y 0.000000 5.108670 0.000000 
#    z -0.068210 0.000000 5.164820 
# 
# 
# High freq. dielectric constant tensor:
#      x y z
#    x 2.274070 0.000000 0.004510 
#    y 0.000000 2.204110 0.000000 
#    z 0.004510 0.000000 2.223980 
# 
# From -- ./inp_files/294351.got.cif
#   From: 2010.06.25/outbox.cif.g09.slc.cpg/sg15_148_cif.got.tgz:294351.got - 2010.06.28 07:06:18.
