data_PCOD8133053
_publ_section_title
;
Structure prediction by ZEFSAII (Michael W. Deem and Ramdas Pophale) SiO2 
 PCOD8133053
Probable space group: C 2/C
;
_chemical_formula_sum "Si O2"
_cell_formula_units_Z 52
_cell_length_a 12.605457
_cell_length_b 27.053638
_cell_length_c 8.862950
_cell_angle_alpha 90.000000
_cell_angle_beta 94.017203
_cell_angle_gamma 90.000000
_cell_volume 3015.047934
_symmetry_space_group_name_H-M "C 2/C"
_symmetry_group_IT_number 15
_symmetry_cell_setting 'monoclinic'
loop_
_space_group_symop_operation_xyz
x,y,z
-x,y,1/2-z
-x,-y,-z
x,-y,1/2+z
1/2+x,1/2+y,z
1/2-x,1/2+y,1/2-z
1/2-x,1/2-y,-z
1/2+x,1/2-y,1/2+z
loop_
_atom_site_type_symbol
_atom_site_label
_atom_site_fract_x
_atom_site_fract_y
_atom_site_fract_z
Si Si1 0.350410 0.273312 0.590307
Si Si2 0.303709 0.848506 0.395889
Si Si3 0.084053 0.433924 0.974835
Si Si4 0.887235 0.815336 0.293638
Si Si5 0.500000 0.803482 0.250000
Si Si6 0.809193 0.290494 0.685212
Si Si7 0.500000 0.990802 0.250000
Si Si8 0.000000 0.360922 0.750000
O O1 0.250000 0.250000 0.500000
O O2 0.394804 0.313832 0.477177
O O3 0.440065 0.231988 0.625222
O O4 0.305413 0.296083 0.741845
O O5 0.309072 0.901355 0.484949
O O6 0.207013 0.852005 0.267904
O O7 0.415576 0.838847 0.323427
O O8 0.285346 0.802254 0.507541
O O9 0.090721 0.476271 0.845564
O O10 0.998751 0.394221 0.902092
O O11 0.054863 0.456838 0.132065
O O12 0.862165 0.762619 0.214987
O O13 0.000000 0.836060 0.250000
O O14 0.893338 0.329598 0.757671
#
# Coordination Sequence:
#
# PCOD8133053 Si02
#       8
#     8   8   8   8   4   8   4   4
#     4  10  22  32  44  67  94 144 190 220 249 282
#     4  11  22  32  51  76  99 137 177 217 258 297
#     4   9  19  31  52  77  99 128 163 207 264 329
#     4  11  21  34  48  67 102 146 182 217 242 283
#     4  12  21  32  49  68 106 136 194 221 246 295
#     4  10  19  32  45  68 103 141 181 210 248 281
#     4   9  17  36  52  74 104 126 150 208 284 328
#     4   9  18  30  51  74 106 140 172 209 242 299
#
# _framework density 17.246824
#
# number of rings (size 3 to 8) (size 9 to 14) (size 15 to 20)
#    0.000    1.846    3.846    1.846    8.615    1.231 
#    0.000    0.000    0.000    0.000    0.000    1.077 
#    0.000    0.000    0.000    0.462    0.000    0.000 
#
# Total GULP energy -322114.945292 kJ/mol
# GULP energy per Si atom -12389.036357 kJ/mol
# Density = 1.720757 g / cm^3
# Si number density = 17.246824 Si / 1000 Ang^3
#
#
#
# Elastic Constant Matrix: (Units=GPa)
#
#
# Indices 1 2 3 4 5 6 
#
# 1 94.9522 18.7307 28.8718 0.0000 -1.6304 0.0000
# 2 18.7307 60.4789 17.9180 0.0000 8.6924 0.0000
# 3 28.8718 17.9180 83.9272 0.0000 -2.2304 0.0000
# 4 0.0000 0.0000 0.0000 24.6974 0.0000 3.3932
# 5 -1.6304 8.6924 -2.2304 0.0000 32.2819 0.0000
# 6 0.0000 0.0000 0.0000 3.3932 0.0000 8.4945
#
#
#
# Elastic Compliance Matrix: (Units=1/GPa)
#
#
# Indices 1 2 3 4 5 6 
#
# 1 0.012201 -0.002893 -0.003549 0.000000 0.001150 0.000000
# 2 -0.002893 0.019189 -0.003249 0.000000 -0.005537 0.000000
# 3 -0.003549 -0.003249 0.013874 0.000000 0.001654 0.000000
# 4 0.000000 0.000000 0.000000 0.042841 0.000000 -0.017113
# 5 0.001150 -0.005537 0.001654 0.000000 0.032640 0.000000
# 6 0.000000 0.000000 0.000000 -0.017113 0.000000 0.124559
#
#
# Mechanical properties :
#
#
# Convention : Reuss Voigt Hill
#
# Bulk Modulus (GPa) = 38.63606 41.15547 39.89576
# Shear Modulus (GPa) = 18.29401 24.68395 21.48898
#
# Velocity S-wave (km/s) = 3.26040 3.78725 3.53366
# Velocity P-wave (km/s) = 6.05178 6.56039 6.31121
#
# Compressibility (1/GPa) = 0.02588256
#
# Stress axis : x y z
#
# Youngs Moduli (GPa) = 81.95944 52.11340 72.07919
#
# Poissons Ratio (x) = 0.15074 0.25583
# Poissons Ratio (y) = 0.23707 0.23417
# Poissons Ratio (z) = 0.29089 0.16931
#
# Static dielectric constant tensor:
#      x y z
#    x 3.292510 0.000000 -0.195740 
#    y 0.000000 3.155540 0.000000 
#    z -0.195740 0.000000 3.906680 
# 
# 
# High freq. dielectric constant tensor:
#      x y z
#    x 1.638600 0.000000 0.010570 
#    y 0.000000 1.630230 0.000000 
#    z 0.010570 0.000000 1.691200 
# 
# From -- ./inp_files/33640.got.cif
#   From: 2010.06.25/outbox.cif.g09.slc.cpg/sg15_17_cif.got.tgz:33640.got - 2010.06.28 07:06:18.
