data_PCOD8133504
_publ_section_title
;
Structure prediction by ZEFSAII (Michael W. Deem and Ramdas Pophale) SiO2 
 PCOD8133504
Probable space group: C 2/C
;
_chemical_formula_sum "Si O2"
_cell_formula_units_Z 64
_cell_length_a 8.172350
_cell_length_b 20.740400
_cell_length_c 20.923880
_cell_angle_alpha 90.000000
_cell_angle_beta 68.843847
_cell_angle_gamma 90.000000
_cell_volume 3307.515161
_symmetry_space_group_name_H-M "C 2/C"
_symmetry_group_IT_number 15
_symmetry_cell_setting 'monoclinic'
loop_
_space_group_symop_operation_xyz
x,y,z
-x,y,1/2-z
-x,-y,-z
x,-y,1/2+z
1/2+x,1/2+y,z
1/2-x,1/2+y,1/2-z
1/2-x,1/2-y,-z
1/2+x,1/2-y,1/2+z
loop_
_atom_site_type_symbol
_atom_site_label
_atom_site_fract_x
_atom_site_fract_y
_atom_site_fract_z
Si Si1 0.239030 0.884579 0.823359
Si Si2 0.642843 0.999707 0.926073
Si Si3 0.869708 0.355132 0.062631
Si Si4 0.057245 0.768577 0.892491
Si Si5 0.045155 0.822704 0.021802
Si Si6 0.660093 0.798974 0.928734
Si Si7 0.389224 0.896405 0.671383
Si Si8 0.467123 0.443828 0.955437
O O1 0.145298 0.814474 0.827573
O O2 0.258812 0.912290 0.748948
O O3 0.425395 0.872379 0.829162
O O4 0.129903 0.932183 0.884454
O O5 0.656156 0.074256 0.903829
O O6 0.583274 0.962147 0.871455
O O7 0.810470 0.962862 0.930677
O O8 0.500000 0.000000 0.000000
O O9 0.892839 0.307099 0.120938
O O10 0.690811 0.348028 0.048830
O O11 0.040053 0.343250 0.992902
O O12 0.851175 0.783720 0.930610
O O13 0.142842 0.785893 0.949784
O O14 0.921585 0.771129 0.075279
O O15 0.933509 0.881257 0.004860
O O16 0.690103 0.838686 0.859650
O O17 0.500000 0.500000 0.000000
#
# Coordination Sequence:
#
# PCOD8133504 Si02
#       8
#     8   8   8   8   8   8   8   8
#     4  10  23  41  64  82 113 157 203 255 294 362
#     4  12  24  34  59  90 125 160 196 245 296 363
#     4  11  20  35  54  86 123 151 190 238 299 342
#     4  10  21  34  57  85 114 148 193 245 297 339
#     4  10  19  33  57  82 116 149 186 240 289 339
#     4  11  20  34  57  87 114 149 192 248 291 347
#     4  11  22  41  62  85 115 158 205 243 305 358
#     4  11  21  38  58  91 121 154 200 243 299 352
#
# _framework density 19.349874
#
# number of rings (size 3 to 8) (size 9 to 14) (size 15 to 20)
#    0.000    1.250    2.500    7.500    1.750    2.000 
#    0.000    0.000    2.750    0.000    0.000    0.000 
#    0.000    0.000    0.000    0.000    0.000    0.000 
#
# Total GULP energy -396502.745997 kJ/mol
# GULP energy per Si atom -12390.710812 kJ/mol
# Density = 1.930583 g / cm^3
# Si number density = 19.349874 Si / 1000 Ang^3
#
#
#
# Elastic Constant Matrix: (Units=GPa)
#
#
# Indices 1 2 3 4 5 6 
#
# 1 62.0562 40.1062 22.2787 0.0000 -10.2875 0.0000
# 2 40.1062 154.2339 53.3769 0.0000 1.1176 0.0000
# 3 22.2787 53.3769 106.0478 0.0000 -3.7636 0.0000
# 4 0.0000 0.0000 0.0000 26.9723 0.0000 1.5741
# 5 -10.2875 1.1176 -3.7636 0.0000 20.0461 0.0000
# 6 0.0000 0.0000 0.0000 1.5741 0.0000 35.9614
#
#
#
# Elastic Compliance Matrix: (Units=1/GPa)
#
#
# Indices 1 2 3 4 5 6 
#
# 1 0.021930 -0.005241 -0.001570 0.000000 0.011252 0.000000
# 2 -0.005241 0.009132 -0.003633 0.000000 -0.003881 0.000000
# 3 -0.001570 -0.003633 0.011644 0.000000 0.001583 0.000000
# 4 0.000000 0.000000 0.000000 0.037170 0.000000 -0.001627
# 5 0.011252 -0.003881 0.001583 0.000000 0.056173 0.000000
# 6 0.000000 0.000000 0.000000 -0.001627 0.000000 0.027879
#
#
# Mechanical properties :
#
#
# Convention : Reuss Voigt Hill
#
# Bulk Modulus (GPa) = 45.83187 61.54016 53.68601
# Shear Modulus (GPa) = 26.02954 30.36770 28.19862
#
# Velocity S-wave (km/s) = 3.67168 3.96586 3.82160
# Velocity P-wave (km/s) = 6.45851 7.26937 6.87590
#
# Compressibility (1/GPa) = 0.02181888
#
# Stress axis : x y z
#
# Youngs Moduli (GPa) = 45.59862 109.50605 85.87862
#
# Poissons Ratio (x) = 0.57391 0.13483
# Poissons Ratio (y) = 0.23898 0.31200
# Poissons Ratio (z) = 0.07159 0.39784
#
# Static dielectric constant tensor:
#      x y z
#    x 4.722140 0.000000 -0.485520 
#    y 0.000000 7.698960 0.000000 
#    z -0.485520 0.000000 3.562910 
# 
# 
# High freq. dielectric constant tensor:
#      x y z
#    x 1.766750 0.000000 0.000250 
#    y 0.000000 1.766550 0.000000 
#    z 0.000250 0.000000 1.711030 
# 
# From -- ./inp_files/233848.got.cif
#   From: 2010.06.25/outbox.cif.g09.slc.cpg/sg15_117_cif.got.tgz:233848.got - 2010.06.28 07:06:18.
