data_PCOD8133186
_publ_section_title
;
Structure prediction by ZEFSAII (Michael W. Deem and Ramdas Pophale) SiO2 
 PCOD8133186
Probable space group: C 2/C
;
_chemical_formula_sum "Si O2"
_cell_formula_units_Z 60
_cell_length_a 7.337132
_cell_length_b 24.245144
_cell_length_c 18.248629
_cell_angle_alpha 90.000000
_cell_angle_beta 58.314617
_cell_angle_gamma 90.000000
_cell_volume 2762.376706
_symmetry_space_group_name_H-M "C 2/C"
_symmetry_group_IT_number 15
_symmetry_cell_setting 'monoclinic'
loop_
_space_group_symop_operation_xyz
x,y,z
-x,y,1/2-z
-x,-y,-z
x,-y,1/2+z
1/2+x,1/2+y,z
1/2-x,1/2+y,1/2-z
1/2-x,1/2-y,-z
1/2+x,1/2-y,1/2+z
loop_
_atom_site_type_symbol
_atom_site_label
_atom_site_fract_x
_atom_site_fract_y
_atom_site_fract_z
Si Si1 0.822373 0.022640 0.922623
Si Si2 0.217994 0.228022 0.239476
Si Si3 0.500000 0.568946 0.750000
Si Si4 0.451586 0.388028 0.043461
Si Si5 0.391444 0.083436 0.991403
Si Si6 0.895279 0.699590 0.055275
Si Si7 0.723684 0.144390 0.730457
Si Si8 0.939144 0.790150 0.578340
O O1 0.993765 0.029675 0.821853
O O2 0.909953 0.055483 0.976158
O O3 0.796417 0.957461 0.939674
O O4 0.602592 0.047800 0.937688
O O5 0.406343 0.211872 0.141429
O O6 0.199176 0.292776 0.257341
O O7 0.000000 0.204320 0.250000
O O8 0.243866 0.206771 0.318690
O O9 0.291908 0.608836 0.787086
O O10 0.414784 0.360858 0.130451
O O11 0.209882 0.395908 0.063462
O O12 0.582713 0.346123 0.963981
O O13 0.441787 0.134776 0.034115
O O14 0.662596 0.715309 0.074297
O O15 0.070764 0.737301 0.974871
O O16 0.500000 0.119894 0.750000
#
# Coordination Sequence:
#
# PCOD8133186 Si02
#       8
#     8   8   4   8   8   8   8   8
#     4  10  22  39  55  83 111 144 196 238 275 333
#     4   9  17  29  50  82 115 145 182 223 275 347
#     4  10  22  36  52  84 112 138 190 240 274 328
#     4  10  19  36  58  82 109 146 186 232 281 336
#     4  10  21  37  61  78 109 152 188 231 285 335
#     4   9  17  31  52  83 112 147 186 225 281 341
#     4  10  19  32  55  80 113 144 177 228 280 332
#     4   9  17  29  51  84 112 144 185 226 277 344
#
# _framework density 21.720424999999999
#
# number of rings (size 3 to 8) (size 9 to 14) (size 15 to 20)
#    0.000    2.400    1.333    1.200    7.467    0.000 
#    6.000    2.000    0.000    0.000    0.000    0.000 
#    0.000    0.000    0.000    0.000    0.000    0.000 
#
# Total GULP energy -371743.505071 kJ/mol
# GULP energy per Si atom -12391.450169 kJ/mol
# Density = 2.167099 g / cm^3
# Si number density = 21.720425 Si / 1000 Ang^3
#
#
#
# Elastic Constant Matrix: (Units=GPa)
#
#
# Indices 1 2 3 4 5 6 
#
# 1 34.8334 4.1058 -9.7112 0.0000 11.8354 0.0000
# 2 4.1058 96.0220 37.0415 0.0000 8.8010 0.0000
# 3 -9.7112 37.0415 127.2291 0.0000 20.5304 0.0000
# 4 0.0000 0.0000 0.0000 20.2253 0.0000 -4.2194
# 5 11.8354 8.8010 20.5304 0.0000 19.3967 0.0000
# 6 0.0000 0.0000 0.0000 -4.2194 0.0000 17.1207
#
#
#
# Elastic Compliance Matrix: (Units=1/GPa)
#
#
# Indices 1 2 3 4 5 6 
#
# 1 0.044098 -0.002383 0.009922 0.000000 -0.036328 0.000000
# 2 -0.002383 0.011929 -0.003638 0.000000 -0.000108 0.000000
# 3 0.009922 -0.003638 0.012526 0.000000 -0.017662 0.000000
# 4 0.000000 0.000000 0.000000 0.052123 0.000000 0.012846
# 5 -0.036328 -0.000108 -0.017662 0.000000 0.092465 0.000000
# 6 0.000000 0.000000 0.000000 0.012846 0.000000 0.061575
#
#
# Mechanical properties :
#
#
# Convention : Reuss Voigt Hill
#
# Bulk Modulus (GPa) = 13.09659 35.66185 24.37922
# Shear Modulus (GPa) = 17.10183 26.45843 21.78013
#
# Velocity S-wave (km/s) = 2.80904 3.49397 3.17006
# Velocity P-wave (km/s) = 4.06985 5.72113 4.96462
#
# Compressibility (1/GPa) = 0.07635576
#
# Stress axis : x y z
#
# Youngs Moduli (GPa) = 22.67662 83.82687 79.83249
#
# Poissons Ratio (x) = 0.19980 -0.79209
# Poissons Ratio (y) = 0.05405 0.29040
# Poissons Ratio (z) = -0.22500 0.30493
#
# Static dielectric constant tensor:
#      x y z
#    x 3.724300 0.000000 0.186580 
#    y 0.000000 3.837920 0.000000 
#    z 0.186580 0.000000 3.994250 
# 
# 
# High freq. dielectric constant tensor:
#      x y z
#    x 1.837890 0.000000 0.013840 
#    y 0.000000 1.836080 0.000000 
#    z 0.013840 0.000000 1.850130 
# 
# From -- ./inp_files/192545.got.cif
#   From: 2010.06.25/outbox.cif.g09.slc.cpg/sg15_97_cif.got.tgz:192545.got - 2010.06.28 07:06:18.
