data_PCOD8133898
_publ_section_title
;
Structure prediction by ZEFSAII (Michael W. Deem and Ramdas Pophale) SiO2 
 PCOD8133898
Probable space group: C 2/C
;
_chemical_formula_sum "Si O2"
_cell_formula_units_Z 64
_cell_length_a 15.540748
_cell_length_b 12.841727
_cell_length_c 27.809959
_cell_angle_alpha 90.000000
_cell_angle_beta 35.101717
_cell_angle_gamma 90.000000
_cell_volume 3191.435185
_symmetry_space_group_name_H-M "C 2/C"
_symmetry_group_IT_number 15
_symmetry_cell_setting 'monoclinic'
loop_
_space_group_symop_operation_xyz
x,y,z
-x,y,1/2-z
-x,-y,-z
x,-y,1/2+z
1/2+x,1/2+y,z
1/2-x,1/2+y,1/2-z
1/2-x,1/2-y,-z
1/2+x,1/2-y,1/2+z
loop_
_atom_site_type_symbol
_atom_site_label
_atom_site_fract_x
_atom_site_fract_y
_atom_site_fract_z
Si Si1 0.876205 0.587157 0.050798
Si Si2 0.022878 0.124975 0.917644
Si Si3 0.447636 0.719967 0.052641
Si Si4 0.793184 0.362481 0.962148
Si Si5 0.401242 0.853096 0.643616
Si Si6 0.636095 0.734148 0.653670
Si Si7 0.132327 0.071293 0.326578
Si Si8 0.426720 0.506819 0.835931
O O1 0.826516 0.619197 0.127357
O O2 0.730502 0.551406 0.089207
O O3 0.000000 0.500000 0.000000
O O4 0.936647 0.685873 0.993463
O O5 0.072113 0.228442 0.866098
O O6 0.146444 0.035895 0.851059
O O7 0.003460 0.146816 0.983185
O O8 0.863768 0.074728 0.970061
O O9 0.290002 0.775127 0.112911
O O10 0.442055 0.657696 0.105109
O O11 0.860104 0.339612 0.878820
O O12 0.932901 0.409860 0.928644
O O13 0.750000 0.250000 0.000000
O O14 0.295909 0.889936 0.735400
O O15 0.500000 0.752914 0.750000
O O16 0.610202 0.627870 0.634451
O O17 0.035141 0.049091 0.323797
O O18 0.500000 0.501947 0.750000
#
# Coordination Sequence:
#
# PCOD8133898 Si02
#       8
#     8   8   8   8   8   8   8   8
#     4  11  22  38  59  84 120 154 204 253 300 354
#     4   9  21  38  60  85 124 159 199 248 308 363
#     4  10  22  39  60  88 118 164 200 250 301 369
#     4   9  17  33  56  83 115 148 192 244 302 347
#     4  10  21  36  58  89 119 158 196 252 307 363
#     4  10  19  34  59  88 117 146 196 255 298 346
#     4  12  23  37  63  91 121 157 205 246 309 377
#     4  11  22  37  57  88 122 158 197 253 311 356
#
# _framework density 20.053674999999998
#
# number of rings (size 3 to 8) (size 9 to 14) (size 15 to 20)
#    0.000    1.750    2.500    3.375    1.750    2.500 
#    0.000    0.000    2.750    0.000    6.500    0.000 
#    0.000    0.000    0.000    0.000    0.000    0.000 
#
# Total GULP energy -396537.471811 kJ/mol
# GULP energy per Si atom -12391.795994 kJ/mol
# Density = 2.000803 g / cm^3
# Si number density = 20.053675 Si / 1000 Ang^3
#
#
#
# Elastic Constant Matrix: (Units=GPa)
#
#
# Indices 1 2 3 4 5 6 
#
# 1 64.4881 14.1057 18.6635 -0.0002 -2.2348 -0.0001
# 2 14.1057 74.6733 47.0908 -0.0006 4.3216 -0.0005
# 3 18.6635 47.0908 111.9282 -0.0033 -0.5030 -0.0028
# 4 -0.0002 -0.0006 -0.0033 132.4201 0.0005 88.4829
# 5 -2.2348 4.3216 -0.5030 0.0005 26.4625 0.0004
# 6 -0.0001 -0.0005 -0.0028 88.4829 0.0004 99.6016
#
#
#
# Elastic Compliance Matrix: (Units=1/GPa)
#
#
# Indices 1 2 3 4 5 6 
#
# 1 0.016559 -0.002027 -0.001901 0.000000 0.001693 0.000000
# 2 -0.002027 0.018738 -0.007561 0.000000 -0.003375 0.000000
# 3 -0.001901 -0.007561 0.012438 0.000000 0.001311 0.000000
# 4 0.000000 0.000000 0.000000 0.018582 0.000000 -0.016508
# 5 0.001693 -0.003375 0.001311 0.000000 0.038508 0.000000
# 6 0.000000 0.000000 0.000000 -0.016508 0.000000 0.024705
#
#
# Mechanical properties :
#
#
# Convention : Reuss Voigt Hill
#
# Bulk Modulus (GPa) = 40.39141 45.64551 43.01846
# Shear Modulus (GPa) = 31.10223 63.11214 47.10719
#
# Velocity S-wave (km/s) = 3.94248 5.61604 4.85196
# Velocity P-wave (km/s) = 6.39606 8.05384 7.27234
#
# Compressibility (1/GPa) = 0.02475774
#
# Stress axis : x y z
#
# Youngs Moduli (GPa) = 60.39036 53.36792 80.39885
#
# Poissons Ratio (x) = 0.10820 0.15280
# Poissons Ratio (y) = 0.12244 0.60786
# Poissons Ratio (z) = 0.11477 0.40349
#
# Static dielectric constant tensor:
#      x y z
#    x 3.529860 0.000000 -0.060950 
#    y 0.000000 3.404610 0.000000 
#    z -0.060950 0.000000 3.884940 
# 
# 
# High freq. dielectric constant tensor:
#      x y z
#    x 1.773790 0.000000 0.009160 
#    y 0.000000 1.755010 0.000000 
#    z 0.009160 0.000000 1.802810 
# 
# From -- ./inp_files/316170.got.cif
#   From: 2010.06.25/outbox.cif.g09.slc.cpg/sg15_159_cif.got.tgz:316170.got - 2010.06.28 07:06:18.
