data_PCOD8133467
_publ_section_title
;
Structure prediction by ZEFSAII (Michael W. Deem and Ramdas Pophale) SiO2 
 PCOD8133467
Probable space group: C 2/C
;
_chemical_formula_sum "Si O2"
_cell_formula_units_Z 48
_cell_length_a 12.013028
_cell_length_b 12.263730
_cell_length_c 16.039557
_cell_angle_alpha 90.000000
_cell_angle_beta 84.764235
_cell_angle_gamma 90.000000
_cell_volume 2353.160832
_symmetry_space_group_name_H-M "C 2/C"
_symmetry_group_IT_number 15
_symmetry_cell_setting 'monoclinic'
loop_
_space_group_symop_operation_xyz
x,y,z
-x,y,1/2-z
-x,-y,-z
x,-y,1/2+z
1/2+x,1/2+y,z
1/2-x,1/2+y,1/2-z
1/2-x,1/2-y,-z
1/2+x,1/2-y,1/2+z
loop_
_atom_site_type_symbol
_atom_site_label
_atom_site_fract_x
_atom_site_fract_y
_atom_site_fract_z
Si Si1 0.863696 0.331041 0.084763
Si Si2 0.913513 0.330626 0.525685
Si Si3 0.616883 0.860215 0.230820
Si Si4 0.263356 0.609676 0.063129
Si Si5 0.781368 0.866726 0.079806
Si Si6 0.544330 0.907518 0.665053
O O1 0.834590 0.374285 0.179329
O O2 0.854826 0.200138 0.076405
O O3 0.774821 0.392024 0.031079
O O4 0.993064 0.349630 0.051409
O O5 0.893512 0.204560 0.556924
O O6 0.795888 0.369761 0.497255
O O7 0.946239 0.406257 0.602218
O O8 0.500000 0.790038 0.250000
O O9 0.712967 0.813092 0.163142
O O10 0.577685 0.971136 0.188946
O O11 0.313048 0.493787 0.091270
O O12 0.153750 0.650086 0.121505
O O13 0.500000 0.843625 0.750000
#
# Coordination Sequence:
#
# PCOD8133467 Si02
#       6
#     8   8   8   8   8   8
#     4  10  20  37  57  81 111 146 186 227 268 333
#     4  10  21  36  55  80 116 142 184 226 274 329
#     4  10  19  33  56  81 106 140 185 231 271 312
#     4   9  21  36  56  79 110 151 182 219 281 325
#     4  10  21  36  54  84 110 149 180 226 276 324
#     4   9  20  33  54  83 105 142 181 230 274 312
#
# _framework density 20.398095999999999
#
# number of rings (size 3 to 8) (size 9 to 14) (size 15 to 20)
#    0.000    2.333    1.667    0.000    7.000    2.667 
#    0.000    0.000    0.000    1.000    0.000    0.000 
#    0.000    0.000    0.000    0.000    0.000    0.000 
#
# Total GULP energy -297321.893087 kJ/mol
# GULP energy per Si atom -12388.412212 kJ/mol
# Density = 2.035167 g / cm^3
# Si number density = 20.398096 Si / 1000 Ang^3
#
#
#
# Elastic Constant Matrix: (Units=GPa)
#
#
# Indices 1 2 3 4 5 6 
#
# 1 33.7896 11.0160 25.4456 0.0000 9.5585 0.0000
# 2 11.0160 70.4782 21.9398 0.0000 1.2171 0.0000
# 3 25.4456 21.9398 144.4866 0.0000 2.1520 0.0000
# 4 0.0000 0.0000 0.0000 23.1298 0.0000 -0.3188
# 5 9.5585 1.2171 2.1520 0.0000 22.6382 0.0000
# 6 0.0000 0.0000 0.0000 -0.3188 0.0000 17.7784
#
#
#
# Elastic Compliance Matrix: (Units=1/GPa)
#
#
# Indices 1 2 3 4 5 6 
#
# 1 0.040171 -0.004065 -0.006217 0.000000 -0.016152 0.000000
# 2 -0.004065 0.015312 -0.001625 0.000000 0.001047 0.000000
# 3 -0.006217 -0.001625 0.008234 0.000000 0.001930 0.000000
# 4 0.000000 0.000000 0.000000 0.043245 0.000000 0.000775
# 5 -0.016152 0.001047 0.001930 0.000000 0.050753 0.000000
# 6 0.000000 0.000000 0.000000 0.000775 0.000000 0.056262
#
#
# Mechanical properties :
#
#
# Convention : Reuss Voigt Hill
#
# Bulk Modulus (GPa) = 25.06012 40.61746 32.83879
# Shear Modulus (GPa) = 19.91316 25.39947 22.65631
#
# Velocity S-wave (km/s) = 3.12785 3.53255 3.33634
# Velocity P-wave (km/s) = 5.03555 6.04931 5.56556
#
# Compressibility (1/GPa) = 0.03990403
#
# Stress axis : x y z
#
# Youngs Moduli (GPa) = 24.89375 65.30896 121.44964
#
# Poissons Ratio (x) = 0.26546 0.75502
# Poissons Ratio (y) = 0.10118 0.19733
# Poissons Ratio (z) = 0.15476 0.10612
#
# Static dielectric constant tensor:
#      x y z
#    x 3.898760 0.000000 -0.634430 
#    y 0.000000 3.534750 0.000000 
#    z -0.634430 0.000000 4.589900 
# 
# 
# High freq. dielectric constant tensor:
#      x y z
#    x 1.773100 0.000000 -0.007040 
#    y 0.000000 1.765880 0.000000 
#    z -0.007040 0.000000 1.815530 
# 
# From -- ./inp_files/143620.got.cif
#   From: 2010.06.25/outbox.cif.g09.slc.cpg/sg15_72_cif.got.tgz:143620.got - 2010.06.28 07:06:18.
