data_PCOD8133956
_publ_section_title
;
Structure prediction by ZEFSAII (Michael W. Deem and Ramdas Pophale) SiO2 
 PCOD8133956
Probable space group: C 2/C
;
_chemical_formula_sum "Si O2"
_cell_formula_units_Z 56
_cell_length_a 12.843359
_cell_length_b 28.129170
_cell_length_c 9.143383
_cell_angle_alpha 90.000000
_cell_angle_beta 52.921803
_cell_angle_gamma 90.000000
_cell_volume 2635.383272
_symmetry_space_group_name_H-M "C 2/C"
_symmetry_group_IT_number 15
_symmetry_cell_setting 'monoclinic'
loop_
_space_group_symop_operation_xyz
x,y,z
-x,y,1/2-z
-x,-y,-z
x,-y,1/2+z
1/2+x,1/2+y,z
1/2-x,1/2+y,1/2-z
1/2-x,1/2-y,-z
1/2+x,1/2-y,1/2+z
loop_
_atom_site_type_symbol
_atom_site_label
_atom_site_fract_x
_atom_site_fract_y
_atom_site_fract_z
Si Si1 0.801346 0.879471 0.205271
Si Si2 0.953898 0.215417 0.620038
Si Si3 0.301881 0.041496 0.247156
Si Si4 0.650108 0.944040 0.128732
Si Si5 0.359394 0.872399 0.868119
Si Si6 0.239139 0.218777 0.363223
Si Si7 0.478034 0.453961 0.428112
O O1 0.863454 0.827410 0.136948
O O2 0.729753 0.898019 0.118411
O O3 0.696319 0.884107 0.424277
O O4 0.925377 0.911796 0.124206
O O5 0.859862 0.260707 0.665418
O O6 0.000000 0.207133 0.750000
O O7 0.092586 0.223139 0.417051
O O8 0.396336 0.080392 0.240630
O O9 0.167184 0.063889 0.420172
O O10 0.329761 0.988198 0.277788
O O11 0.302718 0.040670 0.071522
O O12 0.500000 0.929476 0.250000
O O13 0.500000 0.845811 0.750000
O O14 0.258481 0.837037 0.875314
O O15 0.250000 0.250000 0.500000
O O16 0.500000 0.473643 0.250000
O O17 0.500000 0.500000 0.500000
#
# Coordination Sequence:
#
# PCOD8133956 Si02
#       7
#     8   8   8   8   8   8   8
#     4  12  23  39  64  92 133 171 220 273 334 390
#     4  10  19  36  60 101 134 172 211 279 333 394
#     4  12  24  42  64  90 127 171 223 270 334 397
#     4  12  26  45  62  92 130 176 219 278 329 399
#     4  12  22  37  63  98 129 175 217 275 333 399
#     4  10  19  34  61  98 139 163 216 271 336 388
#     4  12  23  39  61  90 124 162 211 267 326 386
#
# _framework density 21.249281
#
# number of rings (size 3 to 8) (size 9 to 14) (size 15 to 20)
#    0.000    0.571    5.714    6.000    0.000    0.000 
#    0.000    0.000    0.000    0.857    0.000    0.000 
#    0.000    0.000    0.000    0.000    0.000    0.000 
#
# Total GULP energy -346983.580467 kJ/mol
# GULP energy per Si atom -12392.270731 kJ/mol
# Density = 2.120092 g / cm^3
# Si number density = 21.249281 Si / 1000 Ang^3
#
#
#
# Elastic Constant Matrix: (Units=GPa)
#
#
# Indices 1 2 3 4 5 6 
#
# 1 115.6936 35.4741 55.3515 0.0000 -20.0252 0.0000
# 2 35.4741 93.8219 20.0842 0.0000 1.9383 0.0000
# 3 55.3515 20.0842 92.0022 0.0000 -3.5403 0.0000
# 4 0.0000 0.0000 0.0000 25.0038 0.0000 -8.4442
# 5 -20.0252 1.9383 -3.5403 0.0000 47.0607 0.0000
# 6 0.0000 0.0000 0.0000 -8.4442 0.0000 39.6168
#
#
#
# Elastic Compliance Matrix: (Units=1/GPa)
#
#
# Indices 1 2 3 4 5 6 
#
# 1 0.014517 -0.003971 -0.007645 0.000000 0.005766 0.000000
# 2 -0.003971 0.012287 -0.000379 0.000000 -0.002224 0.000000
# 3 -0.007645 -0.000379 0.015472 0.000000 -0.002074 0.000000
# 4 0.000000 0.000000 0.000000 0.043096 0.000000 0.009186
# 5 0.005766 -0.002224 -0.002074 0.000000 0.023638 0.000000
# 6 0.000000 0.000000 0.000000 0.009186 0.000000 0.027200
#
#
# Mechanical properties :
#
#
# Convention : Reuss Voigt Hill
#
# Bulk Modulus (GPa) = 54.68768 58.14861 56.41815
# Shear Modulus (GPa) = 30.06716 35.04346 32.55531
#
# Velocity S-wave (km/s) = 3.76569 4.06539 3.91841
# Velocity P-wave (km/s) = 6.68576 7.03285 6.86150
#
# Compressibility (1/GPa) = 0.01828565
#
# Stress axis : x y z
#
# Youngs Moduli (GPa) = 68.88588 81.38640 64.63458
#
# Poissons Ratio (x) = 0.32322 0.49413
# Poissons Ratio (y) = 0.27357 0.02447
# Poissons Ratio (z) = 0.52663 0.03081
#
# Static dielectric constant tensor:
#      x y z
#    x 4.511770 0.000000 -0.781120 
#    y 0.000000 3.775990 0.000000 
#    z -0.781120 0.000000 4.234310 
# 
# 
# High freq. dielectric constant tensor:
#      x y z
#    x 1.835200 0.000000 -0.041270 
#    y 0.000000 1.837960 0.000000 
#    z -0.041270 0.000000 1.816390 
# 
# From -- ./inp_files/35551.got.cif
#   From: 2010.06.25/outbox.cif.g09.slc.cpg/sg15_18_cif.got.tgz:35551.got - 2010.06.28 07:06:18.
