data_PCOD8133256
_publ_section_title
;
Structure prediction by ZEFSAII (Michael W. Deem and Ramdas Pophale) SiO2 
 PCOD8133256
Probable space group: C 2/C
;
_chemical_formula_sum "Si O2"
_cell_formula_units_Z 40
_cell_length_a 10.769580
_cell_length_b 20.009522
_cell_length_c 7.817012
_cell_angle_alpha 90.000000
_cell_angle_beta 71.079502
_cell_angle_gamma 90.000000
_cell_volume 1593.504720
_symmetry_space_group_name_H-M "C 2/C"
_symmetry_group_IT_number 15
_symmetry_cell_setting 'monoclinic'
loop_
_space_group_symop_operation_xyz
x,y,z
-x,y,1/2-z
-x,-y,-z
x,-y,1/2+z
1/2+x,1/2+y,z
1/2-x,1/2+y,1/2-z
1/2-x,1/2-y,-z
1/2+x,1/2-y,1/2+z
loop_
_atom_site_type_symbol
_atom_site_label
_atom_site_fract_x
_atom_site_fract_y
_atom_site_fract_z
Si Si1 0.733982 0.606191 0.132601
Si Si2 0.838421 0.421279 0.091664
Si Si3 0.007020 0.692292 0.445214
Si Si4 0.500000 0.999133 0.250000
Si Si5 0.346509 0.492302 0.542798
Si Si6 0.500000 0.294686 0.750000
O O1 0.875797 0.639727 0.074913
O O2 0.728384 0.544335 0.268228
O O3 0.626605 0.660773 0.229725
O O4 0.702345 0.569441 0.966103
O O5 0.877081 0.450597 0.259149
O O6 0.690072 0.443621 0.104274
O O7 0.867180 0.341887 0.061630
O O8 0.948042 0.453645 0.920552
O O9 0.000000 0.716247 0.250000
O O10 0.028136 0.753527 0.564489
O O11 0.500000 0.500000 0.500000
#
# Coordination Sequence:
#
# PCOD8133256 Si02
#       6
#     8   8   8   4   8   4
#     4  12  26  51  73 115 151 198 267 323 403 469
#     4  11  20  38  65 106 139 184 250 304 389 448
#     4  12  26  49  78 111 155 209 265 324 381 470
#     4  10  19  32  62  98 141 174 222 322 374 438
#     4  12  23  44  76 105 155 193 246 333 396 468
#     4  12  29  52  74 110 159 212 266 314 386 480
#
# _framework density 25.101904999999999
#
# number of rings (size 3 to 8) (size 9 to 14) (size 15 to 20)
#    0.000    0.400    5.000    4.800    0.000    2.400 
#    3.600    0.000    0.000    0.000    0.000    0.000 
#    0.000    0.000    0.000    0.000    0.000    0.000 
#
# Total GULP energy -247788.259301 kJ/mol
# GULP energy per Si atom -12389.412965 kJ/mol
# Density = 2.504477 g / cm^3
# Si number density = 25.101905 Si / 1000 Ang^3
#
#
#
# Elastic Constant Matrix: (Units=GPa)
#
#
# Indices 1 2 3 4 5 6 
#
# 1 167.8857 49.8835 39.6732 0.0000 15.6688 0.0000
# 2 49.8835 116.1074 65.1063 0.0000 6.2621 0.0000
# 3 39.6732 65.1063 60.1893 0.0000 5.2834 0.0000
# 4 0.0000 0.0000 0.0000 45.9079 0.0000 -14.3442
# 5 15.6688 6.2621 5.2834 0.0000 38.5946 0.0000
# 6 0.0000 0.0000 0.0000 -14.3442 0.0000 39.0737
#
#
#
# Elastic Compliance Matrix: (Units=1/GPa)
#
#
# Indices 1 2 3 4 5 6 
#
# 1 0.007308 -0.001087 -0.003438 0.000000 -0.002320 0.000000
# 2 -0.001087 0.022056 -0.023144 0.000000 0.000031 0.000000
# 3 -0.003438 -0.023144 0.043991 0.000000 -0.000871 0.000000
# 4 0.000000 0.000000 0.000000 0.024605 0.000000 0.009033
# 5 -0.002320 0.000031 -0.000871 0.000000 0.026967 0.000000
# 6 0.000000 0.000000 0.000000 0.009033 0.000000 0.028909
#
#
# Mechanical properties :
#
#
# Convention : Reuss Voigt Hill
#
# Bulk Modulus (GPa) = 55.49953 72.61205 64.05579
# Shear Modulus (GPa) = 23.23655 37.34987 30.29321
#
# Velocity S-wave (km/s) = 3.04581 3.86155 3.47768
# Velocity P-wave (km/s) = 5.87597 6.99084 6.45751
#
# Compressibility (1/GPa) = 0.01801817
#
# Stress axis : x y z
#
# Youngs Moduli (GPa) = 136.83002 45.33960 22.73195
#
# Poissons Ratio (x) = 0.04929 0.07814
# Poissons Ratio (y) = 0.14876 0.52610
# Poissons Ratio (z) = 0.47036 1.04933
#
# Static dielectric constant tensor:
#      x y z
#    x 5.057070 0.000000 0.683260 
#    y 0.000000 4.568100 0.000000 
#    z 0.683260 0.000000 5.182920 
# 
# 
# High freq. dielectric constant tensor:
#      x y z
#    x 2.016570 0.000000 0.009120 
#    y 0.000000 1.984880 0.000000 
#    z 0.009120 0.000000 2.020330 
# 
# From -- ./inp_files/29124.got.cif
#   From: 2010.06.25/outbox.cif.g09.slc.cpg/sg15_15_cif.got.tgz:29124.got - 2010.06.28 07:06:18.
