data_PCOD8133569
_publ_section_title
;
Structure prediction by ZEFSAII (Michael W. Deem and Ramdas Pophale) SiO2 
 PCOD8133569
Probable space group: C 2/C
;
_chemical_formula_sum "Si O2"
_cell_formula_units_Z 56
_cell_length_a 5.700096
_cell_length_b 16.619136
_cell_length_c 30.472680
_cell_angle_alpha 90.000000
_cell_angle_beta 120.098141
_cell_angle_gamma 90.000000
_cell_volume 2497.477338
_symmetry_space_group_name_H-M "C 2/C"
_symmetry_group_IT_number 15
_symmetry_cell_setting 'monoclinic'
loop_
_space_group_symop_operation_xyz
x,y,z
-x,y,1/2-z
-x,-y,-z
x,-y,1/2+z
1/2+x,1/2+y,z
1/2-x,1/2+y,1/2-z
1/2-x,1/2-y,-z
1/2+x,1/2-y,1/2+z
loop_
_atom_site_type_symbol
_atom_site_label
_atom_site_fract_x
_atom_site_fract_y
_atom_site_fract_z
Si Si1 0.463663 0.370470 0.052424
Si Si2 0.199668 0.506156 0.232420
Si Si3 0.964800 0.531823 0.620568
Si Si4 0.295323 0.275846 0.553642
Si Si5 0.799923 0.823830 0.269641
Si Si6 0.502248 0.934961 0.538754
Si Si7 0.268468 0.679731 0.622211
O O1 0.604537 0.283796 0.063502
O O2 0.265065 0.365017 0.075138
O O3 0.656182 0.446351 0.080128
O O4 0.288629 0.388966 0.992109
O O5 0.500000 0.546047 0.250000
O O6 0.012565 0.510272 0.171549
O O7 0.265016 0.418079 0.257561
O O8 0.000000 0.549290 0.250000
O O9 0.063154 0.472445 0.591597
O O10 0.124181 0.615887 0.640621
O O11 0.250000 0.250000 0.500000
O O12 0.237464 0.369492 0.554203
O O13 0.600606 0.262168 0.600149
O O14 0.500000 0.784723 0.250000
O O15 0.000000 0.786873 0.250000
O O16 0.938620 0.804237 0.329580
O O17 0.500000 0.000000 0.500000
#
# Coordination Sequence:
#
# PCOD8133569 Si02
#       7
#     8   8   8   8   8   8   8
#     4  11  22  40  63  88 135 175 217 275 338 406
#     4  10  19  34  59  92 134 162 216 285 345 394
#     4  11  22  36  60  99 130 169 226 283 342 413
#     4  11  24  42  62  91 133 178 228 274 339 412
#     4  10  19  33  59  96 132 160 220 282 335 393
#     4  12  23  41  62  94 136 180 223 280 335 418
#     4  11  21  38  64  95 130 175 219 279 344 406
#
# _framework density 22.422626000000001
#
# number of rings (size 3 to 8) (size 9 to 14) (size 15 to 20)
#    0.000    1.143    5.714    3.429    2.000    0.000 
#    0.000    0.000    0.000    0.000    3.714    1.000 
#    0.000    0.000    0.000    0.000    0.000    0.000 
#
# Total GULP energy -346921.148578 kJ/mol
# GULP energy per Si atom -12390.041021 kJ/mol
# Density = 2.237159 g / cm^3
# Si number density = 22.422626 Si / 1000 Ang^3
#
#
#
# Elastic Constant Matrix: (Units=GPa)
#
#
# Indices 1 2 3 4 5 6 
#
# 1 131.4738 23.7336 41.0560 0.0000 8.7490 -0.0001
# 2 23.7336 85.2313 34.2468 0.0000 3.0565 0.0000
# 3 41.0560 34.2468 144.4746 0.0001 15.1289 0.0001
# 4 0.0000 0.0000 0.0001 14.3555 0.0001 -2.3921
# 5 8.7490 3.0565 15.1289 0.0001 44.4276 0.0000
# 6 -0.0001 0.0000 0.0001 -2.3921 0.0000 22.1930
#
#
#
# Elastic Compliance Matrix: (Units=1/GPa)
#
#
# Indices 1 2 3 4 5 6 
#
# 1 0.008563 -0.001561 -0.001968 0.000000 -0.000909 0.000000
# 2 -0.001561 0.013254 -0.002732 0.000000 0.000326 0.000000
# 3 -0.001968 -0.002732 0.008367 0.000000 -0.002274 0.000000
# 4 0.000000 0.000000 0.000000 0.070934 0.000000 0.007646
# 5 -0.000909 0.000326 -0.002274 0.000000 0.023439 0.000000
# 6 0.000000 0.000000 0.000000 0.007646 0.000000 0.045883
#
#
# Mechanical properties :
#
#
# Convention : Reuss Voigt Hill
#
# Bulk Modulus (GPa) = 56.62397 62.13916 59.38157
# Shear Modulus (GPa) = 26.47612 33.67145 30.07378
#
# Velocity S-wave (km/s) = 3.43997 3.87935 3.66625
# Velocity P-wave (km/s) = 6.40982 6.91655 6.66800
#
# Compressibility (1/GPa) = 0.01766036
#
# Stress axis : x y z
#
# Youngs Moduli (GPa) = 116.78212 75.45121 119.52184
#
# Poissons Ratio (x) = 0.11778 0.23524
# Poissons Ratio (y) = 0.18230 0.32656
# Poissons Ratio (z) = 0.22985 0.20615
#
# Static dielectric constant tensor:
#      x y z
#    x 4.642150 0.000000 0.091280 
#    y 0.000000 3.805570 0.000000 
#    z 0.091280 0.000000 4.144270 
# 
# 
# High freq. dielectric constant tensor:
#      x y z
#    x 1.894700 0.000000 0.004360 
#    y 0.000000 1.828930 0.000000 
#    z 0.004360 0.000000 1.893120 
# 
# From -- ./inp_files/286121.got.cif
#   From: 2010.06.25/outbox.cif.g09.slc.cpg/sg15_144_cif.got.tgz:286121.got - 2010.06.28 07:06:18.
