data_PCOD8133643
_publ_section_title
;
Structure prediction by ZEFSAII (Michael W. Deem and Ramdas Pophale) SiO2 
 PCOD8133643
Probable space group: C 2/C
;
_chemical_formula_sum "Si O2"
_cell_formula_units_Z 48
_cell_length_a 15.675141
_cell_length_b 25.611822
_cell_length_c 12.223156
_cell_angle_alpha 90.000000
_cell_angle_beta 33.445979
_cell_angle_gamma 90.000000
_cell_volume 2704.615319
_symmetry_space_group_name_H-M "C 2/C"
_symmetry_group_IT_number 15
_symmetry_cell_setting 'monoclinic'
loop_
_space_group_symop_operation_xyz
x,y,z
-x,y,1/2-z
-x,-y,-z
x,-y,1/2+z
1/2+x,1/2+y,z
1/2-x,1/2+y,1/2-z
1/2-x,1/2-y,-z
1/2+x,1/2-y,1/2+z
loop_
_atom_site_type_symbol
_atom_site_label
_atom_site_fract_x
_atom_site_fract_y
_atom_site_fract_z
Si Si1 0.662255 0.199938 0.633707
Si Si2 0.866101 0.311199 0.084954
Si Si3 0.112015 0.477461 0.031640
Si Si4 0.107906 0.230989 0.721852
Si Si5 0.319285 0.408198 0.953811
Si Si6 0.370760 0.927472 0.134714
O O1 0.500000 0.192286 0.750000
O O2 0.750000 0.250000 0.500000
O O3 0.633405 0.207572 0.791937
O O4 0.764653 0.150482 0.491929
O O5 0.688727 0.302740 0.230667
O O6 0.900779 0.372822 0.040816
O O7 0.002347 0.279110 0.878721
O O8 0.253760 0.445191 0.928885
O O9 0.173766 0.529968 0.908684
O O10 0.000000 0.493954 0.250000
O O11 0.027182 0.441750 0.032246
O O12 0.250000 0.250000 0.500000
O O13 0.000000 0.198635 0.750000
O O14 0.500000 0.411689 0.750000
O O15 0.269342 0.425360 0.128940
#
# Coordination Sequence:
#
# PCOD8133643 Si02
#       6
#     8   8   8   8   8   8
#     4  11  21  34  54  81 110 142 179 215 263 323
#     4  10  19  34  53  76 105 136 172 214 258 313
#     4   9  18  35  56  76 101 135 177 221 265 315
#     4   9  19  34  51  71 100 134 169 210 255 299
#     4  10  20  34  52  77 110 140 170 218 269 317
#     4   9  19  35  55  77  99 136 180 216 261 319
#
# _framework density 17.747440000000001
#
# number of rings (size 3 to 8) (size 9 to 14) (size 15 to 20)
#    0.000    2.333    0.000    4.000    0.000    4.000 
#    0.000    4.167    0.000    0.000    0.000    0.000 
#    0.000    0.000    0.000    0.000    0.000    0.000 
#
# Total GULP energy -297453.019022 kJ/mol
# GULP energy per Si atom -12393.875793 kJ/mol
# Density = 1.770705 g / cm^3
# Si number density = 17.747440 Si / 1000 Ang^3
#
#
#
# Elastic Constant Matrix: (Units=GPa)
#
#
# Indices 1 2 3 4 5 6 
#
# 1 138.5944 64.2046 58.5823 0.0003 -7.6414 0.0033
# 2 64.2046 144.7669 66.7560 0.0001 1.6410 0.0004
# 3 58.5823 66.7560 105.8369 0.0001 -17.0115 0.0017
# 4 0.0003 0.0001 0.0001 28.2651 -0.0003 0.7570
# 5 -7.6414 1.6410 -17.0115 -0.0003 27.0560 -0.0031
# 6 0.0033 0.0004 0.0017 0.7570 -0.0031 15.9328
#
#
#
# Elastic Compliance Matrix: (Units=1/GPa)
#
#
# Indices 1 2 3 4 5 6 
#
# 1 0.010118 -0.002767 -0.003748 0.000000 0.000669 -0.000001
# 2 -0.002767 0.011133 -0.006369 0.000000 -0.005461 0.000000
# 3 -0.003748 -0.006369 0.017167 0.000000 0.010121 0.000001
# 4 0.000000 0.000000 0.000000 0.035424 0.000000 -0.001683
# 5 0.000669 -0.005461 0.010121 0.000000 0.043844 0.000007
# 6 -0.000001 0.000000 0.000001 -0.001683 0.000007 0.062843
#
#
# Mechanical properties :
#
#
# Convention : Reuss Voigt Hill
#
# Bulk Modulus (GPa) = 79.04024 85.36490 82.20257
# Shear Modulus (GPa) = 23.75135 27.56112 25.65623
#
# Velocity S-wave (km/s) = 3.66224 3.94504 3.80627
# Velocity P-wave (km/s) = 7.90668 8.30394 8.10774
#
# Compressibility (1/GPa) = 0.01265178
#
# Stress axis : x y z
#
# Youngs Moduli (GPa) = 98.83298 89.82005 58.25185
#
# Poissons Ratio (x) = 0.24851 0.21832
# Poissons Ratio (y) = 0.27344 0.37098
# Poissons Ratio (z) = 0.37041 0.57203
#
# Static dielectric constant tensor:
#      x y z
#    x 4.197510 0.000000 -0.136740 
#    y 0.000000 3.351730 0.000000 
#    z -0.136740 0.000000 3.304250 
# 
# 
# High freq. dielectric constant tensor:
#      x y z
#    x 1.705120 0.000000 0.004390 
#    y 0.000000 1.679110 0.000000 
#    z 0.004390 0.000000 1.682910 
# 
# From -- ./inp_files/101250.got.cif
#   From: 2010.06.25/outbox.cif.g09.slc.cpg/sg15_51_cif.got.tgz:101250.got - 2010.06.28 07:06:18.
