data_PCOD8133107
_publ_section_title
;
Structure prediction by ZEFSAII (Michael W. Deem and Ramdas Pophale) SiO2 
 PCOD8133107
Probable space group: C 2/C
;
_chemical_formula_sum "Si O2"
_cell_formula_units_Z 40
_cell_length_a 22.906074
_cell_length_b 18.190380
_cell_length_c 8.667547
_cell_angle_alpha 90.000000
_cell_angle_beta 137.018243
_cell_angle_gamma 90.000000
_cell_volume 2462.201733
_symmetry_space_group_name_H-M "C 2/C"
_symmetry_group_IT_number 15
_symmetry_cell_setting 'monoclinic'
loop_
_space_group_symop_operation_xyz
x,y,z
-x,y,1/2-z
-x,-y,-z
x,-y,1/2+z
1/2+x,1/2+y,z
1/2-x,1/2+y,1/2-z
1/2-x,1/2-y,-z
1/2+x,1/2-y,1/2+z
loop_
_atom_site_type_symbol
_atom_site_label
_atom_site_fract_x
_atom_site_fract_y
_atom_site_fract_z
Si Si1 0.749548 0.210433 0.336577
Si Si2 0.856987 0.576692 0.375738
Si Si3 0.091958 0.279595 0.996568
Si Si4 0.904739 0.436944 0.621626
Si Si5 0.585750 0.211379 0.848281
O O1 0.750000 0.250000 0.500000
O O2 0.731752 0.122492 0.322078
O O3 0.839661 0.218849 0.424003
O O4 0.672302 0.247454 0.086628
O O5 0.840716 0.498767 0.428663
O O6 0.903560 0.563375 0.303461
O O7 0.917339 0.625823 0.603914
O O8 0.085267 0.281088 0.165683
O O9 0.124767 0.357994 0.998234
O O10 0.000000 0.258591 0.750000
O O11 0.000000 0.456051 0.750000
O O12 0.500000 0.250275 0.750000
#
# Coordination Sequence:
#
# PCOD8133107 Si02
#       5
#     8   8   8   8   8
#     4  10  20  36  50  75 107 142 175 216 257 308
#     4  10  21  31  51  72 112 137 175 209 259 313
#     4  11  20  34  55  77 106 141 175 217 261 307
#     4  11  19  31  49  76 107 140 169 211 261 318
#     4  10  19  32  51  76 106 137 171 211 261 311
#
# _framework density 16.245622000000001
#
# number of rings (size 3 to 8) (size 9 to 14) (size 15 to 20)
#    1.200    0.400    2.000    6.600    0.000    0.000 
#    0.000    0.000    0.000    0.000    0.000    2.800 
#    0.000    0.000    0.000    0.000    0.000    0.000 
#
# Total GULP energy -247852.070735 kJ/mol
# GULP energy per Si atom -12392.603537 kJ/mol
# Density = 1.620865 g / cm^3
# Si number density = 16.245622 Si / 1000 Ang^3
#
#
#
# Elastic Constant Matrix: (Units=GPa)
#
#
# Indices 1 2 3 4 5 6 
#
# 1 131.5471 36.5526 59.6114 0.0000 -13.0417 0.0000
# 2 36.5526 63.0174 26.8223 0.0000 10.4183 0.0000
# 3 59.6114 26.8223 112.8419 0.0000 -5.9103 0.0000
# 4 0.0000 0.0000 0.0000 25.8178 0.0000 -1.6282
# 5 -13.0417 10.4183 -5.9103 0.0000 38.7047 0.0000
# 6 0.0000 0.0000 0.0000 -1.6282 0.0000 19.3264
#
#
#
# Elastic Compliance Matrix: (Units=1/GPa)
#
#
# Indices 1 2 3 4 5 6 
#
# 1 0.011725 -0.005628 -0.004607 0.000000 0.004762 0.000000
# 2 -0.005628 0.021568 -0.002578 0.000000 -0.008096 0.000000
# 3 -0.004607 -0.002578 0.011959 0.000000 0.000968 0.000000
# 4 0.000000 0.000000 0.000000 0.038940 0.000000 0.003281
# 5 0.004762 -0.008096 0.000968 0.000000 0.029768 0.000000
# 6 0.000000 0.000000 0.000000 0.003281 0.000000 0.052019
#
#
# Mechanical properties :
#
#
# Convention : Reuss Voigt Hill
#
# Bulk Modulus (GPa) = 50.94787 61.48654 56.21721
# Shear Modulus (GPa) = 25.23363 29.06445 27.14904
#
# Velocity S-wave (km/s) = 3.94541 4.23432 4.09242
# Velocity P-wave (km/s) = 7.22386 7.86360 7.55051
#
# Compressibility (1/GPa) = 0.01962791
#
# Stress axis : x y z
#
# Youngs Moduli (GPa) = 85.28463 46.36397 83.61735
#
# Poissons Ratio (x) = 0.26092 0.38524
# Poissons Ratio (y) = 0.47995 0.21556
# Poissons Ratio (z) = 0.39292 0.11952
#
# Static dielectric constant tensor:
#      x y z
#    x 3.531930 0.000000 0.410570 
#    y 0.000000 3.058320 0.000000 
#    z 0.410570 0.000000 3.606870 
# 
# 
# High freq. dielectric constant tensor:
#      x y z
#    x 1.631240 0.000000 -0.021540 
#    y 0.000000 1.590170 0.000000 
#    z -0.021540 0.000000 1.625470 
# 
# From -- ./inp_files/31475.got.cif
#   From: 2010.06.25/outbox.cif.g09.slc.cpg/sg15_16_cif.got.tgz:31475.got - 2010.06.28 07:06:18.
