data_PCOD8133645
_publ_section_title
;
Structure prediction by ZEFSAII (Michael W. Deem and Ramdas Pophale) SiO2 
 PCOD8133645
Probable space group: C 2/C
;
_chemical_formula_sum "Si O2"
_cell_formula_units_Z 44
_cell_length_a 15.471147
_cell_length_b 13.608042
_cell_length_c 13.059339
_cell_angle_alpha 90.000000
_cell_angle_beta 117.354961
_cell_angle_gamma 90.000000
_cell_volume 2441.961460
_symmetry_space_group_name_H-M "C 2/C"
_symmetry_group_IT_number 15
_symmetry_cell_setting 'monoclinic'
loop_
_space_group_symop_operation_xyz
x,y,z
-x,y,1/2-z
-x,-y,-z
x,-y,1/2+z
1/2+x,1/2+y,z
1/2-x,1/2+y,1/2-z
1/2-x,1/2-y,-z
1/2+x,1/2-y,1/2+z
loop_
_atom_site_type_symbol
_atom_site_label
_atom_site_fract_x
_atom_site_fract_y
_atom_site_fract_z
Si Si1 0.171993 0.160486 0.731428
Si Si2 0.397982 0.933222 0.668618
Si Si3 0.000000 0.752709 0.250000
Si Si4 0.749474 0.626956 0.250330
Si Si5 0.614579 0.495424 0.553256
Si Si6 0.239451 0.989785 0.428485
O O1 0.060221 0.181360 0.703384
O O2 0.232821 0.256943 0.735295
O O3 0.166156 0.091017 0.629837
O O4 0.229550 0.106973 0.853919
O O5 0.500000 0.989783 0.750000
O O6 0.340003 0.985796 0.546467
O O7 0.423614 0.820029 0.649204
O O8 0.336322 0.930096 0.739659
O O9 0.741801 0.588095 0.362054
O O10 0.650806 0.601996 0.133875
O O11 0.500000 0.500000 0.500000
O O12 0.646084 0.491928 0.452117
#
# Coordination Sequence:
#
# PCOD8133645 Si02
#       6
#     8   8   4   8   8   8
#     4  10  19  34  53  78 107 139 177 224 264 321
#     4   8  17  33  50  77 101 134 181 214 261 322
#     4   8  16  30  50  76 102 130 180 218 256 318
#     4   9  20  35  51  82 105 137 182 216 270 322
#     4  10  21  35  56  81 107 143 184 217 269 322
#     4  10  20  34  55  75 109 144 171 228 268 307
#
# _framework density 18.018303
#
# number of rings (size 3 to 8) (size 9 to 14) (size 15 to 20)
#    0.545    2.182    0.000    1.091    0.000   11.636 
#    0.000    0.000    0.000    0.000    0.000    0.000 
#    0.000    0.000    0.000    0.000    0.000    0.000 
#
# Total GULP energy -272671.951418 kJ/mol
# GULP energy per Si atom -12394.179610 kJ/mol
# Density = 1.797729 g / cm^3
# Si number density = 18.018303 Si / 1000 Ang^3
#
#
#
# Elastic Constant Matrix: (Units=GPa)
#
#
# Indices 1 2 3 4 5 6 
#
# 1 84.6842 34.8504 53.9540 0.0000 18.3369 0.0000
# 2 34.8504 105.1397 46.1389 0.0000 -7.1984 0.0000
# 3 53.9540 46.1389 110.0918 0.0000 -4.5884 0.0000
# 4 0.0000 0.0000 0.0000 16.4996 0.0000 0.8175
# 5 18.3369 -7.1984 -4.5884 0.0000 29.7111 0.0000
# 6 0.0000 0.0000 0.0000 0.8175 0.0000 29.3211
#
#
#
# Elastic Compliance Matrix: (Units=1/GPa)
#
#
# Indices 1 2 3 4 5 6 
#
# 1 0.024449 -0.004586 -0.010805 0.000000 -0.017869 0.000000
# 2 -0.004586 0.012644 -0.002824 0.000000 0.005458 0.000000
# 3 -0.010805 -0.002824 0.015914 0.000000 0.008442 0.000000
# 4 0.000000 0.000000 0.000000 0.060691 0.000000 -0.001692
# 5 -0.017869 0.005458 0.008442 0.000000 0.047312 0.000000
# 6 0.000000 0.000000 0.000000 -0.001692 0.000000 0.034152
#
#
# Mechanical properties :
#
#
# Convention : Reuss Voigt Hill
#
# Bulk Modulus (GPa) = 60.32312 63.31137 61.81725
# Shear Modulus (GPa) = 21.08652 26.10453 23.59553
#
# Velocity S-wave (km/s) = 3.42465 3.81041 3.62267
# Velocity P-wave (km/s) = 7.01350 7.38732 7.20283
#
# Compressibility (1/GPa) = 0.01657739
#
# Stress axis : x y z
#
# Youngs Moduli (GPa) = 40.90136 79.08729 62.83762
#
# Poissons Ratio (x) = 0.36269 0.67895
# Poissons Ratio (y) = 0.18757 0.17747
# Poissons Ratio (z) = 0.44193 0.22336
#
# Static dielectric constant tensor:
#      x y z
#    x 3.397270 0.000000 0.058580 
#    y 0.000000 3.202970 0.000000 
#    z 0.058580 0.000000 3.294300 
# 
# 
# High freq. dielectric constant tensor:
#      x y z
#    x 1.701480 0.000000 0.002270 
#    y 0.000000 1.681980 0.000000 
#    z 0.002270 0.000000 1.688760 
# 
# From -- ./inp_files/104355.got.cif
#   From: 2010.06.25/outbox.cif.g09.slc.cpg/sg15_53_cif.got.tgz:104355.got - 2010.06.28 07:06:18.
