data_PCOD8133352
_publ_section_title
;
Structure prediction by ZEFSAII (Michael W. Deem and Ramdas Pophale) SiO2 
 PCOD8133352
Probable space group: C 2/C
;
_chemical_formula_sum "Si O2"
_cell_formula_units_Z 40
_cell_length_a 22.134115
_cell_length_b 12.961094
_cell_length_c 8.856863
_cell_angle_alpha 90.000000
_cell_angle_beta 130.783687
_cell_angle_gamma 90.000000
_cell_volume 1923.904426
_symmetry_space_group_name_H-M "C 2/C"
_symmetry_group_IT_number 15
_symmetry_cell_setting 'monoclinic'
loop_
_space_group_symop_operation_xyz
x,y,z
-x,y,1/2-z
-x,-y,-z
x,-y,1/2+z
1/2+x,1/2+y,z
1/2-x,1/2+y,1/2-z
1/2-x,1/2-y,-z
1/2+x,1/2-y,1/2+z
loop_
_atom_site_type_symbol
_atom_site_label
_atom_site_fract_x
_atom_site_fract_y
_atom_site_fract_z
Si Si1 0.315936 0.496688 0.372026
Si Si2 0.151383 0.368368 0.832082
Si Si3 0.156751 0.863549 0.339243
Si Si4 0.269889 0.130702 0.519716
Si Si5 0.907010 0.547781 0.580605
O O1 0.368312 0.415118 0.361044
O O2 0.374681 0.563578 0.575687
O O3 0.252062 0.429715 0.363690
O O4 0.272821 0.578361 0.193184
O O5 0.120884 0.250380 0.791574
O O6 0.117417 0.428943 0.922089
O O7 0.118719 0.422951 0.629565
O O8 0.246938 0.368729 0.989957
O O9 0.250000 0.250000 0.500000
O O10 0.363870 0.119988 0.636188
O O11 0.000000 0.565728 0.750000
#
# Coordination Sequence:
#
# PCOD8133352 Si02
#       5
#     8   8   8   8   8
#     4  10  19  33  53  85 113 140 187 250 284 321
#     4  11  21  35  55  83 117 158 188 233 288 345
#     4  10  19  34  58  81 120 143 198 246 286 327
#     4  11  21  34  56  83 115 149 194 232 285 330
#     4  12  23  38  55  85 127 155 184 233 297 358
#
# _framework density 20.791055
#
# number of rings (size 3 to 8) (size 9 to 14) (size 15 to 20)
#    0.000    1.200    6.000    1.800    2.800    0.000 
#    0.000    0.000    0.000    0.000    0.000   36.400 
#    0.000    0.000    0.000    0.000    0.000    0.000 
#
# Total GULP energy -247836.890545 kJ/mol
# GULP energy per Si atom -12391.844527 kJ/mol
# Density = 2.074373 g / cm^3
# Si number density = 20.791055 Si / 1000 Ang^3
#
#
#
# Elastic Constant Matrix: (Units=GPa)
#
#
# Indices 1 2 3 4 5 6 
#
# 1 67.1098 65.0446 42.5031 0.0000 -16.2623 0.0000
# 2 65.0446 218.5807 53.7679 0.0000 -26.0109 0.0000
# 3 42.5031 53.7679 70.1267 0.0000 -31.9942 0.0000
# 4 0.0000 0.0000 0.0000 23.4327 0.0000 -11.1296
# 5 -16.2623 -26.0109 -31.9942 0.0000 36.3750 0.0000
# 6 0.0000 0.0000 0.0000 -11.1296 0.0000 26.0129
#
#
#
# Elastic Compliance Matrix: (Units=1/GPa)
#
#
# Indices 1 2 3 4 5 6 
#
# 1 0.028671 -0.005284 -0.015369 0.000000 -0.004479 0.000000
# 2 -0.005284 0.006616 -0.001318 0.000000 0.001209 0.000000
# 3 -0.015369 -0.001318 0.035110 0.000000 0.023068 0.000000
# 4 0.000000 0.000000 0.000000 0.053559 0.000000 0.022915
# 5 -0.004479 0.001209 0.023068 0.000000 0.046643 0.000000
# 6 0.000000 0.000000 0.000000 0.022915 0.000000 0.048247
#
#
# Mechanical properties :
#
#
# Convention : Reuss Voigt Hill
#
# Bulk Modulus (GPa) = 37.80165 75.38316 56.59241
# Shear Modulus (GPa) = 18.40899 30.13091 24.26995
#
# Velocity S-wave (km/s) = 2.97884 3.81100 3.42032
# Velocity P-wave (km/s) = 5.48202 7.46332 6.54804
#
# Compressibility (1/GPa) = 0.02645387
#
# Stress axis : x y z
#
# Youngs Moduli (GPa) = 34.87835 151.16006 28.48202
#
# Poissons Ratio (x) = 0.79877 0.43774
# Poissons Ratio (y) = 0.18431 0.03754
# Poissons Ratio (z) = 0.53605 0.19923
#
# Static dielectric constant tensor:
#      x y z
#    x 3.951130 0.000000 -0.605280 
#    y 0.000000 4.459410 0.000000 
#    z -0.605280 0.000000 3.681530 
# 
# 
# High freq. dielectric constant tensor:
#      x y z
#    x 1.786190 0.000000 -0.050910 
#    y 0.000000 1.831550 0.000000 
#    z -0.050910 0.000000 1.791670 
# 
# From -- ./inp_files/55504.got.cif
#   From: 2010.06.25/outbox.cif.g09.slc.cpg/sg15_28_cif.got.tgz:55504.got - 2010.06.28 07:06:18.
