data_PCOD8133458
_publ_section_title
;
Structure prediction by ZEFSAII (Michael W. Deem and Ramdas Pophale) SiO2 
 PCOD8133458
Probable space group: C 2/C
;
_chemical_formula_sum "Si O2"
_cell_formula_units_Z 40
_cell_length_a 27.376677
_cell_length_b 7.597872
_cell_length_c 18.939582
_cell_angle_alpha 90.000000
_cell_angle_beta 29.175723
_cell_angle_gamma 90.000000
_cell_volume 1920.474655
_symmetry_space_group_name_H-M "C 2/C"
_symmetry_group_IT_number 15
_symmetry_cell_setting 'monoclinic'
loop_
_space_group_symop_operation_xyz
x,y,z
-x,y,1/2-z
-x,-y,-z
x,-y,1/2+z
1/2+x,1/2+y,z
1/2-x,1/2+y,1/2-z
1/2-x,1/2-y,-z
1/2+x,1/2-y,1/2+z
loop_
_atom_site_type_symbol
_atom_site_label
_atom_site_fract_x
_atom_site_fract_y
_atom_site_fract_z
Si Si1 0.552685 0.187258 0.946983
Si Si2 0.340966 0.243806 0.210750
Si Si3 0.387953 0.206526 0.890421
Si Si4 0.170128 0.492825 0.406447
Si Si5 0.690846 0.914940 0.156387
O O1 0.607866 0.173443 0.953036
O O2 0.634202 0.218829 0.782190
O O3 0.456624 0.316842 0.068079
O O4 0.500000 0.000000 0.000000
O O5 0.278290 0.422452 0.294250
O O6 0.316038 0.144593 0.169160
O O7 0.315345 0.115896 0.309004
O O8 0.500000 0.288762 0.750000
O O9 0.363519 0.101595 0.849815
O O10 0.307469 0.361027 0.004739
O O11 0.387425 0.064742 0.953516
#
# Coordination Sequence:
#
# PCOD8133458 Si02
#       5
#     8   8   8   8   8
#     4   8  16  33  53  74  99 130 165 208 252 301
#     4  10  19  35  54  78 105 130 167 216 253 300
#     4  11  20  35  54  73 102 143 173 204 251 303
#     4  10  19  33  56  76 100 136 173 204 254 307
#     4   9  20  34  52  78 103 130 173 211 251 302
#
# _framework density 20.828185000000001
#
# number of rings (size 3 to 8) (size 9 to 14) (size 15 to 20)
#    0.000    2.800    0.000    6.000    0.000    0.800 
#    0.000    9.000    0.000    0.000    0.000    0.000 
#    0.000    0.000    0.000    0.000    0.000    0.000 
#
# Total GULP energy -247858.851923 kJ/mol
# GULP energy per Si atom -12392.942596 kJ/mol
# Density = 2.078078 g / cm^3
# Si number density = 20.828185 Si / 1000 Ang^3
#
#
#
# Elastic Constant Matrix: (Units=GPa)
#
#
# Indices 1 2 3 4 5 6 
#
# 1 88.5620 8.2372 43.2134 0.0107 11.5334 -0.0023
# 2 8.2372 22.4836 20.5373 0.0165 3.5424 -0.0048
# 3 43.2134 20.5373 131.7155 0.0140 -15.3139 -0.0027
# 4 0.0107 0.0165 0.0140 25.4042 -0.0031 -4.3965
# 5 11.5334 3.5424 -15.3139 -0.0031 47.5402 0.0001
# 6 -0.0023 -0.0048 -0.0027 -4.3965 0.0001 22.6035
#
#
#
# Elastic Compliance Matrix: (Units=1/GPa)
#
#
# Indices 1 2 3 4 5 6 
#
# 1 0.014626 0.000511 -0.005501 -0.000004 -0.005358 0.000000
# 2 0.000511 0.054034 -0.009428 -0.000030 -0.007187 0.000005
# 3 -0.005501 -0.009428 0.011536 0.000003 0.005753 -0.000001
# 4 -0.000004 -0.000030 0.000003 0.040735 0.000007 0.007923
# 5 -0.005358 -0.007187 0.005753 0.000007 0.024724 0.000000
# 6 0.000000 0.000005 -0.000001 0.007923 0.000000 0.045782
#
#
# Mechanical properties :
#
#
# Convention : Reuss Voigt Hill
#
# Bulk Modulus (GPa) = 19.47088 42.97076 31.22082
# Shear Modulus (GPa) = 21.06204 30.49446 25.77825
#
# Velocity S-wave (km/s) = 3.18343 3.83050 3.52186
# Velocity P-wave (km/s) = 4.78340 6.34346 5.61785
#
# Compressibility (1/GPa) = 0.05135876
#
# Stress axis : x y z
#
# Youngs Moduli (GPa) = 68.37068 18.50679 86.68563
#
# Poissons Ratio (x) = -0.00945 0.47688
# Poissons Ratio (y) = -0.03492 0.81730
# Poissons Ratio (z) = 0.37612 0.17449
#
# Static dielectric constant tensor:
#      x y z
#    x 4.325210 0.000000 -0.603850 
#    y 0.000000 3.204770 0.000010 
#    z -0.603850 0.000010 4.616610 
# 
# 
# High freq. dielectric constant tensor:
#      x y z
#    x 1.830710 0.000000 -0.015290 
#    y 0.000000 1.762510 0.000000 
#    z -0.015290 0.000000 1.828870 
# 
# From -- ./inp_files/208873.got.cif
#   From: 2010.06.25/outbox.cif.g09.slc.cpg/sg15_105_cif.got.tgz:208873.got - 2010.06.28 07:06:18.
