data_PCOD8133442
_publ_section_title
;
Structure prediction by ZEFSAII (Michael W. Deem and Ramdas Pophale) SiO2 
 PCOD8133442
Probable space group: C 2/C
;
_chemical_formula_sum "Si O2"
_cell_formula_units_Z 64
_cell_length_a 15.753215
_cell_length_b 27.885433
_cell_length_c 12.006449
_cell_angle_alpha 90.000000
_cell_angle_beta 40.345015
_cell_angle_gamma 90.000000
_cell_volume 3414.493891
_symmetry_space_group_name_H-M "C 2/C"
_symmetry_group_IT_number 15
_symmetry_cell_setting 'monoclinic'
loop_
_space_group_symop_operation_xyz
x,y,z
-x,y,1/2-z
-x,-y,-z
x,-y,1/2+z
1/2+x,1/2+y,z
1/2-x,1/2+y,1/2-z
1/2-x,1/2-y,-z
1/2+x,1/2-y,1/2+z
loop_
_atom_site_type_symbol
_atom_site_label
_atom_site_fract_x
_atom_site_fract_y
_atom_site_fract_z
Si Si1 0.650471 0.556263 0.367353
Si Si2 0.850638 0.384651 0.268426
Si Si3 0.856988 0.291071 0.654547
Si Si4 0.649365 0.884649 0.969703
Si Si5 0.650475 0.443739 0.331699
Si Si6 0.151751 0.901994 0.098249
Si Si7 0.356989 0.791072 0.131473
Si Si8 0.708141 0.805099 0.541860
O O1 0.745852 0.577530 0.179065
O O2 0.656272 0.500001 0.343724
O O3 0.499997 0.574563 0.501982
O O4 0.707516 0.572196 0.431329
O O5 0.835766 0.382044 0.414232
O O6 0.745860 0.422474 0.329221
O O7 0.813306 0.332754 0.257870
O O8 0.000003 0.398728 0.084697
O O9 0.813305 0.332751 0.615511
O O10 0.750002 0.249999 0.753054
O O11 0.871736 0.312889 0.764606
O O12 0.000001 0.270496 0.477765
O O13 0.707519 0.427804 0.153635
O O14 0.000000 0.911814 0.250000
O O15 0.176114 0.844693 0.073886
O O16 0.371742 0.812888 0.991911
O O17 0.750000 0.750000 0.500000
#
# Coordination Sequence:
#
# PCOD8133442 Si02
#       8
#     8   8   8   8   8   8   8   8
#     4  10  22  39  62  89 117 150 193 243 294 347
#     4  10  22  40  59  82 116 154 194 239 287 342
#     4  10  21  36  56  83 114 150 191 236 287 344
#     4  10  22  40  59  82 116 154 194 239 287 342
#     4  10  22  39  62  89 117 150 193 243 294 347
#     4  10  20  37  60  90 122 154 191 243 299 350
#     4  10  21  36  56  83 114 150 191 236 287 344
#     4  10  19  33  55  84 114 156 188 235 284 356
#
# _framework density 18.743628000000001
#
# number of rings (size 3 to 8) (size 9 to 14) (size 15 to 20)
#    0.000    2.000    2.500    0.375    1.750    6.500 
#    0.000    0.625    0.000    0.000    0.000    0.000 
#    0.000    0.000    0.000    0.000    0.000    0.000 
#
# Total GULP energy -396598.768704 kJ/mol
# GULP energy per Si atom -12393.711522 kJ/mol
# Density = 1.870097 g / cm^3
# Si number density = 18.743628 Si / 1000 Ang^3
#
#
#
# Elastic Constant Matrix: (Units=GPa)
#
#
# Indices 1 2 3 4 5 6 
#
# 1 98.2026 53.4726 48.2220 0.0000 5.0759 0.0000
# 2 53.4726 101.0522 53.2564 0.0000 0.4584 0.0000
# 3 48.2220 53.2564 94.7257 0.0000 2.4613 0.0000
# 4 0.0000 0.0000 0.0000 31.4844 0.0000 -3.8369
# 5 5.0759 0.4584 2.4613 0.0000 29.5137 0.0000
# 6 0.0000 0.0000 0.0000 -3.8369 0.0000 29.7213
#
#
#
# Elastic Compliance Matrix: (Units=1/GPa)
#
#
# Indices 1 2 3 4 5 6 
#
# 1 0.015800 -0.005886 -0.004676 0.000000 -0.002236 0.000000
# 2 -0.005886 0.016261 -0.006179 0.000000 0.001275 0.000000
# 3 -0.004676 -0.006179 0.016423 0.000000 -0.000470 0.000000
# 4 0.000000 0.000000 0.000000 0.032269 0.000000 0.004166
# 5 -0.002236 0.001275 -0.000470 0.000000 0.034286 0.000000
# 6 0.000000 0.000000 0.000000 0.004166 0.000000 0.034184
#
#
# Mechanical properties :
#
#
# Convention : Reuss Voigt Hill
#
# Bulk Modulus (GPa) = 66.65641 67.09806 66.87724
# Shear Modulus (GPa) = 26.63733 27.41251 27.02492
#
# Velocity S-wave (km/s) = 3.77389 3.82841 3.80125
# Velocity P-wave (km/s) = 7.39115 7.44431 7.41778
#
# Compressibility (1/GPa) = 0.01500231
#
# Stress axis : x y z
#
# Youngs Moduli (GPa) = 63.29226 61.49576 60.88944
#
# Poissons Ratio (x) = 0.36198 0.28470
# Poissons Ratio (y) = 0.37255 0.37624
# Poissons Ratio (z) = 0.29594 0.37998
#
# Static dielectric constant tensor:
#      x y z
#    x 3.733470 0.000000 0.217180 
#    y 0.000000 3.380120 0.000000 
#    z 0.217180 0.000000 3.633640 
# 
# 
# High freq. dielectric constant tensor:
#      x y z
#    x 1.733530 0.000000 0.007740 
#    y 0.000000 1.720720 0.000000 
#    z 0.007740 0.000000 1.729970 
# 
# From -- ./inp_files/101326.got.cif
#   From: 2010.06.25/outbox.cif.g09.slc.cpg/sg15_51_cif.got.tgz:101326.got - 2010.06.28 07:06:18.
