data_PCOD8133381
_publ_section_title
;
Structure prediction by ZEFSAII (Michael W. Deem and Ramdas Pophale) SiO2 
 PCOD8133381
Probable space group: C 2/C
;
_chemical_formula_sum "Si O2"
_cell_formula_units_Z 56
_cell_length_a 8.974270
_cell_length_b 26.853848
_cell_length_c 14.309024
_cell_angle_alpha 90.000000
_cell_angle_beta 55.939620
_cell_angle_gamma 90.000000
_cell_volume 2856.806521
_symmetry_space_group_name_H-M "C 2/C"
_symmetry_group_IT_number 15
_symmetry_cell_setting 'monoclinic'
loop_
_space_group_symop_operation_xyz
x,y,z
-x,y,1/2-z
-x,-y,-z
x,-y,1/2+z
1/2+x,1/2+y,z
1/2-x,1/2+y,1/2-z
1/2-x,1/2-y,-z
1/2+x,1/2-y,1/2+z
loop_
_atom_site_type_symbol
_atom_site_label
_atom_site_fract_x
_atom_site_fract_y
_atom_site_fract_z
Si Si1 0.676441 0.541226 0.747610
Si Si2 0.849515 0.314024 0.544568
Si Si3 0.601733 0.096869 0.973711
Si Si4 0.488324 0.368418 0.365022
Si Si5 0.807415 0.665555 0.272425
Si Si6 0.540659 0.701704 0.012457
Si Si7 0.364709 0.943888 0.721643
O O1 0.500000 0.534256 0.750000
O O2 0.847662 0.559557 0.627443
O O3 0.621955 0.584593 0.840986
O O4 0.715232 0.486662 0.772257
O O5 0.789233 0.316667 0.672733
O O6 0.680402 0.323175 0.535642
O O7 0.933923 0.260309 0.498985
O O8 0.997881 0.355520 0.468365
O O9 0.781995 0.116862 0.962703
O O10 0.470935 0.066774 0.088530
O O11 0.500000 0.354660 0.250000
O O12 0.558362 0.322695 0.403190
O O13 0.661309 0.694047 0.383277
O O14 0.769738 0.606447 0.290468
O O15 0.000000 0.678150 0.250000
O O16 0.500000 0.964958 0.750000
#
# Coordination Sequence:
#
# PCOD8133381 Si02
#       7
#     8   8   8   8   8   8   8
#     4   9  20  36  54  78 109 144 184 229 273 324
#     4  10  23  37  57  86 113 145 184 229 282 330
#     4   9  19  38  55  76 110 147 186 228 271 329
#     4   9  20  38  57  81 112 147 190 229 268 331
#     4  10  22  39  59  83 112 147 189 229 269 333
#     4  11  22  39  58  84 117 145 180 233 283 325
#     4  10  19  33  54  81 107 138 183 229 275 328
#
# _framework density 19.602307
#
# number of rings (size 3 to 8) (size 9 to 14) (size 15 to 20)
#    0.000    2.571    0.000    3.429    0.000    8.571 
#    0.000   12.143    0.000    0.000    0.000    0.000 
#    0.000    0.000    0.000    0.000    0.000    0.000 
#
# Total GULP energy -347055.343907 kJ/mol
# GULP energy per Si atom -12394.833711 kJ/mol
# Density = 1.955769 g / cm^3
# Si number density = 19.602307 Si / 1000 Ang^3
#
#
#
# Elastic Constant Matrix: (Units=GPa)
#
#
# Indices 1 2 3 4 5 6 
#
# 1 87.9224 59.4387 45.9810 0.0000 1.0610 0.0000
# 2 59.4387 93.3253 35.9392 0.0000 -6.5504 0.0000
# 3 45.9810 35.9392 68.0393 0.0000 -2.3362 0.0000
# 4 0.0000 0.0000 0.0000 27.5393 0.0000 0.7220
# 5 1.0610 -6.5504 -2.3362 0.0000 31.1612 0.0000
# 6 0.0000 0.0000 0.0000 0.7220 0.0000 36.2801
#
#
#
# Elastic Compliance Matrix: (Units=1/GPa)
#
#
# Indices 1 2 3 4 5 6 
#
# 1 0.025405 -0.012317 -0.010809 0.000000 -0.004265 0.000000
# 2 -0.012317 0.019590 -0.001873 0.000000 0.004397 0.000000
# 3 -0.010809 -0.001873 0.023050 0.000000 0.001702 0.000000
# 4 0.000000 0.000000 0.000000 0.036331 0.000000 -0.000723
# 5 -0.004265 0.004397 0.001702 0.000000 0.033288 0.000000
# 6 0.000000 0.000000 0.000000 -0.000723 0.000000 0.027578
#
#
# Mechanical properties :
#
#
# Convention : Reuss Voigt Hill
#
# Bulk Modulus (GPa) = 55.41152 59.11165 57.26158
# Shear Modulus (GPa) = 22.59854 26.19135 24.39494
#
# Velocity S-wave (km/s) = 3.39905 3.65929 3.53157
# Velocity P-wave (km/s) = 6.61316 6.93360 6.77527
#
# Compressibility (1/GPa) = 0.01804679
#
# Stress axis : x y z
#
# Youngs Moduli (GPa) = 39.36292 51.04733 43.38461
#
# Poissons Ratio (x) = 0.62875 0.46894
# Poissons Ratio (y) = 0.48483 0.08124
# Poissons Ratio (z) = 0.42547 0.09559
#
# Static dielectric constant tensor:
#      x y z
#    x 3.598480 0.000000 -0.005540 
#    y 0.000000 3.749260 0.000000 
#    z -0.005540 0.000000 3.533650 
# 
# 
# High freq. dielectric constant tensor:
#      x y z
#    x 1.760480 0.000000 -0.005580 
#    y 0.000000 1.769260 0.000000 
#    z -0.005580 0.000000 1.760070 
# 
# From -- ./inp_files/138543.got.cif
#   From: 2010.06.25/outbox.cif.g09.slc.cpg/sg15_70_cif.got.tgz:138543.got - 2010.06.28 07:06:18.
