data_PCOD8133954
_publ_section_title
;
Structure prediction by ZEFSAII (Michael W. Deem and Ramdas Pophale) SiO2 
 PCOD8133954
Probable space group: C 2/C
;
_chemical_formula_sum "Si O2"
_cell_formula_units_Z 56
_cell_length_a 12.101076
_cell_length_b 9.654980
_cell_length_c 21.590696
_cell_angle_alpha 90.000000
_cell_angle_beta 94.451060
_cell_angle_gamma 90.000000
_cell_volume 2514.954849
_symmetry_space_group_name_H-M "C 2/C"
_symmetry_group_IT_number 15
_symmetry_cell_setting 'monoclinic'
loop_
_space_group_symop_operation_xyz
x,y,z
-x,y,1/2-z
-x,-y,-z
x,-y,1/2+z
1/2+x,1/2+y,z
1/2-x,1/2+y,1/2-z
1/2-x,1/2-y,-z
1/2+x,1/2-y,1/2+z
loop_
_atom_site_type_symbol
_atom_site_label
_atom_site_fract_x
_atom_site_fract_y
_atom_site_fract_z
Si Si1 0.479483 0.279715 0.651212
Si Si2 0.952949 0.003955 0.929861
Si Si3 0.228157 0.701318 0.688864
Si Si4 0.236529 0.883355 0.799056
Si Si5 0.651700 0.774223 0.578054
Si Si6 0.866681 0.397467 0.049787
Si Si7 0.735498 0.171330 0.435312
O O1 0.469879 0.428381 0.616277
O O2 0.596033 0.235028 0.686022
O O3 0.381757 0.303622 0.696745
O O4 0.459958 0.161391 0.599049
O O5 0.840480 0.919298 0.922795
O O6 0.943499 0.163712 0.908364
O O7 0.000000 0.000000 0.000000
O O8 0.284820 0.809014 0.739637
O O9 0.263457 0.547969 0.712898
O O10 0.281232 0.723500 0.622784
O O11 0.317172 0.863504 0.861054
O O12 0.752564 0.680810 0.558599
O O13 0.606520 0.874375 0.521785
O O14 0.864803 0.562425 0.061920
O O15 0.750000 0.250000 0.500000
#
# Coordination Sequence:
#
# PCOD8133954 Si02
#       7
#     8   8   8   8   8   8   8
#     4  10  22  41  67  93 129 171 219 278 333 393
#     4  10  19  34  61  95 128 163 216 265 329 398
#     4  11  26  44  67  98 127 177 226 269 338 402
#     4  11  25  44  69  89 135 173 222 272 331 402
#     4   9  18  34  61  92 126 167 210 258 329 390
#     4   9  17  34  63  90 124 168 207 265 332 385
#     4  10  22  38  61  92 132 165 216 275 337 390
#
# _framework density 22.266801000000001
#
# number of rings (size 3 to 8) (size 9 to 14) (size 15 to 20)
#    0.000    2.000    1.429    1.286   12.000    0.000 
#    2.571    2.143    0.000    0.000    0.000    0.000 
#    0.000    0.000    0.000    0.000    0.000    0.000 
#
# Total GULP energy -347034.571556 kJ/mol
# GULP energy per Si atom -12394.091841 kJ/mol
# Density = 2.221612 g / cm^3
# Si number density = 22.266801 Si / 1000 Ang^3
#
#
#
# Elastic Constant Matrix: (Units=GPa)
#
#
# Indices 1 2 3 4 5 6 
#
# 1 28.9571 13.8425 10.1651 0.0000 7.1479 0.0000
# 2 13.8425 152.0338 67.0718 0.0000 5.8279 0.0000
# 3 10.1651 67.0718 147.8149 0.0000 0.6440 0.0000
# 4 0.0000 0.0000 0.0000 43.5343 0.0000 4.7559
# 5 7.1479 5.8279 0.6440 0.0000 22.1302 0.0000
# 6 0.0000 0.0000 0.0000 4.7559 0.0000 31.4837
#
#
#
# Elastic Compliance Matrix: (Units=1/GPa)
#
#
# Indices 1 2 3 4 5 6 
#
# 1 0.039192 -0.002430 -0.001541 0.000000 -0.011974 0.000000
# 2 -0.002430 0.008469 -0.003670 0.000000 -0.001339 0.000000
# 3 -0.001541 -0.003670 0.008531 0.000000 0.001216 0.000000
# 4 0.000000 0.000000 0.000000 0.023356 0.000000 -0.003528
# 5 -0.011974 -0.001339 0.001216 0.000000 0.049372 0.000000
# 6 0.000000 0.000000 0.000000 -0.003528 0.000000 0.032295
#
#
# Mechanical properties :
#
#
# Convention : Reuss Voigt Hill
#
# Bulk Modulus (GPa) = 24.44294 56.77384 40.60839
# Shear Modulus (GPa) = 26.29740 35.27805 30.78772
#
# Velocity S-wave (km/s) = 3.44032 3.98469 3.72247
# Velocity P-wave (km/s) = 5.17515 6.83540 6.06238
#
# Compressibility (1/GPa) = 0.04091161
#
# Stress axis : x y z
#
# Youngs Moduli (GPa) = 25.51548 118.07647 117.21779
#
# Poissons Ratio (x) = 0.28690 0.18058
# Poissons Ratio (y) = 0.06200 0.43019
# Poissons Ratio (z) = 0.03931 0.43334
#
# Static dielectric constant tensor:
#      x y z
#    x 3.665840 0.000000 -0.048840 
#    y 0.000000 4.230950 0.000000 
#    z -0.048840 0.000000 4.027890 
# 
# 
# High freq. dielectric constant tensor:
#      x y z
#    x 1.847910 0.000000 0.005840 
#    y 0.000000 1.884280 0.000000 
#    z 0.005840 0.000000 1.883810 
# 
# From -- ./inp_files/242782.got.cif
#   From: 2010.06.25/outbox.cif.g09.slc.cpg/sg15_122_cif.got.tgz:242782.got - 2010.06.28 07:06:18.
