data_PCOD8133689
_publ_section_title
;
Structure prediction by ZEFSAII (Michael W. Deem and Ramdas Pophale) SiO2 
 PCOD8133689
Probable space group: C 2/C
;
_chemical_formula_sum "Si O2"
_cell_formula_units_Z 52
_cell_length_a 25.642964
_cell_length_b 21.169042
_cell_length_c 14.201069
_cell_angle_alpha 90.000000
_cell_angle_beta 158.761858
_cell_angle_gamma 90.000000
_cell_volume 2792.499048
_symmetry_space_group_name_H-M "C 2/C"
_symmetry_group_IT_number 15
_symmetry_cell_setting 'monoclinic'
loop_
_space_group_symop_operation_xyz
x,y,z
-x,y,1/2-z
-x,-y,-z
x,-y,1/2+z
1/2+x,1/2+y,z
1/2-x,1/2+y,1/2-z
1/2-x,1/2-y,-z
1/2+x,1/2-y,1/2+z
loop_
_atom_site_type_symbol
_atom_site_label
_atom_site_fract_x
_atom_site_fract_y
_atom_site_fract_z
Si Si1 0.756556 0.292721 0.919647
Si Si2 0.829575 0.476797 0.626929
Si Si3 0.638385 0.976805 0.606967
Si Si4 0.000000 0.627382 0.750000
Si Si5 0.167692 0.174778 0.539995
Si Si6 0.318007 0.426670 0.290821
Si Si7 0.142013 0.095795 0.315864
O O1 0.740466 0.240582 0.809028
O O2 0.635400 0.347809 0.725540
O O3 0.750000 0.250000 0.000000
O O4 0.908217 0.328867 0.165592
O O5 0.803580 0.457674 0.691715
O O6 0.757121 0.424441 0.437703
O O7 0.758193 0.543926 0.480740
O O8 0.997163 0.479887 0.882161
O O9 0.605859 0.914283 0.492863
O O10 0.758872 0.016671 0.755552
O O11 0.208572 0.141474 0.706569
O O12 0.201683 0.125363 0.513562
O O13 0.000000 0.192861 0.250000
O O14 0.488691 0.437849 0.568002
#
# Coordination Sequence:
#
# PCOD8133689 Si02
#       7
#     8   8   8   4   8   8   8
#     4  10  20  34  57  88 111 150 200 251 285 327
#     4  11  21  34  54  87 118 155 189 237 294 362
#     4  11  22  35  57  88 122 149 196 239 298 355
#     4  12  20  38  60  88 116 148 198 248 294 334
#     4   9  18  32  55  85 114 151 194 240 290 340
#     4  11  20  35  56  84 124 156 184 235 307 353
#     4  10  19  34  54  85 119 149 191 241 289 347
#
# _framework density 18.621314000000002
#
# number of rings (size 3 to 8) (size 9 to 14) (size 15 to 20)
#    0.000    1.538    5.385    0.462    0.000    0.000 
#    0.000    0.000    0.000    0.923    8.000    0.000 
#    0.000    0.000    0.000    0.000    0.000    0.000 
#
# Total GULP energy -322221.885492 kJ/mol
# GULP energy per Si atom -12393.149442 kJ/mol
# Density = 1.857893 g / cm^3
# Si number density = 18.621314 Si / 1000 Ang^3
#
#
#
# Elastic Constant Matrix: (Units=GPa)
#
#
# Indices 1 2 3 4 5 6 
#
# 1 106.0651 57.7915 50.3213 0.0000 -4.7403 0.0000
# 2 57.7915 105.3933 46.0245 0.0000 -3.4114 0.0000
# 3 50.3213 46.0245 77.2456 0.0000 -3.7977 0.0000
# 4 0.0000 0.0000 0.0000 20.7545 0.0000 10.8256
# 5 -4.7403 -3.4114 -3.7977 0.0000 41.2342 0.0000
# 6 0.0000 0.0000 0.0000 10.8256 0.0000 44.6382
#
#
#
# Elastic Compliance Matrix: (Units=1/GPa)
#
#
# Indices 1 2 3 4 5 6 
#
# 1 0.015802 -0.005626 -0.006907 0.000000 0.000715 0.000000
# 2 -0.005626 0.014833 -0.005168 0.000000 0.000104 0.000000
# 3 -0.006907 -0.005168 0.020558 0.000000 0.000672 0.000000
# 4 0.000000 0.000000 0.000000 0.055160 0.000000 -0.013377
# 5 0.000715 0.000104 0.000672 0.000000 0.024404 0.000000
# 6 0.000000 0.000000 0.000000 -0.013377 0.000000 0.025647
#
#
# Mechanical properties :
#
#
# Convention : Reuss Voigt Hill
#
# Bulk Modulus (GPa) = 63.32581 66.33095 64.82838
# Shear Modulus (GPa) = 25.37164 30.29651 27.83408
#
# Velocity S-wave (km/s) = 3.69522 4.03796 3.87038
# Velocity P-wave (km/s) = 7.23099 7.57882 7.40694
#
# Compressibility (1/GPa) = 0.01579135
#
# Stress axis : x y z
#
# Youngs Moduli (GPa) = 63.28115 67.41618 48.64336
#
# Poissons Ratio (x) = 0.37926 0.33600
# Poissons Ratio (y) = 0.35599 0.25139
# Poissons Ratio (z) = 0.43711 0.34841
#
# Static dielectric constant tensor:
#      x y z
#    x 3.860490 0.000000 0.120560 
#    y 0.000000 3.646340 0.000000 
#    z 0.120560 0.000000 3.170910 
# 
# 
# High freq. dielectric constant tensor:
#      x y z
#    x 1.744880 0.000000 0.024570 
#    y 0.000000 1.718240 0.000000 
#    z 0.024570 0.000000 1.678440 
# 
# From -- ./inp_files/137220.got.cif
#   From: 2010.06.25/outbox.cif.g09.slc.cpg/sg15_69_cif.got.tgz:137220.got - 2010.06.28 07:06:18.
