data_PCOD8133172
_publ_section_title
;
Structure prediction by ZEFSAII (Michael W. Deem and Ramdas Pophale) SiO2 
 PCOD8133172
Probable space group: C 2/C
;
_chemical_formula_sum "Si O2"
_cell_formula_units_Z 56
_cell_length_a 5.526600
_cell_length_b 24.548362
_cell_length_c 21.090641
_cell_angle_alpha 90.000000
_cell_angle_beta 78.749998
_cell_angle_gamma 90.000000
_cell_volume 2806.365723
_symmetry_space_group_name_H-M "C 2/C"
_symmetry_group_IT_number 15
_symmetry_cell_setting 'monoclinic'
loop_
_space_group_symop_operation_xyz
x,y,z
-x,y,1/2-z
-x,-y,-z
x,-y,1/2+z
1/2+x,1/2+y,z
1/2-x,1/2+y,1/2-z
1/2-x,1/2-y,-z
1/2+x,1/2-y,1/2+z
loop_
_atom_site_type_symbol
_atom_site_label
_atom_site_fract_x
_atom_site_fract_y
_atom_site_fract_z
Si Si1 0.540619 0.198840 0.444586
Si Si2 0.584268 0.933745 0.311244
Si Si3 0.358889 0.911994 0.515450
Si Si4 0.736666 0.520082 0.579292
Si Si5 0.066132 0.252989 0.414008
Si Si6 0.149205 0.829021 0.183580
Si Si7 0.138251 0.110775 0.900790
O O1 0.552793 0.132931 0.438698
O O2 0.314011 0.216234 0.410467
O O3 0.476924 0.212697 0.520362
O O4 0.810703 0.221705 0.410236
O O5 0.500000 0.961265 0.250000
O O6 0.648261 0.982673 0.355809
O O7 0.800575 0.889592 0.291148
O O8 0.384911 0.892506 0.348852
O O9 0.592933 0.942429 0.473783
O O10 0.195186 0.878731 0.472077
O O11 0.194371 0.958929 0.557028
O O12 0.477851 0.550367 0.597179
O O13 0.120570 0.291460 0.349829
O O14 0.000000 0.800641 0.250000
O O15 0.010650 0.838885 0.122409
#
# Coordination Sequence:
#
# PCOD8133172 Si02
#       7
#     8   8   8   8   8   8   8
#     4  10  22  38  59  82 121 151 197 239 295 356
#     4  10  19  33  53  83 112 147 184 234 295 357
#     4  10  20  35  54  82 115 151 188 240 291 353
#     4   9  20  33  53  84 116 145 190 234 294 349
#     4  10  23  37  57  88 113 155 193 245 296 352
#     4  11  22  35  56  84 114 149 193 245 305 361
#     4  10  19  32  54  82 114 144 183 235 297 355
#
# _framework density 19.954633999999999
#
# number of rings (size 3 to 8) (size 9 to 14) (size 15 to 20)
#    0.000    2.000    1.429    3.000   10.000    0.000 
#    0.000    0.000    0.000    0.857    3.714    0.000 
#    0.000    0.000    0.000    0.000    0.000    0.000 
#
# Total GULP energy -346894.591115 kJ/mol
# GULP energy per Si atom -12389.092540 kJ/mol
# Density = 1.990922 g / cm^3
# Si number density = 19.954634 Si / 1000 Ang^3
#
#
#
# Elastic Constant Matrix: (Units=GPa)
#
#
# Indices 1 2 3 4 5 6 
#
# 1 94.3594 27.3920 23.5841 0.0000 -3.4132 0.0000
# 2 27.3920 86.2427 28.4956 0.0000 -3.1962 0.0000
# 3 23.5841 28.4956 87.3919 0.0000 -4.0046 0.0000
# 4 0.0000 0.0000 0.0000 15.3838 0.0000 -0.5530
# 5 -3.4132 -3.1962 -4.0046 0.0000 27.2932 0.0000
# 6 0.0000 0.0000 0.0000 -0.5530 0.0000 20.8450
#
#
#
# Elastic Compliance Matrix: (Units=1/GPa)
#
#
# Indices 1 2 3 4 5 6 
#
# 1 0.012074 -0.003071 -0.002219 0.000000 0.000825 0.000000
# 2 -0.003071 0.013799 -0.003639 0.000000 0.000698 0.000000
# 3 -0.002219 -0.003639 0.013285 0.000000 0.001246 0.000000
# 4 0.000000 0.000000 0.000000 0.065066 0.000000 0.001726
# 5 0.000825 0.000698 0.001246 0.000000 0.037007 0.000000
# 6 0.000000 0.000000 0.000000 0.001726 0.000000 0.048019
#
#
# Mechanical properties :
#
#
# Convention : Reuss Voigt Hill
#
# Bulk Modulus (GPa) = 46.94819 47.43750 47.19284
# Shear Modulus (GPa) = 23.34198 25.27255 24.30726
#
# Velocity S-wave (km/s) = 3.42387 3.56265 3.49395
# Velocity P-wave (km/s) = 6.26172 6.38339 6.32284
#
# Compressibility (1/GPa) = 0.02130008
#
# Stress axis : x y z
#
# Youngs Moduli (GPa) = 82.82419 72.47073 75.27240
#
# Poissons Ratio (x) = 0.22256 0.16704
# Poissons Ratio (y) = 0.25435 0.27388
# Poissons Ratio (z) = 0.18380 0.26369
#
# Static dielectric constant tensor:
#      x y z
#    x 3.893820 0.000000 0.010280 
#    y 0.000000 3.349080 0.000000 
#    z 0.010280 0.000000 3.554250 
# 
# 
# High freq. dielectric constant tensor:
#      x y z
#    x 1.792030 0.000000 -0.008880 
#    y 0.000000 1.745730 0.000000 
#    z -0.008880 0.000000 1.753220 
# 
# From -- ./inp_files/227869.got.cif
#   From: 2010.06.25/outbox.cif.g09.slc.cpg/sg15_114_cif.got.tgz:227869.got - 2010.06.28 07:06:18.
