data_PCOD8133125
_publ_section_title
;
Structure prediction by ZEFSAII (Michael W. Deem and Ramdas Pophale) SiO2 
 PCOD8133125
Probable space group: C 2/C
;
_chemical_formula_sum "Si O2"
_cell_formula_units_Z 64
_cell_length_a 7.865165
_cell_length_b 20.566757
_cell_length_c 22.506697
_cell_angle_alpha 90.000000
_cell_angle_beta 107.783464
_cell_angle_gamma 90.000000
_cell_volume 3466.742733
_symmetry_space_group_name_H-M "C 2/C"
_symmetry_group_IT_number 15
_symmetry_cell_setting 'monoclinic'
loop_
_space_group_symop_operation_xyz
x,y,z
-x,y,1/2-z
-x,-y,-z
x,-y,1/2+z
1/2+x,1/2+y,z
1/2-x,1/2+y,1/2-z
1/2-x,1/2-y,-z
1/2+x,1/2-y,1/2+z
loop_
_atom_site_type_symbol
_atom_site_label
_atom_site_fract_x
_atom_site_fract_y
_atom_site_fract_z
Si Si1 0.348547 0.911944 0.002446
Si Si2 0.154631 0.800746 0.030725
Si Si3 0.242080 0.548155 0.551259
Si Si4 0.419560 0.812462 0.905189
Si Si5 0.227850 0.566012 0.331236
Si Si6 0.458541 0.513537 0.681384
Si Si7 0.694729 0.355809 0.548554
Si Si8 0.329250 0.088615 0.304561
O O1 0.251348 0.871398 0.045366
O O2 0.537717 0.936985 0.046554
O O3 0.357217 0.862764 0.948824
O O4 0.233692 0.974171 0.969493
O O5 0.141049 0.762831 0.092562
O O6 0.250000 0.750000 0.000000
O O7 0.965099 0.806813 0.978467
O O8 0.357703 0.559991 0.623544
O O9 0.307042 0.594680 0.506490
O O10 0.632616 0.811155 0.928382
O O11 0.342735 0.840274 0.835626
O O12 0.351396 0.503884 0.329205
O O13 0.331680 0.605742 0.392677
O O14 0.215446 0.605580 0.268233
O O15 0.022891 0.550614 0.331106
O O16 0.500000 0.547644 0.750000
O O17 0.327872 0.452333 0.681022
#
# Coordination Sequence:
#
# PCOD8133125 Si02
#       8
#     8   8   8   8   8   8   8   8
#     4   9  18  30  49  77 107 139 165 213 264 307
#     4  10  20  32  49  75 104 134 176 215 257 316
#     4  10  19  33  51  77 113 137 174 214 269 320
#     4   9  17  32  52  73 106 135 169 214 266 309
#     4   9  19  30  49  78 111 133 171 217 272 316
#     4  10  19  32  52  78 106 146 177 214 268 319
#     4  10  20  32  50  81 107 137 171 221 266 320
#     4   9  17  33  50  76 112 132 171 220 263 324
#
# _framework density 18.461134000000001
#
# number of rings (size 3 to 8) (size 9 to 14) (size 15 to 20)
#    0.000    2.500    1.250    1.125    3.500    2.000 
#    0.000    0.000    0.000    0.000   19.500    0.000 
#    0.000    0.000    0.000    0.000    0.000    0.000 
#
# Total GULP energy -396431.927973 kJ/mol
# GULP energy per Si atom -12388.497749 kJ/mol
# Density = 1.841912 g / cm^3
# Si number density = 18.461134 Si / 1000 Ang^3
#
#
#
# Elastic Constant Matrix: (Units=GPa)
#
#
# Indices 1 2 3 4 5 6 
#
# 1 64.7623 13.8134 18.2387 0.0000 1.8745 0.0000
# 2 13.8134 51.5388 25.6162 0.0000 0.7084 0.0000
# 3 18.2387 25.6162 122.7013 0.0000 2.3248 0.0000
# 4 0.0000 0.0000 0.0000 22.9504 0.0000 1.1668
# 5 1.8745 0.7084 2.3248 0.0000 21.0796 0.0000
# 6 0.0000 0.0000 0.0000 1.1668 0.0000 27.5834
#
#
#
# Elastic Compliance Matrix: (Units=1/GPa)
#
#
# Indices 1 2 3 4 5 6 
#
# 1 0.016728 -0.003618 -0.001709 0.000000 -0.001178 0.000000
# 2 -0.003618 0.022433 -0.004146 0.000000 0.000025 0.000000
# 3 -0.001709 -0.004146 0.009283 0.000000 -0.000733 0.000000
# 4 0.000000 0.000000 0.000000 0.043666 0.000000 -0.001847
# 5 -0.001178 0.000025 -0.000733 0.000000 0.047624 0.000000
# 6 0.000000 0.000000 0.000000 -0.001847 0.000000 0.036332
#
#
# Mechanical properties :
#
#
# Convention : Reuss Voigt Hill
#
# Bulk Modulus (GPa) = 33.89976 39.37099 36.63537
# Shear Modulus (GPa) = 24.40874 26.41162 25.41018
#
# Velocity S-wave (km/s) = 3.64011 3.78651 3.71403
# Velocity P-wave (km/s) = 6.00582 6.36314 6.18706
#
# Compressibility (1/GPa) = 0.02949874
#
# Stress axis : x y z
#
# Youngs Moduli (GPa) = 59.77962 44.57744 107.72007
#
# Poissons Ratio (x) = 0.16128 0.18408
# Poissons Ratio (y) = 0.21628 0.44661
# Poissons Ratio (z) = 0.10216 0.18482
#
# Static dielectric constant tensor:
#      x y z
#    x 3.797320 0.000000 -0.060040 
#    y 0.000000 3.388780 0.000000 
#    z -0.060040 0.000000 3.600520 
# 
# 
# High freq. dielectric constant tensor:
#      x y z
#    x 1.734730 0.000000 0.004400 
#    y 0.000000 1.671770 0.000000 
#    z 0.004400 0.000000 1.708640 
# 
# From -- ./inp_files/265936.got.cif
#   From: 2010.06.25/outbox.cif.g09.slc.cpg/sg15_133_cif.got.tgz:265936.got - 2010.06.28 07:06:18.
