data_PCOD8133495
_publ_section_title
;
Structure prediction by ZEFSAII (Michael W. Deem and Ramdas Pophale) SiO2 
 PCOD8133495
Probable space group: C 2/C
;
_chemical_formula_sum "Si O2"
_cell_formula_units_Z 64
_cell_length_a 17.912158
_cell_length_b 24.194524
_cell_length_c 13.821194
_cell_angle_alpha 90.000000
_cell_angle_beta 31.676841
_cell_angle_gamma 90.000000
_cell_volume 3145.397173
_symmetry_space_group_name_H-M "C 2/C"
_symmetry_group_IT_number 15
_symmetry_cell_setting 'monoclinic'
loop_
_space_group_symop_operation_xyz
x,y,z
-x,y,1/2-z
-x,-y,-z
x,-y,1/2+z
1/2+x,1/2+y,z
1/2-x,1/2+y,1/2-z
1/2-x,1/2-y,-z
1/2+x,1/2-y,1/2+z
loop_
_atom_site_type_symbol
_atom_site_label
_atom_site_fract_x
_atom_site_fract_y
_atom_site_fract_z
Si Si1 0.834730 0.482818 0.745477
Si Si2 0.161229 0.833971 0.572883
Si Si3 0.309601 0.458365 0.245464
Si Si4 0.046675 0.016849 0.098375
Si Si5 0.513952 0.191134 0.498134
Si Si6 0.263267 0.264225 0.830912
Si Si7 0.041052 0.392446 0.593326
Si Si8 0.083732 0.595023 0.755452
O O1 0.793270 0.490874 0.676814
O O2 0.918828 0.538341 0.682684
O O3 0.934201 0.431091 0.651352
O O4 0.684816 0.477861 0.969316
O O5 0.176939 0.784458 0.478876
O O6 0.210317 0.813982 0.624164
O O7 0.252966 0.887944 0.444925
O O8 0.000000 0.853856 0.750000
O O9 0.414576 0.477970 0.213287
O O10 0.207248 0.408753 0.394667
O O11 0.405532 0.441744 0.042986
O O12 0.000000 0.046850 0.250000
O O13 0.411244 0.242925 0.626355
O O14 0.673315 0.213001 0.338971
O O15 0.487166 0.168219 0.419371
O O16 0.487332 0.143907 0.606345
O O17 0.000000 0.393928 0.750000
O O18 0.000000 0.585029 0.750000
#
# Coordination Sequence:
#
# PCOD8133495 Si02
#       8
#     8   8   8   8   8   8   8   8
#     4  10  21  39  58  88 131 169 206 258 299 362
#     4  10  19  33  56  90 125 164 192 236 318 391
#     4   9  20  37  58  85 120 165 209 257 299 364
#     4   9  18  35  57  82 117 168 206 245 306 358
#     4  11  22  40  61  89 117 157 206 257 327 372
#     4  10  20  36  61  85 123 156 194 259 318 373
#     4  12  24  42  64  87 120 169 223 268 309 359
#     4  11  21  33  55  91 130 163 198 238 303 400
#
# _framework density 20.347193000000001
#
# number of rings (size 3 to 8) (size 9 to 14) (size 15 to 20)
#    0.750    1.000    3.750    1.500    0.000    0.500 
#    0.000    4.375    0.000    0.000    0.000    0.000 
#    0.000    0.000    0.000    0.000    0.000    0.000 
#
# Total GULP energy -396487.334341 kJ/mol
# GULP energy per Si atom -12390.229198 kJ/mol
# Density = 2.030088 g / cm^3
# Si number density = 20.347193 Si / 1000 Ang^3
#
#
#
# Elastic Constant Matrix: (Units=GPa)
#
#
# Indices 1 2 3 4 5 6 
#
# 1 70.3564 6.9201 39.2212 0.0356 -7.4603 0.0004
# 2 6.9201 36.1040 4.9499 0.0344 -3.5152 -0.0051
# 3 39.2212 4.9499 81.2781 0.0661 -0.8165 -0.0120
# 4 0.0356 0.0344 0.0661 7.3057 -0.0240 -8.0189
# 5 -7.4603 -3.5152 -0.8165 -0.0240 39.1478 0.0208
# 6 0.0004 -0.0051 -0.0120 -8.0189 0.0208 15.9705
#
#
#
# Elastic Compliance Matrix: (Units=1/GPa)
#
#
# Indices 1 2 3 4 5 6 
#
# 1 0.020111 -0.002213 -0.009535 -0.000009 0.003435 -0.000017
# 2 -0.002213 0.028416 -0.000641 -0.000231 0.002116 -0.000110
# 3 -0.009535 -0.000641 0.016929 -0.000206 -0.001522 -0.000089
# 4 -0.000009 -0.000231 -0.000206 0.304949 0.000079 0.153117
# 5 0.003435 0.002116 -0.001522 0.000079 0.026357 0.000005
# 6 -0.000017 -0.000110 -0.000089 0.153117 0.000005 0.139497
#
#
# Mechanical properties :
#
#
# Convention : Reuss Voigt Hill
#
# Bulk Modulus (GPa) = 24.58419 32.21344 28.39881
# Shear Modulus (GPa) = 8.70176 21.59462 15.14819
#
# Velocity S-wave (km/s) = 2.07025 3.26131 2.73149
# Velocity P-wave (km/s) = 4.22175 5.48158 4.89239
#
# Compressibility (1/GPa) = 0.04067655
#
# Stress axis : x y z
#
# Youngs Moduli (GPa) = 49.72447 35.19136 59.07143
#
# Poissons Ratio (x) = 0.07788 0.56326
# Poissons Ratio (y) = 0.11004 0.03788
# Poissons Ratio (z) = 0.47414 0.02257
#
# Static dielectric constant tensor:
#      x y z
#    x 3.696820 -0.000090 -0.163160 
#    y -0.000090 3.323910 0.000130 
#    z -0.163160 0.000130 3.830690 
# 
# 
# High freq. dielectric constant tensor:
#      x y z
#    x 1.793050 -0.000010 -0.020200 
#    y -0.000010 1.754570 0.000010 
#    z -0.020200 0.000010 1.802240 
# 
# From -- ./inp_files/164208.got.cif
#   From: 2010.06.25/outbox.cif.g09.slc.cpg/sg15_83_cif.got.tgz:164208.got - 2010.06.28 07:06:18.
