data_PCOD8133837
_publ_section_title
;
Structure prediction by ZEFSAII (Michael W. Deem and Ramdas Pophale) SiO2 
 PCOD8133837
Probable space group: C 2/C
;
_chemical_formula_sum "Si O2"
_cell_formula_units_Z 40
_cell_length_a 33.175777
_cell_length_b 12.681794
_cell_length_c 13.439232
_cell_angle_alpha 90.000000
_cell_angle_beta 157.230622
_cell_angle_gamma 90.000000
_cell_volume 2188.330134
_symmetry_space_group_name_H-M "C 2/C"
_symmetry_group_IT_number 15
_symmetry_cell_setting 'monoclinic'
loop_
_space_group_symop_operation_xyz
x,y,z
-x,y,1/2-z
-x,-y,-z
x,-y,1/2+z
1/2+x,1/2+y,z
1/2-x,1/2+y,1/2-z
1/2-x,1/2-y,-z
1/2+x,1/2-y,1/2+z
loop_
_atom_site_type_symbol
_atom_site_label
_atom_site_fract_x
_atom_site_fract_y
_atom_site_fract_z
Si Si1 0.888287 0.451580 0.767280
Si Si2 0.058039 0.737801 0.980534
Si Si3 0.852105 0.193549 0.106335
Si Si4 0.207187 0.908700 0.227405
Si Si5 0.274193 0.610193 0.125806
O O1 0.830638 0.401695 0.537605
O O2 0.818209 0.549758 0.644340
O O3 0.886675 0.364260 0.848997
O O4 0.000000 0.500000 0.000000
O O5 0.000000 0.698986 0.750000
O O6 0.972763 0.780398 0.863836
O O7 0.142367 0.826799 0.147223
O O8 0.852738 0.149027 0.219700
O O9 0.810891 0.110528 0.930347
O O10 0.776051 0.294616 0.925223
O O11 0.169011 0.028202 0.169021
#
# Coordination Sequence:
#
# PCOD8133837 Si02
#       5
#     8   8   8   8   8
#     4  10  19  36  54  84 107 142 192 227 269 326
#     4  10  19  34  58  81 112 150 185 227 281 329
#     4  10  19  38  58  77 115 147 179 231 283 332
#     4   9  21  35  56  85 110 143 188 227 278 331
#     4   9  21  35  58  81 111 146 185 226 284 322
#
# _framework density 18.278777000000002
#
# number of rings (size 3 to 8) (size 9 to 14) (size 15 to 20)
#    1.200    1.200    2.000    0.600    0.000    5.600 
#    0.000    0.000    0.000    0.000    0.000    0.000 
#    0.000    0.000    0.000    0.000    0.000    0.000 
#
# Total GULP energy -247775.080309 kJ/mol
# GULP energy per Si atom -12388.754015 kJ/mol
# Density = 1.823717 g / cm^3
# Si number density = 18.278777 Si / 1000 Ang^3
#
#
#
# Elastic Constant Matrix: (Units=GPa)
#
#
# Indices 1 2 3 4 5 6 
#
# 1 80.9809 36.4144 19.8851 0.0000 8.7414 0.0000
# 2 36.4144 99.7679 10.6502 0.0000 -14.5891 0.0000
# 3 19.8851 10.6502 56.5360 0.0000 -1.9289 0.0000
# 4 0.0000 0.0000 0.0000 36.4386 0.0000 -7.6855
# 5 8.7414 -14.5891 -1.9289 0.0000 23.4727 0.0000
# 6 0.0000 0.0000 0.0000 -7.6855 0.0000 27.1331
#
#
#
# Elastic Compliance Matrix: (Units=1/GPa)
#
#
# Indices 1 2 3 4 5 6 
#
# 1 0.018638 -0.008030 -0.005465 0.000000 -0.012381 0.000000
# 2 -0.008030 0.014681 0.000473 0.000000 0.012154 0.000000
# 3 -0.005465 0.000473 0.019655 0.000000 0.003945 0.000000
# 4 0.000000 0.000000 0.000000 0.029187 0.000000 0.008267
# 5 -0.012381 0.012154 0.003945 0.000000 0.055091 0.000000
# 6 0.000000 0.000000 0.000000 0.008267 0.000000 0.039197
#
#
# Mechanical properties :
#
#
# Convention : Reuss Voigt Hill
#
# Bulk Modulus (GPa) = 37.13183 41.24269 39.18726
# Shear Modulus (GPa) = 23.64414 28.76457 26.20435
#
# Velocity S-wave (km/s) = 3.60047 3.97124 3.79039
# Velocity P-wave (km/s) = 6.13537 6.60604 6.37505
#
# Compressibility (1/GPa) = 0.02693107
#
# Stress axis : x y z
#
# Youngs Moduli (GPa) = 53.65498 68.11672 50.87647
#
# Poissons Ratio (x) = 0.54695 0.27804
# Poissons Ratio (y) = 0.43083 -0.02408
# Poissons Ratio (z) = 0.29323 -0.03224
#
# Static dielectric constant tensor:
#      x y z
#    x 3.194000 0.000000 0.089710 
#    y 0.000000 3.488330 0.000000 
#    z 0.089710 0.000000 3.231350 
# 
# 
# High freq. dielectric constant tensor:
#      x y z
#    x 1.700160 0.000000 0.007830 
#    y 0.000000 1.716390 0.000000 
#    z 0.007830 0.000000 1.690800 
# 
# From -- ./inp_files/126664.got.cif
#   From: 2010.06.25/outbox.cif.g09.slc.cpg/sg15_64_cif.got.tgz:126664.got - 2010.06.28 07:06:18.
