data_PCOD8133735
_publ_section_title
;
Structure prediction by ZEFSAII (Michael W. Deem and Ramdas Pophale) SiO2 
 PCOD8133735
Probable space group: C 2/C
;
_chemical_formula_sum "Si O2"
_cell_formula_units_Z 56
_cell_length_a 7.898383
_cell_length_b 12.976290
_cell_length_c 30.858965
_cell_angle_alpha 90.000000
_cell_angle_beta 75.886876
_cell_angle_gamma 90.000000
_cell_volume 3067.323041
_symmetry_space_group_name_H-M "C 2/C"
_symmetry_group_IT_number 15
_symmetry_cell_setting 'monoclinic'
loop_
_space_group_symop_operation_xyz
x,y,z
-x,y,1/2-z
-x,-y,-z
x,-y,1/2+z
1/2+x,1/2+y,z
1/2-x,1/2+y,1/2-z
1/2-x,1/2-y,-z
1/2+x,1/2-y,1/2+z
loop_
_atom_site_type_symbol
_atom_site_label
_atom_site_fract_x
_atom_site_fract_y
_atom_site_fract_z
Si Si1 0.263235 0.289027 0.802082
Si Si2 0.240543 0.619738 0.050881
Si Si3 0.137896 0.225996 0.300250
Si Si4 0.257087 0.118800 0.949874
Si Si5 0.902731 0.615142 0.346482
Si Si6 0.500941 0.229566 0.999582
Si Si7 0.889424 0.380990 0.347178
O O1 0.259629 0.265223 0.751217
O O2 0.453174 0.337032 0.804884
O O3 0.240395 0.181128 0.829595
O O4 0.104093 0.362673 0.823609
O O5 0.299455 0.500749 0.042124
O O6 0.127871 0.635466 0.101077
O O7 0.130957 0.653194 0.015894
O O8 0.407267 0.695804 0.041740
O O9 0.265344 0.179314 0.327581
O O10 0.081517 0.339647 0.320939
O O11 0.088959 0.193592 0.959868
O O12 0.367129 0.136498 0.899653
O O13 0.369125 0.152596 0.984295
O O14 0.868867 0.498400 0.335212
#
# Coordination Sequence:
#
# PCOD8133735 Si02
#       7
#     8   8   8   8   8   8   8
#     4   9  20  37  55  81 110 137 182 228 267 328
#     4  10  21  34  52  81 108 137 185 219 259 331
#     4   9  20  37  55  81 110 137 182 228 267 328
#     4  10  19  34  56  77 106 145 177 217 273 315
#     4  11  20  37  61  78 110 152 178 223 284 317
#     4  10  20  34  54  78 110 142 174 224 268 310
#     4   9  20  37  55  82 114 140 186 231 264 327
#
# _framework density 18.256962000000001
#
# number of rings (size 3 to 8) (size 9 to 14) (size 15 to 20)
#    0.857    1.429    0.000    3.000    0.000    2.286 
#    2.571    0.000   12.571    0.000    0.000    0.000 
#    0.000    0.000    0.000    0.000    0.000    0.000 
#
# Total GULP energy -346973.303572 kJ/mol
# GULP energy per Si atom -12391.903699 kJ/mol
# Density = 1.821541 g / cm^3
# Si number density = 18.256962 Si / 1000 Ang^3
#
#
#
# Elastic Constant Matrix: (Units=GPa)
#
#
# Indices 1 2 3 4 5 6 
#
# 1 51.8395 10.2009 5.6853 0.0000 -3.6338 0.0000
# 2 10.2009 67.8548 29.3599 0.0000 4.3391 0.0000
# 3 5.6853 29.3599 84.4268 0.0000 -8.0367 0.0000
# 4 0.0000 0.0000 0.0000 21.5479 0.0000 -2.0830
# 5 -3.6338 4.3391 -8.0367 0.0000 23.3543 0.0000
# 6 0.0000 0.0000 0.0000 -2.0830 0.0000 29.1051
#
#
#
# Elastic Compliance Matrix: (Units=1/GPa)
#
#
# Indices 1 2 3 4 5 6 
#
# 1 0.020200 -0.003355 0.000171 0.000000 0.003825 0.000000
# 2 -0.003355 0.018611 -0.006849 0.000000 -0.006337 0.000000
# 3 0.000171 -0.006849 0.014824 0.000000 0.006400 0.000000
# 4 0.000000 0.000000 0.000000 0.046731 0.000000 0.003344
# 5 0.003825 -0.006337 0.006400 0.000000 0.046794 0.000000
# 6 0.000000 0.000000 0.000000 0.003344 0.000000 0.034598
#
#
# Mechanical properties :
#
#
# Convention : Reuss Voigt Hill
#
# Bulk Modulus (GPa) = 29.79099 32.73484 31.26291
# Shear Modulus (GPa) = 23.47263 25.39312 24.43288
#
# Velocity S-wave (km/s) = 3.58953 3.73349 3.66222
# Velocity P-wave (km/s) = 5.79074 6.04601 5.91975
#
# Compressibility (1/GPa) = 0.03356720
#
# Stress axis : x y z
#
# Youngs Moduli (GPa) = 49.50504 53.73305 67.45729
#
# Poissons Ratio (x) = 0.18028 -0.01151
# Poissons Ratio (y) = 0.16610 0.46203
# Poissons Ratio (z) = -0.00845 0.36803
#
# Static dielectric constant tensor:
#      x y z
#    x 3.223930 0.000000 -0.103230 
#    y 0.000000 3.286610 0.000000 
#    z -0.103230 0.000000 3.428300 
# 
# 
# High freq. dielectric constant tensor:
#      x y z
#    x 1.696620 0.000000 -0.003850 
#    y 0.000000 1.699420 0.000000 
#    z -0.003850 0.000000 1.719640 
# 
# From -- ./inp_files/307087.got.cif
#   From: 2010.06.25/outbox.cif.g09.slc.cpg/sg15_154_cif.got.tgz:307087.got - 2010.06.28 07:06:18.
