data_PCOD8133488
_publ_section_title
;
Structure prediction by ZEFSAII (Michael W. Deem and Ramdas Pophale) SiO2 
 PCOD8133488
Probable space group: C 2/C
;
_chemical_formula_sum "Si O2"
_cell_formula_units_Z 56
_cell_length_a 24.476225
_cell_length_b 10.181171
_cell_length_c 13.791503
_cell_angle_alpha 90.000000
_cell_angle_beta 117.865439
_cell_angle_gamma 90.000000
_cell_volume 3038.291777
_symmetry_space_group_name_H-M "C 2/C"
_symmetry_group_IT_number 15
_symmetry_cell_setting 'monoclinic'
loop_
_space_group_symop_operation_xyz
x,y,z
-x,y,1/2-z
-x,-y,-z
x,-y,1/2+z
1/2+x,1/2+y,z
1/2-x,1/2+y,1/2-z
1/2-x,1/2-y,-z
1/2+x,1/2-y,1/2+z
loop_
_atom_site_type_symbol
_atom_site_label
_atom_site_fract_x
_atom_site_fract_y
_atom_site_fract_z
Si Si1 0.825908 0.142178 0.507527
Si Si2 0.450284 0.553761 0.569121
Si Si3 0.690799 0.806624 0.507507
Si Si4 0.569010 0.305331 0.829624
Si Si5 0.732009 0.909814 0.094237
Si Si6 0.806516 0.911184 0.337758
Si Si7 0.420941 0.494964 0.832670
O O1 0.900041 0.138690 0.587052
O O2 0.793680 0.110968 0.582094
O O3 0.812077 0.285900 0.456533
O O4 0.806615 0.031796 0.412975
O O5 0.437092 0.399862 0.582031
O O6 0.521178 0.583978 0.658567
O O7 0.442380 0.579904 0.448324
O O8 0.750000 0.750000 0.500000
O O9 0.624519 0.796427 0.397215
O O10 0.689662 0.728774 0.607409
O O11 0.697198 0.960419 0.531072
O O12 0.500000 0.243770 0.750000
O O13 0.595238 0.386113 0.759980
O O14 0.745893 0.920074 0.220354
O O15 0.862659 0.915577 0.307846
#
# Coordination Sequence:
#
# PCOD8133488 Si02
#       7
#     8   8   8   8   8   8   8
#     4  10  20  38  54  79 114 146 186 231 285 331
#     4   9  16  32  50  81 104 139 187 227 270 327
#     4  12  21  37  58  87 115 146 195 235 278 338
#     4  10  19  33  56  86 116 147 186 237 282 328
#     4  11  23  35  56  81 117 151 181 236 285 332
#     4  11  20  36  58  84 111 144 190 233 284 330
#     4   9  17  28  55  81 106 138 180 234 271 316
#
# _framework density 18.431408999999999
#
# number of rings (size 3 to 8) (size 9 to 14) (size 15 to 20)
#    0.000    1.714    4.286    2.571    0.000    1.143 
#    0.000    0.000    0.000    6.857    0.000    0.000 
#    0.000    0.000    0.000    0.000    0.000    0.000 
#
# Total GULP energy -346958.579299 kJ/mol
# GULP energy per Si atom -12391.377832 kJ/mol
# Density = 1.838946 g / cm^3
# Si number density = 18.431409 Si / 1000 Ang^3
#
#
#
# Elastic Constant Matrix: (Units=GPa)
#
#
# Indices 1 2 3 4 5 6 
#
# 1 78.7736 24.9029 13.3268 0.0000 24.6227 0.0000
# 2 24.9029 98.9714 31.3247 0.0000 11.4203 0.0000
# 3 13.3268 31.3247 82.2623 0.0000 13.5759 0.0000
# 4 0.0000 0.0000 0.0000 16.5966 0.0000 0.8576
# 5 24.6227 11.4203 13.5759 0.0000 28.1736 0.0000
# 6 0.0000 0.0000 0.0000 0.8576 0.0000 24.4434
#
#
#
# Elastic Compliance Matrix: (Units=1/GPa)
#
#
# Indices 1 2 3 4 5 6 
#
# 1 0.018250 -0.003077 0.000697 0.000000 -0.015039 0.000000
# 2 -0.003077 0.012210 -0.004104 0.000000 -0.000282 0.000000
# 3 0.000697 -0.004104 0.014593 0.000000 -0.005977 0.000000
# 4 0.000000 0.000000 0.000000 0.060363 0.000000 -0.002118
# 5 -0.015039 -0.000282 -0.005977 0.000000 0.051632 0.000000
# 6 0.000000 0.000000 0.000000 -0.002118 0.000000 0.040985
#
#
# Mechanical properties :
#
#
# Convention : Reuss Voigt Hill
#
# Bulk Modulus (GPa) = 31.16870 44.34622 37.75746
# Shear Modulus (GPa) = 22.55339 26.53958 24.54648
#
# Velocity S-wave (km/s) = 3.50185 3.79873 3.65331
# Velocity P-wave (km/s) = 5.77044 6.58429 6.19075
#
# Compressibility (1/GPa) = 0.03208347
#
# Stress axis : x y z
#
# Youngs Moduli (GPa) = 54.79383 81.90134 68.52781
#
# Poissons Ratio (x) = 0.25204 -0.04777
# Poissons Ratio (y) = 0.16862 0.28126
# Poissons Ratio (z) = -0.03820 0.33615
#
# Static dielectric constant tensor:
#      x y z
#    x 3.784540 0.000000 0.042780 
#    y 0.000000 3.053490 0.000000 
#    z 0.042780 0.000000 3.548140 
# 
# 
# High freq. dielectric constant tensor:
#      x y z
#    x 1.730010 0.000000 -0.002140 
#    y 0.000000 1.662920 0.000000 
#    z -0.002140 0.000000 1.731760 
# 
# From -- ./inp_files/176668.got.cif
#   From: 2010.06.25/outbox.cif.g09.slc.cpg/sg15_89_cif.got.tgz:176668.got - 2010.06.28 07:06:18.
