data_PCOD8133723
_publ_section_title
;
Structure prediction by ZEFSAII (Michael W. Deem and Ramdas Pophale) SiO2 
 PCOD8133723
Probable space group: C 2/C
;
_chemical_formula_sum "Si O2"
_cell_formula_units_Z 56
_cell_length_a 19.020644
_cell_length_b 9.272847
_cell_length_c 16.538262
_cell_angle_alpha 90.000000
_cell_angle_beta 96.653607
_cell_angle_gamma 90.000000
_cell_volume 2897.298363
_symmetry_space_group_name_H-M "C 2/C"
_symmetry_group_IT_number 15
_symmetry_cell_setting 'monoclinic'
loop_
_space_group_symop_operation_xyz
x,y,z
-x,y,1/2-z
-x,-y,-z
x,-y,1/2+z
1/2+x,1/2+y,z
1/2-x,1/2+y,1/2-z
1/2-x,1/2-y,-z
1/2+x,1/2-y,1/2+z
loop_
_atom_site_type_symbol
_atom_site_label
_atom_site_fract_x
_atom_site_fract_y
_atom_site_fract_z
Si Si1 0.444091 0.617376 0.306987
Si Si2 0.102038 0.378481 0.302711
Si Si3 0.000777 0.325326 0.425373
Si Si4 0.307904 0.436932 0.301445
Si Si5 0.114763 0.543942 0.043901
Si Si6 0.280133 0.130271 0.563504
Si Si7 0.181894 0.388051 0.720679
O O1 0.500000 0.554845 0.250000
O O2 0.410744 0.768481 0.272063
O O3 0.483209 0.660056 0.397024
O O4 0.386991 0.495773 0.314283
O O5 0.164463 0.303733 0.364058
O O6 0.126001 0.534834 0.272846
O O7 0.032410 0.403872 0.348635
O O8 0.927708 0.398490 0.443798
O O9 0.058964 0.334169 0.504480
O O10 0.282333 0.440382 0.391896
O O11 0.257874 0.535345 0.239006
O O12 0.308971 0.280588 0.258812
O O13 0.154586 0.606211 0.125955
O O14 0.175173 0.513889 0.983780
O O15 0.250000 0.250000 0.500000
#
# Coordination Sequence:
#
# PCOD8133723 Si02
#       7
#     8   8   8   8   8   8   8
#     4  10  20  39  61  87 117 156 194 239 290 355
#     4   9  19  36  63  86 111 154 196 236 291 350
#     4   9  19  36  62  85 117 153 196 234 290 355
#     4  11  23  38  60  88 119 154 200 246 296 347
#     4  10  19  34  60  86 111 152 196 238 285 346
#     4  10  19  34  55  83 115 153 193 229 292 349
#     4  11  21  36  61  88 114 152 198 250 288 347
#
# _framework density 19.328348999999999
#
# number of rings (size 3 to 8) (size 9 to 14) (size 15 to 20)
#    0.000    2.000    2.857    1.714    0.000    0.000 
#    2.571    1.429    6.286    0.000    0.000    0.000 
#    0.000    0.000    0.000    0.000    0.000    0.000 
#
# Total GULP energy -346999.632246 kJ/mol
# GULP energy per Si atom -12392.844009 kJ/mol
# Density = 1.928436 g / cm^3
# Si number density = 19.328349 Si / 1000 Ang^3
#
#
#
# Elastic Constant Matrix: (Units=GPa)
#
#
# Indices 1 2 3 4 5 6 
#
# 1 124.2006 58.9937 46.7057 0.0000 -18.7846 0.0000
# 2 58.9937 97.9482 37.3279 0.0000 -5.1792 0.0000
# 3 46.7057 37.3279 94.4728 0.0000 5.9637 0.0000
# 4 0.0000 0.0000 0.0000 22.2429 0.0000 2.8845
# 5 -18.7846 -5.1792 5.9637 0.0000 38.5659 0.0000
# 6 0.0000 0.0000 0.0000 2.8845 0.0000 37.2231
#
#
#
# Elastic Compliance Matrix: (Units=1/GPa)
#
#
# Indices 1 2 3 4 5 6 
#
# 1 0.013763 -0.006106 -0.004810 0.000000 0.006627 0.000000
# 2 -0.006106 0.014947 -0.002854 0.000000 -0.000525 0.000000
# 3 -0.004810 -0.002854 0.014403 0.000000 -0.004953 0.000000
# 4 0.000000 0.000000 0.000000 0.045415 0.000000 -0.003519
# 5 0.006627 -0.000525 -0.004953 0.000000 0.029853 0.000000
# 6 0.000000 0.000000 0.000000 -0.003519 0.000000 0.027138
#
#
# Mechanical properties :
#
#
# Convention : Reuss Voigt Hill
#
# Bulk Modulus (GPa) = 64.21145 66.96401 65.58773
# Shear Modulus (GPa) = 28.05064 31.17934 29.61499
#
# Velocity S-wave (km/s) = 3.81369 4.02075 3.91859
# Velocity P-wave (km/s) = 7.25850 7.50173 7.38111
#
# Compressibility (1/GPa) = 0.01557355
#
# Stress axis : x y z
#
# Youngs Moduli (GPa) = 72.65972 66.90386 69.42810
#
# Poissons Ratio (x) = 0.40850 0.33395
# Poissons Ratio (y) = 0.44364 0.19815
# Poissons Ratio (z) = 0.34949 0.19094
#
# Static dielectric constant tensor:
#      x y z
#    x 3.894160 0.000000 0.005590 
#    y 0.000000 3.159280 0.000000 
#    z 0.005590 0.000000 3.778030 
# 
# 
# High freq. dielectric constant tensor:
#      x y z
#    x 1.773260 0.000000 0.004680 
#    y 0.000000 1.702860 0.000000 
#    z 0.004680 0.000000 1.759580 
# 
# From -- ./inp_files/213419.got.cif
#   From: 2010.06.25/outbox.cif.g09.slc.cpg/sg15_107_cif.got.tgz:213419.got - 2010.06.28 07:06:18.
