data_PCOD8133516
_publ_section_title
;
Structure prediction by ZEFSAII (Michael W. Deem and Ramdas Pophale) SiO2 
 PCOD8133516
Probable space group: C 2/C
;
_chemical_formula_sum "Si O2"
_cell_formula_units_Z 64
_cell_length_a 12.766803
_cell_length_b 22.688135
_cell_length_c 12.420502
_cell_angle_alpha 90.000000
_cell_angle_beta 111.308271
_cell_angle_gamma 90.000000
_cell_volume 3351.719468
_symmetry_space_group_name_H-M "C 2/C"
_symmetry_group_IT_number 15
_symmetry_cell_setting 'monoclinic'
loop_
_space_group_symop_operation_xyz
x,y,z
-x,y,1/2-z
-x,-y,-z
x,-y,1/2+z
1/2+x,1/2+y,z
1/2-x,1/2+y,1/2-z
1/2-x,1/2-y,-z
1/2+x,1/2-y,1/2+z
loop_
_atom_site_type_symbol
_atom_site_label
_atom_site_fract_x
_atom_site_fract_y
_atom_site_fract_z
Si Si1 0.831294 0.205953 0.973685
Si Si2 0.387616 0.612340 0.656969
Si Si3 0.314226 0.421940 0.519853
Si Si4 0.797073 0.996201 0.723018
Si Si5 0.283268 0.816765 0.285887
Si Si6 0.372631 0.932319 0.229882
Si Si7 0.567695 0.415641 0.572451
Si Si8 0.447110 0.288642 0.847101
O O1 0.807808 0.194285 0.840951
O O2 0.750000 0.250000 0.000000
O O3 0.817831 0.147646 0.040842
O O4 0.959250 0.228267 0.028934
O O5 0.500000 0.640779 0.750000
O O6 0.370121 0.552763 0.718227
O O7 0.285386 0.658739 0.636870
O O8 0.393336 0.598025 0.533573
O O9 0.287127 0.450845 0.622808
O O10 0.214139 0.438205 0.401505
O O11 0.438971 0.439597 0.523797
O O12 0.854439 0.966182 0.848182
O O13 0.670914 0.018542 0.702306
O O14 0.371646 0.866395 0.279057
O O15 0.344192 0.755250 0.333414
O O16 0.500000 0.948728 0.250000
O O17 0.587101 0.356853 0.651411
O O18 0.500000 0.276945 0.750000
#
# Coordination Sequence:
#
# PCOD8133516 Si02
#       8
#     8   8   8   8   8   8   8   8
#     4  10  19  33  57  86 113 143 186 244 289 331
#     4  11  22  38  58  83 120 158 190 239 293 352
#     4  10  21  36  57  88 115 146 191 244 294 338
#     4  11  22  37  61  88 115 150 195 244 294 347
#     4  10  22  37  57  85 114 153 196 234 291 349
#     4  10  22  38  57  82 116 157 194 234 287 357
#     4  11  22  37  60  90 118 145 193 247 303 344
#     4  11  20  35  60  87 115 147 191 246 288 340
#
# _framework density 19.094676
#
# number of rings (size 3 to 8) (size 9 to 14) (size 15 to 20)
#    0.000    1.500    1.250    6.750    1.750    2.500 
#    0.000    0.000    0.000    0.750    0.000    0.000 
#    0.000    0.000    0.000    0.000    0.000    0.000 
#
# Total GULP energy -396736.539454 kJ/mol
# GULP energy per Si atom -12398.016858 kJ/mol
# Density = 1.905122 g / cm^3
# Si number density = 19.094676 Si / 1000 Ang^3
#
#
#
# Elastic Constant Matrix: (Units=GPa)
#
#
# Indices 1 2 3 4 5 6 
#
# 1 126.3371 45.5254 51.2675 0.0000 1.8945 0.0000
# 2 45.5254 74.4178 33.5740 0.0000 6.8261 0.0000
# 3 51.2675 33.5740 83.7013 0.0000 -6.7350 0.0000
# 4 0.0000 0.0000 0.0000 30.5261 0.0000 1.1231
# 5 1.8945 6.8261 -6.7350 0.0000 33.8303 0.0000
# 6 0.0000 0.0000 0.0000 1.1231 0.0000 23.5942
#
#
#
# Elastic Compliance Matrix: (Units=1/GPa)
#
#
# Indices 1 2 3 4 5 6 
#
# 1 0.011824 -0.004719 -0.005413 0.000000 -0.000788 0.000000
# 2 -0.004719 0.019059 -0.005124 0.000000 -0.004601 0.000000
# 3 -0.005413 -0.005124 0.017709 0.000000 0.004863 0.000000
# 4 0.000000 0.000000 0.000000 0.032816 0.000000 -0.001562
# 5 -0.000788 -0.004601 0.004863 0.000000 0.031500 0.000000
# 6 0.000000 0.000000 0.000000 -0.001562 0.000000 0.042458
#
#
# Mechanical properties :
#
#
# Convention : Reuss Voigt Hill
#
# Bulk Modulus (GPa) = 55.31190 60.57669 57.94429
# Shear Modulus (GPa) = 26.05450 27.86276 26.95863
#
# Velocity S-wave (km/s) = 3.69791 3.82408 3.76152
# Velocity P-wave (km/s) = 6.87479 7.16180 7.01976
#
# Compressibility (1/GPa) = 0.01807929
#
# Stress axis : x y z
#
# Youngs Moduli (GPa) = 84.57205 52.46958 56.46726
#
# Poissons Ratio (x) = 0.24762 0.30565
# Poissons Ratio (y) = 0.39912 0.28936
# Poissons Ratio (z) = 0.45777 0.26888
#
# Static dielectric constant tensor:
#      x y z
#    x 3.452080 0.000000 0.039280 
#    y 0.000000 3.609230 0.000000 
#    z 0.039280 0.000000 3.976260 
# 
# 
# High freq. dielectric constant tensor:
#      x y z
#    x 1.731210 0.000000 0.000130 
#    y 0.000000 1.747690 0.000000 
#    z 0.000130 0.000000 1.741380 
# 
# From -- ./inp_files/91297.got.cif
#   From: 2010.06.25/outbox.cif.g09.slc.cpg/sg15_46_cif.got.tgz:91297.got - 2010.06.28 07:06:18.
