data_PCOD8133848
_publ_section_title
;
Structure prediction by ZEFSAII (Michael W. Deem and Ramdas Pophale) SiO2 
 PCOD8133848
Probable space group: C 2/C
;
_chemical_formula_sum "Si O2"
_cell_formula_units_Z 48
_cell_length_a 21.489507
_cell_length_b 11.029957
_cell_length_c 12.690350
_cell_angle_alpha 90.000000
_cell_angle_beta 61.877299
_cell_angle_gamma 90.000000
_cell_volume 2652.851866
_symmetry_space_group_name_H-M "C 2/C"
_symmetry_group_IT_number 15
_symmetry_cell_setting 'monoclinic'
loop_
_space_group_symop_operation_xyz
x,y,z
-x,y,1/2-z
-x,-y,-z
x,-y,1/2+z
1/2+x,1/2+y,z
1/2-x,1/2+y,1/2-z
1/2-x,1/2-y,-z
1/2+x,1/2-y,1/2+z
loop_
_atom_site_type_symbol
_atom_site_label
_atom_site_fract_x
_atom_site_fract_y
_atom_site_fract_z
Si Si1 0.817895 0.181300 0.564679
Si Si2 0.110693 0.046818 0.391690
Si Si3 0.929926 0.656612 0.075751
Si Si4 0.162469 0.234232 0.186499
Si Si5 0.958392 0.425562 0.180701
Si Si6 0.503148 0.379837 0.370280
O O1 0.856462 0.299296 0.583380
O O2 0.837902 0.167394 0.425913
O O3 0.734799 0.194164 0.646269
O O4 0.839251 0.059161 0.606750
O O5 0.156640 0.136780 0.284239
O O6 0.075733 0.118496 0.517781
O O7 0.046318 0.996515 0.374173
O O8 0.918836 0.534076 0.151130
O O9 0.957953 0.756317 0.133405
O O10 0.986383 0.640429 0.938670
O O11 0.098921 0.328644 0.238269
O O12 0.000000 0.475450 0.250000
O O13 0.500000 0.391309 0.250000
#
# Coordination Sequence:
#
# PCOD8133848 Si02
#       6
#     8   8   8   8   8   8
#     4  10  23  39  59  85 118 153 199 235 287 355
#     4  10  21  36  59  85 110 153 190 241 289 341
#     4  10  21  37  56  86 113 151 193 236 288 340
#     4  11  22  39  60  84 117 157 193 238 295 347
#     4  11  21  36  61  84 115 155 193 241 286 343
#     4  10  19  34  58  85 113 140 188 245 287 340
#
# _framework density 18.093736
#
# number of rings (size 3 to 8) (size 9 to 14) (size 15 to 20)
#    0.000    1.667    3.333    1.500    2.333    0.667 
#    0.000    0.000    0.000    3.000    0.000    0.000 
#    0.000    0.000    0.000    0.000    0.000    0.000 
#
# Total GULP energy -297670.138372 kJ/mol
# GULP energy per Si atom -12402.922432 kJ/mol
# Density = 1.805255 g / cm^3
# Si number density = 18.093736 Si / 1000 Ang^3
#
#
#
# Elastic Constant Matrix: (Units=GPa)
#
#
# Indices 1 2 3 4 5 6 
#
# 1 80.5890 24.1049 43.8926 0.0000 12.2342 0.0000
# 2 24.1049 64.4548 40.9919 0.0000 0.9883 0.0000
# 3 43.8926 40.9919 132.0824 0.0000 12.8891 0.0000
# 4 0.0000 0.0000 0.0000 22.0956 0.0000 3.2687
# 5 12.2342 0.9883 12.8891 0.0000 25.2727 0.0000
# 6 0.0000 0.0000 0.0000 3.2687 0.0000 11.9780
#
#
#
# Elastic Compliance Matrix: (Units=1/GPa)
#
#
# Indices 1 2 3 4 5 6 
#
# 1 0.016446 -0.003676 -0.003748 0.000000 -0.005906 0.000000
# 2 -0.003676 0.020294 -0.005444 0.000000 0.003762 0.000000
# 3 -0.003748 -0.005444 0.010848 0.000000 -0.003505 0.000000
# 4 0.000000 0.000000 0.000000 0.047162 0.000000 -0.012870
# 5 -0.005906 0.003762 -0.003505 0.000000 0.044068 0.000000
# 6 0.000000 0.000000 0.000000 -0.012870 0.000000 0.086998
#
#
# Mechanical properties :
#
#
# Convention : Reuss Voigt Hill
#
# Bulk Modulus (GPa) = 45.76208 55.01168 50.38688
# Shear Modulus (GPa) = 19.31720 23.07838 21.19779
#
# Velocity S-wave (km/s) = 3.27099 3.57527 3.42651
# Velocity P-wave (km/s) = 6.29384 6.89298 6.60021
#
# Compressibility (1/GPa) = 0.02185216
#
# Stress axis : x y z
#
# Youngs Moduli (GPa) = 60.80427 49.27556 92.18258
#
# Poissons Ratio (x) = 0.18116 0.34550
# Poissons Ratio (y) = 0.22354 0.50181
# Poissons Ratio (z) = 0.22789 0.26824
#
# Static dielectric constant tensor:
#      x y z
#    x 3.324880 0.000000 0.068630 
#    y 0.000000 3.272280 0.000000 
#    z 0.068630 0.000000 3.409720 
# 
# 
# High freq. dielectric constant tensor:
#      x y z
#    x 1.698260 0.000000 0.006820 
#    y 0.000000 1.700150 0.000000 
#    z 0.006820 0.000000 1.711950 
# 
# From -- ./inp_files/104160.got.cif
#   From: 2010.06.25/outbox.cif.g09.slc.cpg/sg15_53_cif.got.tgz:104160.got - 2010.06.28 07:06:18.
