data_PCOD8133902
_publ_section_title
;
Structure prediction by ZEFSAII (Michael W. Deem and Ramdas Pophale) SiO2 
 PCOD8133902
Probable space group: C 2/C
;
_chemical_formula_sum "Si O2"
_cell_formula_units_Z 56
_cell_length_a 15.230760
_cell_length_b 19.195018
_cell_length_c 11.505436
_cell_angle_alpha 90.000000
_cell_angle_beta 123.018625
_cell_angle_gamma 90.000000
_cell_volume 2820.414046
_symmetry_space_group_name_H-M "C 2/C"
_symmetry_group_IT_number 15
_symmetry_cell_setting 'monoclinic'
loop_
_space_group_symop_operation_xyz
x,y,z
-x,y,1/2-z
-x,-y,-z
x,-y,1/2+z
1/2+x,1/2+y,z
1/2-x,1/2+y,1/2-z
1/2-x,1/2-y,-z
1/2+x,1/2-y,1/2+z
loop_
_atom_site_type_symbol
_atom_site_label
_atom_site_fract_x
_atom_site_fract_y
_atom_site_fract_z
Si Si1 0.413404 0.057774 0.416106
Si Si2 0.431209 0.681765 0.090223
Si Si3 0.843415 0.700447 0.090262
Si Si4 0.291922 0.566861 0.083719
Si Si5 0.264545 0.061049 0.103611
Si Si6 0.956397 0.291233 0.909313
Si Si7 0.431842 0.438520 0.896266
O O1 0.323280 0.065048 0.446515
O O2 0.362073 0.040584 0.255071
O O3 0.473396 0.130492 0.464592
O O4 0.500000 0.000000 0.500000
O O5 0.500000 0.707823 0.250000
O O6 0.322925 0.644260 0.056235
O O7 0.490235 0.625002 0.057505
O O8 0.415158 0.745037 0.988013
O O9 0.807632 0.619445 0.044001
O O10 0.870553 0.709758 0.245641
O O11 0.932332 0.728039 0.066923
O O12 0.750000 0.750000 0.000000
O O13 0.384164 0.540509 0.236340
O O14 0.286187 0.509130 0.981104
O O15 0.165999 0.092197 0.102180
O O16 0.500000 0.500000 0.000000
#
# Coordination Sequence:
#
# PCOD8133902 Si02
#       7
#     8   8   8   8   8   8   8
#     4  10  22  41  60  83 117 157 208 253 294 352
#     4  10  21  39  59  89 129 161 197 243 308 375
#     4  10  21  39  63  89 116 155 203 253 309 355
#     4  10  21  36  59  88 119 160 197 243 306 359
#     4  10  20  37  61  86 119 154 196 252 298 353
#     4  10  22  41  62  86 120 159 199 255 304 359
#     4  10  19  34  59  89 124 157 192 242 297 367
#
# _framework density 19.855239000000001
#
# number of rings (size 3 to 8) (size 9 to 14) (size 15 to 20)
#    0.000    2.000    1.429    1.714    0.000    4.571 
#    5.143    0.000    0.000    0.000    0.000    0.000 
#    0.000    0.000    0.000    0.000    0.000    0.000 
#
# Total GULP energy -346925.692706 kJ/mol
# GULP energy per Si atom -12390.203311 kJ/mol
# Density = 1.981005 g / cm^3
# Si number density = 19.855239 Si / 1000 Ang^3
#
#
#
# Elastic Constant Matrix: (Units=GPa)
#
#
# Indices 1 2 3 4 5 6 
#
# 1 102.7319 45.8351 41.2424 0.0000 10.2751 0.0000
# 2 45.8351 120.3435 70.7488 0.0000 1.8581 0.0000
# 3 41.2424 70.7488 82.5568 0.0000 4.0915 0.0000
# 4 0.0000 0.0000 0.0000 31.9237 0.0000 -2.4739
# 5 10.2751 1.8581 4.0915 0.0000 31.0509 0.0000
# 6 0.0000 0.0000 0.0000 -2.4739 0.0000 38.2440
#
#
#
# Elastic Compliance Matrix: (Units=1/GPa)
#
#
# Indices 1 2 3 4 5 6 
#
# 1 0.012832 -0.002353 -0.004219 0.000000 -0.003550 0.000000
# 2 -0.002353 0.017203 -0.013644 0.000000 0.001547 0.000000
# 3 -0.004219 -0.013644 0.025972 0.000000 -0.001210 0.000000
# 4 0.000000 0.000000 0.000000 0.031482 0.000000 0.002036
# 5 -0.003550 0.001547 -0.001210 0.000000 0.033447 0.000000
# 6 0.000000 0.000000 0.000000 0.002036 0.000000 0.026280
#
#
# Mechanical properties :
#
#
# Convention : Reuss Voigt Hill
#
# Bulk Modulus (GPa) = 64.19316 69.03165 66.61240
# Shear Modulus (GPa) = 25.92850 30.09745 28.01297
#
# Velocity S-wave (km/s) = 3.61761 3.89761 3.76022
# Velocity P-wave (km/s) = 7.06047 7.42281 7.24391
#
# Compressibility (1/GPa) = 0.01557798
#
# Stress axis : x y z
#
# Youngs Moduli (GPa) = 77.92834 58.13075 38.50246
#
# Poissons Ratio (x) = 0.13676 0.16242
# Poissons Ratio (y) = 0.18333 0.52531
# Poissons Ratio (z) = 0.32874 0.79311
#
# Static dielectric constant tensor:
#      x y z
#    x 3.994130 0.000000 -0.114500 
#    y 0.000000 3.707290 0.000000 
#    z -0.114500 0.000000 3.613940 
# 
# 
# High freq. dielectric constant tensor:
#      x y z
#    x 1.793060 0.000000 0.003630 
#    y 0.000000 1.765260 0.000000 
#    z 0.003630 0.000000 1.765350 
# 
# From -- ./inp_files/106752.got.cif
#   From: 2010.06.25/outbox.cif.g09.slc.cpg/sg15_54_cif.got.tgz:106752.got - 2010.06.28 07:06:18.
