data_PCOD8133115
_publ_section_title
;
Structure prediction by ZEFSAII (Michael W. Deem and Ramdas Pophale) SiO2 
 PCOD8133115
Probable space group: C 2/C
;
_chemical_formula_sum "Si O2"
_cell_formula_units_Z 56
_cell_length_a 20.667443
_cell_length_b 28.288695
_cell_length_c 5.169170
_cell_angle_alpha 90.000000
_cell_angle_beta 105.946496
_cell_angle_gamma 90.000000
_cell_volume 2905.883504
_symmetry_space_group_name_H-M "C 2/C"
_symmetry_group_IT_number 15
_symmetry_cell_setting 'monoclinic'
loop_
_space_group_symop_operation_xyz
x,y,z
-x,y,1/2-z
-x,-y,-z
x,-y,1/2+z
1/2+x,1/2+y,z
1/2-x,1/2+y,1/2-z
1/2-x,1/2-y,-z
1/2+x,1/2-y,1/2+z
loop_
_atom_site_type_symbol
_atom_site_label
_atom_site_fract_x
_atom_site_fract_y
_atom_site_fract_z
Si Si1 0.754608 0.516675 0.106623
Si Si2 0.394003 0.524359 0.010693
Si Si3 0.747768 0.675637 0.614993
Si Si4 0.143508 0.747784 0.814631
Si Si5 0.571012 0.275194 0.216349
Si Si6 0.788638 0.120495 0.417657
Si Si7 0.571911 0.616365 0.719954
O O1 0.795880 0.506476 0.414745
O O2 0.685798 0.486081 0.076086
O O3 0.744987 0.571439 0.045821
O O4 0.427278 0.494229 0.811927
O O5 0.407885 0.580464 0.989812
O O6 0.823698 0.696120 0.689984
O O7 0.696553 0.717348 0.502257
O O8 0.738518 0.634973 0.392518
O O9 0.732285 0.657677 0.885652
O O10 0.122592 0.767942 0.511236
O O11 0.085736 0.744460 0.973251
O O12 0.500000 0.258214 0.250000
O O13 0.568781 0.329711 0.116037
O O14 0.869695 0.113231 0.496942
O O15 0.500000 0.600683 0.750000
#
# Coordination Sequence:
#
# PCOD8133115 Si02
#       7
#     8   8   8   8   8   8   8
#     4  10  19  32  52  68  96 132 178 223 264 319
#     4  10  21  35  48  65  92 130 180 226 272 313
#     4  11  23  35  58  76 100 139 170 235 264 313
#     4  11  21  39  56  79 104 130 181 212 275 331
#     4  11  23  38  58  80 108 138 171 225 277 323
#     4  12  21  37  52  75 101 134 184 228 276 314
#     4  11  23  36  51  72 101 138 182 237 276 312
#
# _framework density 19.271246000000001
#
# number of rings (size 3 to 8) (size 9 to 14) (size 15 to 20)
#    0.000    1.143    5.714    2.143    2.000    4.000 
#    0.000    3.571    0.000    0.000    0.000    0.000 
#    0.000    0.000    0.000    0.000    0.000  180.000 
#
# Total GULP energy -347036.968191 kJ/mol
# GULP energy per Si atom -12394.177435 kJ/mol
# Density = 1.922738 g / cm^3
# Si number density = 19.271246 Si / 1000 Ang^3
#
#
#
# Elastic Constant Matrix: (Units=GPa)
#
#
# Indices 1 2 3 4 5 6 
#
# 1 51.8087 28.1926 24.2840 0.0000 -9.7378 0.0000
# 2 28.1926 60.8327 24.3173 0.0000 1.8768 0.0000
# 3 24.2840 24.3173 103.8538 0.0000 -26.2349 0.0000
# 4 0.0000 0.0000 0.0000 22.0390 0.0000 -5.4083
# 5 -9.7378 1.8768 -26.2349 0.0000 22.0298 0.0000
# 6 0.0000 0.0000 0.0000 -5.4083 0.0000 18.1003
#
#
#
# Elastic Compliance Matrix: (Units=1/GPa)
#
#
# Indices 1 2 3 4 5 6 
#
# 1 0.029743 -0.014230 0.000007 0.000000 0.014367 0.000000
# 2 -0.014230 0.026430 -0.007179 0.000000 -0.017091 0.000000
# 3 0.000007 -0.007179 0.016396 0.000000 0.020140 0.000000
# 4 0.000000 0.000000 0.000000 0.048964 0.000000 0.014630
# 5 0.014367 -0.017091 0.020140 0.000000 0.077184 0.000000
# 6 0.000000 0.000000 0.000000 0.014630 0.000000 0.059619
#
#
# Mechanical properties :
#
#
# Convention : Reuss Voigt Hill
#
# Bulk Modulus (GPa) = 33.59662 41.12035 37.35849
# Shear Modulus (GPa) = 16.07396 21.74723 18.91059
#
# Velocity S-wave (km/s) = 2.89120 3.36293 3.13595
# Velocity P-wave (km/s) = 5.34946 6.03847 5.70438
#
# Compressibility (1/GPa) = 0.02976490
#
# Stress axis : x y z
#
# Youngs Moduli (GPa) = 33.62177 37.83553 60.99099
#
# Poissons Ratio (x) = 0.53840 -0.00041
# Poissons Ratio (y) = 0.47844 0.43783
# Poissons Ratio (z) = -0.00022 0.27160
#
# Static dielectric constant tensor:
#      x y z
#    x 3.495540 0.000000 -0.408650 
#    y 0.000000 3.545180 0.000000 
#    z -0.408650 0.000000 4.197930 
# 
# 
# High freq. dielectric constant tensor:
#      x y z
#    x 1.697880 0.000000 -0.033920 
#    y 0.000000 1.739790 0.000000 
#    z -0.033920 0.000000 1.762030 
# 
# From -- ./inp_files/13931.got.cif
#   From: 2010.06.25/outbox.cif.g09.slc.cpg/sg15_7_cif.got.tgz:13931.got - 2010.06.28 07:06:18.
