data_PCOD8133132
_publ_section_title
;
Structure prediction by ZEFSAII (Michael W. Deem and Ramdas Pophale) SiO2 
 PCOD8133132
Probable space group: C 2/C
;
_chemical_formula_sum "Si O2"
_cell_formula_units_Z 64
_cell_length_a 11.671748
_cell_length_b 31.665621
_cell_length_c 17.908196
_cell_angle_alpha 90.000000
_cell_angle_beta 30.875477
_cell_angle_gamma 90.000000
_cell_volume 3396.568290
_symmetry_space_group_name_H-M "C 2/C"
_symmetry_group_IT_number 15
_symmetry_cell_setting 'monoclinic'
loop_
_space_group_symop_operation_xyz
x,y,z
-x,y,1/2-z
-x,-y,-z
x,-y,1/2+z
1/2+x,1/2+y,z
1/2-x,1/2+y,1/2-z
1/2-x,1/2-y,-z
1/2+x,1/2-y,1/2+z
loop_
_atom_site_type_symbol
_atom_site_label
_atom_site_fract_x
_atom_site_fract_y
_atom_site_fract_z
Si Si1 0.328117 0.410425 0.285032
Si Si2 0.792402 0.192056 0.311219
Si Si3 0.099622 0.942805 0.882917
Si Si4 0.491660 0.844593 0.094303
Si Si5 0.795330 0.285077 0.310614
Si Si6 0.992333 0.536963 0.444232
Si Si7 0.638826 0.472786 0.019308
Si Si8 0.594309 0.351615 0.528996
O O1 0.500000 0.390867 0.250000
O O2 0.217868 0.376710 0.290809
O O3 0.119714 0.424784 0.450606
O O4 0.440718 0.448215 0.174368
O O5 0.598449 0.162508 0.453297
O O6 0.686568 0.238913 0.357421
O O7 0.000000 0.194986 0.250000
O O8 0.882620 0.170490 0.186192
O O9 0.272254 0.946043 0.717762
O O10 0.975796 0.898228 0.955536
O O11 0.206478 0.948407 0.905547
O O12 0.923344 0.979720 0.967241
O O13 0.387246 0.800431 0.179582
O O14 0.683584 0.858306 0.045450
O O15 0.637361 0.321329 0.433852
O O16 0.000000 0.276939 0.250000
O O17 0.000000 0.500000 0.500000
O O18 0.853816 0.522053 0.450241
#
# Coordination Sequence:
#
# PCOD8133132 Si02
#       8
#     8   8   8   8   8   8   8   8
#     4  10  21  38  54  75 105 141 188 223 275 323
#     4   9  17  31  49  79 113 140 171 214 274 338
#     4  11  22  37  56  80 115 140 184 231 270 326
#     4  10  19  32  52  80 104 140 180 224 271 321
#     4   9  17  31  51  75 112 143 168 210 275 342
#     4  11  22  38  57  78 102 147 188 227 271 320
#     4  10  23  39  54  78 108 152 183 221 279 324
#     4  10  20  31  51  84 108 140 178 222 273 325
#
# _framework density 18.842548000000001
#
# number of rings (size 3 to 8) (size 9 to 14) (size 15 to 20)
#    0.000    2.000    1.250    2.625    1.750    3.000 
#    0.000    1.250    0.000    0.750    0.000    3.500 
#    0.000    0.000    0.000    0.000    0.000    0.000 
#
# Total GULP energy -396556.462932 kJ/mol
# GULP energy per Si atom -12392.389467 kJ/mol
# Density = 1.879966 g / cm^3
# Si number density = 18.842548 Si / 1000 Ang^3
#
#
#
# Elastic Constant Matrix: (Units=GPa)
#
#
# Indices 1 2 3 4 5 6 
#
# 1 65.6122 35.5886 8.4263 -0.0003 3.3089 -0.0008
# 2 35.5886 120.0602 27.4975 0.0000 -5.8794 -0.0001
# 3 8.4263 27.4975 77.6551 -0.0012 11.5079 -0.0030
# 4 -0.0003 0.0000 -0.0012 -48.9715 0.0006 -150.7205
# 5 3.3089 -5.8794 11.5079 0.0006 23.6187 0.0012
# 6 -0.0008 -0.0001 -0.0030 -150.7205 0.0012 -279.8445
#
#
#
# Elastic Compliance Matrix: (Units=1/GPa)
#
#
# Indices 1 2 3 4 5 6 
#
# 1 0.018563 -0.005885 0.000724 0.000000 -0.004418 0.000000
# 2 -0.005885 0.011317 -0.004213 0.000000 0.005694 0.000000
# 3 0.000724 -0.004213 0.015586 0.000000 -0.008744 0.000000
# 4 0.000000 0.000000 0.000000 0.031052 0.000000 -0.016724
# 5 -0.004418 0.005694 -0.008744 0.000000 0.048636 0.000000
# 6 0.000000 0.000000 0.000000 -0.016724 0.000000 0.005434
#
#
# Mechanical properties :
#
#
# Convention : Reuss Voigt Hill
#
# Bulk Modulus (GPa) = 37.42483 45.15024 41.28754
# Shear Modulus (GPa) = 31.59737 -48.25180 -8.32721
#
# Velocity S-wave (km/s) = 4.09946 -5.06591 -2.10451
# Velocity P-wave (km/s) = 6.50480 3.19439 4.00676
#
# Compressibility (1/GPa) = 0.02672023
#
# Stress axis : x y z
#
# Youngs Moduli (GPa) = 53.87128 88.36116 64.15844
#
# Poissons Ratio (x) = 0.51998 -0.04647
# Poissons Ratio (y) = 0.31702 0.27028
# Poissons Ratio (z) = -0.03902 0.37224
#
# Static dielectric constant tensor:
#      x y z
#    x 3.285710 0.000000 0.328640 
#    y 0.000000 3.454240 0.000000 
#    z 0.328640 0.000000 3.434160 
# 
# 
# High freq. dielectric constant tensor:
#      x y z
#    x 1.700740 0.000000 0.022550 
#    y 0.000000 1.734330 0.000000 
#    z 0.022550 0.000000 1.742020 
# 
# From -- ./inp_files/201465.got.cif
#   From: 2010.06.25/outbox.cif.g09.slc.cpg/sg15_101_cif.got.tgz:201465.got - 2010.06.28 07:06:18.
