data_PCOD8133191
_publ_section_title
;
Structure prediction by ZEFSAII (Michael W. Deem and Ramdas Pophale) SiO2 
 PCOD8133191
Probable space group: C 2/C
;
_chemical_formula_sum "Si O2"
_cell_formula_units_Z 44
_cell_length_a 10.440562
_cell_length_b 10.831275
_cell_length_c 23.583582
_cell_angle_alpha 90.000000
_cell_angle_beta 132.477705
_cell_angle_gamma 90.000000
_cell_volume 1966.975296
_symmetry_space_group_name_H-M "C 2/C"
_symmetry_group_IT_number 15
_symmetry_cell_setting 'monoclinic'
loop_
_space_group_symop_operation_xyz
x,y,z
-x,y,1/2-z
-x,-y,-z
x,-y,1/2+z
1/2+x,1/2+y,z
1/2-x,1/2+y,1/2-z
1/2-x,1/2-y,-z
1/2+x,1/2-y,1/2+z
loop_
_atom_site_type_symbol
_atom_site_label
_atom_site_fract_x
_atom_site_fract_y
_atom_site_fract_z
Si Si1 0.500000 0.060286 0.250000
Si Si2 0.835334 0.089022 0.076975
Si Si3 0.156670 0.180507 0.542825
Si Si4 0.656990 0.570996 0.663485
Si Si5 0.047083 0.712916 0.372399
Si Si6 0.884025 0.368778 0.489467
O O1 0.582986 0.142256 0.324722
O O2 0.649536 0.976874 0.266583
O O3 0.822892 0.226462 0.100037
O O4 0.820843 0.093741 0.004379
O O5 0.020795 0.029420 0.147717
O O6 0.662855 0.008876 0.046614
O O7 0.130641 0.090759 0.588070
O O8 0.997149 0.276668 0.484348
O O9 0.628778 0.703562 0.685760
O O10 0.034557 0.621491 0.422561
O O11 0.191605 0.811869 0.432682
#
# Coordination Sequence:
#
# PCOD8133191 Si02
#       6
#     4   8   8   8   8   8
#     4  12  22  38  58  76 108 154 184 220 276 326
#     4  10  19  32  55  84 108 138 178 220 268 324
#     4  10  19  32  55  84 109 137 175 221 274 327
#     4  10  22  37  52  76 110 143 180 224 267 319
#     4   9  20  36  58  82 107 143 186 224 271 329
#     4   9  17  36  58  81 111 140 177 231 278 316
#
# _framework density 22.369371999999998
#
# number of rings (size 3 to 8) (size 9 to 14) (size 15 to 20)
#    0.000    2.182    0.000    4.364    0.000    1.455 
#    0.000    9.091    0.000    0.000    0.000    0.000 
#    0.000    0.000    0.000    0.000    0.000    0.000 
#
# Total GULP energy -272612.700626 kJ/mol
# GULP energy per Si atom -12391.486392 kJ/mol
# Density = 2.231846 g / cm^3
# Si number density = 22.369372 Si / 1000 Ang^3
#
#
#
# Elastic Constant Matrix: (Units=GPa)
#
#
# Indices 1 2 3 4 5 6 
#
# 1 62.1673 3.6364 10.1935 0.0000 8.3664 0.0000
# 2 3.6364 61.9180 21.0197 0.0000 8.5957 0.0000
# 3 10.1935 21.0197 49.6545 0.0000 6.6012 0.0000
# 4 0.0000 0.0000 0.0000 13.9995 0.0000 2.5620
# 5 8.3664 8.5957 6.6012 0.0000 33.9287 0.0000
# 6 0.0000 0.0000 0.0000 2.5620 0.0000 35.6087
#
#
#
# Elastic Compliance Matrix: (Units=1/GPa)
#
#
# Indices 1 2 3 4 5 6 
#
# 1 0.017089 0.000627 -0.003277 0.000000 -0.003735 0.000000
# 2 0.000627 0.019253 -0.007812 0.000000 -0.003513 0.000000
# 3 -0.003277 -0.007812 0.024379 0.000000 -0.001956 0.000000
# 4 0.000000 0.000000 0.000000 0.072384 0.000000 -0.005208
# 5 -0.003735 -0.003513 -0.001956 0.000000 0.031665 0.000000
# 6 0.000000 0.000000 0.000000 -0.005208 0.000000 0.028458
#
#
# Mechanical properties :
#
#
# Convention : Reuss Voigt Hill
#
# Bulk Modulus (GPa) = 25.12726 27.04879 26.08802
# Shear Modulus (GPa) = 21.98597 25.96672 23.97634
#
# Velocity S-wave (km/s) = 3.13846 3.41077 3.27745
# Velocity P-wave (km/s) = 4.93868 5.25636 5.09999
#
# Compressibility (1/GPa) = 0.03979742
#
# Stress axis : x y z
#
# Youngs Moduli (GPa) = 58.51731 51.93952 41.01905
#
# Poissons Ratio (x) = -0.03259 0.13443
# Poissons Ratio (y) = -0.03672 0.32044
# Poissons Ratio (z) = 0.19177 0.40575
#
# Static dielectric constant tensor:
#      x y z
#    x 4.216250 0.000000 0.248560 
#    y 0.000000 4.170120 0.000000 
#    z 0.248560 0.000000 3.366870 
# 
# 
# High freq. dielectric constant tensor:
#      x y z
#    x 1.896760 0.000000 0.018630 
#    y 0.000000 1.898280 0.000000 
#    z 0.018630 0.000000 1.818580 
# 
# From -- ./inp_files/195632.got.cif
#   From: 2010.06.25/outbox.cif.g09.slc.cpg/sg15_98_cif.got.tgz:195632.got - 2010.06.28 07:06:18.
