data_PCOD8133123
_publ_section_title
;
Structure prediction by ZEFSAII (Michael W. Deem and Ramdas Pophale) SiO2 
 PCOD8133123
Probable space group: C 2/C
;
_chemical_formula_sum "Si O2"
_cell_formula_units_Z 64
_cell_length_a 28.625403
_cell_length_b 13.625600
_cell_length_c 10.005443
_cell_angle_alpha 90.000000
_cell_angle_beta 105.765977
_cell_angle_gamma 90.000000
_cell_volume 3755.691696
_symmetry_space_group_name_H-M "C 2/C"
_symmetry_group_IT_number 15
_symmetry_cell_setting 'monoclinic'
loop_
_space_group_symop_operation_xyz
x,y,z
-x,y,1/2-z
-x,-y,-z
x,-y,1/2+z
1/2+x,1/2+y,z
1/2-x,1/2+y,1/2-z
1/2-x,1/2-y,-z
1/2+x,1/2-y,1/2+z
loop_
_atom_site_type_symbol
_atom_site_label
_atom_site_fract_x
_atom_site_fract_y
_atom_site_fract_z
Si Si1 0.193538 0.509923 0.809238
Si Si2 0.297399 0.656878 0.619343
Si Si3 0.245217 0.036354 0.386029
Si Si4 0.035573 0.601000 0.158842
Si Si5 0.628648 0.163236 0.642097
Si Si6 0.778582 0.213380 0.313169
Si Si7 0.973450 0.628552 0.861786
Si Si8 0.365798 0.830985 0.658562
O O1 0.216973 0.516526 0.681893
O O2 0.145938 0.577347 0.756367
O O3 0.178749 0.397619 0.825985
O O4 0.229722 0.551129 0.950580
O O5 0.301418 0.538861 0.646235
O O6 0.260621 0.698853 0.704890
O O7 0.274635 0.659653 0.452768
O O8 0.348103 0.717254 0.659023
O O9 0.231649 0.142033 0.318406
O O10 0.043485 0.484543 0.157606
O O11 0.086935 0.655087 0.214569
O O12 0.000000 0.630123 0.250000
O O13 0.012649 0.644411 0.007446
O O14 0.667147 0.250885 0.676776
O O15 0.574958 0.193722 0.651775
O O16 0.622353 0.132780 0.482080
O O17 0.000000 0.665125 0.750000
#
# Coordination Sequence:
#
# PCOD8133123 Si02
#       8
#     8   8   8   8   8   8   8   8
#     4  12  21  31  54  76 111 145 178 216 261 311
#     4  10  19  35  54  76 106 144 177 216 264 312
#     4  12  21  36  51  77 110 146 180 222 257 304
#     4  10  19  32  52  77 102 140 176 211 256 323
#     4  11  21  35  52  77 107 147 179 210 264 320
#     4  10  20  35  54  76 106 143 181 215 262 316
#     4  10  21  33  50  76 110 135 167 221 271 307
#     4  11  20  33  55  78 105 145 183 209 256 322
#
# _framework density 17.040803
#
# number of rings (size 3 to 8) (size 9 to 14) (size 15 to 20)
#    0.000    1.250    7.500    0.750    0.000    1.500 
#    0.000    0.000    0.000    0.000    0.000    1.750 
#    0.000    0.000    0.000    0.000    0.000    0.000 
#
# Total GULP energy -396615.376648 kJ/mol
# GULP energy per Si atom -12394.230520 kJ/mol
# Density = 1.700202 g / cm^3
# Si number density = 17.040803 Si / 1000 Ang^3
#
#
#
# Elastic Constant Matrix: (Units=GPa)
#
#
# Indices 1 2 3 4 5 6 
#
# 1 95.8014 24.4865 38.7955 0.0000 8.1963 0.0000
# 2 24.4865 42.4279 26.4890 0.0000 4.9951 0.0000
# 3 38.7955 26.4890 89.3103 0.0000 6.9350 0.0000
# 4 0.0000 0.0000 0.0000 53.0313 0.0000 0.2799
# 5 8.1963 4.9951 6.9350 0.0000 28.9103 0.0000
# 6 0.0000 0.0000 0.0000 0.2799 0.0000 22.7097
#
#
#
# Elastic Compliance Matrix: (Units=1/GPa)
#
#
# Indices 1 2 3 4 5 6 
#
# 1 0.013608 -0.004942 -0.004292 0.000000 -0.001975 0.000000
# 2 -0.004942 0.030977 -0.006862 0.000000 -0.002305 0.000000
# 3 -0.004292 -0.006862 0.015193 0.000000 -0.001242 0.000000
# 4 0.000000 0.000000 0.000000 0.018858 0.000000 -0.000232
# 5 -0.001975 -0.002305 -0.001242 0.000000 0.035846 0.000000
# 6 0.000000 0.000000 0.000000 -0.000232 0.000000 0.044037
#
#
# Mechanical properties :
#
#
# Convention : Reuss Voigt Hill
#
# Bulk Modulus (GPa) = 36.24955 45.23130 40.74042
# Shear Modulus (GPa) = 25.01164 30.11483 27.56323
#
# Velocity S-wave (km/s) = 3.83528 4.20839 4.02616
# Velocity P-wave (km/s) = 6.39772 7.08623 6.75076
#
# Compressibility (1/GPa) = 0.02758655
#
# Stress axis : x y z
#
# Youngs Moduli (GPa) = 73.48351 32.28213 65.81885
#
# Poissons Ratio (x) = 0.15952 0.28252
# Poissons Ratio (y) = 0.36312 0.45165
# Poissons Ratio (z) = 0.31542 0.22152
#
# Static dielectric constant tensor:
#      x y z
#    x 3.100250 0.000000 -0.024760 
#    y 0.000000 2.875200 0.000000 
#    z -0.024760 0.000000 3.262640 
# 
# 
# High freq. dielectric constant tensor:
#      x y z
#    x 1.648580 0.000000 -0.004230 
#    y 0.000000 1.619210 0.000000 
#    z -0.004230 0.000000 1.665670 
# 
# From -- ./inp_files/69758.got.cif
#   From: 2010.06.25/outbox.cif.g09.slc.cpg/sg15_35_cif.got.tgz:69758.got - 2010.06.28 07:06:18.
