data_PCOD8133097
_publ_section_title
;
Structure prediction by ZEFSAII (Michael W. Deem and Ramdas Pophale) SiO2 
 PCOD8133097
Probable space group: C 2/C
;
_chemical_formula_sum "Si O2"
_cell_formula_units_Z 64
_cell_length_a 8.290927
_cell_length_b 23.357114
_cell_length_c 21.100046
_cell_angle_alpha 90.000000
_cell_angle_beta 51.962084
_cell_angle_gamma 90.000000
_cell_volume 3218.200697
_symmetry_space_group_name_H-M "C 2/C"
_symmetry_group_IT_number 15
_symmetry_cell_setting 'monoclinic'
loop_
_space_group_symop_operation_xyz
x,y,z
-x,y,1/2-z
-x,-y,-z
x,-y,1/2+z
1/2+x,1/2+y,z
1/2-x,1/2+y,1/2-z
1/2-x,1/2-y,-z
1/2+x,1/2-y,1/2+z
loop_
_atom_site_type_symbol
_atom_site_label
_atom_site_fract_x
_atom_site_fract_y
_atom_site_fract_z
Si Si1 0.664073 0.590858 0.962779
Si Si2 0.212759 0.154387 0.675803
Si Si3 0.065693 0.390187 0.926431
Si Si4 0.434871 0.056891 0.694886
Si Si5 0.867067 0.082753 0.925341
Si Si6 0.878464 0.692587 0.976046
Si Si7 0.845872 0.573085 0.230079
Si Si8 0.941002 0.955992 0.887786
O O1 0.535183 0.606641 0.932572
O O2 0.723819 0.649199 0.981539
O O3 0.867853 0.556088 0.897388
O O4 0.530242 0.552566 0.043552
O O5 0.271278 0.104054 0.711121
O O6 0.156445 0.128842 0.622516
O O7 0.406788 0.196722 0.616124
O O8 0.000000 0.185426 0.750000
O O9 0.110874 0.384491 0.839857
O O10 0.222401 0.434106 0.919187
O O11 0.078556 0.328949 0.961303
O O12 0.848667 0.421905 0.986201
O O13 0.500000 0.073130 0.750000
O O14 0.350204 0.993135 0.708776
O O15 0.949486 0.023922 0.874297
O O16 0.750000 0.750000 0.000000
O O17 0.613386 0.580865 0.309902
O O18 0.000000 0.587582 0.250000
#
# Coordination Sequence:
#
# PCOD8133097 Si02
#       8
#     8   8   8   8   8   8   8   8
#     4  10  20  34  55  80 108 145 185 226 270 333
#     4  10  19  32  55  85 110 135 177 232 279 329
#     4  10  21  35  53  79 109 148 191 231 272 329
#     4  10  19  32  50  80 118 153 182 215 272 338
#     4  11  19  32  53  82 114 143 178 221 272 329
#     4   9  21  41  62  78 103 145 190 236 291 338
#     4  11  20  31  50  79 117 154 184 218 265 333
#     4  11  20  31  50  77 116 155 180 211 264 335
#
# _framework density 19.886887999999999
#
# number of rings (size 3 to 8) (size 9 to 14) (size 15 to 20)
#    0.000    1.750    0.000    7.125    0.000    0.000 
#    0.000    2.500    0.000   25.500    0.000    0.000 
#    0.000    0.000    0.000    0.000    0.000    0.000 
#
# Total GULP energy -396610.647670 kJ/mol
# GULP energy per Si atom -12394.082740 kJ/mol
# Density = 1.984162 g / cm^3
# Si number density = 19.886888 Si / 1000 Ang^3
#
#
#
# Elastic Constant Matrix: (Units=GPa)
#
#
# Indices 1 2 3 4 5 6 
#
# 1 82.3713 23.7963 17.4487 0.0000 -4.0324 0.0000
# 2 23.7963 54.1619 30.1329 0.0000 -1.1514 0.0000
# 3 17.4487 30.1329 104.0077 0.0000 -8.8405 0.0000
# 4 0.0000 0.0000 0.0000 14.2363 0.0000 -8.3933
# 5 -4.0324 -1.1514 -8.8405 0.0000 41.0575 0.0000
# 6 0.0000 0.0000 0.0000 -8.3933 0.0000 19.1876
#
#
#
# Elastic Compliance Matrix: (Units=1/GPa)
#
#
# Indices 1 2 3 4 5 6 
#
# 1 0.013992 -0.005806 -0.000573 0.000000 0.001088 0.000000
# 2 -0.005806 0.024444 -0.006212 0.000000 -0.001222 0.000000
# 3 -0.000573 -0.006212 0.011705 0.000000 0.002290 0.000000
# 4 0.000000 0.000000 0.000000 0.094654 0.000000 0.041405
# 5 0.001088 -0.001222 0.002290 0.000000 0.024922 0.000000
# 6 0.000000 0.000000 0.000000 0.041405 0.000000 0.070229
#
#
# Mechanical properties :
#
#
# Convention : Reuss Voigt Hill
#
# Bulk Modulus (GPa) = 40.06340 42.58851 41.32595
# Shear Modulus (GPa) = 18.28516 26.17382 22.22949
#
# Velocity S-wave (km/s) = 3.03555 3.63179 3.34697
# Velocity P-wave (km/s) = 5.69872 6.24887 5.98013
#
# Compressibility (1/GPa) = 0.02496044
#
# Stress axis : x y z
#
# Youngs Moduli (GPa) = 71.46971 40.91023 85.43316
#
# Poissons Ratio (x) = 0.23751 0.04894
# Poissons Ratio (y) = 0.41492 0.53069
# Poissons Ratio (z) = 0.04094 0.25412
#
# Static dielectric constant tensor:
#      x y z
#    x 3.997550 0.000000 -0.006250 
#    y 0.000000 3.186840 0.000000 
#    z -0.006250 0.000000 4.221080 
# 
# 
# High freq. dielectric constant tensor:
#      x y z
#    x 1.795570 0.000000 -0.004780 
#    y 0.000000 1.710720 0.000000 
#    z -0.004780 0.000000 1.796830 
# 
# From -- ./inp_files/234696.got.cif
#   From: 2010.06.25/outbox.cif.g09.slc.cpg/sg15_118_cif.got.tgz:234696.got - 2010.06.28 07:06:18.
