data_PCOD8133538
_publ_section_title
;
Structure prediction by ZEFSAII (Michael W. Deem and Ramdas Pophale) SiO2 
 PCOD8133538
Probable space group: C 2/C
;
_chemical_formula_sum "Si O2"
_cell_formula_units_Z 56
_cell_length_a 16.750831
_cell_length_b 18.985382
_cell_length_c 7.984793
_cell_angle_alpha 90.000000
_cell_angle_beta 81.140345
_cell_angle_gamma 90.000000
_cell_volume 2509.033382
_symmetry_space_group_name_H-M "C 2/C"
_symmetry_group_IT_number 15
_symmetry_cell_setting 'monoclinic'
loop_
_space_group_symop_operation_xyz
x,y,z
-x,y,1/2-z
-x,-y,-z
x,-y,1/2+z
1/2+x,1/2+y,z
1/2-x,1/2+y,1/2-z
1/2-x,1/2-y,-z
1/2+x,1/2-y,1/2+z
loop_
_atom_site_type_symbol
_atom_site_label
_atom_site_fract_x
_atom_site_fract_y
_atom_site_fract_z
Si Si1 0.344764 0.800152 0.288582
Si Si2 0.257457 0.171685 0.134611
Si Si3 0.249557 0.555798 0.104000
Si Si4 0.392442 0.934475 0.070688
Si Si5 0.000000 0.790107 0.750000
Si Si6 0.641423 0.468826 0.209714
Si Si7 0.902175 0.103413 0.459994
Si Si8 0.000000 0.533392 0.250000
O O1 0.335599 0.824522 0.486463
O O2 0.267471 0.748728 0.284174
O O3 0.349635 0.865250 0.160091
O O4 0.426212 0.758427 0.222352
O O5 0.280312 0.124142 0.285642
O O6 0.183475 0.139884 0.051245
O O7 0.277646 0.493331 0.216675
O O8 0.177015 0.526020 0.013210
O O9 0.327095 0.574792 0.961422
O O10 0.427194 0.984005 0.205017
O O11 0.465160 0.918749 0.913153
O O12 0.974710 0.841617 0.910469
O O13 0.589104 0.535956 0.165815
O O14 0.589514 0.419481 0.348800
#
# Coordination Sequence:
#
# PCOD8133538 Si02
#       8
#     8   8   8   8   4   8   8   4
#     4  10  21  39  59  79 110 152 189 229 277 330
#     4   9  20  37  58  84 111 143 190 235 276 327
#     4  10  19  33  58  85 110 143 183 233 283 333
#     4  11  22  38  58  78 111 147 182 230 283 337
#     4  10  21  36  56  76 107 154 194 218 266 336
#     4   9  18  33  55  86 115 138 176 229 287 334
#     4   9  18  34  56  83 113 145 182 228 278 334
#     4  10  25  40  52  82 115 144 182 226 282 350
#
# _framework density 22.319353
#
# number of rings (size 3 to 8) (size 9 to 14) (size 15 to 20)
#    0.000    2.286    0.000    2.143    0.000    6.857 
#    0.000    1.429    0.000    3.429    0.000    0.000 
#    0.000    0.000    0.000    0.000    0.000    0.000 
#
# Total GULP energy -346982.549238 kJ/mol
# GULP energy per Si atom -12392.233901 kJ/mol
# Density = 2.226855 g / cm^3
# Si number density = 22.319353 Si / 1000 Ang^3
#
#
#
# Elastic Constant Matrix: (Units=GPa)
#
#
# Indices 1 2 3 4 5 6 
#
# 1 59.1092 16.6708 33.1950 0.0000 -13.4701 0.0000
# 2 16.6708 82.9744 56.5243 0.0000 -17.6698 0.0000
# 3 33.1950 56.5243 135.2912 0.0000 -20.2868 0.0000
# 4 0.0000 0.0000 0.0000 36.8761 0.0000 -21.8006
# 5 -13.4701 -17.6698 -20.2868 0.0000 30.7431 0.0000
# 6 0.0000 0.0000 0.0000 -21.8006 0.0000 14.4648
#
#
#
# Elastic Compliance Matrix: (Units=1/GPa)
#
#
# Indices 1 2 3 4 5 6 
#
# 1 0.020678 0.000006 -0.004125 0.000000 0.006341 0.000000
# 2 0.000006 0.017760 -0.006537 0.000000 0.005896 0.000000
# 3 -0.004125 -0.006537 0.011432 0.000000 0.001979 0.000000
# 4 0.000000 0.000000 0.000000 0.248801 0.000000 0.374980
# 5 0.006341 0.005896 0.001979 0.000000 0.040001 0.000000
# 6 0.000000 0.000000 0.000000 0.374980 0.000000 0.634284
#
#
# Mechanical properties :
#
#
# Convention : Reuss Voigt Hill
#
# Bulk Modulus (GPa) = 35.01839 54.46168 44.74003
# Shear Modulus (GPa) = 4.98114 27.81578 16.39846
#
# Velocity S-wave (km/s) = 1.49553 3.53407 2.71351
# Velocity P-wave (km/s) = 4.32503 6.41147 5.46868
#
# Compressibility (1/GPa) = 0.02855642
#
# Stress axis : x y z
#
# Youngs Moduli (GPa) = 48.36091 56.30722 87.47695
#
# Poissons Ratio (x) = -0.00034 0.36086
# Poissons Ratio (y) = -0.00030 0.57186
# Poissons Ratio (z) = 0.19950 0.36810
#
# Static dielectric constant tensor:
#      x y z
#    x 3.785890 0.000000 -0.284640 
#    y 0.000000 3.988430 0.000000 
#    z -0.284640 0.000000 4.335320 
# 
# 
# High freq. dielectric constant tensor:
#      x y z
#    x 1.857410 0.000000 -0.026950 
#    y 0.000000 1.861940 0.000000 
#    z -0.026950 0.000000 1.891840 
# 
# From -- ./inp_files/49724.got.cif
#   From: 2010.06.25/outbox.cif.g09.slc.cpg/sg15_25_cif.got.tgz:49724.got - 2010.06.28 07:06:18.
