data_PCOD8133001
_publ_section_title
;
Structure prediction by ZEFSAII (Michael W. Deem and Ramdas Pophale) SiO2 
 PCOD8133001
Probable space group: C 2/C
;
_chemical_formula_sum "Si O2"
_cell_formula_units_Z 40
_cell_length_a 17.495734
_cell_length_b 20.952405
_cell_length_c 7.776109
_cell_angle_alpha 90.000000
_cell_angle_beta 131.081654
_cell_angle_gamma 90.000000
_cell_volume 2148.668665
_symmetry_space_group_name_H-M "C 2/C"
_symmetry_group_IT_number 15
_symmetry_cell_setting 'monoclinic'
loop_
_space_group_symop_operation_xyz
x,y,z
-x,y,1/2-z
-x,-y,-z
x,-y,1/2+z
1/2+x,1/2+y,z
1/2-x,1/2+y,1/2-z
1/2-x,1/2-y,-z
1/2+x,1/2-y,1/2+z
loop_
_atom_site_type_symbol
_atom_site_label
_atom_site_fract_x
_atom_site_fract_y
_atom_site_fract_z
Si Si1 0.112268 0.553165 0.981905
Si Si2 0.742003 0.660275 0.341058
Si Si3 0.883820 0.783536 0.548095
Si Si4 0.283586 0.678762 0.576284
Si Si5 0.388475 0.086668 0.126869
O O1 0.196150 0.596673 0.009362
O O2 0.116568 0.572978 0.182294
O O3 0.137841 0.478303 0.012554
O O4 0.000000 0.567424 0.750000
O O5 0.821494 0.718127 0.449869
O O6 0.655478 0.672210 0.353839
O O7 0.689629 0.650494 0.073709
O O8 0.874481 0.821121 0.351053
O O9 0.000000 0.766276 0.750000
O O10 0.250000 0.750000 0.500000
O O11 0.192947 0.640657 0.538108
O O12 0.500000 0.113253 0.250000
#
# Coordination Sequence:
#
# PCOD8133001 Si02
#       5
#     8   8   8   8   8
#     4  10  19  31  52  82 114 138 176 215 281 330
#     4   9  20  36  52  81 111 138 177 227 269 326
#     4  10  20  35  57  78 106 145 184 220 272 314
#     4   9  20  38  50  79 111 142 181 216 270 319
#     4  10  20  32  53  84 110 144 175 219 279 330
#
# _framework density 18.616178999999999
#
# number of rings (size 3 to 8) (size 9 to 14) (size 15 to 20)
#    0.000    2.400    0.000    3.000    5.600    0.800 
#   18.000    0.000    0.000    1.200    0.000    0.000 
#    0.000    0.000    0.000    0.000    0.000    0.000 
#
# Total GULP energy -247872.023793 kJ/mol
# GULP energy per Si atom -12393.601190 kJ/mol
# Density = 1.857381 g / cm^3
# Si number density = 18.616179 Si / 1000 Ang^3
#
#
#
# Elastic Constant Matrix: (Units=GPa)
#
#
# Indices 1 2 3 4 5 6 
#
# 1 72.9602 12.3128 29.4794 0.0000 -0.8413 0.0000
# 2 12.3128 65.4969 17.6671 0.0000 8.7575 0.0000
# 3 29.4794 17.6671 95.6661 0.0000 -5.0703 0.0000
# 4 0.0000 0.0000 0.0000 17.0949 0.0000 5.8787
# 5 -0.8413 8.7575 -5.0703 0.0000 20.5876 0.0000
# 6 0.0000 0.0000 0.0000 5.8787 0.0000 26.4975
#
#
#
# Elastic Compliance Matrix: (Units=1/GPa)
#
#
# Indices 1 2 3 4 5 6 
#
# 1 0.015845 -0.001795 -0.004536 0.000000 0.000294 0.000000
# 2 -0.001795 0.017562 -0.003131 0.000000 -0.008315 0.000000
# 3 -0.004536 -0.003131 0.012655 0.000000 0.004263 0.000000
# 4 0.000000 0.000000 0.000000 0.063328 0.000000 -0.014050
# 5 0.000294 -0.008315 0.004263 0.000000 0.053172 0.000000
# 6 0.000000 0.000000 0.000000 -0.014050 0.000000 0.040856
#
#
# Mechanical properties :
#
#
# Convention : Reuss Voigt Hill
#
# Bulk Modulus (GPa) = 36.84706 39.22688 38.03697
# Shear Modulus (GPa) = 21.60890 24.48028 23.04459
#
# Velocity S-wave (km/s) = 3.41069 3.63023 3.52217
# Velocity P-wave (km/s) = 5.94528 6.22001 6.08420
#
# Compressibility (1/GPa) = 0.02713920
#
# Stress axis : x y z
#
# Youngs Moduli (GPa) = 63.11158 56.94269 79.02136
#
# Poissons Ratio (x) = 0.10219 0.35841
# Poissons Ratio (y) = 0.11326 0.24740
# Poissons Ratio (z) = 0.28625 0.17828
#
# Static dielectric constant tensor:
#      x y z
#    x 4.936600 0.000000 1.656160 
#    y 0.000000 2.104240 0.000000 
#    z 1.656160 0.000000 6.615550 
# 
# 
# High freq. dielectric constant tensor:
#      x y z
#    x 1.715510 0.000000 -0.028420 
#    y 0.000000 1.713200 0.000000 
#    z -0.028420 0.000000 1.718520 
# 
# From -- ./inp_files/30196.got.cif
#   From: 2010.06.25/outbox.cif.g09.slc.cpg/sg15_16_cif.got.tgz:30196.got - 2010.06.28 07:06:18.
