data_PCOD8133817
_publ_section_title
;
Structure prediction by ZEFSAII (Michael W. Deem and Ramdas Pophale) SiO2 
 PCOD8133817
Probable space group: C 2/C
;
_chemical_formula_sum "Si O2"
_cell_formula_units_Z 64
_cell_length_a 12.304171
_cell_length_b 17.357313
_cell_length_c 19.787895
_cell_angle_alpha 90.000000
_cell_angle_beta 128.381857
_cell_angle_gamma 90.000000
_cell_volume 3312.757412
_symmetry_space_group_name_H-M "C 2/C"
_symmetry_group_IT_number 15
_symmetry_cell_setting 'monoclinic'
loop_
_space_group_symop_operation_xyz
x,y,z
-x,y,1/2-z
-x,-y,-z
x,-y,1/2+z
1/2+x,1/2+y,z
1/2-x,1/2+y,1/2-z
1/2-x,1/2-y,-z
1/2+x,1/2-y,1/2+z
loop_
_atom_site_type_symbol
_atom_site_label
_atom_site_fract_x
_atom_site_fract_y
_atom_site_fract_z
Si Si1 0.219169 0.331586 0.955775
Si Si2 0.101037 0.478584 0.133477
Si Si3 0.563940 0.879264 0.705997
Si Si4 0.838992 0.814013 0.860945
Si Si5 0.809886 0.284185 0.121261
Si Si6 0.295115 0.010158 0.972513
Si Si7 0.885257 0.675572 0.794174
Si Si8 0.633002 0.639142 0.441271
O O1 0.323365 0.336151 0.932903
O O2 0.056723 0.329131 0.874860
O O3 0.250000 0.250000 0.000000
O O4 0.246014 0.407432 0.011291
O O5 0.127501 0.556711 0.182659
O O6 0.195120 0.476922 0.103420
O O7 0.155513 0.411158 0.203305
O O8 0.937681 0.473042 0.054448
O O9 0.500000 0.916335 0.750000
O O10 0.693143 0.825111 0.768201
O O11 0.869211 0.724476 0.857137
O O12 0.965844 0.863212 0.879026
O O13 0.791499 0.291171 0.195769
O O14 0.813056 0.194699 0.098683
O O15 0.953266 0.325840 0.160922
O O16 0.688010 0.328935 0.034711
O O17 0.177358 0.948189 0.944404
#
# Coordination Sequence:
#
# PCOD8133817 Si02
#       8
#     8   8   8   8   8   8   8   8
#     4  10  21  40  61  83 116 156 204 248 293 347
#     4  10  20  35  60  87 114 151 202 244 295 351
#     4   9  21  38  57  82 113 152 192 246 291 349
#     4  10  22  37  57  84 116 157 192 237 300 365
#     4   9  20  33  57  86 119 153 179 252 295 354
#     4  10  21  36  60  88 117 157 196 250 291 363
#     4  10  19  34  57  88 116 147 198 238 299 355
#     4  10  20  38  56  86 123 149 195 239 305 361
#
# _framework density 19.319254000000001
#
# number of rings (size 3 to 8) (size 9 to 14) (size 15 to 20)
#    0.000    2.250    1.250    0.750    3.500    2.500 
#    0.000    1.250    0.000    0.000    0.000    0.000 
#    0.000    0.000    0.000    0.000    0.000    0.000 
#
# Total GULP energy -396646.621993 kJ/mol
# GULP energy per Si atom -12395.206937 kJ/mol
# Density = 1.927528 g / cm^3
# Si number density = 19.319254 Si / 1000 Ang^3
#
#
#
# Elastic Constant Matrix: (Units=GPa)
#
#
# Indices 1 2 3 4 5 6 
#
# 1 93.0165 65.0749 29.1238 0.0000 -10.0337 0.0000
# 2 65.0749 131.3502 50.3161 0.0000 -11.6077 0.0000
# 3 29.1238 50.3161 69.7098 0.0000 -10.3718 0.0000
# 4 0.0000 0.0000 0.0000 23.9171 0.0000 -7.7602
# 5 -10.0337 -11.6077 -10.3718 0.0000 32.7892 0.0000
# 6 0.0000 0.0000 0.0000 -7.7602 0.0000 22.3498
#
#
#
# Elastic Compliance Matrix: (Units=1/GPa)
#
#
# Indices 1 2 3 4 5 6 
#
# 1 0.016676 -0.007642 -0.001148 0.000000 0.002034 0.000000
# 2 -0.007642 0.014086 -0.006905 0.000000 0.000464 0.000000
# 3 -0.001148 -0.006905 0.020351 0.000000 0.003641 0.000000
# 4 0.000000 0.000000 0.000000 0.047120 0.000000 0.016361
# 5 0.002034 0.000464 0.003641 0.000000 0.032436 0.000000
# 6 0.000000 0.000000 0.000000 0.016361 0.000000 0.050424
#
#
# Mechanical properties :
#
#
# Convention : Reuss Voigt Hill
#
# Bulk Modulus (GPa) = 50.70643 64.78958 57.74801
# Shear Modulus (GPa) = 22.82505 25.78199 24.30352
#
# Velocity S-wave (km/s) = 3.44098 3.65708 3.55067
# Velocity P-wave (km/s) = 6.48773 7.17226 6.83857
#
# Compressibility (1/GPa) = 0.01972136
#
# Stress axis : x y z
#
# Youngs Moduli (GPa) = 59.96506 70.99476 49.13836
#
# Poissons Ratio (x) = 0.54257 0.05643
# Poissons Ratio (y) = 0.45827 0.33930
# Poissons Ratio (z) = 0.06886 0.49022
#
# Static dielectric constant tensor:
#      x y z
#    x 3.568480 0.000000 -0.194500 
#    y 0.000000 3.381400 0.000000 
#    z -0.194500 0.000000 3.675970 
# 
# 
# High freq. dielectric constant tensor:
#      x y z
#    x 1.746780 0.000000 -0.011050 
#    y 0.000000 1.744830 0.000000 
#    z -0.011050 0.000000 1.748290 
# 
# From -- ./inp_files/239821.got.cif
#   From: 2010.06.25/outbox.cif.g09.slc.cpg/sg15_120_cif.got.tgz:239821.got - 2010.06.28 07:06:18.
