data_PCOD8133952
_publ_section_title
;
Structure prediction by ZEFSAII (Michael W. Deem and Ramdas Pophale) SiO2 
 PCOD8133952
Probable space group: C 2/C
;
_chemical_formula_sum "Si O2"
_cell_formula_units_Z 56
_cell_length_a 9.678490
_cell_length_b 12.096529
_cell_length_c 21.519111
_cell_angle_alpha 90.000000
_cell_angle_beta 94.717304
_cell_angle_gamma 90.000000
_cell_volume 2510.840202
_symmetry_space_group_name_H-M "C 2/C"
_symmetry_group_IT_number 15
_symmetry_cell_setting 'monoclinic'
loop_
_space_group_symop_operation_xyz
x,y,z
-x,y,1/2-z
-x,-y,-z
x,-y,1/2+z
1/2+x,1/2+y,z
1/2-x,1/2+y,1/2-z
1/2-x,1/2-y,-z
1/2+x,1/2-y,1/2+z
loop_
_atom_site_type_symbol
_atom_site_label
_atom_site_fract_x
_atom_site_fract_y
_atom_site_fract_z
Si Si1 0.599939 0.521280 0.803122
Si Si2 0.934071 0.504143 0.065932
Si Si3 0.581290 0.947142 0.193190
Si Si4 0.494587 0.705256 0.153016
Si Si5 0.241313 0.286649 0.429638
Si Si6 0.342161 0.390562 0.947521
Si Si7 0.989312 0.888862 0.074832
O O1 0.500000 0.584253 0.750000
O O2 0.758193 0.526193 0.786019
O O3 0.522752 0.401288 0.803986
O O4 0.599911 0.586175 0.867967
O O5 0.845469 0.397427 0.077305
O O6 0.824886 0.605020 0.063380
O O7 0.043786 0.510538 0.126993
O O8 0.000000 0.500000 0.000000
O O9 0.500000 0.996662 0.250000
O O10 0.541721 0.816228 0.190217
O O11 0.341917 0.701913 0.116030
O O12 0.609490 0.693512 0.103503
O O13 0.250000 0.250000 0.500000
O O14 0.397200 0.293255 0.408289
O O15 0.418267 0.507351 0.942412
O O16 0.383607 0.348008 0.017692
#
# Coordination Sequence:
#
# PCOD8133952 Si02
#       7
#     8   8   8   8   8   8   8
#     4  11  25  43  70  90 126 181 224 265 340 401
#     4  10  22  38  62  92 133 170 215 276 337 393
#     4  11  26  45  66  97 137 171 223 283 339 402
#     4  10  22  41  67  93 128 170 221 273 332 405
#     4  10  19  34  61  94 127 165 207 271 339 385
#     4   9  17  34  63  90 125 166 212 263 331 394
#     4   9  18  34  60  93 126 162 216 266 321 400
#
# _framework density 22.303291999999999
#
# number of rings (size 3 to 8) (size 9 to 14) (size 15 to 20)
#    0.000    2.000    1.429    1.286   12.000    0.000 
#    2.571    2.143    0.000    0.000    0.000    0.000 
#    0.000    0.000    0.000    0.000    0.000    0.000 
#
# Total GULP energy -346991.416928 kJ/mol
# GULP energy per Si atom -12392.550605 kJ/mol
# Density = 2.225253 g / cm^3
# Si number density = 22.303292 Si / 1000 Ang^3
#
#
#
# Elastic Constant Matrix: (Units=GPa)
#
#
# Indices 1 2 3 4 5 6 
#
# 1 158.7165 12.0814 67.0649 0.0000 1.4653 0.0000
# 2 12.0814 25.7228 10.2502 0.0000 -0.7865 0.0000
# 3 67.0649 10.2502 147.6317 0.0000 -2.5886 0.0000
# 4 0.0000 0.0000 0.0000 20.3639 0.0000 3.4125
# 5 1.4653 -0.7865 -2.5886 0.0000 43.1595 0.0000
# 6 0.0000 0.0000 0.0000 3.4125 0.0000 30.4693
#
#
#
# Elastic Compliance Matrix: (Units=1/GPa)
#
#
# Indices 1 2 3 4 5 6 
#
# 1 0.007945 -0.002371 -0.003454 0.000000 -0.000520 0.000000
# 2 -0.002371 0.040704 -0.001736 0.000000 0.000718 0.000000
# 3 -0.003454 -0.001736 0.008474 0.000000 0.000594 0.000000
# 4 0.000000 0.000000 0.000000 0.050046 0.000000 -0.005605
# 5 -0.000520 0.000718 0.000594 0.000000 0.023236 0.000000
# 6 0.000000 0.000000 0.000000 -0.005605 0.000000 0.033448
#
#
# Mechanical properties :
#
#
# Convention : Reuss Voigt Hill
#
# Bulk Modulus (GPa) = 23.80971 56.76268 40.28620
# Shear Modulus (GPa) = 25.91012 34.97683 30.44347
#
# Velocity S-wave (km/s) = 3.41209 3.96439 3.69857
# Velocity P-wave (km/s) = 5.12072 6.81622 6.02837
#
# Compressibility (1/GPa) = 0.04199966
#
# Stress axis : x y z
#
# Youngs Moduli (GPa) = 125.86181 24.56782 118.01463
#
# Poissons Ratio (x) = 0.05826 0.40759
# Poissons Ratio (y) = 0.29846 0.20491
# Poissons Ratio (z) = 0.43470 0.04266
#
# Static dielectric constant tensor:
#      x y z
#    x 4.195670 0.000000 0.157550 
#    y 0.000000 3.695700 0.000000 
#    z 0.157550 0.000000 4.068090 
# 
# 
# High freq. dielectric constant tensor:
#      x y z
#    x 1.886820 0.000000 0.007020 
#    y 0.000000 1.848140 0.000000 
#    z 0.007020 0.000000 1.886560 
# 
# From -- ./inp_files/231601.got.cif
#   From: 2010.06.25/outbox.cif.g09.slc.cpg/sg15_116_cif.got.tgz:231601.got - 2010.06.28 07:06:18.
