data_PCOD8133282
_publ_section_title
;
Structure prediction by ZEFSAII (Michael W. Deem and Ramdas Pophale) SiO2 
 PCOD8133282
Probable space group: C 2/C
;
_chemical_formula_sum "Si O2"
_cell_formula_units_Z 56
_cell_length_a 26.088688
_cell_length_b 16.336782
_cell_length_c 8.772087
_cell_angle_alpha 90.000000
_cell_angle_beta 125.065349
_cell_angle_gamma 90.000000
_cell_volume 3060.123420
_symmetry_space_group_name_H-M "C 2/C"
_symmetry_group_IT_number 15
_symmetry_cell_setting 'monoclinic'
loop_
_space_group_symop_operation_xyz
x,y,z
-x,y,1/2-z
-x,-y,-z
x,-y,1/2+z
1/2+x,1/2+y,z
1/2-x,1/2+y,1/2-z
1/2-x,1/2-y,-z
1/2+x,1/2-y,1/2+z
loop_
_atom_site_type_symbol
_atom_site_label
_atom_site_fract_x
_atom_site_fract_y
_atom_site_fract_z
Si Si1 0.267585 0.112363 0.027835
Si Si2 0.900158 0.978183 0.053589
Si Si3 0.074746 0.117507 0.197610
Si Si4 0.760517 0.026674 0.821868
Si Si5 0.663225 0.730224 0.775784
Si Si6 0.462172 0.667014 0.833143
Si Si7 0.801461 0.807653 0.509014
O O1 0.318587 0.183077 0.121039
O O2 0.281904 0.045864 0.182779
O O3 0.273403 0.060156 0.884323
O O4 0.199027 0.155258 0.920739
O O5 0.927611 0.917315 0.228597
O O6 0.923299 0.070391 0.136321
O O7 0.924802 0.952364 0.931711
O O8 0.825957 0.980555 0.908890
O O9 0.133214 0.181779 0.285225
O O10 0.009377 0.162810 0.057868
O O11 0.770339 0.102603 0.952969
O O12 0.590221 0.727337 0.690402
O O13 0.680930 0.727102 0.627503
O O14 0.500000 0.701898 0.750000
O O15 0.750000 0.750000 0.500000
#
# Coordination Sequence:
#
# PCOD8133282 Si02
#       7
#     8   8   8   8   8   8   8
#     4  10  21  35  58  82 114 150 191 240 286 342
#     4  10  19  33  50  82 116 153 188 227 266 344
#     4  10  22  34  54  79 116 154 193 227 280 338
#     4  10  19  33  56  83 115 152 186 232 289 342
#     4  10  22  38  55  81 117 155 193 233 287 334
#     4  10  21  36  54  78 113 157 191 229 276 339
#     4  10  23  37  55  85 117 151 188 240 285 339
#
# _framework density 18.299916
#
# number of rings (size 3 to 8) (size 9 to 14) (size 15 to 20)
#    0.000    2.000    1.429    2.143    8.000    4.000 
#    0.000    0.000    0.000    0.000    0.000    4.000 
#    0.000    0.000    0.000    0.000    0.000    0.000 
#
# Total GULP energy -346944.414326 kJ/mol
# GULP energy per Si atom -12390.871940 kJ/mol
# Density = 1.825826 g / cm^3
# Si number density = 18.299916 Si / 1000 Ang^3
#
#
#
# Elastic Constant Matrix: (Units=GPa)
#
#
# Indices 1 2 3 4 5 6 
#
# 1 100.4748 52.4872 44.5822 0.0000 14.1739 0.0000
# 2 52.4872 90.7349 50.7606 0.0000 -1.6908 0.0000
# 3 44.5822 50.7606 104.4694 0.0000 7.5801 0.0000
# 4 0.0000 0.0000 0.0000 26.7791 0.0000 2.4846
# 5 14.1739 -1.6908 7.5801 0.0000 20.0280 0.0000
# 6 0.0000 0.0000 0.0000 2.4846 0.0000 25.9426
#
#
#
# Elastic Compliance Matrix: (Units=1/GPa)
#
#
# Indices 1 2 3 4 5 6 
#
# 1 0.017369 -0.009101 -0.002100 0.000000 -0.012266 0.000000
# 2 -0.009101 0.020252 -0.006732 0.000000 0.010699 0.000000
# 3 -0.002100 -0.006732 0.014059 0.000000 -0.004403 0.000000
# 4 0.000000 0.000000 0.000000 0.037677 0.000000 -0.003608
# 5 -0.012266 0.010699 -0.004403 0.000000 0.061180 0.000000
# 6 0.000000 0.000000 0.000000 -0.003608 0.000000 0.038892
#
#
# Mechanical properties :
#
#
# Convention : Reuss Voigt Hill
#
# Bulk Modulus (GPa) = 63.24120 65.70433 64.47277
# Shear Modulus (GPa) = 21.68555 24.40656 23.04606
#
# Velocity S-wave (km/s) = 3.44613 3.65595 3.55259
# Velocity P-wave (km/s) = 7.10406 7.33508 7.22049
#
# Compressibility (1/GPa) = 0.01581248
#
# Stress axis : x y z
#
# Youngs Moduli (GPa) = 57.57262 49.37871 71.12836
#
# Poissons Ratio (x) = 0.44941 0.14938
# Poissons Ratio (y) = 0.52398 0.47886
# Poissons Ratio (z) = 0.12091 0.33244
#
# Static dielectric constant tensor:
#      x y z
#    x 3.206300 0.000000 -0.000750 
#    y 0.000000 3.238330 0.000000 
#    z -0.000750 0.000000 3.610350 
# 
# 
# High freq. dielectric constant tensor:
#      x y z
#    x 1.692690 0.000000 -0.012330 
#    y 0.000000 1.681370 0.000000 
#    z -0.012330 0.000000 1.712260 
# 
# From -- ./inp_files/56101.got.cif
#   From: 2010.06.25/outbox.cif.g09.slc.cpg/sg15_29_cif.got.tgz:56101.got - 2010.06.28 07:06:18.
