data_PCOD8133416
_publ_section_title
;
Structure prediction by ZEFSAII (Michael W. Deem and Ramdas Pophale) SiO2 
 PCOD8133416
Probable space group: C 2/C
;
_chemical_formula_sum "Si O2"
_cell_formula_units_Z 56
_cell_length_a 14.342498
_cell_length_b 27.206649
_cell_length_c 8.764587
_cell_angle_alpha 90.000000
_cell_angle_beta 121.799649
_cell_angle_gamma 90.000000
_cell_volume 2906.678866
_symmetry_space_group_name_H-M "C 2/C"
_symmetry_group_IT_number 15
_symmetry_cell_setting 'monoclinic'
loop_
_space_group_symop_operation_xyz
x,y,z
-x,y,1/2-z
-x,-y,-z
x,-y,1/2+z
1/2+x,1/2+y,z
1/2-x,1/2+y,1/2-z
1/2-x,1/2-y,-z
1/2+x,1/2-y,1/2+z
loop_
_atom_site_type_symbol
_atom_site_label
_atom_site_fract_x
_atom_site_fract_y
_atom_site_fract_z
Si Si1 0.770949 0.657535 0.737671
Si Si2 0.969488 0.189408 0.899478
Si Si3 0.105009 0.369323 0.442882
Si Si4 0.758376 0.046334 0.141530
Si Si5 0.697815 0.447554 0.172041
Si Si6 0.974432 0.908394 0.905737
Si Si7 0.016835 0.299010 0.942945
O O1 0.659304 0.686353 0.673469
O O2 0.802719 0.656581 0.584556
O O3 0.760684 0.601064 0.781879
O O4 0.861440 0.683614 0.916656
O O5 0.000000 0.181679 0.750000
O O6 0.007770 0.242749 0.989126
O O7 0.033598 0.147972 0.048537
O O8 0.151437 0.418754 0.564322
O O9 0.000000 0.384064 0.250000
O O10 0.073385 0.331069 0.546628
O O11 0.856233 0.067602 0.331379
O O12 0.742569 0.990797 0.184392
O O13 0.789274 0.042337 0.993665
O O14 0.566381 0.438600 0.082800
O O15 0.000000 0.908690 0.750000
O O16 0.000000 0.304808 0.750000
#
# Coordination Sequence:
#
# PCOD8133416 Si02
#       7
#     8   8   8   8   8   8   8
#     4   9  20  40  55  74 115 147 175 225 272 323
#     4  10  22  36  55  84 113 143 179 222 275 328
#     4   9  20  39  57  77 109 146 186 225 265 322
#     4  10  19  33  55  79 106 140 180 226 269 317
#     4   9  19  34  52  79 109 141 178 221 273 322
#     4   9  19  34  52  79 111 141 181 222 264 329
#     4  10  22  37  56  83 108 139 185 231 274 320
#
# _framework density 19.265974
#
# number of rings (size 3 to 8) (size 9 to 14) (size 15 to 20)
#    0.000    2.571    0.000    1.286    0.000   10.286 
#    0.000    7.857    0.000    0.000    0.000    0.000 
#    0.000    0.000    0.000    0.000    0.000    0.000 
#
# Total GULP energy -347091.821076 kJ/mol
# GULP energy per Si atom -12396.136467 kJ/mol
# Density = 1.922212 g / cm^3
# Si number density = 19.265974 Si / 1000 Ang^3
#
#
#
# Elastic Constant Matrix: (Units=GPa)
#
#
# Indices 1 2 3 4 5 6 
#
# 1 92.4595 38.5763 21.7728 0.0000 11.1863 0.0000
# 2 38.5763 135.4779 46.4327 0.0000 9.2595 0.0000
# 3 21.7728 46.4327 52.6817 0.0000 7.5406 0.0000
# 4 0.0000 0.0000 0.0000 38.7443 0.0000 -1.3628
# 5 11.1863 9.2595 7.5406 0.0000 13.2572 0.0000
# 6 0.0000 0.0000 0.0000 -1.3628 0.0000 24.1938
#
#
#
# Elastic Compliance Matrix: (Units=1/GPa)
#
#
# Indices 1 2 3 4 5 6 
#
# 1 0.013369 -0.002511 -0.002121 0.000000 -0.008321 0.000000
# 2 -0.002511 0.011111 -0.008652 0.000000 -0.000720 0.000000
# 3 -0.002121 -0.008652 0.028700 0.000000 -0.008491 0.000000
# 4 0.000000 0.000000 0.000000 0.025861 0.000000 0.001457
# 5 -0.008321 -0.000720 -0.008491 0.000000 0.087784 0.000000
# 6 0.000000 0.000000 0.000000 0.001457 0.000000 0.041415
#
#
# Mechanical properties :
#
#
# Convention : Reuss Voigt Hill
#
# Bulk Modulus (GPa) = 37.57792 54.90920 46.24356
# Shear Modulus (GPa) = 20.51872 26.82822 23.67347
#
# Velocity S-wave (km/s) = 3.26701 3.73569 3.50919
# Velocity P-wave (km/s) = 5.81191 6.86802 6.36192
#
# Compressibility (1/GPa) = 0.02661137
#
# Stress axis : x y z
#
# Youngs Moduli (GPa) = 74.79744 90.00206 34.84357
#
# Poissons Ratio (x) = 0.22601 0.07391
# Poissons Ratio (y) = 0.18783 0.30147
# Poissons Ratio (z) = 0.15866 0.77870
#
# Static dielectric constant tensor:
#      x y z
#    x 3.624330 0.000000 0.108040 
#    y 0.000000 3.703600 0.000000 
#    z 0.108040 0.000000 3.417110 
# 
# 
# High freq. dielectric constant tensor:
#      x y z
#    x 1.746260 0.000000 0.003300 
#    y 0.000000 1.757330 0.000000 
#    z 0.003300 0.000000 1.740040 
# 
# From -- ./inp_files/43608.got.cif
#   From: 2010.06.25/outbox.cif.g09.slc.cpg/sg15_22_cif.got.tgz:43608.got - 2010.06.28 07:06:18.
