data_PCOD8133337
_publ_section_title
;
Structure prediction by ZEFSAII (Michael W. Deem and Ramdas Pophale) SiO2 
 PCOD8133337
Probable space group: C 2/C
;
_chemical_formula_sum "Si O2"
_cell_formula_units_Z 60
_cell_length_a 16.839316
_cell_length_b 33.060710
_cell_length_c 5.046941
_cell_angle_alpha 90.000000
_cell_angle_beta 90.282101
_cell_angle_gamma 90.000000
_cell_volume 2809.697639
_symmetry_space_group_name_H-M "C 2/C"
_symmetry_group_IT_number 15
_symmetry_cell_setting 'monoclinic'
loop_
_space_group_symop_operation_xyz
x,y,z
-x,y,1/2-z
-x,-y,-z
x,-y,1/2+z
1/2+x,1/2+y,z
1/2-x,1/2+y,1/2-z
1/2-x,1/2-y,-z
1/2+x,1/2-y,1/2+z
loop_
_atom_site_type_symbol
_atom_site_label
_atom_site_fract_x
_atom_site_fract_y
_atom_site_fract_z
Si Si1 0.799611 0.024141 0.274151
Si Si2 0.112995 0.476352 0.713155
Si Si3 0.341955 0.191688 0.496474
Si Si4 0.374398 0.142234 0.987738
Si Si5 0.000000 0.592374 0.250000
Si Si6 0.328364 0.337897 0.462336
Si Si7 0.204284 0.111624 0.034875
Si Si8 0.946113 0.231826 0.993271
O O1 0.706608 0.028625 0.220742
O O2 0.829266 0.067718 0.379021
O O3 0.830090 0.990589 0.487093
O O4 0.085187 0.510389 0.504066
O O5 0.069890 0.434990 0.624382
O O6 0.360072 0.178275 0.197382
O O7 0.248676 0.191029 0.570235
O O8 0.376218 0.236134 0.545172
O O9 0.383747 0.160078 0.694863
O O10 0.457977 0.120108 0.030498
O O11 0.300397 0.110970 0.013992
O O12 0.327158 0.356299 0.754385
O O13 0.406697 0.311215 0.425615
O O14 0.330005 0.374413 0.249504
O O15 0.000000 0.227424 0.250000
O O16 0.000000 0.246166 0.750000
#
# Coordination Sequence:
#
# PCOD8133337 Si02
#       8
#     8   8   8   8   4   8   8   8
#     4  10  19  33  53  79 112 148 191 243 290 332
#     4  10  22  35  49  70 104 151 199 245 299 342
#     4  10  23  42  58  83 115 159 197 237 292 348
#     4  10  23  34  55  78 108 153 205 252 284 333
#     4  12  22  36  50  74 112 148 212 246 300 330
#     4  10  22  40  66  84 119 158 199 231 289 354
#     4  10  19  39  56  86 112 153 199 241 283 342
#     4  12  25  41  64  93 123 149 189 245 296 347
#
# _framework density 21.354611999999999
#
# number of rings (size 3 to 8) (size 9 to 14) (size 15 to 20)
#    0.000    1.600    1.333    3.200    2.800    2.133 
#    0.000    5.333    0.000    0.000    0.000    0.000 
#    0.000   37.333    0.000    0.000    0.000    0.000 
#
# Total GULP energy -371942.133968 kJ/mol
# GULP energy per Si atom -12398.071132 kJ/mol
# Density = 2.130601 g / cm^3
# Si number density = 21.354612 Si / 1000 Ang^3
#
#
#
# Elastic Constant Matrix: (Units=GPa)
#
#
# Indices 1 2 3 4 5 6 
#
# 1 38.6721 24.7187 18.8095 0.0000 6.7773 0.0000
# 2 24.7187 83.9375 8.7042 0.0000 8.1521 0.0000
# 3 18.8095 8.7042 93.5792 0.0000 7.6475 0.0000
# 4 0.0000 0.0000 0.0000 26.2400 0.0000 9.1318
# 5 6.7773 8.1521 7.6475 0.0000 19.7662 0.0000
# 6 0.0000 0.0000 0.0000 9.1318 0.0000 25.3205
#
#
#
# Elastic Compliance Matrix: (Units=1/GPa)
#
#
# Indices 1 2 3 4 5 6 
#
# 1 0.035719 -0.009319 -0.005810 0.000000 -0.006156 0.000000
# 2 -0.009319 0.014894 0.000752 0.000000 -0.003239 0.000000
# 3 -0.005810 0.000752 0.012027 0.000000 -0.002971 0.000000
# 4 0.000000 0.000000 0.000000 0.043579 0.000000 -0.015717
# 5 -0.006156 -0.003239 -0.002971 0.000000 0.055188 0.000000
# 6 0.000000 0.000000 0.000000 -0.015717 0.000000 0.045162
#
#
# Mechanical properties :
#
#
# Convention : Reuss Voigt Hill
#
# Bulk Modulus (GPa) = 29.50857 35.62819 32.56838
# Shear Modulus (GPa) = 20.27429 25.19576 22.73502
#
# Velocity S-wave (km/s) = 3.08459 3.43866 3.26643
# Velocity P-wave (km/s) = 5.15118 5.69966 5.43234
#
# Compressibility (1/GPa) = 0.03388846
#
# Stress axis : x y z
#
# Youngs Moduli (GPa) = 27.99598 67.13929 83.14795
#
# Poissons Ratio (x) = 0.62565 0.48307
# Poissons Ratio (y) = 0.26088 -0.06256
# Poissons Ratio (z) = 0.16265 -0.05051
#
# Static dielectric constant tensor:
#      x y z
#    x 3.419810 0.000000 0.259980 
#    y 0.000000 3.731390 0.000000 
#    z 0.259980 0.000000 3.827360 
# 
# 
# High freq. dielectric constant tensor:
#      x y z
#    x 1.796620 0.000000 0.011760 
#    y 0.000000 1.833690 0.000000 
#    z 0.011760 0.000000 1.850100 
# 
# From -- ./inp_files/11543.got.cif
#   From: 2010.06.25/outbox.cif.g09.slc.cpg/sg15_6_cif.got.tgz:11543.got - 2010.06.28 07:06:18.
