data_PCOD8133208
_publ_section_title
;
Structure prediction by ZEFSAII (Michael W. Deem and Ramdas Pophale) SiO2 
 PCOD8133208
Probable space group: C 2/C
;
_chemical_formula_sum "Si O2"
_cell_formula_units_Z 48
_cell_length_a 18.435043
_cell_length_b 16.470112
_cell_length_c 17.554692
_cell_angle_alpha 90.000000
_cell_angle_beta 150.861933
_cell_angle_gamma 90.000000
_cell_volume 2595.301340
_symmetry_space_group_name_H-M "C 2/C"
_symmetry_group_IT_number 15
_symmetry_cell_setting 'monoclinic'
loop_
_space_group_symop_operation_xyz
x,y,z
-x,y,1/2-z
-x,-y,-z
x,-y,1/2+z
1/2+x,1/2+y,z
1/2-x,1/2+y,1/2-z
1/2-x,1/2-y,-z
1/2+x,1/2-y,1/2+z
loop_
_atom_site_type_symbol
_atom_site_label
_atom_site_fract_x
_atom_site_fract_y
_atom_site_fract_z
Si Si1 0.269455 0.230127 0.900078
Si Si2 0.533530 0.340058 0.087943
Si Si3 0.434378 0.470904 0.109276
Si Si4 0.067182 0.151340 0.443879
Si Si5 0.635993 0.781787 0.332284
Si Si6 0.837165 0.626889 0.101508
O O1 0.195272 0.197022 0.754574
O O2 0.161613 0.293155 0.844388
O O3 0.420662 0.273875 0.016957
O O4 0.292116 0.152182 0.974799
O O5 0.515437 0.425740 0.114062
O O6 0.510372 0.353961 0.977739
O O7 0.500000 0.442531 0.250000
O O8 0.453208 0.566279 0.116518
O O9 0.262726 0.444113 0.954208
O O10 0.247133 0.169521 0.613337
O O11 0.956061 0.212726 0.298050
O O12 0.500000 0.831880 0.250000
O O13 0.750000 0.750000 0.500000
O O14 0.000000 0.588307 0.250000
#
# Coordination Sequence:
#
# PCOD8133208 Si02
#       6
#     8   8   8   8   8   8
#     4  10  19  32  56  83 115 150 191 234 275 346
#     4  11  21  35  56  85 122 154 183 240 294 337
#     4  11  22  36  56  83 116 158 194 233 283 348
#     4  11  22  38  59  87 115 147 196 244 296 336
#     4   9  19  38  62  82 102 143 197 242 277 332
#     4  10  19  33  55  84 114 148 195 233 276 334
#
# _framework density 18.494962000000001
#
# number of rings (size 3 to 8) (size 9 to 14) (size 15 to 20)
#    0.000    1.667    3.333    3.000    0.000    0.667 
#    0.000    0.000    0.000    1.000    0.000    0.000 
#    0.000    0.000    0.000    0.000    0.000    0.000 
#
# Total GULP energy -297366.689983 kJ/mol
# GULP energy per Si atom -12390.278749 kJ/mol
# Density = 1.845287 g / cm^3
# Si number density = 18.494962 Si / 1000 Ang^3
#
#
#
# Elastic Constant Matrix: (Units=GPa)
#
#
# Indices 1 2 3 4 5 6 
#
# 1 97.9359 23.3673 31.9069 -0.0013 -7.4639 -0.0002
# 2 23.3673 71.6138 27.8530 -0.0024 2.3375 -0.0012
# 3 31.9069 27.8530 96.7100 -0.0057 0.6351 -0.0031
# 4 -0.0013 -0.0024 -0.0057 17.9409 -0.0022 -3.9327
# 5 -7.4639 2.3375 0.6351 -0.0022 32.6949 -0.0006
# 6 -0.0002 -0.0012 -0.0031 -3.9327 -0.0006 21.7527
#
#
#
# Elastic Compliance Matrix: (Units=1/GPa)
#
#
# Indices 1 2 3 4 5 6 
#
# 1 0.012164 -0.002815 -0.003222 0.000000 0.003041 0.000000
# 2 -0.002815 0.016412 -0.003787 0.000001 -0.001742 0.000000
# 3 -0.003222 -0.003787 0.012499 0.000004 -0.000708 0.000002
# 4 0.000000 0.000001 0.000004 0.058039 0.000004 0.010493
# 5 0.003041 -0.001742 -0.000708 0.000004 0.031418 0.000001
# 6 0.000000 0.000000 0.000002 0.010493 0.000001 0.047868
#
#
# Mechanical properties :
#
#
# Convention : Reuss Voigt Hill
#
# Bulk Modulus (GPa) = 46.67116 48.05711 47.36414
# Shear Modulus (GPa) = 24.36767 26.68653 25.52710
#
# Velocity S-wave (km/s) = 3.63372 3.80268 3.71916
# Velocity P-wave (km/s) = 6.54939 6.73208 6.64136
#
# Compressibility (1/GPa) = 0.02142651
#
# Stress axis : x y z
#
# Youngs Moduli (GPa) = 82.20983 60.93141 80.00945
#
# Poissons Ratio (x) = 0.17152 0.25782
# Poissons Ratio (y) = 0.23142 0.30296
# Poissons Ratio (z) = 0.26491 0.23072
#
# Static dielectric constant tensor:
#      x y z
#    x 3.673660 0.000000 0.248540 
#    y 0.000000 3.137260 -0.000010 
#    z 0.248540 -0.000010 3.548630 
# 
# 
# High freq. dielectric constant tensor:
#      x y z
#    x 1.722060 0.000000 0.003610 
#    y 0.000000 1.691270 0.000000 
#    z 0.003610 0.000000 1.726970 
# 
# From -- ./inp_files/47957.got.cif
#   From: 2010.06.25/outbox.cif.g09.slc.cpg/sg15_24_cif.got.tgz:47957.got - 2010.06.28 07:06:18.
