data_PCOD8133799
_publ_section_title
;
Structure prediction by ZEFSAII (Michael W. Deem and Ramdas Pophale) SiO2 
 PCOD8133799
Probable space group: C 2/C
;
_chemical_formula_sum "Si O2"
_cell_formula_units_Z 48
_cell_length_a 16.673058
_cell_length_b 9.707007
_cell_length_c 24.817864
_cell_angle_alpha 90.000000
_cell_angle_beta 146.556828
_cell_angle_gamma 90.000000
_cell_volume 2213.619688
_symmetry_space_group_name_H-M "C 2/C"
_symmetry_group_IT_number 15
_symmetry_cell_setting 'monoclinic'
loop_
_space_group_symop_operation_xyz
x,y,z
-x,y,1/2-z
-x,-y,-z
x,-y,1/2+z
1/2+x,1/2+y,z
1/2-x,1/2+y,1/2-z
1/2-x,1/2-y,-z
1/2+x,1/2-y,1/2+z
loop_
_atom_site_type_symbol
_atom_site_label
_atom_site_fract_x
_atom_site_fract_y
_atom_site_fract_z
Si Si1 0.584599 0.120872 0.112590
Si Si2 0.705603 0.158905 0.816392
Si Si3 0.707202 0.097613 0.604354
Si Si4 0.012191 0.756925 0.890702
Si Si5 0.747002 0.362528 0.686427
Si Si6 0.299465 0.352897 0.594903
O O1 0.657747 0.246223 0.121751
O O2 0.625391 0.128469 0.198029
O O3 0.637078 0.973817 0.117998
O O4 0.412670 0.137246 0.007674
O O5 0.585918 0.162113 0.702361
O O6 0.647029 0.219635 0.840445
O O7 0.756533 0.001225 0.851257
O O8 0.785758 0.236059 0.668597
O O9 0.823311 0.993256 0.642261
O O10 0.105608 0.863017 0.906118
O O11 0.912107 0.844023 0.875397
O O12 0.125982 0.659609 0.985805
#
# Coordination Sequence:
#
# PCOD8133799 Si02
#       6
#     8   8   8   8   8   8
#     4   9  18  33  53  80 112 147 188 228 271 328
#     4  10  20  34  56  84 111 144 186 232 276 329
#     4  10  19  34  57  84 113 147 187 232 278 329
#     4  10  21  37  59  82 110 150 191 225 271 341
#     4  11  20  33  58  87 112 141 190 239 276 320
#     4  10  21  38  59  81 112 151 186 224 280 339
#
# _framework density 21.683941000000001
#
# number of rings (size 3 to 8) (size 9 to 14) (size 15 to 20)
#    0.000    2.000    0.000    6.500    0.000    2.667 
#    0.000    0.000    0.000   33.000    0.000   11.667 
#    0.000    0.000    0.000    0.000    0.000    0.000 
#
# Total GULP energy -297601.577079 kJ/mol
# GULP energy per Si atom -12400.065712 kJ/mol
# Density = 2.163459 g / cm^3
# Si number density = 21.683941 Si / 1000 Ang^3
#
#
#
# Elastic Constant Matrix: (Units=GPa)
#
#
# Indices 1 2 3 4 5 6 
#
# 1 67.7597 36.8361 14.0917 0.0000 -3.8719 0.0000
# 2 36.8361 161.1604 42.2144 0.0000 -9.0495 0.0000
# 3 14.0917 42.2144 91.4894 0.0003 -9.1552 0.0001
# 4 0.0000 0.0000 0.0003 24.2415 0.0001 -11.5488
# 5 -3.8719 -9.0495 -9.1552 0.0001 19.6174 0.0000
# 6 0.0000 0.0000 0.0001 -11.5488 0.0000 15.1275
#
#
#
# Elastic Compliance Matrix: (Units=1/GPa)
#
#
# Indices 1 2 3 4 5 6 
#
# 1 0.016954 -0.003585 -0.000826 0.000000 0.001307 0.000000
# 2 -0.003585 0.007879 -0.002927 0.000000 0.001561 0.000000
# 3 -0.000826 -0.002927 0.012857 0.000000 0.004487 0.000000
# 4 0.000000 0.000000 0.000000 0.064830 0.000000 0.049493
# 5 0.001307 0.001561 0.004487 0.000000 0.054047 0.000000
# 6 0.000000 0.000000 0.000000 0.049493 0.000000 0.103889
#
#
# Mechanical properties :
#
#
# Convention : Reuss Voigt Hill
#
# Bulk Modulus (GPa) = 43.45467 56.29932 49.87699
# Shear Modulus (GPa) = 17.68010 26.94844 22.31427
#
# Velocity S-wave (km/s) = 2.85854 3.52914 3.21139
# Velocity P-wave (km/s) = 5.56584 6.52889 6.06650
#
# Compressibility (1/GPa) = 0.02301249
#
# Stress axis : x y z
#
# Youngs Moduli (GPa) = 58.98468 126.92276 77.77840
#
# Poissons Ratio (x) = 0.45505 0.06426
# Poissons Ratio (y) = 0.21147 0.22766
# Poissons Ratio (z) = 0.04874 0.37150
#
# Static dielectric constant tensor:
#      x y z
#    x 3.676990 0.000000 -0.201780 
#    y 0.000000 3.768060 0.000000 
#    z -0.201780 0.000000 3.995260 
# 
# 
# High freq. dielectric constant tensor:
#      x y z
#    x 1.824530 0.000000 -0.014780 
#    y 0.000000 1.838950 0.000000 
#    z -0.014780 0.000000 1.859340 
# 
# From -- ./inp_files/317306.got.cif
#   From: 2010.06.25/outbox.cif.g09.slc.cpg/sg15_159_cif.got.tgz:317306.got - 2010.06.28 07:06:18.
