data_PCOD8133134
_publ_section_title
;
Structure prediction by ZEFSAII (Michael W. Deem and Ramdas Pophale) SiO2 
 PCOD8133134
Probable space group: C 2/C
;
_chemical_formula_sum "Si O2"
_cell_formula_units_Z 64
_cell_length_a 23.919039
_cell_length_b 12.241246
_cell_length_c 10.897960
_cell_angle_alpha 90.000000
_cell_angle_beta 72.400162
_cell_angle_gamma 90.000000
_cell_volume 3041.548411
_symmetry_space_group_name_H-M "C 2/C"
_symmetry_group_IT_number 15
_symmetry_cell_setting 'monoclinic'
loop_
_space_group_symop_operation_xyz
x,y,z
-x,y,1/2-z
-x,-y,-z
x,-y,1/2+z
1/2+x,1/2+y,z
1/2-x,1/2+y,1/2-z
1/2-x,1/2-y,-z
1/2+x,1/2-y,1/2+z
loop_
_atom_site_type_symbol
_atom_site_label
_atom_site_fract_x
_atom_site_fract_y
_atom_site_fract_z
Si Si1 0.933777 0.304132 0.658744
Si Si2 0.888283 0.913481 0.474728
Si Si3 0.562735 0.814157 0.565119
Si Si4 0.312630 0.141583 0.135674
Si Si5 0.770062 0.866751 0.154059
Si Si6 0.614013 0.427797 0.298448
Si Si7 0.741277 0.599568 0.426009
Si Si8 0.681521 0.901077 0.409381
O O1 0.927374 0.349286 0.800935
O O2 0.882083 0.353055 0.612347
O O3 0.930374 0.172948 0.660191
O O4 0.996900 0.343866 0.563634
O O5 0.934531 0.816377 0.449155
O O6 0.891444 0.974850 0.338368
O O7 0.824746 0.853579 0.530319
O O8 0.903044 0.989403 0.581269
O O9 0.612409 0.874882 0.452773
O O10 0.288263 0.249643 0.079475
O O11 0.273896 0.136014 0.282788
O O12 0.306123 0.028996 0.067965
O O13 0.818647 0.889925 0.227881
O O14 0.706543 0.862263 0.261755
O O15 0.768634 0.966382 0.058568
O O16 0.780259 0.653527 0.507901
#
# Coordination Sequence:
#
# PCOD8133134 Si02
#       8
#     8   8   8   8   8   8   8   8
#     4   9  19  36  53  76 103 138 184 232 268 316
#     4  10  19  33  55  85 114 143 176 230 276 334
#     4  10  20  33  55  78 101 138 188 229 267 315
#     4  10  20  34  54  74 105 141 176 224 275 323
#     4   9  19  33  50  80 109 137 172 221 276 332
#     4   9  18  33  56  82 113 144 180 222 284 327
#     4  10  19  32  52  80 111 133 175 222 272 332
#     4  11  20  32  54  80 101 142 180 218 274 330
#
# _framework density 21.041913999999998
#
# number of rings (size 3 to 8) (size 9 to 14) (size 15 to 20)
#    0.000    2.250    2.500    0.750    0.000    2.500 
#    0.000    0.000    5.500    0.000    0.000    0.000 
#    0.000    0.000    0.000    0.000    0.000    0.000 
#
# Total GULP energy -396482.700811 kJ/mol
# GULP energy per Si atom -12390.084400 kJ/mol
# Density = 2.099402 g / cm^3
# Si number density = 21.041914 Si / 1000 Ang^3
#
#
#
# Elastic Constant Matrix: (Units=GPa)
#
#
# Indices 1 2 3 4 5 6 
#
# 1 89.3439 5.5279 19.4236 0.0000 -20.2481 0.0000
# 2 5.5279 42.2469 0.0292 0.0000 -4.7280 0.0000
# 3 19.4236 0.0292 58.5569 0.0000 -1.8194 0.0000
# 4 0.0000 0.0000 0.0000 15.0604 0.0000 -2.7774
# 5 -20.2481 -4.7280 -1.8194 0.0000 31.3647 0.0000
# 6 0.0000 0.0000 0.0000 -2.7774 0.0000 21.9316
#
#
#
# Elastic Compliance Matrix: (Units=1/GPa)
#
#
# Indices 1 2 3 4 5 6 
#
# 1 0.014201 -0.000873 -0.004437 0.000000 0.008779 0.000000
# 2 -0.000873 0.024131 0.000374 0.000000 0.003096 0.000000
# 3 -0.004437 0.000374 0.018495 0.000000 -0.001735 0.000000
# 4 0.000000 0.000000 0.000000 0.067987 0.000000 0.008610
# 5 0.008779 0.003096 -0.001735 0.000000 0.037916 0.000000
# 6 0.000000 0.000000 0.000000 0.008610 0.000000 0.046687
#
#
# Mechanical properties :
#
#
# Convention : Reuss Voigt Hill
#
# Bulk Modulus (GPa) = 21.29736 26.67879 23.98808
# Shear Modulus (GPa) = 21.28195 24.68247 22.98221
#
# Velocity S-wave (km/s) = 3.18371 3.42865 3.30845
# Velocity P-wave (km/s) = 4.86396 5.32734 5.10091
#
# Compressibility (1/GPa) = 0.04695418
#
# Stress axis : x y z
#
# Youngs Moduli (GPa) = 70.41807 41.44089 54.06813
#
# Poissons Ratio (x) = 0.03616 0.23992
# Poissons Ratio (y) = 0.06145 -0.02020
# Poissons Ratio (z) = 0.31247 -0.01548
#
# Static dielectric constant tensor:
#      x y z
#    x 3.722690 0.000000 -0.167580 
#    y 0.000000 3.842500 0.000000 
#    z -0.167580 0.000000 3.488410 
# 
# 
# High freq. dielectric constant tensor:
#      x y z
#    x 1.818700 0.000000 -0.014960 
#    y 0.000000 1.816280 0.000000 
#    z -0.014960 0.000000 1.799700 
# 
# From -- ./inp_files/117977.got.cif
#   From: 2010.06.25/outbox.cif.g09.slc.cpg/sg15_59_cif.got.tgz:117977.got - 2010.06.28 07:06:18.
