data_PCOD8133480
_publ_section_title
;
Structure prediction by ZEFSAII (Michael W. Deem and Ramdas Pophale) SiO2 
 PCOD8133480
Probable space group: C 2/C
;
_chemical_formula_sum "Si O2"
_cell_formula_units_Z 60
_cell_length_a 21.917055
_cell_length_b 6.262535
_cell_length_c 27.357367
_cell_angle_alpha 90.000000
_cell_angle_beta 122.484225
_cell_angle_gamma 90.000000
_cell_volume 3167.466314
_symmetry_space_group_name_H-M "C 2/C"
_symmetry_group_IT_number 15
_symmetry_cell_setting 'monoclinic'
loop_
_space_group_symop_operation_xyz
x,y,z
-x,y,1/2-z
-x,-y,-z
x,-y,1/2+z
1/2+x,1/2+y,z
1/2-x,1/2+y,1/2-z
1/2-x,1/2-y,-z
1/2+x,1/2-y,1/2+z
loop_
_atom_site_type_symbol
_atom_site_label
_atom_site_fract_x
_atom_site_fract_y
_atom_site_fract_z
Si Si1 0.027267 0.363976 0.125929
Si Si2 0.000000 0.695570 0.250000
Si Si3 0.252409 0.672491 0.326048
Si Si4 0.998403 0.688276 0.037484
Si Si5 0.632205 0.480405 0.292189
Si Si6 0.829226 0.675916 0.764646
Si Si7 0.449182 0.786848 0.184989
Si Si8 0.594004 0.427600 0.570982
O O1 0.097564 0.442613 0.186479
O O2 0.990355 0.576949 0.087111
O O3 0.972639 0.240549 0.139284
O O4 0.051331 0.197670 0.095003
O O5 0.061012 0.838411 0.250574
O O6 0.046584 0.545257 0.307617
O O7 0.201074 0.831207 0.334772
O O8 0.208210 0.461060 0.293595
O O9 0.275777 0.792316 0.286788
O O10 0.320312 0.604007 0.388327
O O11 0.073403 0.822916 0.067315
O O12 0.000000 0.500000 0.000000
O O13 0.931686 0.843317 0.993689
O O14 0.647784 0.597512 0.247774
O O15 0.624031 0.654581 0.333529
O O16 0.500000 0.688454 0.250000
#
# Coordination Sequence:
#
# PCOD8133480 Si02
#       8
#     8   4   8   8   8   8   8   8
#     4  10  19  33  56  84 112 150 193 248 289 342
#     4  10  20  36  54  72 112 162 196 238 270 340
#     4  11  23  32  54  80 122 156 186 234 296 362
#     4   9  19  37  60  80 112 147 200 254 295 334
#     4  12  20  36  51  75 120 156 192 237 283 352
#     4  11  21  33  48  84 116 157 191 225 294 363
#     4  10  20  34  51  81 115 151 199 233 284 346
#     4   9  21  37  55  88 111 150 196 242 303 350
#
# _framework density 18.942584
#
# number of rings (size 3 to 8) (size 9 to 14) (size 15 to 20)
#    0.400    1.333    3.333    1.600    1.867    4.267 
#    0.000    0.000    0.000    0.800    0.000   12.133 
#    0.000    0.000    0.000    0.000    0.000    0.000 
#
# Total GULP energy -371656.244726 kJ/mol
# GULP energy per Si atom -12388.541491 kJ/mol
# Density = 1.889947 g / cm^3
# Si number density = 18.942584 Si / 1000 Ang^3
#
#
#
# Elastic Constant Matrix: (Units=GPa)
#
#
# Indices 1 2 3 4 5 6 
#
# 1 109.9709 52.6983 39.9953 0.0001 8.0543 0.0004
# 2 52.6983 105.6770 41.9141 -0.0005 12.0883 0.0022
# 3 39.9953 41.9141 89.4017 0.0000 18.0949 0.0005
# 4 0.0001 -0.0005 0.0000 22.8515 0.0003 3.9398
# 5 8.0543 12.0883 18.0949 0.0003 16.9163 -0.0002
# 6 0.0004 0.0022 0.0005 3.9398 -0.0002 33.6872
#
#
#
# Elastic Compliance Matrix: (Units=1/GPa)
#
#
# Indices 1 2 3 4 5 6 
#
# 1 0.012736 -0.005085 -0.003601 0.000000 0.001422 0.000000
# 2 -0.005085 0.013789 -0.003427 0.000001 -0.003766 -0.000001
# 3 -0.003601 -0.003427 0.017308 0.000000 -0.014350 0.000000
# 4 0.000000 0.000001 0.000000 0.044661 -0.000001 -0.005223
# 5 0.001422 -0.003766 -0.014350 -0.000001 0.076478 0.000001
# 6 0.000000 -0.000001 0.000000 -0.005223 0.000001 0.030296
#
#
# Mechanical properties :
#
#
# Convention : Reuss Voigt Hill
#
# Bulk Modulus (GPa) = 51.00865 63.80722 57.40793
# Shear Modulus (GPa) = 22.12087 26.05378 24.08733
#
# Velocity S-wave (km/s) = 3.42099 3.71267 3.56981
# Velocity P-wave (km/s) = 6.52616 7.22054 6.88211
#
# Compressibility (1/GPa) = 0.01960452
#
# Stress axis : x y z
#
# Youngs Moduli (GPa) = 78.51876 72.52210 57.77740
#
# Poissons Ratio (x) = 0.36880 0.20807
# Poissons Ratio (y) = 0.39930 0.19802
# Poissons Ratio (z) = 0.28277 0.24856
#
# Static dielectric constant tensor:
#      x y z
#    x 3.454830 0.000000 0.018670 
#    y 0.000000 3.685970 0.000000 
#    z 0.018670 0.000000 3.513040 
# 
# 
# High freq. dielectric constant tensor:
#      x y z
#    x 1.717860 0.000000 0.000560 
#    y 0.000000 1.752690 0.000000 
#    z 0.000560 0.000000 1.699420 
# 
# From -- ./inp_files/300120.got.cif
#   From: 2010.06.25/outbox.cif.g09.slc.cpg/sg15_151_cif.got.tgz:300120.got - 2010.06.28 07:06:18.
