data_PCOD8133217
_publ_section_title
;
Structure prediction by ZEFSAII (Michael W. Deem and Ramdas Pophale) SiO2 
 PCOD8133217
Probable space group: C 2/C
;
_chemical_formula_sum "Si O2"
_cell_formula_units_Z 56
_cell_length_a 12.426532
_cell_length_b 7.895937
_cell_length_c 36.252736
_cell_angle_alpha 90.000000
_cell_angle_beta 133.051678
_cell_angle_gamma 90.000000
_cell_volume 2599.299128
_symmetry_space_group_name_H-M "C 2/C"
_symmetry_group_IT_number 15
_symmetry_cell_setting 'monoclinic'
loop_
_space_group_symop_operation_xyz
x,y,z
-x,y,1/2-z
-x,-y,-z
x,-y,1/2+z
1/2+x,1/2+y,z
1/2-x,1/2+y,1/2-z
1/2-x,1/2-y,-z
1/2+x,1/2-y,1/2+z
loop_
_atom_site_type_symbol
_atom_site_label
_atom_site_fract_x
_atom_site_fract_y
_atom_site_fract_z
Si Si1 0.273906 0.147743 0.794754
Si Si2 0.342792 0.698210 0.198004
Si Si3 0.923588 0.499493 0.132306
Si Si4 0.805400 0.804313 0.878208
Si Si5 0.334473 0.472523 0.622126
Si Si6 0.103840 0.176742 0.683331
Si Si7 0.863310 0.765077 0.559291
O O1 0.444775 0.122549 0.821252
O O2 0.259265 0.278168 0.825041
O O3 0.175205 0.227365 0.739357
O O4 0.207552 0.969151 0.791853
O O5 0.500000 0.751673 0.250000
O O6 0.320638 0.676538 0.149078
O O7 0.232840 0.850591 0.183701
O O8 0.783567 0.531638 0.126775
O O9 0.875459 0.418328 0.081994
O O10 0.993305 0.682294 0.141603
O O11 0.765906 0.634660 0.892410
O O12 0.981446 0.829548 0.921378
O O13 0.509952 0.507470 0.665009
O O14 0.296582 0.399344 0.573065
O O15 0.750000 0.750000 0.500000
#
# Coordination Sequence:
#
# PCOD8133217 Si02
#       7
#     8   8   8   8   8   8   8
#     4   9  18  34  59  87 129 164 193 233 290 359
#     4  10  19  32  56  87 122 160 193 233 284 347
#     4   9  21  38  59  88 122 156 203 251 294 362
#     4   9  21  41  62  89 123 161 199 251 304 363
#     4  10  22  41  61  85 124 160 199 248 300 358
#     4  10  20  37  60  90 127 166 201 238 289 364
#     4  11  25  44  65  88 116 156 209 269 318 359
#
# _framework density 21.544267000000001
#
# number of rings (size 3 to 8) (size 9 to 14) (size 15 to 20)
#    0.000    2.286    1.429    0.857    4.000    2.286 
#    0.000    4.286    0.000    0.000    0.000    0.000 
#    0.000    0.000    0.000    0.000    0.000    0.000 
#
# Total GULP energy -347004.615567 kJ/mol
# GULP energy per Si atom -12393.021985 kJ/mol
# Density = 2.149523 g / cm^3
# Si number density = 21.544267 Si / 1000 Ang^3
#
#
#
# Elastic Constant Matrix: (Units=GPa)
#
#
# Indices 1 2 3 4 5 6 
#
# 1 141.3029 34.5424 44.9343 0.0000 -7.2983 0.0000
# 2 34.5424 50.5117 29.9959 0.0000 -9.0749 0.0000
# 3 44.9343 29.9959 142.2012 0.0000 -9.6978 0.0000
# 4 0.0000 0.0000 0.0000 25.1088 0.0000 -8.5760
# 5 -7.2983 -9.0749 -9.6978 0.0000 23.5882 0.0000
# 6 0.0000 0.0000 0.0000 -8.5760 0.0000 37.8264
#
#
#
# Elastic Compliance Matrix: (Units=1/GPa)
#
#
# Indices 1 2 3 4 5 6 
#
# 1 0.008859 -0.005009 -0.001736 0.000000 0.000100 0.000000
# 2 -0.005009 0.026626 -0.003540 0.000000 0.007238 0.000000
# 3 -0.001736 -0.003540 0.008434 0.000000 0.001569 0.000000
# 4 0.000000 0.000000 0.000000 0.043169 0.000000 0.009787
# 5 0.000100 0.007238 0.001569 0.000000 0.045855 0.000000
# 6 0.000000 0.000000 0.000000 0.009787 0.000000 0.028656
#
#
# Mechanical properties :
#
#
# Convention : Reuss Voigt Hill
#
# Bulk Modulus (GPa) = 42.82865 61.44011 52.13438
# Shear Modulus (GPa) = 26.32256 32.27425 29.29840
#
# Velocity S-wave (km/s) = 3.49920 3.87466 3.69171
# Velocity P-wave (km/s) = 6.02067 6.97117 6.51328
#
# Compressibility (1/GPa) = 0.02334886
#
# Stress axis : x y z
#
# Youngs Moduli (GPa) = 112.88353 37.55793 118.56104
#
# Poissons Ratio (x) = 0.18814 0.20580
# Poissons Ratio (y) = 0.56546 0.41969
# Poissons Ratio (z) = 0.19594 0.13295
#
# Static dielectric constant tensor:
#      x y z
#    x 4.534680 0.000000 -0.036330 
#    y 0.000000 3.866370 0.000000 
#    z -0.036330 0.000000 3.423070 
# 
# 
# High freq. dielectric constant tensor:
#      x y z
#    x 1.870950 0.000000 -0.007540 
#    y 0.000000 1.842920 0.000000 
#    z -0.007540 0.000000 1.802970 
# 
# From -- ./inp_files/291534.got.cif
#   From: 2010.06.25/outbox.cif.g09.slc.cpg/sg15_146_cif.got.tgz:291534.got - 2010.06.28 07:06:18.
