data_PCOD8133924
_publ_section_title
;
Structure prediction by ZEFSAII (Michael W. Deem and Ramdas Pophale) SiO2 
 PCOD8133924
Probable space group: C 2/C
;
_chemical_formula_sum "Si O2"
_cell_formula_units_Z 52
_cell_length_a 16.436278
_cell_length_b 21.616173
_cell_length_c 12.582643
_cell_angle_alpha 90.000000
_cell_angle_beta 34.508637
_cell_angle_gamma 90.000000
_cell_volume 2532.663127
_symmetry_space_group_name_H-M "C 2/C"
_symmetry_group_IT_number 15
_symmetry_cell_setting 'monoclinic'
loop_
_space_group_symop_operation_xyz
x,y,z
-x,y,1/2-z
-x,-y,-z
x,-y,1/2+z
1/2+x,1/2+y,z
1/2-x,1/2+y,1/2-z
1/2-x,1/2-y,-z
1/2+x,1/2-y,1/2+z
loop_
_atom_site_type_symbol
_atom_site_label
_atom_site_fract_x
_atom_site_fract_y
_atom_site_fract_z
Si Si1 0.169617 0.786754 0.850113
Si Si2 0.715519 0.028812 0.154686
Si Si3 0.241657 0.591653 0.350067
Si Si4 0.500000 0.958582 0.250000
Si Si5 0.835284 0.851775 0.429794
Si Si6 0.649513 0.676147 0.821061
Si Si7 0.047522 0.948250 0.531152
O O1 0.257229 0.837982 0.690218
O O2 0.232133 0.719653 0.749170
O O3 0.191849 0.799731 0.951844
O O4 0.001671 0.788727 0.004967
O O5 0.706972 0.046064 0.288461
O O6 0.567645 0.999883 0.271400
O O7 0.741454 0.088155 0.054432
O O8 0.847447 0.980031 0.996019
O O9 0.396797 0.577729 0.238430
O O10 0.121220 0.584795 0.568790
O O11 0.792644 0.826226 0.361441
O O12 0.000000 0.873558 0.250000
O O13 0.639323 0.607322 0.878635
O O14 0.000000 0.000000 0.500000
#
# Coordination Sequence:
#
# PCOD8133924 Si02
#       7
#     8   8   8   4   8   8   8
#     4   9  19  36  54  81 118 144 193 241 284 348
#     4  10  22  36  56  85 121 148 198 248 290 353
#     4   9  21  40  55  82 116 156 196 245 292 340
#     4  12  24  34  58  84 120 158 188 248 308 348
#     4   9  18  33  55  84 115 153 190 235 287 354
#     4  10  19  34  60  86 111 159 187 234 298 346
#     4   9  19  37  61  83 113 154 203 244 280 348
#
# _framework density 20.531748
#
# number of rings (size 3 to 8) (size 9 to 14) (size 15 to 20)
#    0.000    2.462    0.000    3.692    6.462    1.231 
#    5.538    0.000    0.000    8.308    0.000    0.000 
#    0.000    0.000    0.000    0.000    0.000    0.000 
#
# Total GULP energy -322253.619584 kJ/mol
# GULP energy per Si atom -12394.369984 kJ/mol
# Density = 2.048502 g / cm^3
# Si number density = 20.531748 Si / 1000 Ang^3
#
#
#
# Elastic Constant Matrix: (Units=GPa)
#
#
# Indices 1 2 3 4 5 6 
#
# 1 43.4137 10.3721 10.2578 -0.0204 -14.0777 0.0103
# 2 10.3721 97.3557 34.6733 -0.0305 -7.7700 0.0181
# 3 10.2578 34.6733 97.0827 -0.0436 6.0884 0.0287
# 4 -0.0204 -0.0305 -0.0436 33.7451 0.0132 -11.5444
# 5 -14.0777 -7.7700 6.0884 0.0132 25.1308 -0.0075
# 6 0.0103 0.0181 0.0287 -11.5444 -0.0075 17.5875
#
#
#
# Elastic Compliance Matrix: (Units=1/GPa)
#
#
# Indices 1 2 3 4 5 6 
#
# 1 0.029792 -0.000292 -0.004148 0.000006 0.017603 0.000001
# 2 -0.000292 0.012352 -0.004681 0.000003 0.004790 -0.000001
# 3 -0.004148 -0.004681 0.012842 0.000009 -0.006882 -0.000011
# 4 0.000006 0.000003 0.000009 0.038216 -0.000011 0.025085
# 5 0.017603 0.004790 -0.006882 -0.000011 0.052801 0.000012
# 6 0.000001 -0.000001 -0.000011 0.025085 0.000012 0.073324
#
#
# Mechanical properties :
#
#
# Convention : Reuss Voigt Hill
#
# Bulk Modulus (GPa) = 27.21435 38.71762 32.96599
# Shear Modulus (GPa) = 20.01467 27.46260 23.73863
#
# Velocity S-wave (km/s) = 3.12559 3.66124 3.40397
# Velocity P-wave (km/s) = 5.12926 6.06394 5.61608
#
# Compressibility (1/GPa) = 0.03674532
#
# Stress axis : x y z
#
# Youngs Moduli (GPa) = 33.56582 80.95745 77.86817
#
# Poissons Ratio (x) = 0.02363 0.32297
# Poissons Ratio (y) = 0.00980 0.36451
# Poissons Ratio (z) = 0.13922 0.37897
#
# Static dielectric constant tensor:
#      x y z
#    x 3.639270 -0.000020 -0.117650 
#    y -0.000020 3.612410 0.000030 
#    z -0.117650 0.000030 3.653640 
# 
# 
# High freq. dielectric constant tensor:
#      x y z
#    x 1.777220 0.000000 -0.007620 
#    y 0.000000 1.800080 0.000000 
#    z -0.007620 0.000000 1.797590 
# 
# From -- ./inp_files/163621.got.cif
#   From: 2010.06.25/outbox.cif.g09.slc.cpg/sg15_82_cif.got.tgz:163621.got - 2010.06.28 07:06:18.
