data_PCOD8133143
_publ_section_title
;
Structure prediction by ZEFSAII (Michael W. Deem and Ramdas Pophale) SiO2 
 PCOD8133143
Probable space group: C 2/C
;
_chemical_formula_sum "Si O2"
_cell_formula_units_Z 56
_cell_length_a 18.284180
_cell_length_b 28.535013
_cell_length_c 10.083127
_cell_angle_alpha 90.000000
_cell_angle_beta 144.842023
_cell_angle_gamma 90.000000
_cell_volume 3029.320511
_symmetry_space_group_name_H-M "C 2/C"
_symmetry_group_IT_number 15
_symmetry_cell_setting 'monoclinic'
loop_
_space_group_symop_operation_xyz
x,y,z
-x,y,1/2-z
-x,-y,-z
x,-y,1/2+z
1/2+x,1/2+y,z
1/2-x,1/2+y,1/2-z
1/2-x,1/2-y,-z
1/2+x,1/2-y,1/2+z
loop_
_atom_site_type_symbol
_atom_site_label
_atom_site_fract_x
_atom_site_fract_y
_atom_site_fract_z
Si Si1 0.144712 0.309154 0.467684
Si Si2 0.848472 0.536591 0.169850
Si Si3 0.878401 0.795096 0.146552
Si Si4 0.232445 0.225947 0.765466
Si Si5 0.637337 0.854030 0.180000
Si Si6 0.148275 0.459065 0.124581
Si Si7 0.342037 0.861285 0.753423
O O1 0.211980 0.260132 0.608362
O O2 0.184525 0.331910 0.388353
O O3 0.173465 0.350557 0.614182
O O4 0.000000 0.294741 0.250000
O O5 0.792511 0.495580 0.181313
O O6 0.806827 0.585229 0.173956
O O7 0.999243 0.532804 0.390841
O O8 0.794113 0.533292 0.938359
O O9 0.893695 0.780404 0.325919
O O10 0.000000 0.817504 0.250000
O O11 0.845562 0.748329 0.018444
O O12 0.758975 0.830198 0.974648
O O13 0.281605 0.174622 0.804832
O O14 0.679532 0.907811 0.228397
O O15 0.487078 0.849181 0.927296
#
# Coordination Sequence:
#
# PCOD8133143 Si02
#       7
#     8   8   8   8   8   8   8
#     4   9  19  32  49  73 102 140 170 204 254 303
#     4   9  17  30  47  72 105 131 168 203 256 317
#     4  10  22  34  51  73  99 133 179 215 257 299
#     4  10  21  33  51  73 101 136 170 217 253 303
#     4  10  19  32  53  75 107 134 172 207 263 314
#     4   9  18  28  47  75 102 137 160 207 259 308
#     4   9  19  34  51  75 103 136 171 212 257 307
#
# _framework density 18.485993000000001
#
# number of rings (size 3 to 8) (size 9 to 14) (size 15 to 20)
#    0.000    2.571    0.000    1.286   10.000    1.143 
#    0.000    0.000    0.000    0.000    0.000    5.000 
#    0.000    0.000    0.000    0.000    0.000    0.000 
#
# Total GULP energy -346873.932484 kJ/mol
# GULP energy per Si atom -12388.354732 kJ/mol
# Density = 1.844392 g / cm^3
# Si number density = 18.485993 Si / 1000 Ang^3
#
#
#
# Elastic Constant Matrix: (Units=GPa)
#
#
# Indices 1 2 3 4 5 6 
#
# 1 86.9305 60.9291 38.7363 0.0000 -19.2426 0.0000
# 2 60.9291 144.4891 39.6097 0.0000 -18.3575 0.0000
# 3 38.7363 39.6097 53.5057 0.0000 -19.3269 0.0000
# 4 0.0000 0.0000 0.0000 21.6893 0.0000 -6.2111
# 5 -19.2426 -18.3575 -19.3269 0.0000 20.5492 0.0000
# 6 0.0000 0.0000 0.0000 -6.2111 0.0000 28.8166
#
#
#
# Elastic Compliance Matrix: (Units=1/GPa)
#
#
# Indices 1 2 3 4 5 6 
#
# 1 0.020580 -0.005542 -0.008517 0.000000 0.006310 0.000000
# 2 -0.005542 0.010267 -0.003257 0.000000 0.000920 0.000000
# 3 -0.008517 -0.003257 0.035341 0.000000 0.022354 0.000000
# 4 0.000000 0.000000 0.000000 0.049139 0.000000 0.010591
# 5 0.006310 0.000920 0.022354 0.000000 0.076419 0.000000
# 6 0.000000 0.000000 0.000000 0.010591 0.000000 0.036985
#
#
# Mechanical properties :
#
#
# Convention : Reuss Voigt Hill
#
# Bulk Modulus (GPa) = 31.68843 62.60838 47.14841
# Shear Modulus (GPa) = 18.25613 23.92104 21.08859
#
# Velocity S-wave (km/s) = 3.14597 3.60114 3.38122
# Velocity P-wave (km/s) = 5.51137 7.15768 6.38779
#
# Compressibility (1/GPa) = 0.03155726
#
# Stress axis : x y z
#
# Youngs Moduli (GPa) = 48.59201 97.39578 28.29553
#
# Poissons Ratio (x) = 0.53972 0.24100
# Poissons Ratio (y) = 0.26927 0.09215
# Poissons Ratio (z) = 0.41388 0.31718
#
# Static dielectric constant tensor:
#      x y z
#    x 3.447670 0.000000 -0.490380 
#    y 0.000000 3.456550 0.000000 
#    z -0.490380 0.000000 3.533740 
# 
# 
# High freq. dielectric constant tensor:
#      x y z
#    x 1.705770 0.000000 -0.041610 
#    y 0.000000 1.718760 0.000000 
#    z -0.041610 0.000000 1.682930 
# 
# From -- ./inp_files/52670.got.cif
#   From: 2010.06.25/outbox.cif.g09.slc.cpg/sg15_27_cif.got.tgz:52670.got - 2010.06.28 07:06:18.
