data_PCOD8133513
_publ_section_title
;
Structure prediction by ZEFSAII (Michael W. Deem and Ramdas Pophale) SiO2 
 PCOD8133513
Probable space group: C 2/C
;
_chemical_formula_sum "Si O2"
_cell_formula_units_Z 56
_cell_length_a 23.843536
_cell_length_b 13.431982
_cell_length_c 16.331259
_cell_angle_alpha 90.000000
_cell_angle_beta 34.229808
_cell_angle_gamma 90.000000
_cell_volume 2942.140765
_symmetry_space_group_name_H-M "C 2/C"
_symmetry_group_IT_number 15
_symmetry_cell_setting 'monoclinic'
loop_
_space_group_symop_operation_xyz
x,y,z
-x,y,1/2-z
-x,-y,-z
x,-y,1/2+z
1/2+x,1/2+y,z
1/2-x,1/2+y,1/2-z
1/2-x,1/2-y,-z
1/2+x,1/2-y,1/2+z
loop_
_atom_site_type_symbol
_atom_site_label
_atom_site_fract_x
_atom_site_fract_y
_atom_site_fract_z
Si Si1 0.506774 0.162145 0.992632
Si Si2 0.666334 0.610079 0.094726
Si Si3 0.506126 0.631739 0.918229
Si Si4 0.500000 0.955082 0.250000
Si Si5 0.613453 0.009126 0.461780
Si Si6 0.000000 0.960839 0.250000
Si Si7 0.160991 0.971707 0.781638
Si Si8 0.371664 0.181554 0.801014
O O1 0.593661 0.210623 0.831643
O O2 0.557825 0.080185 0.985982
O O3 0.467846 0.252301 0.097042
O O4 0.418639 0.113335 0.043777
O O5 0.595709 0.533786 0.131816
O O6 0.682328 0.579320 0.169016
O O7 0.625309 0.722754 0.143828
O O8 0.769480 0.618805 0.921637
O O9 0.500477 0.610005 0.828148
O O10 0.596745 0.571686 0.849532
O O11 0.400186 0.602138 0.085570
O O12 0.414611 0.009198 0.407294
O O13 0.546945 0.893379 0.265693
O O14 0.732563 0.001703 0.307375
#
# Coordination Sequence:
#
# PCOD8133513 Si02
#       8
#     8   8   8   4   8   4   8   8
#     4  10  22  39  57  86 119 155 198 242 299 353
#     4  10  19  35  55  89 114 149 196 243 292 352
#     4  10  22  40  58  86 121 156 198 243 292 361
#     4  10  19  35  56  80 114 148 192 248 290 342
#     4  10  22  38  60  86 114 158 199 245 299 351
#     4  10  23  37  60  84 122 162 200 242 296 348
#     4  10  20  39  60  85 119 156 190 244 299 353
#     4  10  19  33  57  85 116 148 190 250 296 349
#
# _framework density 19.033760999999998
#
# number of rings (size 3 to 8) (size 9 to 14) (size 15 to 20)
#    0.000    2.000    2.857    0.429    2.000    1.714 
#    0.000    0.000    0.000    3.429    0.000    0.000 
#    0.000    0.000    0.000    0.000    0.000    0.000 
#
# Total GULP energy -346964.480876 kJ/mol
# GULP energy per Si atom -12391.588603 kJ/mol
# Density = 1.899044 g / cm^3
# Si number density = 19.033761 Si / 1000 Ang^3
#
#
#
# Elastic Constant Matrix: (Units=GPa)
#
#
# Indices 1 2 3 4 5 6 
#
# 1 83.9618 37.8210 43.7995 0.0000 -2.1881 0.0000
# 2 37.8210 87.3385 36.6971 0.0000 -3.6202 0.0000
# 3 43.7995 36.6971 94.9537 0.0000 -9.9607 0.0000
# 4 0.0000 0.0000 0.0000 26.1992 0.0000 5.9027
# 5 -2.1881 -3.6202 -9.9607 0.0000 26.4849 0.0000
# 6 0.0000 0.0000 0.0000 5.9027 0.0000 20.1512
#
#
#
# Elastic Compliance Matrix: (Units=1/GPa)
#
#
# Indices 1 2 3 4 5 6 
#
# 1 0.017368 -0.004956 -0.006264 0.000000 -0.001598 0.000000
# 2 -0.004956 0.015084 -0.003509 0.000000 0.000333 0.000000
# 3 -0.006264 -0.003509 0.015275 0.000000 0.004748 0.000000
# 4 0.000000 0.000000 0.000000 0.040866 0.000000 -0.011970
# 5 -0.001598 0.000333 0.004748 0.000000 0.039456 0.000000
# 6 0.000000 0.000000 0.000000 -0.011970 0.000000 0.053131
#
#
# Mechanical properties :
#
#
# Convention : Reuss Voigt Hill
#
# Bulk Modulus (GPa) = 54.73294 55.87658 55.30476
# Shear Modulus (GPa) = 23.07047 24.42950 23.74998
#
# Velocity S-wave (km/s) = 3.48527 3.58646 3.53623
# Velocity P-wave (km/s) = 6.70927 6.82426 6.76701
#
# Compressibility (1/GPa) = 0.01827053
#
# Stress axis : x y z
#
# Youngs Moduli (GPa) = 57.57557 66.29679 65.46666
#
# Poissons Ratio (x) = 0.32853 0.41009
# Poissons Ratio (y) = 0.28532 0.22970
# Poissons Ratio (z) = 0.36066 0.23262
#
# Static dielectric constant tensor:
#      x y z
#    x 3.094250 0.000000 1.065930 
#    y 0.000000 3.344950 0.000000 
#    z 1.065930 0.000000 -0.588840 
# 
# 
# High freq. dielectric constant tensor:
#      x y z
#    x 1.734020 0.000000 0.000810 
#    y 0.000000 1.728010 0.000000 
#    z 0.000810 0.000000 1.749200 
# 
# From -- ./inp_files/168465.got.cif
#   From: 2010.06.25/outbox.cif.g09.slc.cpg/sg15_85_cif.got.tgz:168465.got - 2010.06.28 07:06:18.
