data_PCOD8133411
_publ_section_title
;
Structure prediction by ZEFSAII (Michael W. Deem and Ramdas Pophale) SiO2 
 PCOD8133411
Probable space group: C 2/C
;
_chemical_formula_sum "Si O2"
_cell_formula_units_Z 32
_cell_length_a 8.042478
_cell_length_b 35.875499
_cell_length_c 5.145674
_cell_angle_alpha 90.000000
_cell_angle_beta 99.071959
_cell_angle_gamma 90.000000
_cell_volume 1466.098965
_symmetry_space_group_name_H-M "C 2/C"
_symmetry_group_IT_number 15
_symmetry_cell_setting 'monoclinic'
loop_
_space_group_symop_operation_xyz
x,y,z
-x,y,1/2-z
-x,-y,-z
x,-y,1/2+z
1/2+x,1/2+y,z
1/2-x,1/2+y,1/2-z
1/2-x,1/2-y,-z
1/2+x,1/2-y,1/2+z
loop_
_atom_site_type_symbol
_atom_site_label
_atom_site_fract_x
_atom_site_fract_y
_atom_site_fract_z
Si Si1 0.802777 0.476812 0.194405
Si Si2 0.192462 0.894964 0.248331
Si Si3 0.109378 0.220482 0.035504
Si Si4 0.308519 0.359416 0.754914
O O1 0.748007 0.503382 0.415940
O O2 0.703699 0.438333 0.186926
O O3 0.000000 0.467982 0.250000
O O4 0.281917 0.884264 0.543514
O O5 0.000000 0.882849 0.250000
O O6 0.279031 0.869710 0.042179
O O7 0.202559 0.183684 0.166122
O O8 0.000000 0.236429 0.250000
O O9 0.250000 0.250000 0.000000
O O10 0.000000 0.211448 0.750000
O O11 0.500000 0.372261 0.750000
#
# Coordination Sequence:
#
# PCOD8133411 Si02
#       4
#     8   8   8   8
#     4  10  21  36  52  73 106 143 174 215 279 339
#     4  10  19  33  55  79 101 135 183 227 268 323
#     4  11  22  39  62  88 121 159 198 240 293 352
#     4   9  18  34  55  78 108 144 179 224 282 332
#
# _framework density 21.826629000000001
#
# number of rings (size 3 to 8) (size 9 to 14) (size 15 to 20)
#    0.000    2.000    0.000    6.000    0.000    1.000 
#    0.000    3.750    0.000    0.000    0.000    0.000 
#    0.000    0.000    0.000    0.000    0.000    0.000 
#
# Total GULP energy -198301.067423 kJ/mol
# GULP energy per Si atom -12393.816714 kJ/mol
# Density = 2.177695 g / cm^3
# Si number density = 21.826629 Si / 1000 Ang^3
#
#
#
# Elastic Constant Matrix: (Units=GPa)
#
#
# Indices 1 2 3 4 5 6 
#
# 1 23.9293 34.1647 34.4061 0.0000 -14.8327 0.0000
# 2 34.1647 144.6643 72.3403 0.0000 -28.3458 0.0000
# 3 34.4061 72.3403 190.6051 0.0000 -41.5602 0.0000
# 4 0.0000 0.0000 0.0000 45.0887 0.0000 -14.8595
# 5 -14.8327 -28.3458 -41.5602 0.0000 23.5152 0.0000
# 6 0.0000 0.0000 0.0000 -14.8595 0.0000 23.0797
#
#
#
# Elastic Compliance Matrix: (Units=1/GPa)
#
#
# Indices 1 2 3 4 5 6 
#
# 1 0.083620 -0.011590 -0.003646 0.000000 0.032330 0.000000
# 2 -0.011590 0.011016 -0.001281 0.000000 0.003704 0.000000
# 3 -0.003646 -0.001281 0.009034 0.000000 0.012122 0.000000
# 4 0.000000 0.000000 0.000000 0.028152 0.000000 0.018125
# 5 0.032330 0.003704 0.012122 0.000000 0.088808 0.000000
# 6 0.000000 0.000000 0.000000 0.018125 0.000000 0.054998
#
#
# Mechanical properties :
#
#
# Convention : Reuss Voigt Hill
#
# Bulk Modulus (GPa) = 14.15717 71.22455 42.69086
# Shear Modulus (GPa) = 15.05082 32.88923 23.97003
#
# Velocity S-wave (km/s) = 2.62880 3.88601 3.31751
# Velocity P-wave (km/s) = 3.96414 7.26895 5.85457
#
# Compressibility (1/GPa) = 0.07063559
#
# Stress axis : x y z
#
# Youngs Moduli (GPa) = 11.95887 90.77556 110.69232
#
# Poissons Ratio (x) = 1.05209 0.40359
# Poissons Ratio (y) = 0.13860 0.14182
# Poissons Ratio (z) = 0.04360 0.11630
#
# Static dielectric constant tensor:
#      x y z
#    x 3.421180 0.000000 -0.185830 
#    y 0.000000 3.662810 0.000000 
#    z -0.185830 0.000000 5.077520 
# 
# 
# High freq. dielectric constant tensor:
#      x y z
#    x 1.804160 0.000000 -0.023960 
#    y 0.000000 1.857850 0.000000 
#    z -0.023960 0.000000 1.896300 
# 
# From -- ./inp_files/2360.got.cif
#   From: 2010.06.25/outbox.cif.g09.slc.cpg/sg15_2_cif.got.tgz:2360.got - 2010.06.28 07:06:18.
