data_PCOD8133728
_publ_section_title
;
Structure prediction by ZEFSAII (Michael W. Deem and Ramdas Pophale) SiO2 
 PCOD8133728
Probable space group: C 2/C
;
_chemical_formula_sum "Si O2"
_cell_formula_units_Z 56
_cell_length_a 14.268482
_cell_length_b 18.983994
_cell_length_c 15.221381
_cell_angle_alpha 90.000000
_cell_angle_beta 37.367176
_cell_angle_gamma 90.000000
_cell_volume 2502.368800
_symmetry_space_group_name_H-M "C 2/C"
_symmetry_group_IT_number 15
_symmetry_cell_setting 'monoclinic'
loop_
_space_group_symop_operation_xyz
x,y,z
-x,y,1/2-z
-x,-y,-z
x,-y,1/2+z
1/2+x,1/2+y,z
1/2-x,1/2+y,1/2-z
1/2-x,1/2-y,-z
1/2+x,1/2-y,1/2+z
loop_
_atom_site_type_symbol
_atom_site_label
_atom_site_fract_x
_atom_site_fract_y
_atom_site_fract_z
Si Si1 0.118160 0.027488 0.586811
Si Si2 0.661987 0.032765 0.798806
Si Si3 0.704308 0.675110 0.257487
Si Si4 0.153279 0.393136 0.691132
Si Si5 0.902068 0.903243 0.012448
Si Si6 0.666210 0.942415 0.958929
Si Si7 0.321742 0.789487 0.365079
O O1 0.197438 0.096725 0.484505
O O2 0.000000 0.052405 0.750000
O O3 0.031912 0.974884 0.582333
O O4 0.251663 0.973310 0.517168
O O5 0.823876 0.073476 0.663015
O O6 0.639243 0.966254 0.752079
O O7 0.662676 0.010631 0.898721
O O8 0.511425 0.081956 0.891828
O O9 0.820025 0.668590 0.255248
O O10 0.538246 0.653280 0.421768
O O11 0.740724 0.622184 0.150963
O O12 0.704510 0.751543 0.211153
O O13 0.000000 0.374197 0.750000
O O14 0.759712 0.865181 0.069388
O O15 0.500000 0.799780 0.250000
O O16 0.250000 0.750000 0.500000
#
# Coordination Sequence:
#
# PCOD8133728 Si02
#       7
#     8   8   8   8   8   8   8
#     4  11  21  33  59  90 128 158 195 241 304 370
#     4   9  21  34  55  88 122 161 197 240 299 367
#     4  11  24  40  59  86 126 164 204 256 304 364
#     4  10  21  39  60  89 122 160 202 248 307 367
#     4  11  24  37  58  85 124 159 198 245 308 362
#     4  10  19  34  55  86 125 156 199 241 297 362
#     4  12  26  43  62  89 120 159 204 250 308 364
#
# _framework density 22.378795
#
# number of rings (size 3 to 8) (size 9 to 14) (size 15 to 20)
#    0.000    1.429    4.286    0.857    6.000    1.714 
#    0.000    0.000    0.000    0.857    0.000    0.000 
#    0.000    0.000    0.000    0.000    0.000    0.000 
#
# Total GULP energy -346943.092577 kJ/mol
# GULP energy per Si atom -12390.824735 kJ/mol
# Density = 2.232786 g / cm^3
# Si number density = 22.378795 Si / 1000 Ang^3
#
#
#
# Elastic Constant Matrix: (Units=GPa)
#
#
# Indices 1 2 3 4 5 6 
#
# 1 81.9007 21.3190 14.4998 -0.0094 2.7679 0.0017
# 2 21.3190 45.3739 17.3952 -0.0124 2.0554 0.0037
# 3 14.4998 17.3952 113.7915 -0.0158 -4.3689 0.0022
# 4 -0.0094 -0.0124 -0.0158 27.4232 0.0086 1.9524
# 5 2.7679 2.0554 -4.3689 0.0086 33.4845 0.0001
# 6 0.0017 0.0037 0.0022 1.9524 0.0001 29.2074
#
#
#
# Elastic Compliance Matrix: (Units=1/GPa)
#
#
# Indices 1 2 3 4 5 6 
#
# 1 0.014010 -0.006209 -0.000870 0.000002 -0.000891 0.000000
# 2 -0.006209 0.026285 -0.003286 0.000009 -0.001529 -0.000003
# 3 -0.000870 -0.003286 0.009459 0.000003 0.001508 0.000000
# 4 0.000002 0.000009 0.000003 0.036640 -0.000010 -0.002449
# 5 -0.000891 -0.001529 0.001508 -0.000010 0.030229 0.000001
# 6 0.000000 -0.000003 0.000000 -0.002449 0.000001 0.034402
#
#
# Mechanical properties :
#
#
# Convention : Reuss Voigt Hill
#
# Bulk Modulus (GPa) = 34.45315 38.61047 36.53181
# Shear Modulus (GPa) = 27.55893 30.54650 29.05272
#
# Velocity S-wave (km/s) = 3.51305 3.69857 3.60700
# Velocity P-wave (km/s) = 5.64661 5.96069 5.80577
#
# Compressibility (1/GPa) = 0.02902493
#
# Stress axis : x y z
#
# Youngs Moduli (GPa) = 71.37633 38.04417 105.71848
#
# Poissons Ratio (x) = 0.23621 0.09201
# Poissons Ratio (y) = 0.44316 0.34737
# Poissons Ratio (z) = 0.06212 0.12500
#
# Static dielectric constant tensor:
#      x y z
#    x 4.157680 -0.000030 0.036130 
#    y -0.000030 3.588140 0.000020 
#    z 0.036130 0.000020 4.418610 
# 
# 
# High freq. dielectric constant tensor:
#      x y z
#    x 1.880300 0.000000 -0.005670 
#    y 0.000000 1.828980 0.000000 
#    z -0.005670 0.000000 1.904300 
# 
# From -- ./inp_files/156167.got.cif
#   From: 2010.06.25/outbox.cif.g09.slc.cpg/sg15_79_cif.got.tgz:156167.got - 2010.06.28 07:06:18.
