data_PCOD8133253
_publ_section_title
;
Structure prediction by ZEFSAII (Michael W. Deem and Ramdas Pophale) SiO2 
 PCOD8133253
Probable space group: C 2/C
;
_chemical_formula_sum "Si O2"
_cell_formula_units_Z 40
_cell_length_a 14.142811
_cell_length_b 13.359624
_cell_length_c 16.296910
_cell_angle_alpha 90.000000
_cell_angle_beta 34.811515
_cell_angle_gamma 90.000000
_cell_volume 1757.838585
_symmetry_space_group_name_H-M "C 2/C"
_symmetry_group_IT_number 15
_symmetry_cell_setting 'monoclinic'
loop_
_space_group_symop_operation_xyz
x,y,z
-x,y,1/2-z
-x,-y,-z
x,-y,1/2+z
1/2+x,1/2+y,z
1/2-x,1/2+y,1/2-z
1/2-x,1/2-y,-z
1/2+x,1/2-y,1/2+z
loop_
_atom_site_type_symbol
_atom_site_label
_atom_site_fract_x
_atom_site_fract_y
_atom_site_fract_z
Si Si1 0.644768 0.649042 0.710039
Si Si2 0.234175 0.557115 0.350565
Si Si3 0.140924 0.606073 0.593015
Si Si4 0.503411 0.204537 0.055505
Si Si5 0.032514 0.192079 0.090253
O O1 0.500000 0.621320 0.750000
O O2 0.693170 0.550341 0.729558
O O3 0.593703 0.739174 0.804665
O O4 0.810623 0.684782 0.545152
O O5 0.177454 0.542416 0.485400
O O6 0.081118 0.596460 0.404299
O O7 0.375266 0.640917 0.244548
O O8 0.069970 0.713987 0.620251
O O9 0.310940 0.616859 0.523356
O O10 0.000000 0.552449 0.750000
O O11 0.509070 0.274750 0.971834
#
# Coordination Sequence:
#
# PCOD8133253 Si02
#       5
#     8   8   8   8   8
#     4  12  26  47  70  96 136 185 231 281 337 404
#     4  11  23  43  68 101 138 175 230 276 341 403
#     4  10  19  32  62 102 138 172 210 278 343 399
#     4  11  24  45  69  99 135 182 227 281 339 401
#     4  10  19  36  62  95 137 174 215 272 341 400
#
# _framework density 22.755217999999999
#
# number of rings (size 3 to 8) (size 9 to 14) (size 15 to 20)
#    0.000    1.200    2.000    6.600    2.800    0.800 
#    0.000    3.000    0.000    0.000    0.000    0.000 
#    0.000    0.000    0.000    0.000    0.000    0.000 
#
# Total GULP energy -248018.641513 kJ/mol
# GULP energy per Si atom -12400.932076 kJ/mol
# Density = 2.270343 g / cm^3
# Si number density = 22.755218 Si / 1000 Ang^3
#
#
#
# Elastic Constant Matrix: (Units=GPa)
#
#
# Indices 1 2 3 4 5 6 
#
# 1 85.9187 27.9654 45.1145 0.0002 -27.1356 0.0000
# 2 27.9654 85.9490 25.1120 0.0006 -5.0151 -0.0003
# 3 45.1145 25.1120 127.9209 0.0009 -26.3412 -0.0005
# 4 0.0002 0.0006 0.0009 5.5307 -0.0004 -3.8964
# 5 -27.1356 -5.0151 -26.3412 -0.0004 37.9606 0.0000
# 6 0.0000 -0.0003 -0.0005 -3.8964 0.0000 21.3072
#
#
#
# Elastic Compliance Matrix: (Units=1/GPa)
#
#
# Indices 1 2 3 4 5 6 
#
# 1 0.017962 -0.004256 -0.003467 0.000001 0.009872 0.000000
# 2 -0.004256 0.013351 -0.001614 -0.000001 -0.002398 0.000000
# 3 -0.003467 -0.001614 0.010270 -0.000001 0.004435 0.000000
# 4 0.000001 -0.000001 -0.000001 0.207549 0.000002 0.037954
# 5 0.009872 -0.002398 0.004435 0.000002 0.036161 0.000000
# 6 0.000000 0.000000 0.000000 0.037954 0.000000 0.053873
#
#
# Mechanical properties :
#
#
# Convention : Reuss Voigt Hill
#
# Bulk Modulus (GPa) = 43.64652 55.13027 49.38839
# Shear Modulus (GPa) = 13.68082 26.39947 20.04015
#
# Velocity S-wave (km/s) = 2.45463 3.40979 2.97085
# Velocity P-wave (km/s) = 5.22074 6.30733 5.78958
#
# Compressibility (1/GPa) = 0.02291134
#
# Stress axis : x y z
#
# Youngs Moduli (GPa) = 55.67245 74.90048 97.37090
#
# Poissons Ratio (x) = 0.31874 0.33754
# Poissons Ratio (y) = 0.23692 0.15715
# Poissons Ratio (z) = 0.19299 0.12088
#
# Static dielectric constant tensor:
#      x y z
#    x 4.032480 0.000000 -0.268170 
#    y 0.000000 3.851220 0.000000 
#    z -0.268170 0.000000 4.378490 
# 
# 
# High freq. dielectric constant tensor:
#      x y z
#    x 1.883110 0.000000 -0.024230 
#    y 0.000000 1.878400 0.000000 
#    z -0.024230 0.000000 1.916120 
# 
# From -- ./inp_files/205598.got.cif
#   From: 2010.06.25/outbox.cif.g09.slc.cpg/sg15_103_cif.got.tgz:205598.got - 2010.06.28 07:06:18.
