data_PCOD8133525
_publ_section_title
;
Structure prediction by ZEFSAII (Michael W. Deem and Ramdas Pophale) SiO2 
 PCOD8133525
Probable space group: C 2/C
;
_chemical_formula_sum "Si O2"
_cell_formula_units_Z 52
_cell_length_a 29.921453
_cell_length_b 14.124387
_cell_length_c 17.650386
_cell_angle_alpha 90.000000
_cell_angle_beta 19.577929
_cell_angle_gamma 90.000000
_cell_volume 2499.575260
_symmetry_space_group_name_H-M "C 2/C"
_symmetry_group_IT_number 15
_symmetry_cell_setting 'monoclinic'
loop_
_space_group_symop_operation_xyz
x,y,z
-x,y,1/2-z
-x,-y,-z
x,-y,1/2+z
1/2+x,1/2+y,z
1/2-x,1/2+y,1/2-z
1/2-x,1/2-y,-z
1/2+x,1/2-y,1/2+z
loop_
_atom_site_type_symbol
_atom_site_label
_atom_site_fract_x
_atom_site_fract_y
_atom_site_fract_z
Si Si1 0.859161 0.498800 0.015897
Si Si2 0.479117 0.216590 0.516115
Si Si3 0.120034 0.927987 0.796637
Si Si4 0.500000 0.268719 0.750000
Si Si5 0.774191 0.842502 0.012036
Si Si6 0.346851 0.830998 0.627465
Si Si7 0.091164 0.289860 0.534566
O O1 0.832287 0.388342 0.072505
O O2 0.000000 0.513200 0.750000
O O3 0.743961 0.543076 0.149175
O O4 0.850540 0.555431 0.109629
O O5 0.430946 0.323820 0.602722
O O6 0.611780 0.197578 0.353263
O O7 0.504643 0.199833 0.386063
O O8 0.368187 0.139863 0.720673
O O9 0.174490 0.928522 0.622831
O O10 0.000000 0.000000 0.000000
O O11 0.379794 0.332077 0.911208
O O12 0.549100 0.206863 0.600964
O O13 0.750000 0.750000 0.000000
O O14 0.200097 0.790794 0.846181
O O15 0.000000 0.259104 0.750000
#
# Coordination Sequence:
#
# PCOD8133525 Si02
#       7
#     8   8   8   4   8   8   8
#     4  11  23  40  66  95 129 172 219 270 331 396
#     4  11  22  40  67  93 130 172 223 274 330 392
#     4  11  21  38  64 100 134 169 216 274 334 398
#     4  12  18  32  68  98 120 162 212 274 322 372
#     4  10  19  33  57  99 126 157 209 268 321 383
#     4  12  21  40  71  95 129 172 217 277 338 387
#     4  11  26  45  62  91 136 178 221 269 336 405
#
# _framework density 20.803533999999999
#
# number of rings (size 3 to 8) (size 9 to 14) (size 15 to 20)
#    0.000    0.923    6.923    2.769    0.000    1.231 
#    0.000    1.538    3.385    0.000    0.000    0.000 
#    0.000    0.000    0.000    0.000    0.000    0.000 
#
# Total GULP energy -322320.348190 kJ/mol
# GULP energy per Si atom -12396.936469 kJ/mol
# Density = 2.075618 g / cm^3
# Si number density = 20.803534 Si / 1000 Ang^3
#
#
#
# Elastic Constant Matrix: (Units=GPa)
#
#
# Indices 1 2 3 4 5 6 
#
# 1 125.1791 -1.4014 26.2498 -0.0002 -1.0465 0.0002
# 2 -1.4014 68.7551 28.5390 -0.0004 6.5455 0.0003
# 3 26.2498 28.5390 80.1558 -0.0005 5.3211 0.0003
# 4 -0.0002 -0.0004 -0.0005 24.0437 0.0003 5.3055
# 5 -1.0465 6.5455 5.3211 0.0003 45.1923 -0.0002
# 6 0.0002 0.0003 0.0003 5.3055 -0.0002 23.2621
#
#
#
# Elastic Compliance Matrix: (Units=1/GPa)
#
#
# Indices 1 2 3 4 5 6 
#
# 1 0.008732 0.001571 -0.003444 0.000000 0.000380 0.000000
# 2 0.001571 0.017491 -0.006628 0.000000 -0.001717 0.000000
# 3 -0.003444 -0.006628 0.016030 0.000000 -0.001007 0.000000
# 4 0.000000 0.000000 0.000000 0.043795 0.000000 -0.009989
# 5 0.000380 -0.001717 -0.001007 0.000000 0.022504 0.000000
# 6 0.000000 0.000000 0.000000 -0.009989 0.000000 0.045267
#
#
# Mechanical properties :
#
#
# Convention : Reuss Voigt Hill
#
# Bulk Modulus (GPa) = 39.60238 42.31831 40.96034
# Shear Modulus (GPa) = 27.89596 33.21312 30.55454
#
# Velocity S-wave (km/s) = 3.66584 3.99997 3.83654
# Velocity P-wave (km/s) = 6.08239 6.45903 6.27354
#
# Compressibility (1/GPa) = 0.02525101
#
# Stress axis : x y z
#
# Youngs Moduli (GPa) = 114.52708 57.17198 62.38129
#
# Poissons Ratio (x) = -0.08984 0.21485
# Poissons Ratio (y) = -0.17997 0.41348
# Poissons Ratio (z) = 0.39445 0.37895
#
# Static dielectric constant tensor:
#      x y z
#    x 4.107460 0.000000 0.077020 
#    y 0.000000 3.713770 0.000000 
#    z 0.077020 0.000000 3.992160 
# 
# 
# High freq. dielectric constant tensor:
#      x y z
#    x 1.827920 0.000000 -0.005580 
#    y 0.000000 1.789160 0.000000 
#    z -0.005580 0.000000 1.808040 
# 
# From -- ./inp_files/225470.got.cif
#   From: 2010.06.25/outbox.cif.g09.slc.cpg/sg15_113_cif.got.tgz:225470.got - 2010.06.28 07:06:18.
