data_PCOD8133606
_publ_section_title
;
Structure prediction by ZEFSAII (Michael W. Deem and Ramdas Pophale) SiO2 
 PCOD8133606
Probable space group: C 2/C
;
_chemical_formula_sum "Si O2"
_cell_formula_units_Z 64
_cell_length_a 25.315555
_cell_length_b 25.110813
_cell_length_c 18.540858
_cell_angle_alpha 90.000000
_cell_angle_beta 161.307366
_cell_angle_gamma 90.000000
_cell_volume 3777.410493
_symmetry_space_group_name_H-M "C 2/C"
_symmetry_group_IT_number 15
_symmetry_cell_setting 'monoclinic'
loop_
_space_group_symop_operation_xyz
x,y,z
-x,y,1/2-z
-x,-y,-z
x,-y,1/2+z
1/2+x,1/2+y,z
1/2-x,1/2+y,1/2-z
1/2-x,1/2-y,-z
1/2+x,1/2-y,1/2+z
loop_
_atom_site_type_symbol
_atom_site_label
_atom_site_fract_x
_atom_site_fract_y
_atom_site_fract_z
Si Si1 0.525732 0.899376 0.980670
Si Si2 0.037969 0.295741 0.685227
Si Si3 0.903023 0.003463 0.695183
Si Si4 0.151358 0.051796 0.600891
Si Si5 0.467980 0.992175 0.791509
Si Si6 0.229528 0.803496 0.383683
Si Si7 0.046631 0.088069 0.618088
Si Si8 0.693691 0.942252 0.676890
O O1 0.481153 0.840256 0.899987
O O2 0.416525 0.911972 0.908108
O O3 0.501609 0.939897 0.882860
O O4 0.719542 0.902089 0.254333
O O5 0.093288 0.242046 0.717130
O O6 0.864379 0.284890 0.499815
O O7 0.178915 0.315395 0.922690
O O8 0.000000 0.021896 0.750000
O O9 0.899876 0.054240 0.743676
O O10 0.717327 0.987694 0.435483
O O11 0.987352 0.950404 0.839416
O O12 0.105628 0.055120 0.625389
O O13 0.237998 0.995252 0.696827
O O14 0.500000 0.976800 0.750000
O O15 0.586670 0.040982 0.968476
O O16 0.135142 0.855342 0.234066
O O17 0.848357 0.095361 0.355995
#
# Coordination Sequence:
#
# PCOD8133606 Si02
#       8
#     8   8   8   8   8   8   8   8
#     4  11  20  34  52  72 104 144 173 204 254 303
#     4  10  22  37  53  75 102 133 171 216 251 288
#     4  11  20  31  48  75 105 136 173 209 246 298
#     4  10  19  34  49  70 102 138 176 209 245 298
#     4  11  20  31  50  74 104 141 174 207 243 302
#     4  10  22  37  53  75 102 132 173 216 249 289
#     4  11  20  35  52  72 102 145 174 202 250 305
#     4  10  21  32  48  74 106 135 173 212 249 295
#
# _framework density 16.942824000000002
#
# number of rings (size 3 to 8) (size 9 to 14) (size 15 to 20)
#    0.000    1.500    1.250    8.250    3.500    0.000 
#    2.250    0.000    0.000    0.000    0.000    0.000 
#    0.000   20.000    0.000    0.000    0.000    0.000 
#
# Total GULP energy -396784.998118 kJ/mol
# GULP energy per Si atom -12399.531191 kJ/mol
# Density = 1.690426 g / cm^3
# Si number density = 16.942824 Si / 1000 Ang^3
#
#
#
# Elastic Constant Matrix: (Units=GPa)
#
#
# Indices 1 2 3 4 5 6 
#
# 1 72.3351 25.1490 17.9160 0.0000 16.3908 0.0000
# 2 25.1490 77.4437 38.4562 0.0000 2.7365 0.0000
# 3 17.9160 38.4562 110.2206 -0.0001 15.5388 -0.0001
# 4 0.0000 0.0000 -0.0001 28.2376 -0.0001 1.7688
# 5 16.3908 2.7365 15.5388 -0.0001 27.7610 -0.0001
# 6 0.0000 0.0000 -0.0001 1.7688 -0.0001 21.9128
#
#
#
# Elastic Compliance Matrix: (Units=1/GPa)
#
#
# Indices 1 2 3 4 5 6 
#
# 1 0.018049 -0.005763 0.000542 0.000000 -0.010392 0.000000
# 2 -0.005763 0.017528 -0.005879 0.000000 0.004965 0.000000
# 3 0.000542 -0.005879 0.011941 0.000000 -0.006425 0.000000
# 4 0.000000 0.000000 0.000000 0.035594 0.000000 -0.002873
# 5 -0.010392 0.004965 -0.006425 0.000000 0.045264 0.000000
# 6 0.000000 0.000000 0.000000 -0.002873 0.000000 0.045867
#
#
# Mechanical properties :
#
#
# Convention : Reuss Voigt Hill
#
# Bulk Modulus (GPa) = 39.49704 47.00463 43.25084
# Shear Modulus (GPa) = 24.40430 27.48084 25.94257
#
# Velocity S-wave (km/s) = 3.79937 4.03174 3.91728
# Velocity P-wave (km/s) = 6.52759 7.03396 6.78550
#
# Compressibility (1/GPa) = 0.02531835
#
# Stress axis : x y z
#
# Youngs Moduli (GPa) = 55.40578 57.05206 83.74190
#
# Poissons Ratio (x) = 0.32879 -0.04539
# Poissons Ratio (y) = 0.31931 0.49230
# Poissons Ratio (z) = -0.03003 0.33540
#
# Static dielectric constant tensor:
#      x y z
#    x 3.186350 0.000000 0.133850 
#    y 0.000000 2.878910 0.000000 
#    z 0.133850 0.000000 3.723340 
# 
# 
# High freq. dielectric constant tensor:
#      x y z
#    x 1.659930 0.000000 0.020960 
#    y 0.000000 1.609590 0.000000 
#    z 0.020960 0.000000 1.667600 
# 
# From -- ./inp_files/51255.got.cif
#   From: 2010.06.25/outbox.cif.g09.slc.cpg/sg15_26_cif.got.tgz:51255.got - 2010.06.28 07:06:18.
