data_PCOD8133055
_publ_section_title
;
Structure prediction by ZEFSAII (Michael W. Deem and Ramdas Pophale) SiO2 
 PCOD8133055
Probable space group: C 2/C
;
_chemical_formula_sum "Si O2"
_cell_formula_units_Z 56
_cell_length_a 9.474907
_cell_length_b 33.078932
_cell_length_c 13.086597
_cell_angle_alpha 90.000000
_cell_angle_beta 44.116576
_cell_angle_gamma 90.000000
_cell_volume 2855.207023
_symmetry_space_group_name_H-M "C 2/C"
_symmetry_group_IT_number 15
_symmetry_cell_setting 'monoclinic'
loop_
_space_group_symop_operation_xyz
x,y,z
-x,y,1/2-z
-x,-y,-z
x,-y,1/2+z
1/2+x,1/2+y,z
1/2-x,1/2+y,1/2-z
1/2-x,1/2-y,-z
1/2+x,1/2-y,1/2+z
loop_
_atom_site_type_symbol
_atom_site_label
_atom_site_fract_x
_atom_site_fract_y
_atom_site_fract_z
Si Si1 0.517347 0.444012 0.488531
Si Si2 0.756000 0.003674 0.252619
Si Si3 0.968172 0.370541 0.426678
Si Si4 0.818228 0.293332 0.594228
Si Si5 0.150646 0.459038 0.012919
Si Si6 0.502437 0.283549 0.920119
Si Si7 0.664067 0.640389 0.898106
O O1 0.578290 0.467968 0.353045
O O2 0.306606 0.460391 0.644996
O O3 0.701927 0.452585 0.469797
O O4 0.501562 0.396218 0.477206
O O5 0.778539 0.020744 0.355320
O O6 0.527699 0.988224 0.355134
O O7 0.911841 0.338408 0.543975
O O8 0.946343 0.416633 0.476730
O O9 0.814127 0.364443 0.414456
O O10 0.199035 0.360677 0.274633
O O11 0.725340 0.287349 0.755279
O O12 0.653748 0.287687 0.591279
O O13 0.988769 0.259409 0.484670
O O14 0.461533 0.318247 0.025823
#
# Coordination Sequence:
#
# PCOD8133055 Si02
#       7
#     8   8   8   8   8   8   8
#     4  10  19  32  46  64  89 116 152 193 225 265
#     4  10  20  30  46  66  84 114 154 188 232 272
#     4   9  16  26  40  55  77 110 142 178 218 249
#     4   9  16  24  35  53  76 103 140 178 208 246
#     4  10  19  32  46  64  89 116 152 193 225 265
#     4   9  16  24  35  53  76 103 140 178 208 246
#     4   9  16  26  40  55  77 110 142 178 218 249
#
# _framework density 19.613289000000002
#
# number of rings (size 3 to 8) (size 9 to 14) (size 15 to 20)
#    0.000    2.571    1.429    1.714    2.000    3.429 
#    0.000    0.000    0.000    0.000    0.000    0.000 
#    0.000    0.000    0.000    0.000    0.000  100.000 
#
# Total GULP energy -347035.899510 kJ/mol
# GULP energy per Si atom -12394.139268 kJ/mol
# Density = 1.956865 g / cm^3
# Si number density = 19.613289 Si / 1000 Ang^3
#
#
#
# Elastic Constant Matrix: (Units=GPa)
#
#
# Indices 1 2 3 4 5 6 
#
# 1 4.1859 9.6825 8.2211 0.0000 0.2050 0.0000
# 2 9.6825 145.7957 72.4418 0.0000 -4.2241 0.0000
# 3 8.2211 72.4418 158.1231 0.0000 0.3614 0.0000
# 4 0.0000 0.0000 0.0000 37.2272 0.0000 -2.4971
# 5 0.2050 -4.2241 0.3614 0.0000 13.8966 0.0000
# 6 0.0000 0.0000 0.0000 -2.4971 0.0000 15.3192
#
#
#
# Elastic Compliance Matrix: (Units=1/GPa)
#
#
# Indices 1 2 3 4 5 6 
#
# 1 0.291124 -0.015640 -0.007951 0.000000 -0.008843 0.000000
# 2 -0.015640 0.009831 -0.003699 0.000000 0.003315 0.000000
# 3 -0.007951 -0.003699 0.008435 0.000000 -0.001226 0.000000
# 4 0.000000 0.000000 0.000000 0.027159 0.000000 0.004427
# 5 -0.008843 0.003315 -0.001226 0.000000 0.073130 0.000000
# 6 0.000000 0.000000 0.000000 0.004427 0.000000 0.065999
#
#
# Mechanical properties :
#
#
# Convention : Reuss Voigt Hill
#
# Bulk Modulus (GPa) = 3.92445 54.31060 29.11753
# Shear Modulus (GPa) = 8.12751 27.80588 17.96670
#
# Velocity S-wave (km/s) = 2.03786 3.76933 3.02991
# Velocity P-wave (km/s) = 2.74635 6.83335 5.20754
#
# Compressibility (1/GPa) = 0.25481263
#
# Stress axis : x y z
#
# Youngs Moduli (GPa) = 3.43496 101.71570 118.55678
#
# Poissons Ratio (x) = 1.59081 0.94261
# Poissons Ratio (y) = 0.05372 0.43848
# Poissons Ratio (z) = 0.02731 0.37620
#
# Static dielectric constant tensor:
#      x y z
#    x 2.715370 0.000000 0.027370 
#    y 0.000000 3.960060 0.000000 
#    z 0.027370 0.000000 3.907060 
# 
# 
# High freq. dielectric constant tensor:
#      x y z
#    x 1.663940 0.000000 0.000810 
#    y 0.000000 1.777100 0.000000 
#    z 0.000810 0.000000 1.784640 
# 
# From -- ./inp_files/207552.got.cif
#   From: 2010.06.25/outbox.cif.g09.slc.cpg/sg15_104_cif.got.tgz:207552.got - 2010.06.28 07:06:18.
