data_PCOD8133549
_publ_section_title
;
Structure prediction by ZEFSAII (Michael W. Deem and Ramdas Pophale) SiO2 
 PCOD8133549
Probable space group: C 2/C
;
_chemical_formula_sum "Si O2"
_cell_formula_units_Z 36
_cell_length_a 26.023237
_cell_length_b 14.683961
_cell_length_c 9.085144
_cell_angle_alpha 90.000000
_cell_angle_beta 33.386769
_cell_angle_gamma 90.000000
_cell_volume 1910.408970
_symmetry_space_group_name_H-M "C 2/C"
_symmetry_group_IT_number 15
_symmetry_cell_setting 'monoclinic'
loop_
_space_group_symop_operation_xyz
x,y,z
-x,y,1/2-z
-x,-y,-z
x,-y,1/2+z
1/2+x,1/2+y,z
1/2-x,1/2+y,1/2-z
1/2-x,1/2-y,-z
1/2+x,1/2-y,1/2+z
loop_
_atom_site_type_symbol
_atom_site_label
_atom_site_fract_x
_atom_site_fract_y
_atom_site_fract_z
Si Si1 0.953117 0.289944 0.515617
Si Si2 0.500000 0.490944 0.250000
Si Si3 0.417735 0.070981 0.678986
Si Si4 0.676751 0.944623 0.793951
Si Si5 0.890577 0.901203 0.257990
O O1 0.877535 0.368181 0.668354
O O2 0.900659 0.207297 0.719679
O O3 0.034911 0.328625 0.429447
O O4 0.000000 0.259022 0.250000
O O5 0.431978 0.428007 0.316884
O O6 0.441821 0.553640 0.498381
O O7 0.500000 0.000000 0.500000
O O8 0.360112 0.045334 0.669419
O O9 0.342289 0.063318 0.989020
O O10 0.784871 0.933558 0.503078
#
# Coordination Sequence:
#
# PCOD8133549 Si02
#       5
#     8   4   8   8   8
#     4   9  18  34  57  80 113 145 176 221 280 330
#     4  10  24  36  58  70 108 148 182 228 276 326
#     4   9  18  34  54  86 112 145 174 223 280 327
#     4  10  19  33  59  83 110 141 185 225 267 331
#     4  11  20  39  55  80 105 147 190 222 273 326
#
# _framework density 18.844131999999998
#
# number of rings (size 3 to 8) (size 9 to 14) (size 15 to 20)
#    0.000    2.222    1.111    4.000    0.000    0.000 
#    8.000    0.000    0.000    5.333    0.000    0.000 
#    0.000    0.000    0.000    0.000    0.000    0.000 
#
# Total GULP energy -223102.544471 kJ/mol
# GULP energy per Si atom -12394.585804 kJ/mol
# Density = 1.880124 g / cm^3
# Si number density = 18.844132 Si / 1000 Ang^3
#
#
#
# Elastic Constant Matrix: (Units=GPa)
#
#
# Indices 1 2 3 4 5 6 
#
# 1 81.9183 22.9546 25.6083 0.0000 -10.9816 0.0000
# 2 22.9546 57.7779 3.4872 0.0000 -5.7774 0.0000
# 3 25.6083 3.4872 66.6840 0.0000 -20.6516 0.0000
# 4 0.0000 0.0000 0.0000 28.7007 0.0000 -7.3077
# 5 -10.9816 -5.7774 -20.6516 0.0000 27.2000 0.0000
# 6 0.0000 0.0000 0.0000 -7.3077 0.0000 32.9317
#
#
#
# Elastic Compliance Matrix: (Units=1/GPa)
#
#
# Indices 1 2 3 4 5 6 
#
# 1 0.015652 -0.005794 -0.005402 0.000000 0.000987 0.000000
# 2 -0.005794 0.019833 0.002311 0.000000 0.003628 0.000000
# 3 -0.005402 0.002311 0.021476 0.000000 0.014616 0.000000
# 4 0.000000 0.000000 0.000000 0.036929 0.000000 0.008195
# 5 0.000987 0.003628 0.014616 0.000000 0.049031 0.000000
# 6 0.000000 0.000000 0.000000 0.008195 0.000000 0.032184
#
#
# Mechanical properties :
#
#
# Convention : Reuss Voigt Hill
#
# Bulk Modulus (GPa) = 25.51519 34.49782 30.00651
# Shear Modulus (GPa) = 24.27931 28.05516 26.16723
#
# Velocity S-wave (km/s) = 3.59336 3.86268 3.73045
# Velocity P-wave (km/s) = 5.54850 6.18389 5.87479
#
# Compressibility (1/GPa) = 0.03919234
#
# Stress axis : x y z
#
# Youngs Moduli (GPa) = 63.89068 50.42184 46.56347
#
# Poissons Ratio (x) = 0.29212 0.25153
# Poissons Ratio (y) = 0.37015 -0.10763
# Poissons Ratio (z) = 0.34514 -0.11655
#
# Static dielectric constant tensor:
#      x y z
#    x 1.914590 0.000000 -0.450830 
#    y 0.000000 3.535690 0.000000 
#    z -0.450830 0.000000 3.319480 
# 
# 
# High freq. dielectric constant tensor:
#      x y z
#    x 1.722280 0.000000 -0.001120 
#    y 0.000000 1.720840 0.000000 
#    z -0.001120 0.000000 1.741790 
# 
# From -- ./inp_files/28816.got.cif
#   From: 2010.06.25/outbox.cif.g09.slc.cpg/sg15_15_cif.got.tgz:28816.got - 2010.06.28 07:06:18.
