data_PCOD8133720
_publ_section_title
;
Structure prediction by ZEFSAII (Michael W. Deem and Ramdas Pophale) SiO2 
 PCOD8133720
Probable space group: C 2/C
;
_chemical_formula_sum "Si O2"
_cell_formula_units_Z 64
_cell_length_a 15.083527
_cell_length_b 26.961363
_cell_length_c 12.737274
_cell_angle_alpha 90.000000
_cell_angle_beta 140.253957
_cell_angle_gamma 90.000000
_cell_volume 3311.954001
_symmetry_space_group_name_H-M "C 2/C"
_symmetry_group_IT_number 15
_symmetry_cell_setting 'monoclinic'
loop_
_space_group_symop_operation_xyz
x,y,z
-x,y,1/2-z
-x,-y,-z
x,-y,1/2+z
1/2+x,1/2+y,z
1/2-x,1/2+y,1/2-z
1/2-x,1/2-y,-z
1/2+x,1/2-y,1/2+z
loop_
_atom_site_type_symbol
_atom_site_label
_atom_site_fract_x
_atom_site_fract_y
_atom_site_fract_z
Si Si1 0.175114 0.901175 0.516811
Si Si2 0.246404 0.809663 0.710538
Si Si3 0.927512 0.464633 0.793508
Si Si4 0.367083 0.602563 0.759179
Si Si5 0.505975 0.276476 0.873059
Si Si6 0.385820 0.931993 0.343519
Si Si7 0.295814 0.703036 0.765978
Si Si8 0.510400 0.170340 0.573772
O O1 0.196053 0.843824 0.569487
O O2 0.282946 0.936048 0.674273
O O3 0.198364 0.907371 0.414038
O O4 0.021462 0.919735 0.409009
O O5 0.306189 0.757182 0.720789
O O6 0.124019 0.797512 0.681016
O O7 0.370058 0.838176 0.881517
O O8 0.891342 0.522961 0.767161
O O9 0.000000 0.452730 0.750000
O O10 0.027105 0.445875 0.974950
O O11 0.272234 0.578762 0.763750
O O12 0.386291 0.662184 0.788278
O O13 0.500000 0.298871 0.750000
O O14 0.503885 0.216281 0.858911
O O15 0.647563 0.292179 0.061656
O O16 0.449261 0.883567 0.341403
O O17 0.137704 0.684573 0.613404
#
# Coordination Sequence:
#
# PCOD8133720 Si02
#       8
#     8   8   8   8   8   8   8   8
#     4  11  21  36  62  86 115 155 197 239 295 351
#     4  10  19  34  55  82 119 156 195 237 286 341
#     4  11  22  39  62  89 113 147 192 243 304 354
#     4  10  21  38  61  87 115 155 195 239 295 349
#     4  10  20  35  55  80 118 159 194 232 285 347
#     4  10  21  39  62  84 118 147 188 250 294 346
#     4   9  19  35  54  82 120 151 194 237 283 338
#     4   9  19  33  55  83 109 153 189 233 288 336
#
# _framework density 19.323941000000001
#
# number of rings (size 3 to 8) (size 9 to 14) (size 15 to 20)
#    0.000    2.000    3.750    0.000    0.000    6.000 
#    0.000    1.250    2.750    0.000    0.000    0.000 
#    0.000    0.000    0.000    0.000    0.000    0.000 
#
# Total GULP energy -396571.160143 kJ/mol
# GULP energy per Si atom -12392.848754 kJ/mol
# Density = 1.927996 g / cm^3
# Si number density = 19.323941 Si / 1000 Ang^3
#
#
#
# Elastic Constant Matrix: (Units=GPa)
#
#
# Indices 1 2 3 4 5 6 
#
# 1 51.0105 12.3395 23.3865 0.0000 14.1885 0.0000
# 2 12.3395 94.5706 19.9799 0.0000 12.5144 0.0000
# 3 23.3865 19.9799 75.2850 0.0000 17.0490 0.0000
# 4 0.0000 0.0000 0.0000 20.8923 0.0000 1.9765
# 5 14.1885 12.5144 17.0490 0.0000 23.0182 0.0000
# 6 0.0000 0.0000 0.0000 1.9765 0.0000 21.6518
#
#
#
# Elastic Compliance Matrix: (Units=1/GPa)
#
#
# Indices 1 2 3 4 5 6 
#
# 1 0.025285 -0.000713 -0.005075 0.000000 -0.011439 0.000000
# 2 -0.000713 0.011657 -0.001846 0.000000 -0.004530 0.000000
# 3 -0.005075 -0.001846 0.017318 0.000000 -0.008696 0.000000
# 4 0.000000 0.000000 0.000000 0.048282 0.000000 -0.004407
# 5 -0.011439 -0.004530 -0.008696 0.000000 0.059399 0.000000
# 6 0.000000 0.000000 0.000000 -0.004407 0.000000 0.046588
#
#
# Mechanical properties :
#
#
# Convention : Reuss Voigt Hill
#
# Bulk Modulus (GPa) = 25.64635 36.91974 31.28305
# Shear Modulus (GPa) = 21.11547 24.12313 22.61930
#
# Velocity S-wave (km/s) = 3.30920 3.53704 3.42502
# Velocity P-wave (km/s) = 5.28221 5.98565 5.64490
#
# Compressibility (1/GPa) = 0.03899190
#
# Stress axis : x y z
#
# Youngs Moduli (GPa) = 39.54967 85.78763 57.74216
#
# Poissons Ratio (x) = 0.06119 0.29302
# Poissons Ratio (y) = 0.02821 0.10659
# Poissons Ratio (z) = 0.20070 0.15837
#
# Static dielectric constant tensor:
#      x y z
#    x 3.245660 0.000000 0.264900 
#    y 0.000000 3.705150 0.000000 
#    z 0.264900 0.000000 3.494060 
# 
# 
# High freq. dielectric constant tensor:
#      x y z
#    x 1.728910 0.000000 0.027630 
#    y 0.000000 1.750130 0.000000 
#    z 0.027630 0.000000 1.753450 
# 
# From -- ./inp_files/101362.got.cif
#   From: 2010.06.25/outbox.cif.g09.slc.cpg/sg15_51_cif.got.tgz:101362.got - 2010.06.28 07:06:18.
