data_PCOD8133982
_publ_section_title
;
Structure prediction by ZEFSAII (Michael W. Deem and Ramdas Pophale) SiO2 
 PCOD8133982
Probable space group: C 2/C
;
_chemical_formula_sum "Si O2"
_cell_formula_units_Z 48
_cell_length_a 30.573343
_cell_length_b 7.935141
_cell_length_c 14.181774
_cell_angle_alpha 90.000000
_cell_angle_beta 143.313923
_cell_angle_gamma 90.000000
_cell_volume 2055.490052
_symmetry_space_group_name_H-M "C 2/C"
_symmetry_group_IT_number 15
_symmetry_cell_setting 'monoclinic'
loop_
_space_group_symop_operation_xyz
x,y,z
-x,y,1/2-z
-x,-y,-z
x,-y,1/2+z
1/2+x,1/2+y,z
1/2-x,1/2+y,1/2-z
1/2-x,1/2-y,-z
1/2+x,1/2-y,1/2+z
loop_
_atom_site_type_symbol
_atom_site_label
_atom_site_fract_x
_atom_site_fract_y
_atom_site_fract_z
Si Si1 0.047467 0.859932 0.471406
Si Si2 0.291930 0.411174 0.534029
Si Si3 0.547459 0.332300 0.695920
Si Si4 0.528786 0.998806 0.444639
Si Si5 0.694054 0.090076 0.209339
Si Si6 0.803453 0.023858 0.755914
O O1 0.040757 0.838376 0.572041
O O2 0.016792 0.682693 0.375090
O O3 0.132197 0.901324 0.593815
O O4 0.998135 0.009065 0.343247
O O5 0.250000 0.250000 0.500000
O O6 0.369324 0.349591 0.624794
O O7 0.249642 0.517103 0.382856
O O8 0.304043 0.533161 0.643795
O O9 0.512899 0.157383 0.678299
O O10 0.615967 0.987015 0.595141
O O11 0.500000 0.000000 0.500000
O O12 0.683512 0.288063 0.188829
O O13 0.725989 0.042567 0.161741
#
# Coordination Sequence:
#
# PCOD8133982 Si02
#       6
#     8   8   8   8   8   8
#     4   9  17  34  59  88 122 163 216 254 320 388
#     4  11  23  41  63  99 132 170 222 276 327 395
#     4   9  18  35  58  89 124 167 210 262 320 389
#     4  10  19  34  63  92 120 173 214 259 326 400
#     4  12  23  41  66  98 131 174 220 275 334 395
#     4  11  23  41  66  95 133 173 217 277 333 394
#
# _framework density 23.352097000000001
#
# number of rings (size 3 to 8) (size 9 to 14) (size 15 to 20)
#    0.000    1.667    1.667    5.500    2.333    0.000 
#    3.000    0.833    0.000    3.000    0.000    0.000 
#    0.000    0.000    0.000    0.000    0.000    0.000 
#
# Total GULP energy -297497.782267 kJ/mol
# GULP energy per Si atom -12395.740928 kJ/mol
# Density = 2.329895 g / cm^3
# Si number density = 23.352097 Si / 1000 Ang^3
#
#
#
# Elastic Constant Matrix: (Units=GPa)
#
#
# Indices 1 2 3 4 5 6 
#
# 1 99.8986 37.8074 48.1897 0.0000 37.9728 0.0000
# 2 37.8074 205.3050 31.7062 0.0000 26.4028 0.0000
# 3 48.1897 31.7062 84.5854 0.0000 34.9733 0.0000
# 4 0.0000 0.0000 0.0000 15.7220 0.0000 21.3852
# 5 37.9728 26.4028 34.9733 0.0000 44.2127 0.0000
# 6 0.0000 0.0000 0.0000 21.3852 0.0000 29.3496
#
#
#
# Elastic Compliance Matrix: (Units=1/GPa)
#
#
# Indices 1 2 3 4 5 6 
#
# 1 0.016456 -0.001025 -0.005053 0.000000 -0.009524 0.000000
# 2 -0.001025 0.005398 -0.000699 0.000000 -0.001790 0.000000
# 3 -0.005053 -0.000699 0.019313 0.000000 -0.010519 0.000000
# 4 0.000000 0.000000 0.000000 7.144121 0.000000 -5.205473
# 5 -0.009524 -0.001790 -0.010519 0.000000 0.040188 0.000000
# 6 0.000000 0.000000 0.000000 -5.205473 0.000000 3.826974
#
#
# Mechanical properties :
#
#
# Convention : Reuss Voigt Hill
#
# Bulk Modulus (GPa) = 36.21682 69.46618 52.84150
# Shear Modulus (GPa) = 0.45146 35.99590 18.22368
#
# Velocity S-wave (km/s) = 0.44017 3.93038 2.79657
# Velocity P-wave (km/s) = 3.97505 7.09993 5.75370
#
# Compressibility (1/GPa) = 0.02761148
#
# Stress axis : x y z
#
# Youngs Moduli (GPa) = 60.76850 185.26231 51.77954
#
# Poissons Ratio (x) = 0.18993 0.26164
# Poissons Ratio (y) = 0.06230 0.03620
# Poissons Ratio (z) = 0.30706 0.12954
#
# Static dielectric constant tensor:
#      x y z
#    x 4.035940 0.000000 0.449630 
#    y 0.000000 4.811360 0.000000 
#    z 0.449630 0.000000 3.930690 
# 
# 
# High freq. dielectric constant tensor:
#      x y z
#    x 1.929750 0.000000 0.020350 
#    y 0.000000 1.945090 0.000000 
#    z 0.020350 0.000000 1.898330 
# 
# From -- ./inp_files/180893.got.cif
#   From: 2010.06.25/outbox.cif.g09.slc.cpg/sg15_91_cif.got.tgz:180893.got - 2010.06.28 07:06:18.
