data_PCOD8133419
_publ_section_title
;
Structure prediction by ZEFSAII (Michael W. Deem and Ramdas Pophale) SiO2 
 PCOD8133419
Probable space group: C 2/C
;
_chemical_formula_sum "Si O2"
_cell_formula_units_Z 52
_cell_length_a 8.806047
_cell_length_b 14.886585
_cell_length_c 24.744499
_cell_angle_alpha 90.000000
_cell_angle_beta 46.043647
_cell_angle_gamma 90.000000
_cell_volume 2335.113956
_symmetry_space_group_name_H-M "C 2/C"
_symmetry_group_IT_number 15
_symmetry_cell_setting 'monoclinic'
loop_
_space_group_symop_operation_xyz
x,y,z
-x,y,1/2-z
-x,-y,-z
x,-y,1/2+z
1/2+x,1/2+y,z
1/2-x,1/2+y,1/2-z
1/2-x,1/2-y,-z
1/2+x,1/2-y,1/2+z
loop_
_atom_site_type_symbol
_atom_site_label
_atom_site_fract_x
_atom_site_fract_y
_atom_site_fract_z
Si Si1 0.915150 0.218928 0.166445
Si Si2 0.309821 0.627035 0.965833
Si Si3 0.748162 0.343980 0.400143
Si Si4 0.500000 0.856021 0.750000
Si Si5 0.745483 0.452328 0.906536
Si Si6 0.343924 0.565690 0.439288
Si Si7 0.013385 0.290690 0.028414
O O1 0.670131 0.203440 0.242279
O O2 0.895794 0.257654 0.110403
O O3 0.041298 0.290430 0.173352
O O4 0.038579 0.122932 0.136501
O O5 0.554293 0.659495 0.906075
O O6 0.297287 0.536400 0.931973
O O7 0.163897 0.703294 0.975152
O O8 0.219173 0.605388 0.048162
O O9 0.815243 0.444772 0.398450
O O10 0.686476 0.285652 0.469357
O O11 0.378732 0.916517 0.823256
O O12 0.494678 0.445407 0.955311
O O13 0.123628 0.612884 0.508951
#
# Coordination Sequence:
#
# PCOD8133419 Si02
#       7
#     8   8   8   4   8   8   8
#     4  10  19  36  55  73 104 141 177 208 256 324
#     4  11  19  30  54  88 113 127 163 225 272 302
#     4  10  19  33  55  80 104 133 170 217 263 303
#     4  10  22  38  54  68  94 150 190 206 244 320
#     4  10  19  36  55  73 102 142 182 210 250 318
#     4   9  18  33  55  79 107 141 168 201 261 322
#     4  11  19  30  54  88 112 129 162 222 276 304
#
# _framework density 22.268720999999999
#
# number of rings (size 3 to 8) (size 9 to 14) (size 15 to 20)
#    0.000    1.846    0.000    9.231    0.000    0.000 
#    0.000    6.154    0.000   11.077    0.000    0.000 
#    0.000    0.000    0.000    0.000    0.000    0.000 
#
# Total GULP energy -322257.926352 kJ/mol
# GULP energy per Si atom -12394.535629 kJ/mol
# Density = 2.221804 g / cm^3
# Si number density = 22.268721 Si / 1000 Ang^3
#
#
#
# Elastic Constant Matrix: (Units=GPa)
#
#
# Indices 1 2 3 4 5 6 
#
# 1 92.7750 34.2273 32.0803 -0.0001 -15.2132 0.0002
# 2 34.2273 108.9977 26.8348 -0.0006 -15.8268 0.0003
# 3 32.0803 26.8348 59.7790 0.0007 -20.8042 -0.0003
# 4 -0.0001 -0.0006 0.0007 16.0541 -0.0001 -5.0810
# 5 -15.2132 -15.8268 -20.8042 -0.0001 25.6966 0.0001
# 6 0.0002 0.0003 -0.0003 -5.0810 0.0001 45.4333
#
#
#
# Elastic Compliance Matrix: (Units=1/GPa)
#
#
# Indices 1 2 3 4 5 6 
#
# 1 0.014066 -0.002734 -0.005582 0.000000 0.002124 0.000000
# 2 -0.002734 0.011094 -0.002364 0.000001 0.003300 0.000000
# 3 -0.005582 -0.002364 0.026632 -0.000001 0.016801 0.000000
# 4 0.000000 0.000001 -0.000001 0.064575 0.000000 0.007222
# 5 0.002124 0.003300 0.016801 0.000000 0.055808 0.000000
# 6 0.000000 0.000000 0.000000 0.007222 0.000000 0.022818
#
#
# Mechanical properties :
#
#
# Convention : Reuss Voigt Hill
#
# Bulk Modulus (GPa) = 32.86064 49.75963 41.31013
# Shear Modulus (GPa) = 22.07526 28.66410 25.36968
#
# Velocity S-wave (km/s) = 3.15193 3.59164 3.37894
# Velocity P-wave (km/s) = 5.29477 6.29233 5.81498
#
# Compressibility (1/GPa) = 0.03043154
#
# Stress axis : x y z
#
# Youngs Moduli (GPa) = 71.09359 90.13535 37.54873
#
# Poissons Ratio (x) = 0.24646 0.20959
# Poissons Ratio (y) = 0.19439 0.08878
# Poissons Ratio (z) = 0.39682 0.21312
#
# Static dielectric constant tensor:
#      x y z
#    x 4.107470 0.000000 -0.429910 
#    y 0.000000 4.556350 0.000000 
#    z -0.429910 0.000000 3.563490 
# 
# 
# High freq. dielectric constant tensor:
#      x y z
#    x 1.875560 0.000000 -0.027080 
#    y 0.000000 1.901020 0.000000 
#    z -0.027080 0.000000 1.819230 
# 
# From -- ./inp_files/288619.got.cif
#   From: 2010.06.25/outbox.cif.g09.slc.cpg/sg15_145_cif.got.tgz:288619.got - 2010.06.28 07:06:18.
