data_PCOD8133227
_publ_section_title
;
Structure prediction by ZEFSAII (Michael W. Deem and Ramdas Pophale) SiO2 
 PCOD8133227
Probable space group: C 2/C
;
_chemical_formula_sum "Si O2"
_cell_formula_units_Z 56
_cell_length_a 8.828541
_cell_length_b 19.166756
_cell_length_c 25.895293
_cell_angle_alpha 90.000000
_cell_angle_beta 39.324937
_cell_angle_gamma 90.000000
_cell_volume 2776.861119
_symmetry_space_group_name_H-M "C 2/C"
_symmetry_group_IT_number 15
_symmetry_cell_setting 'monoclinic'
loop_
_space_group_symop_operation_xyz
x,y,z
-x,y,1/2-z
-x,-y,-z
x,-y,1/2+z
1/2+x,1/2+y,z
1/2-x,1/2+y,1/2-z
1/2-x,1/2-y,-z
1/2+x,1/2-y,1/2+z
loop_
_atom_site_type_symbol
_atom_site_label
_atom_site_fract_x
_atom_site_fract_y
_atom_site_fract_z
Si Si1 0.000000 0.700464 0.750000
Si Si2 0.596583 0.903617 0.519801
Si Si3 0.014859 0.840578 0.013893
Si Si4 0.764103 0.790259 0.893207
Si Si5 0.959461 0.557561 0.949050
Si Si6 0.000000 0.533204 0.250000
Si Si7 0.023771 0.589288 0.665875
Si Si8 0.548517 0.624364 0.392469
O O1 0.814729 0.751316 0.826083
O O2 0.112130 0.648909 0.764440
O O3 0.795978 0.852188 0.490200
O O4 0.346986 0.864132 0.591934
O O5 0.642608 0.923525 0.447086
O O6 0.568583 0.975992 0.557278
O O7 0.925522 0.760973 0.029291
O O8 0.803279 0.892335 0.086616
O O9 0.137285 0.856139 0.926490
O O10 0.990453 0.807713 0.871252
O O11 0.073448 0.590778 0.867173
O O12 0.697855 0.583102 0.034540
O O13 0.997869 0.485790 0.199264
O O14 0.240106 0.579686 0.189223
#
# Coordination Sequence:
#
# PCOD8133227 Si02
#       8
#     4   8   8   8   8   4   8   8
#     4   9  20  36  54  74 106 149 184 218 274 335
#     4  10  19  32  57  86 110 139 182 238 282 325
#     4  10  19  36  59  80 106 147 193 226 267 333
#     4  10  21  36  53  79 114 148 184 229 280 331
#     4   9  19  36  56  83 113 143 185 234 282 325
#     4  11  20  32  56  88 112 141 190 234 288 343
#     4   9  19  36  58  78 107 147 187 230 275 336
#     4  10  21  35  56  82 109 143 185 234 279 331
#
# _framework density 20.166654999999999
#
# number of rings (size 3 to 8) (size 9 to 14) (size 15 to 20)
#    0.000    2.286    0.000    2.571    0.000    5.714 
#    0.000    0.000    0.000   30.000    0.000    0.000 
#    0.000    0.000    0.000    0.000    0.000    0.000 
#
# Total GULP energy -346869.060223 kJ/mol
# GULP energy per Si atom -12388.180722 kJ/mol
# Density = 2.012075 g / cm^3
# Si number density = 20.166655 Si / 1000 Ang^3
#
#
#
# Elastic Constant Matrix: (Units=GPa)
#
#
# Indices 1 2 3 4 5 6 
#
# 1 112.0655 39.5311 40.9335 0.0345 20.7958 -0.0020
# 2 39.5311 113.2700 44.1200 0.0329 11.7973 -0.0062
# 3 40.9335 44.1200 83.6030 0.0480 25.1938 0.0167
# 4 0.0345 0.0329 0.0480 40.1348 -0.0269 -1.7686
# 5 20.7958 11.7973 25.1938 -0.0269 25.7669 -0.0117
# 6 -0.0020 -0.0062 0.0167 -1.7686 -0.0117 30.0244
#
#
#
# Elastic Compliance Matrix: (Units=1/GPa)
#
#
# Indices 1 2 3 4 5 6 
#
# 1 0.011873 -0.002461 -0.002788 -0.000009 -0.005730 -0.000001
# 2 -0.002461 0.011638 -0.005571 0.000001 0.002105 0.000006
# 3 -0.002788 -0.005571 0.021010 -0.000030 -0.015742 -0.000021
# 4 -0.000009 0.000001 -0.000030 0.024981 0.000062 0.001472
# 5 -0.005730 0.002105 -0.015742 0.000062 0.057862 0.000035
# 6 -0.000001 0.000006 -0.000021 0.001472 0.000035 0.033393
#
#
# Mechanical properties :
#
#
# Convention : Reuss Voigt Hill
#
# Bulk Modulus (GPa) = 43.70351 62.01195 52.85773
# Shear Modulus (GPa) = 26.31235 31.47549 28.89392
#
# Velocity S-wave (km/s) = 3.61604 3.95494 3.78928
# Velocity P-wave (km/s) = 6.25720 7.18832 6.73886
#
# Compressibility (1/GPa) = 0.02288146
#
# Stress axis : x y z
#
# Youngs Moduli (GPa) = 84.22446 85.92409 47.59568
#
# Poissons Ratio (x) = 0.21146 0.13269
# Poissons Ratio (y) = 0.20728 0.26517
# Poissons Ratio (z) = 0.23480 0.47870
#
# Static dielectric constant tensor:
#      x y z
#    x 3.786460 0.000010 0.362030 
#    y 0.000010 3.829750 0.000020 
#    z 0.362030 0.000020 3.523470 
# 
# 
# High freq. dielectric constant tensor:
#      x y z
#    x 1.778830 0.000000 0.029020 
#    y 0.000000 1.799030 0.000000 
#    z 0.029020 0.000000 1.763360 
# 
# From -- ./inp_files/190946.got.cif
#   From: 2010.06.25/outbox.cif.g09.slc.cpg/sg15_96_cif.got.tgz:190946.got - 2010.06.28 07:06:18.
