data_PCOD8133110
_publ_section_title
;
Structure prediction by ZEFSAII (Michael W. Deem and Ramdas Pophale) SiO2 
 PCOD8133110
Probable space group: C 2/C
;
_chemical_formula_sum "Si O2"
_cell_formula_units_Z 56
_cell_length_a 12.841357
_cell_length_b 17.609753
_cell_length_c 19.137743
_cell_angle_alpha 90.000000
_cell_angle_beta 136.047878
_cell_angle_gamma 90.000000
_cell_volume 3003.655069
_symmetry_space_group_name_H-M "C 2/C"
_symmetry_group_IT_number 15
_symmetry_cell_setting 'monoclinic'
loop_
_space_group_symop_operation_xyz
x,y,z
-x,y,1/2-z
-x,-y,-z
x,-y,1/2+z
1/2+x,1/2+y,z
1/2-x,1/2+y,1/2-z
1/2-x,1/2-y,-z
1/2+x,1/2-y,1/2+z
loop_
_atom_site_type_symbol
_atom_site_label
_atom_site_fract_x
_atom_site_fract_y
_atom_site_fract_z
Si Si1 0.246214 0.245271 0.382968
Si Si2 0.433705 0.685701 0.085819
Si Si3 0.295463 0.533906 0.987692
Si Si4 0.979699 0.525060 0.316943
Si Si5 0.726533 0.387323 0.772224
Si Si6 0.248490 0.402297 0.316179
Si Si7 0.950674 0.963540 0.301440
O O1 0.396055 0.263126 0.500300
O O2 0.097748 0.234190 0.359312
O O3 0.281093 0.168245 0.358994
O O4 0.214606 0.315017 0.316017
O O5 0.605866 0.657046 0.164500
O O6 0.313455 0.616410 0.031799
O O7 0.318313 0.548782 0.915032
O O8 0.139074 0.491935 0.930266
O O9 0.416578 0.478316 0.079743
O O10 0.876935 0.586682 0.306094
O O11 0.907302 0.441731 0.278305
O O12 0.000000 0.560299 0.250000
O O13 0.641605 0.460270 0.762485
O O14 0.350652 0.403860 0.296051
O O15 0.000000 0.929014 0.250000
#
# Coordination Sequence:
#
# PCOD8133110 Si02
#       7
#     8   8   8   8   8   8   8
#     4  10  19  32  51  77 104 134 172 214 264 317
#     4   9  19  32  53  80 104 133 171 217 266 316
#     4   9  17  33  55  76 100 135 180 223 262 312
#     4   9  19  34  54  78 103 137 179 222 260 309
#     4  10  19  34  53  76 108 139 171 215 268 312
#     4   9  19  33  53  78 104 136 176 219 267 318
#     4  10  19  34  53  76 106 142 179 218 264 315
#
# _framework density 18.643951000000001
#
# number of rings (size 3 to 8) (size 9 to 14) (size 15 to 20)
#    0.000    2.571    0.000    2.571    0.000   10.286 
#    0.000    8.571    0.000    1.714    0.000    0.000 
#    0.000    0.000    0.000    0.000    0.000    0.000 
#
# Total GULP energy -346979.504350 kJ/mol
# GULP energy per Si atom -12392.125155 kJ/mol
# Density = 1.860152 g / cm^3
# Si number density = 18.643951 Si / 1000 Ang^3
#
#
#
# Elastic Constant Matrix: (Units=GPa)
#
#
# Indices 1 2 3 4 5 6 
#
# 1 123.9247 51.8435 42.3063 0.0000 -1.6792 0.0000
# 2 51.8435 88.2499 37.9504 0.0000 -0.2921 0.0000
# 3 42.3063 37.9504 69.5293 0.0000 6.4690 0.0000
# 4 0.0000 0.0000 0.0000 30.5035 0.0000 -2.3800
# 5 -1.6792 -0.2921 6.4690 0.0000 23.9102 0.0000
# 6 0.0000 0.0000 0.0000 -2.3800 0.0000 24.5676
#
#
#
# Elastic Compliance Matrix: (Units=1/GPa)
#
#
# Indices 1 2 3 4 5 6 
#
# 1 0.011730 -0.004879 -0.004663 0.000000 0.002026 0.000000
# 2 -0.004879 0.016975 -0.006446 0.000000 0.001609 0.000000
# 3 -0.004663 -0.006446 0.021312 0.000000 -0.006172 0.000000
# 4 0.000000 0.000000 0.000000 0.033033 0.000000 0.003200
# 5 0.002026 0.001609 -0.006172 0.000000 0.043655 0.000000
# 6 0.000000 0.000000 0.000000 0.003200 0.000000 0.041014
#
#
# Mechanical properties :
#
#
# Convention : Reuss Voigt Hill
#
# Bulk Modulus (GPa) = 55.42833 60.65604 58.04219
# Shear Modulus (GPa) = 24.30624 25.76983 25.03803
#
# Velocity S-wave (km/s) = 3.61460 3.72184 3.66861
# Velocity P-wave (km/s) = 6.87131 7.14661 7.01031
#
# Compressibility (1/GPa) = 0.01804131
#
# Stress axis : x y z
#
# Youngs Moduli (GPa) = 85.25359 58.90965 46.92144
#
# Poissons Ratio (x) = 0.28742 0.21877
# Poissons Ratio (y) = 0.41595 0.30247
# Poissons Ratio (z) = 0.39750 0.37975
#
# Static dielectric constant tensor:
#      x y z
#    x 3.322630 0.000000 -0.030540 
#    y 0.000000 3.233680 0.000000 
#    z -0.030540 0.000000 3.506030 
# 
# 
# High freq. dielectric constant tensor:
#      x y z
#    x 1.703480 0.000000 -0.000280 
#    y 0.000000 1.701840 0.000000 
#    z -0.000280 0.000000 1.729630 
# 
# From -- ./inp_files/200222.got.cif
#   From: 2010.06.25/outbox.cif.g09.slc.cpg/sg15_101_cif.got.tgz:200222.got - 2010.06.28 07:06:18.
