data_PCOD8133169
_publ_section_title
;
Structure prediction by ZEFSAII (Michael W. Deem and Ramdas Pophale) SiO2 
 PCOD8133169
Probable space group: C 2/C
;
_chemical_formula_sum "Si O2"
_cell_formula_units_Z 40
_cell_length_a 18.723209
_cell_length_b 8.920775
_cell_length_c 24.745873
_cell_angle_alpha 90.000000
_cell_angle_beta 30.390794
_cell_angle_gamma 90.000000
_cell_volume 2090.962222
_symmetry_space_group_name_H-M "C 2/C"
_symmetry_group_IT_number 15
_symmetry_cell_setting 'monoclinic'
loop_
_space_group_symop_operation_xyz
x,y,z
-x,y,1/2-z
-x,-y,-z
x,-y,1/2+z
1/2+x,1/2+y,z
1/2-x,1/2+y,1/2-z
1/2-x,1/2-y,-z
1/2+x,1/2-y,1/2+z
loop_
_atom_site_type_symbol
_atom_site_label
_atom_site_fract_x
_atom_site_fract_y
_atom_site_fract_z
Si Si1 0.288840 0.560070 0.858685
Si Si2 0.659850 0.341149 0.759670
Si Si3 0.571406 0.535943 0.623726
Si Si4 0.806930 0.954604 0.161845
Si Si5 0.112294 0.153661 0.484856
O O1 0.246892 0.413876 0.850310
O O2 0.435620 0.626073 0.737198
O O3 0.313126 0.509277 0.905027
O O4 0.166124 0.681874 0.934290
O O5 0.493259 0.378368 0.857390
O O6 0.677608 0.162293 0.750218
O O7 0.709554 0.414679 0.783509
O O8 0.643818 0.626569 0.527635
O O9 0.806181 0.028481 0.103270
O O10 0.946528 0.855306 0.080801
#
# Coordination Sequence:
#
# PCOD8133169 Si02
#       5
#     8   8   8   8   8
#     4   9  17  34  58  71 105 139 174 210 257 304
#     4   9  18  34  52  74 105 142 166 211 261 309
#     4   8  18  34  56  72 104 137 172 210 259 298
#     4  10  20  32  53  79 110 133 173 211 266 309
#     4  10  19  32  54  82 101 134 175 220 253 308
#
# _framework density 19.129949
#
# number of rings (size 3 to 8) (size 9 to 14) (size 15 to 20)
#    1.200    1.600    0.000    1.800    0.000    0.800 
#    0.000    1.000    8.800    0.000    0.000    0.000 
#    0.000    0.000    0.000    0.000    0.000    0.000 
#
# Total GULP energy -247783.620958 kJ/mol
# GULP energy per Si atom -12389.181048 kJ/mol
# Density = 1.908641 g / cm^3
# Si number density = 19.129949 Si / 1000 Ang^3
#
#
#
# Elastic Constant Matrix: (Units=GPa)
#
#
# Indices 1 2 3 4 5 6 
#
# 1 86.5048 16.4339 23.1404 0.0020 31.6017 -0.0037
# 2 16.4339 54.9991 10.5283 0.0018 3.5279 -0.0019
# 3 23.1404 10.5283 30.1522 0.0007 16.9101 -0.0003
# 4 0.0020 0.0018 0.0007 31.8272 -0.0005 5.0267
# 5 31.6017 3.5279 16.9101 -0.0005 33.5257 0.0007
# 6 -0.0037 -0.0019 -0.0003 5.0267 0.0007 9.8063
#
#
#
# Elastic Compliance Matrix: (Units=1/GPa)
#
#
# Indices 1 2 3 4 5 6 
#
# 1 0.019126 -0.003817 -0.004825 -0.000003 -0.015193 0.000009
# 2 -0.003817 0.020336 -0.006957 -0.000001 0.004967 0.000002
# 3 -0.004825 -0.006957 0.050669 -0.000001 -0.020277 0.000000
# 4 -0.000003 -0.000001 -0.000001 0.034187 0.000004 -0.017524
# 5 -0.015193 0.004967 -0.020277 0.000004 0.053854 -0.000011
# 6 0.000009 0.000002 0.000000 -0.017524 -0.000011 0.110958
#
#
# Mechanical properties :
#
#
# Convention : Reuss Voigt Hill
#
# Bulk Modulus (GPa) = 16.96834 30.20682 23.58758
# Shear Modulus (GPa) = 14.70706 23.13541 18.92124
#
# Velocity S-wave (km/s) = 2.77573 3.48139 3.14839
# Velocity P-wave (km/s) = 4.37746 5.65550 5.05702
#
# Compressibility (1/GPa) = 0.05893328
#
# Stress axis : x y z
#
# Youngs Moduli (GPa) = 52.28424 49.17456 19.73594
#
# Poissons Ratio (x) = 0.18769 0.09523
# Poissons Ratio (y) = 0.19956 0.13730
# Poissons Ratio (z) = 0.25228 0.34211
#
# Static dielectric constant tensor:
#      x y z
#    x 3.505300 0.000000 0.323210 
#    y 0.000000 3.047150 0.000000 
#    z 0.323210 0.000000 3.314520 
# 
# 
# High freq. dielectric constant tensor:
#      x y z
#    x 1.747730 0.000000 0.030600 
#    y 0.000000 1.708730 0.000000 
#    z 0.030600 0.000000 1.721900 
# 
# From -- ./inp_files/165449.got.cif
#   From: 2010.06.25/outbox.cif.g09.slc.cpg/sg15_83_cif.got.tgz:165449.got - 2010.06.28 07:06:18.
