data_PCOD8133688
_publ_section_title
;
Structure prediction by ZEFSAII (Michael W. Deem and Ramdas Pophale) SiO2 
 PCOD8133688
Probable space group: C 2/C
;
_chemical_formula_sum "Si O2"
_cell_formula_units_Z 52
_cell_length_a 14.196660
_cell_length_b 18.026330
_cell_length_c 13.314271
_cell_angle_alpha 90.000000
_cell_angle_beta 127.155798
_cell_angle_gamma 90.000000
_cell_volume 2715.608088
_symmetry_space_group_name_H-M "C 2/C"
_symmetry_group_IT_number 15
_symmetry_cell_setting 'monoclinic'
loop_
_space_group_symop_operation_xyz
x,y,z
-x,y,1/2-z
-x,-y,-z
x,-y,1/2+z
1/2+x,1/2+y,z
1/2-x,1/2+y,1/2-z
1/2-x,1/2-y,-z
1/2+x,1/2-y,1/2+z
loop_
_atom_site_type_symbol
_atom_site_label
_atom_site_fract_x
_atom_site_fract_y
_atom_site_fract_z
Si Si1 0.228667 0.235726 0.870711
Si Si2 0.345018 0.094390 0.993373
Si Si3 0.000000 0.314099 0.750000
Si Si4 0.061118 0.594593 0.653480
Si Si5 0.184956 0.552742 0.922282
Si Si6 0.344095 0.313779 0.570183
Si Si7 0.412233 0.267152 0.827807
O O1 0.246619 0.146880 0.876100
O O2 0.096743 0.261854 0.755935
O O3 0.324759 0.281393 0.865768
O O4 0.250000 0.250000 0.000000
O O5 0.421284 0.065847 0.948448
O O6 0.435159 0.136527 0.125279
O O7 0.281638 0.028383 0.013019
O O8 0.143687 0.544971 0.779847
O O9 0.093537 0.679728 0.698595
O O10 0.923190 0.585681 0.584675
O O11 0.297520 0.605917 0.006295
O O12 0.250000 0.250000 0.500000
O O13 0.375394 0.315745 0.708029
O O14 0.453082 0.293333 0.565503
#
# Coordination Sequence:
#
# PCOD8133688 Si02
#       7
#     8   8   4   8   8   8   8
#     4   9  21  39  59  85 112 148 204 248 284 355
#     4  10  22  37  55  89 116 147 200 245 294 352
#     4  10  20  40  66  80 106 158 196 250 302 328
#     4  10  19  34  54  85 117 148 199 245 283 348
#     4  11  20  34  56  84 123 154 187 243 298 350
#     4  11  19  33  57  87 118 160 187 236 306 350
#     4  10  20  35  55  88 119 143 205 244 283 363
#
# _framework density 19.148565999999999
#
# number of rings (size 3 to 8) (size 9 to 14) (size 15 to 20)
#    0.000    1.846    3.077    2.308    2.154    1.231 
#    2.769    1.538    0.000    3.692    0.000    0.000 
#    0.000    0.000    0.000    0.000    0.000    0.000 
#
# Total GULP energy -322193.811746 kJ/mol
# GULP energy per Si atom -12392.069683 kJ/mol
# Density = 1.910498 g / cm^3
# Si number density = 19.148566 Si / 1000 Ang^3
#
#
#
# Elastic Constant Matrix: (Units=GPa)
#
#
# Indices 1 2 3 4 5 6 
#
# 1 144.7883 41.5873 48.0849 0.0000 4.3464 0.0000
# 2 41.5873 95.2819 39.2213 0.0000 10.8748 0.0000
# 3 48.0849 39.2213 65.3189 0.0000 3.1979 0.0000
# 4 0.0000 0.0000 0.0000 31.6348 0.0000 1.6104
# 5 4.3464 10.8748 3.1979 0.0000 34.7213 0.0000
# 6 0.0000 0.0000 0.0000 1.6104 0.0000 24.3878
#
#
#
# Elastic Compliance Matrix: (Units=1/GPa)
#
#
# Indices 1 2 3 4 5 6 
#
# 1 0.009334 -0.001640 -0.005881 0.000000 -0.000113 0.000000
# 2 -0.001640 0.014695 -0.007435 0.000000 -0.003712 0.000000
# 3 -0.005881 -0.007435 0.024061 0.000000 0.000849 0.000000
# 4 0.000000 0.000000 0.000000 0.031717 0.000000 -0.002094
# 5 -0.000113 -0.003712 0.000849 0.000000 0.029900 0.000000
# 6 0.000000 0.000000 0.000000 -0.002094 0.000000 0.041142
#
#
# Mechanical properties :
#
#
# Convention : Reuss Voigt Hill
#
# Bulk Modulus (GPa) = 55.00818 62.57512 58.79165
# Shear Modulus (GPa) = 26.76348 29.91514 28.33931
#
# Velocity S-wave (km/s) = 3.74261 3.95684 3.85121
# Velocity P-wave (km/s) = 6.88952 7.32292 7.10952
#
# Compressibility (1/GPa) = 0.01817911
#
# Stress axis : x y z
#
# Youngs Moduli (GPa) = 107.13182 68.04962 41.56031
#
# Poissons Ratio (x) = 0.11163 0.24442
# Poissons Ratio (y) = 0.17574 0.30898
# Poissons Ratio (z) = 0.63004 0.50592
#
# Static dielectric constant tensor:
#      x y z
#    x 4.129670 0.000000 0.389260 
#    y 0.000000 3.736380 0.000000 
#    z 0.389260 0.000000 4.062260 
# 
# 
# High freq. dielectric constant tensor:
#      x y z
#    x 1.744260 0.000000 -0.010090 
#    y 0.000000 1.727630 0.000000 
#    z -0.010090 0.000000 1.739450 
# 
# From -- ./inp_files/154957.got.cif
#   From: 2010.06.25/outbox.cif.g09.slc.cpg/sg15_78_cif.got.tgz:154957.got - 2010.06.28 07:06:18.
