data_PCOD8133912
_publ_section_title
;
Structure prediction by ZEFSAII (Michael W. Deem and Ramdas Pophale) SiO2 
 PCOD8133912
Probable space group: C 2/C
;
_chemical_formula_sum "Si O2"
_cell_formula_units_Z 60
_cell_length_a 24.371821
_cell_length_b 18.677369
_cell_length_c 8.685611
_cell_angle_alpha 90.000000
_cell_angle_beta 122.511731
_cell_angle_gamma 90.000000
_cell_volume 3334.084363
_symmetry_space_group_name_H-M "C 2/C"
_symmetry_group_IT_number 15
_symmetry_cell_setting 'monoclinic'
loop_
_space_group_symop_operation_xyz
x,y,z
-x,y,1/2-z
-x,-y,-z
x,-y,1/2+z
1/2+x,1/2+y,z
1/2-x,1/2+y,1/2-z
1/2-x,1/2-y,-z
1/2+x,1/2-y,1/2+z
loop_
_atom_site_type_symbol
_atom_site_label
_atom_site_fract_x
_atom_site_fract_y
_atom_site_fract_z
Si Si1 0.274929 0.961703 0.686276
Si Si2 0.826298 0.298382 0.268187
Si Si3 0.921307 0.431027 0.845188
Si Si4 0.000000 0.536362 0.750000
Si Si5 0.275312 0.174039 0.372513
Si Si6 0.925880 0.711391 0.150811
Si Si7 0.742007 0.596671 0.812365
Si Si8 0.181620 0.230357 0.813693
O O1 0.352853 0.963552 0.798368
O O2 0.251860 0.902465 0.774911
O O3 0.249131 0.944400 0.480724
O O4 0.240711 0.037168 0.676956
O O5 0.789009 0.222380 0.202577
O O6 0.901498 0.292240 0.434686
O O7 0.800464 0.348300 0.367747
O O8 0.816019 0.337838 0.090596
O O9 0.951102 0.488910 0.775765
O O10 0.918172 0.360062 0.738840
O O11 0.961679 0.416584 0.064221
O O12 0.326630 0.210388 0.332417
O O13 0.879438 0.769677 0.163123
O O14 0.000000 0.737339 0.250000
O O15 0.680386 0.650576 0.734519
O O16 0.250000 0.250000 0.000000
#
# Coordination Sequence:
#
# PCOD8133912 Si02
#       8
#     8   8   8   4   8   8   8   8
#     4  12  20  32  51  81  99 144 182 242 282 327
#     4  10  20  36  52  83 108 150 185 238 282 340
#     4  11  21  36  49  69 108 150 195 228 264 332
#     4  10  24  36  44  66 110 160 190 216 276 328
#     4  10  19  34  60  76 111 144 190 234 290 335
#     4  12  22  36  57  81 112 151 195 233 283 339
#     4  11  21  33  57  79 113 140 191 239 282 341
#     4  11  18  41  58  77 112 155 188 238 289 336
#
# _framework density 17.995944999999999
#
# number of rings (size 3 to 8) (size 9 to 14) (size 15 to 20)
#    0.000    1.067    7.333    1.600    0.000    1.067 
#    0.000    0.000    0.000    0.000    0.000    3.733 
#    0.000    0.000    0.000    0.667    0.000    0.000 
#
# Total GULP energy -371680.238890 kJ/mol
# GULP energy per Si atom -12389.341296 kJ/mol
# Density = 1.795499 g / cm^3
# Si number density = 17.995945 Si / 1000 Ang^3
#
#
#
# Elastic Constant Matrix: (Units=GPa)
#
#
# Indices 1 2 3 4 5 6 
#
# 1 74.8558 30.3417 36.6662 0.0000 0.4248 0.0000
# 2 30.3417 82.9648 15.3347 0.0000 1.4899 0.0000
# 3 36.6662 15.3347 102.0001 0.0000 -6.2981 0.0000
# 4 0.0000 0.0000 0.0000 22.3536 0.0000 -26.7234
# 5 0.4248 1.4899 -6.2981 0.0000 22.3765 0.0000
# 6 0.0000 0.0000 0.0000 -26.7234 0.0000 -67.9472
#
#
#
# Elastic Compliance Matrix: (Units=1/GPa)
#
#
# Indices 1 2 3 4 5 6 
#
# 1 0.018566 -0.005666 -0.005924 0.000000 -0.001643 0.000000
# 2 -0.005666 0.014168 -0.000148 0.000000 -0.000877 0.000000
# 3 -0.005924 -0.000148 0.012175 0.000000 0.003549 0.000000
# 4 0.000000 0.000000 0.000000 0.030429 0.000000 -0.011967
# 5 -0.001643 -0.000877 0.003549 0.000000 0.045778 0.000000
# 6 0.000000 0.000000 0.000000 -0.011967 0.000000 -0.010011
#
#
# Mechanical properties :
#
#
# Convention : Reuss Voigt Hill
#
# Bulk Modulus (GPa) = 46.65175 47.16732 46.90954
# Shear Modulus (GPa) = 35.27960 7.18844 21.23402
#
# Velocity S-wave (km/s) = 4.43247 2.00079 3.43874
# Velocity P-wave (km/s) = 7.22326 5.62178 6.47224
#
# Compressibility (1/GPa) = 0.02143542
#
# Stress axis : x y z
#
# Youngs Moduli (GPa) = 53.86066 70.57973 82.13776
#
# Poissons Ratio (x) = 0.39988 0.48656
# Poissons Ratio (y) = 0.30516 0.01212
# Poissons Ratio (z) = 0.31906 0.01042
#
# Static dielectric constant tensor:
#      x y z
#    x 3.522000 0.000000 -0.202170 
#    y 0.000000 3.437080 0.000000 
#    z -0.202170 0.000000 3.522650 
# 
# 
# High freq. dielectric constant tensor:
#      x y z
#    x 1.678850 0.000000 -0.035140 
#    y 0.000000 1.685400 0.000000 
#    z -0.035140 0.000000 1.695900 
# 
# From -- ./inp_files/67032.got.cif
#   From: 2010.06.25/outbox.cif.g09.slc.cpg/sg15_34_cif.got.tgz:67032.got - 2010.06.28 07:06:18.
