data_PCOD8133669
_publ_section_title
;
Structure prediction by ZEFSAII (Michael W. Deem and Ramdas Pophale) SiO2 
 PCOD8133669
Probable space group: C 2/C
;
_chemical_formula_sum "Si O2"
_cell_formula_units_Z 36
_cell_length_a 28.192593
_cell_length_b 13.451507
_cell_length_c 22.947772
_cell_angle_alpha 90.000000
_cell_angle_beta 11.648900
_cell_angle_gamma 90.000000
_cell_volume 1757.165503
_symmetry_space_group_name_H-M "C 2/C"
_symmetry_group_IT_number 15
_symmetry_cell_setting 'monoclinic'
loop_
_space_group_symop_operation_xyz
x,y,z
-x,y,1/2-z
-x,-y,-z
x,-y,1/2+z
1/2+x,1/2+y,z
1/2-x,1/2+y,1/2-z
1/2-x,1/2-y,-z
1/2+x,1/2-y,1/2+z
loop_
_atom_site_type_symbol
_atom_site_label
_atom_site_fract_x
_atom_site_fract_y
_atom_site_fract_z
Si Si1 0.266709 0.525969 0.416297
Si Si2 0.561114 0.878548 0.338967
Si Si3 0.000000 0.938402 0.750000
Si Si4 0.359854 0.671696 0.583243
Si Si5 0.767055 0.946594 0.298698
O O1 0.407938 0.495536 0.305453
O O2 0.261151 0.433466 0.376506
O O3 0.394909 0.617434 0.228856
O O4 0.000000 0.559319 0.750000
O O5 0.380507 0.788657 0.544485
O O6 0.646511 0.873327 0.302716
O O7 0.451004 0.985632 0.459052
O O8 0.788442 0.866585 0.023848
O O9 0.276689 0.656535 0.750860
O O10 0.000000 0.000000 0.000000
#
# Coordination Sequence:
#
# PCOD8133669 Si02
#       5
#     8   8   4   8   8
#     4  10  19  34  54  79 120 151 190 236 290 351
#     4  11  21  36  56  88 125 152 194 238 298 357
#     4  10  22  32  58  92 118 158 184 236 314 360
#     4  10  22  33  56  85 120 160 193 236 291 352
#     4  10  20  37  55  80 121 158 198 237 288 352
#
# _framework density 20.487539999999999
#
# number of rings (size 3 to 8) (size 9 to 14) (size 15 to 20)
#    0.000    1.778    2.222    3.333    1.556    1.778 
#    0.000    0.000    0.000    0.000    0.000   14.000 
#   13.333    0.222    0.000    0.000    0.000    0.000 
#
# Total GULP energy -222992.262244 kJ/mol
# GULP energy per Si atom -12388.459014 kJ/mol
# Density = 2.044091 g / cm^3
# Si number density = 20.487540 Si / 1000 Ang^3
#
#
#
# Elastic Constant Matrix: (Units=GPa)
#
#
# Indices 1 2 3 4 5 6 
#
# 1 187.5448 29.7830 41.3768 0.1596 4.7662 -0.2896
# 2 29.7830 38.0296 29.8973 0.6703 8.9533 -0.2145
# 3 41.3768 29.8973 77.2124 -0.0127 -4.0752 -1.0534
# 4 0.1596 0.6703 -0.0127 15.4581 -0.0286 0.4046
# 5 4.7662 8.9533 -4.0752 -0.0286 28.2304 0.0824
# 6 -0.2896 -0.2145 -1.0534 0.4046 0.0824 15.5726
#
#
#
# Elastic Compliance Matrix: (Units=1/GPa)
#
#
# Indices 1 2 3 4 5 6 
#
# 1 0.006324 -0.003136 -0.002196 0.000070 -0.000390 -0.000074
# 2 -0.003136 0.046075 -0.017039 -0.001999 -0.016544 -0.000437
# 3 -0.002196 -0.017039 0.021207 0.000767 0.008834 0.001092
# 4 0.000070 -0.001999 0.000767 0.064823 0.000803 -0.001663
# 5 -0.000390 -0.016544 0.008834 0.000803 0.042011 0.000119
# 6 -0.000074 -0.000437 0.001092 -0.001663 0.000119 0.064324
#
#
# Mechanical properties :
#
#
# Convention : Reuss Voigt Hill
#
# Bulk Modulus (GPa) = 34.64679 56.10008 45.37344
# Shear Modulus (GPa) = 16.71520 25.30087 21.00803
#
# Velocity S-wave (km/s) = 2.85945 3.51798 3.20567
# Velocity P-wave (km/s) = 5.27729 6.62900 5.99138
#
# Compressibility (1/GPa) = 0.02886270
#
# Stress axis : x y z
#
# Youngs Moduli (GPa) = 158.11779 21.70393 47.15355
#
# Poissons Ratio (x) = 0.06807 0.10357
# Poissons Ratio (y) = 0.49588 0.80346
# Poissons Ratio (z) = 0.34729 0.36982
#
# Static dielectric constant tensor:
#      x y z
#    x 4.490890 -0.000260 0.297270 
#    y -0.000260 3.362830 0.000780 
#    z 0.297270 0.000780 3.867400 
# 
# 
# High freq. dielectric constant tensor:
#      x y z
#    x 1.828920 -0.000060 -0.009020 
#    y -0.000060 1.719180 0.000100 
#    z -0.009020 0.000100 1.810630 
# 
# From -- ./inp_files/46011.got.cif
#   From: 2010.06.25/outbox.cif.g09.slc.cpg/sg15_24_cif.got.tgz:46011.got - 2010.06.28 07:06:18.
