data_PCOD8133613
_publ_section_title
;
Structure prediction by ZEFSAII (Michael W. Deem and Ramdas Pophale) SiO2 
 PCOD8133613
Probable space group: C 2/C
;
_chemical_formula_sum "Si O2"
_cell_formula_units_Z 64
_cell_length_a 13.142065
_cell_length_b 28.574237
_cell_length_c 16.014713
_cell_angle_alpha 90.000000
_cell_angle_beta 144.776843
_cell_angle_gamma 90.000000
_cell_volume 3468.601859
_symmetry_space_group_name_H-M "C 2/C"
_symmetry_group_IT_number 15
_symmetry_cell_setting 'monoclinic'
loop_
_space_group_symop_operation_xyz
x,y,z
-x,y,1/2-z
-x,-y,-z
x,-y,1/2+z
1/2+x,1/2+y,z
1/2-x,1/2+y,1/2-z
1/2-x,1/2-y,-z
1/2+x,1/2-y,1/2+z
loop_
_atom_site_type_symbol
_atom_site_label
_atom_site_fract_x
_atom_site_fract_y
_atom_site_fract_z
Si Si1 0.794574 0.378670 0.746518
Si Si2 0.185640 0.716609 0.327374
Si Si3 0.238824 0.973600 0.287675
Si Si4 0.481562 0.695906 0.835379
Si Si5 0.551096 0.970411 0.372182
Si Si6 0.346627 0.069129 0.028716
Si Si7 0.183275 0.928159 0.831629
Si Si8 0.542030 0.400716 0.436165
O O1 0.791416 0.323615 0.726159
O O2 0.749898 0.388107 0.813228
O O3 0.642682 0.403015 0.590823
O O4 0.980953 0.399692 0.842394
O O5 0.341150 0.716184 0.500862
O O6 0.000000 0.710604 0.250000
O O7 0.175211 0.765120 0.266513
O O8 0.384513 0.984622 0.316684
O O9 0.325118 0.941450 0.416585
O O10 0.080383 0.945629 0.140283
O O11 0.163066 0.022003 0.272186
O O12 0.500000 0.684563 0.750000
O O13 0.431021 0.647512 0.848745
O O14 0.500000 0.947147 0.250000
O O15 0.672876 0.932466 0.498903
O O16 0.647782 0.019725 0.418318
O O17 0.179744 0.097643 0.951429
O O18 0.000000 0.912665 0.750000
#
# Coordination Sequence:
#
# PCOD8133613 Si02
#       8
#     8   8   8   8   8   8   8   8
#     4  11  21  36  53  80 109 148 187 220 272 331
#     4  10  20  33  54  80 113 143 175 219 272 335
#     4  11  21  37  53  81 111 147 190 225 272 322
#     4  10  19  34  50  81 112 144 178 215 273 330
#     4  11  22  37  55  77 108 148 190 230 273 321
#     4  11  19  37  52  76 112 150 187 216 271 324
#     4  11  23  39  55  76 110 147 189 233 272 317
#     4  11  23  32  57  84 112 149 181 229 266 331
#
# _framework density 18.451238
#
# number of rings (size 3 to 8) (size 9 to 14) (size 15 to 20)
#    0.000    1.250    2.500    7.500    1.750    1.500 
#    0.000    0.000    0.000    0.000    0.000    4.375 
#    0.000    0.000    0.000    0.000    0.000    0.000 
#
# Total GULP energy -396749.098948 kJ/mol
# GULP energy per Si atom -12398.409342 kJ/mol
# Density = 1.840924 g / cm^3
# Si number density = 18.451238 Si / 1000 Ang^3
#
#
#
# Elastic Constant Matrix: (Units=GPa)
#
#
# Indices 1 2 3 4 5 6 
#
# 1 63.0207 16.7066 19.0789 0.0000 -5.3701 0.0000
# 2 16.7066 61.1898 26.1941 0.0000 -5.2137 0.0000
# 3 19.0789 26.1941 83.3110 0.0000 -6.9294 0.0000
# 4 0.0000 0.0000 0.0000 29.7852 0.0000 -2.1949
# 5 -5.3701 -5.2137 -6.9294 0.0000 26.8187 0.0000
# 6 0.0000 0.0000 0.0000 -2.1949 0.0000 15.6235
#
#
#
# Elastic Compliance Matrix: (Units=1/GPa)
#
#
# Indices 1 2 3 4 5 6 
#
# 1 0.017825 -0.003480 -0.002808 0.000000 0.002167 0.000000
# 2 -0.003480 0.019690 -0.005246 0.000000 0.001775 0.000000
# 3 -0.002808 -0.005246 0.014475 0.000000 0.002158 0.000000
# 4 0.000000 0.000000 0.000000 0.033925 0.000000 0.004766
# 5 0.002167 0.001775 0.002158 0.000000 0.038624 0.000000
# 6 0.000000 0.000000 0.000000 0.004766 0.000000 0.064676
#
#
# Mechanical properties :
#
#
# Convention : Reuss Voigt Hill
#
# Bulk Modulus (GPa) = 34.57552 36.83119 35.70335
# Shear Modulus (GPa) = 22.53032 24.14828 23.33930
#
# Velocity S-wave (km/s) = 3.49818 3.62161 3.56043
# Velocity P-wave (km/s) = 5.92418 6.12313 6.02448
#
# Compressibility (1/GPa) = 0.02892220
#
# Stress axis : x y z
#
# Youngs Moduli (GPa) = 56.10090 50.78768 69.08411
#
# Poissons Ratio (x) = 0.17675 0.19396
# Poissons Ratio (y) = 0.19524 0.36242
# Poissons Ratio (z) = 0.15751 0.26644
#
# Static dielectric constant tensor:
#      x y z
#    x 3.087840 0.000000 -0.055350 
#    y 0.000000 3.490300 0.000000 
#    z -0.055350 0.000000 3.691270 
# 
# 
# High freq. dielectric constant tensor:
#      x y z
#    x 1.677550 0.000000 -0.008100 
#    y 0.000000 1.702050 0.000000 
#    z -0.008100 0.000000 1.737430 
# 
# From -- ./inp_files/149200.got.cif
#   From: 2010.06.25/outbox.cif.g09.slc.cpg/sg15_75_cif.got.tgz:149200.got - 2010.06.28 07:06:18.
