data_PCOD8133836
_publ_section_title
;
Structure prediction by ZEFSAII (Michael W. Deem and Ramdas Pophale) SiO2 
 PCOD8133836
Probable space group: C 2/C
;
_chemical_formula_sum "Si O2"
_cell_formula_units_Z 48
_cell_length_a 12.014486
_cell_length_b 21.905682
_cell_length_c 13.040264
_cell_angle_alpha 90.000000
_cell_angle_beta 140.258206
_cell_angle_gamma 90.000000
_cell_volume 2194.182170
_symmetry_space_group_name_H-M "C 2/C"
_symmetry_group_IT_number 15
_symmetry_cell_setting 'monoclinic'
loop_
_space_group_symop_operation_xyz
x,y,z
-x,y,1/2-z
-x,-y,-z
x,-y,1/2+z
1/2+x,1/2+y,z
1/2-x,1/2+y,1/2-z
1/2-x,1/2-y,-z
1/2+x,1/2-y,1/2+z
loop_
_atom_site_type_symbol
_atom_site_label
_atom_site_fract_x
_atom_site_fract_y
_atom_site_fract_z
Si Si1 0.031007 0.052577 0.603289
Si Si2 0.680006 0.102193 0.324762
Si Si3 0.189138 0.471837 0.624511
Si Si4 0.845252 0.826919 0.406521
Si Si5 0.774390 0.210946 0.271342
Si Si6 0.793922 0.860423 0.588265
O O1 0.141546 0.106210 0.630143
O O2 0.846365 0.081660 0.513545
O O3 0.158932 0.023454 0.780063
O O4 0.000000 0.000000 0.500000
O O5 0.500000 0.082180 0.250000
O O6 0.720484 0.068315 0.247711
O O7 0.673038 0.174755 0.291432
O O8 0.204242 0.427126 0.537374
O O9 0.000000 0.500000 0.500000
O O10 0.760212 0.783498 0.259216
O O11 0.739199 0.833883 0.438408
O O12 0.025559 0.796909 0.564256
O O13 0.719526 0.185535 0.120781
O O14 0.000000 0.869542 0.750000
#
# Coordination Sequence:
#
# PCOD8133836 Si02
#       6
#     8   8   8   8   8   8
#     4   9  19  37  55  76 110 150 188 229 279 336
#     4   9  19  37  57  75 107 152 187 227 282 339
#     4  10  21  34  53  84 113 141 188 240 277 331
#     4  10  19  34  58  81 110 149 181 232 293 341
#     4   9  19  34  53  80 110 140 185 233 282 341
#     4   9  18  34  54  78 109 146 180 227 288 338
#
# _framework density 21.876031000000001
#
# number of rings (size 3 to 8) (size 9 to 14) (size 15 to 20)
#    0.000    2.667    0.000    3.500    0.000    6.667 
#    0.000    5.000    0.000    3.000    0.000    0.000 
#    0.000    0.000    0.000    0.000    0.000    0.000 
#
# Total GULP energy -297344.437248 kJ/mol
# GULP energy per Si atom -12389.351552 kJ/mol
# Density = 2.182624 g / cm^3
# Si number density = 21.876031 Si / 1000 Ang^3
#
#
#
# Elastic Constant Matrix: (Units=GPa)
#
#
# Indices 1 2 3 4 5 6 
#
# 1 69.2836 21.4445 14.5656 0.0000 19.1888 0.0000
# 2 21.4445 141.3472 33.5402 0.0000 1.9960 0.0000
# 3 14.5656 33.5402 54.8155 0.0000 11.1362 0.0000
# 4 0.0000 0.0000 0.0000 29.0527 0.0000 1.0476
# 5 19.1888 1.9960 11.1362 0.0000 22.4227 0.0000
# 6 0.0000 0.0000 0.0000 1.0476 0.0000 27.4432
#
#
#
# Elastic Compliance Matrix: (Units=1/GPa)
#
#
# Indices 1 2 3 4 5 6 
#
# 1 0.019961 -0.002737 -0.000232 0.000000 -0.016724 0.000000
# 2 -0.002737 0.008731 -0.005487 0.000000 0.004290 0.000000
# 3 -0.000232 -0.005487 0.023938 0.000000 -0.011202 0.000000
# 4 0.000000 0.000000 0.000000 0.034468 0.000000 -0.001316
# 5 -0.016724 0.004290 -0.011202 0.000000 0.064091 0.000000
# 6 0.000000 0.000000 0.000000 -0.001316 0.000000 0.036489
#
#
# Mechanical properties :
#
#
# Convention : Reuss Voigt Hill
#
# Bulk Modulus (GPa) = 27.99668 44.94967 36.47317
# Shear Modulus (GPa) = 23.09517 28.84343 25.96930
#
# Velocity S-wave (km/s) = 3.25272 3.63505 3.44919
# Velocity P-wave (km/s) = 5.18966 6.18144 5.70713
#
# Compressibility (1/GPa) = 0.03571853
#
# Stress axis : x y z
#
# Youngs Moduli (GPa) = 50.09737 114.52865 41.77542
#
# Poissons Ratio (x) = 0.31350 0.00968
# Poissons Ratio (y) = 0.13713 0.22921
# Poissons Ratio (z) = 0.01161 0.62839
#
# Static dielectric constant tensor:
#      x y z
#    x 3.707220 0.000000 0.006610 
#    y 0.000000 4.325500 0.000000 
#    z 0.006610 0.000000 3.804960 
# 
# 
# High freq. dielectric constant tensor:
#      x y z
#    x 1.832850 0.000000 0.014140 
#    y 0.000000 1.870640 0.000000 
#    z 0.014140 0.000000 1.839420 
# 
# From -- ./inp_files/32630.got.cif
#   From: 2010.06.25/outbox.cif.g09.slc.cpg/sg15_17_cif.got.tgz:32630.got - 2010.06.28 07:06:18.
