data_PCOD8133151
_publ_section_title
;
Structure prediction by ZEFSAII (Michael W. Deem and Ramdas Pophale) SiO2 
 PCOD8133151
Probable space group: C 2/C
;
_chemical_formula_sum "Si O2"
_cell_formula_units_Z 48
_cell_length_a 20.736157
_cell_length_b 9.147751
_cell_length_c 19.246391
_cell_angle_alpha 90.000000
_cell_angle_beta 46.833319
_cell_angle_gamma 90.000000
_cell_volume 2662.795259
_symmetry_space_group_name_H-M "C 2/C"
_symmetry_group_IT_number 15
_symmetry_cell_setting 'monoclinic'
loop_
_space_group_symop_operation_xyz
x,y,z
-x,y,1/2-z
-x,-y,-z
x,-y,1/2+z
1/2+x,1/2+y,z
1/2-x,1/2+y,1/2-z
1/2-x,1/2-y,-z
1/2+x,1/2-y,1/2+z
loop_
_atom_site_type_symbol
_atom_site_label
_atom_site_fract_x
_atom_site_fract_y
_atom_site_fract_z
Si Si1 0.652460 0.355663 0.279426
Si Si2 0.091137 0.415883 0.432720
Si Si3 0.210545 0.929192 0.963897
Si Si4 0.965135 0.111368 0.970547
Si Si5 0.237770 0.406592 0.427972
Si Si6 0.282535 0.966118 0.767308
O O1 0.547141 0.335459 0.362639
O O2 0.674481 0.402852 0.184345
O O3 0.702163 0.204281 0.261618
O O4 0.688859 0.480790 0.304604
O O5 0.077469 0.245143 0.455576
O O6 0.157000 0.480399 0.444025
O O7 0.137726 0.437721 0.323415
O O8 0.000000 0.500000 0.500000
O O9 0.208967 0.754973 0.970027
O O10 0.276903 0.987668 0.854994
O O11 0.108553 0.969973 0.022262
O O12 0.241238 0.994741 0.016009
O O13 0.000000 0.000000 0.000000
#
# Coordination Sequence:
#
# PCOD8133151 Si02
#       6
#     8   8   8   8   8   8
#     4  10  19  32  53  81 105 141 176 218 269 316
#     4  10  19  34  54  79 105 135 181 224 260 311
#     4   9  17  33  51  77 107 136 173 219 265 317
#     4  11  20  32  53  83 106 136 180 220 262 314
#     4   8  18  32  51  77 108 134 172 219 270 309
#     4  10  19  33  54  77 108 142 178 216 270 316
#
# _framework density 18.026171000000001
#
# number of rings (size 3 to 8) (size 9 to 14) (size 15 to 20)
#    0.000    2.333    3.333    1.000    0.000    0.667 
#    0.000    0.833    0.000    9.000    4.333    0.000 
#    0.000    0.000    0.000    0.000    0.000    0.000 
#
# Total GULP energy -297437.331207 kJ/mol
# GULP energy per Si atom -12393.222134 kJ/mol
# Density = 1.798514 g / cm^3
# Si number density = 18.026171 Si / 1000 Ang^3
#
#
#
# Elastic Constant Matrix: (Units=GPa)
#
#
# Indices 1 2 3 4 5 6 
#
# 1 122.5652 34.3072 81.8275 0.0000 6.1710 0.0000
# 2 34.3072 42.6125 30.7908 0.0002 5.4624 -0.0002
# 3 81.8275 30.7908 139.4782 0.0001 0.9433 0.0000
# 4 0.0000 0.0002 0.0001 26.8907 0.0000 -3.4485
# 5 6.1710 5.4624 0.9433 0.0000 36.6241 0.0000
# 6 0.0000 -0.0002 0.0000 -3.4485 0.0000 20.2095
#
#
#
# Elastic Compliance Matrix: (Units=1/GPa)
#
#
# Indices 1 2 3 4 5 6 
#
# 1 0.014947 -0.006581 -0.007307 0.000000 -0.001349 0.000000
# 2 -0.006581 0.031419 -0.003051 0.000000 -0.003499 0.000000
# 3 -0.007307 -0.003051 0.012121 0.000000 0.001374 0.000000
# 4 0.000000 0.000000 0.000000 0.038020 0.000000 0.006488
# 5 -0.001349 -0.003499 0.001374 0.000000 0.028018 0.000000
# 6 0.000000 0.000000 0.000000 0.006488 0.000000 0.050589
#
#
# Mechanical properties :
#
#
# Convention : Reuss Voigt Hill
#
# Bulk Modulus (GPa) = 40.63748 66.50077 53.56912
# Shear Modulus (GPa) = 23.02068 27.26022 25.14045
#
# Velocity S-wave (km/s) = 3.57749 3.89299 3.73857
# Velocity P-wave (km/s) = 6.29739 7.56165 6.95829
#
# Compressibility (1/GPa) = 0.02460783
#
# Stress axis : x y z
#
# Youngs Moduli (GPa) = 66.90093 31.82771 82.50259
#
# Poissons Ratio (x) = 0.20947 0.60287
# Poissons Ratio (y) = 0.44029 0.25174
# Poissons Ratio (z) = 0.48886 0.09712
#
# Static dielectric constant tensor:
#      x y z
#    x 3.785230 0.000000 -0.081440 
#    y 0.000000 3.093700 0.000000 
#    z -0.081440 0.000000 3.725170 
# 
# 
# High freq. dielectric constant tensor:
#      x y z
#    x 1.687100 0.000000 -0.009260 
#    y 0.000000 1.664030 0.000000 
#    z -0.009260 0.000000 1.711760 
# 
# From -- ./inp_files/213264.got.cif
#   From: 2010.06.25/outbox.cif.g09.slc.cpg/sg15_107_cif.got.tgz:213264.got - 2010.06.28 07:06:18.
