data_PCOD8133776
_publ_section_title
;
Structure prediction by ZEFSAII (Michael W. Deem and Ramdas Pophale) SiO2 
 PCOD8133776
Probable space group: C 2/C
;
_chemical_formula_sum "Si O2"
_cell_formula_units_Z 48
_cell_length_a 20.908916
_cell_length_b 15.939400
_cell_length_c 12.687168
_cell_angle_alpha 90.000000
_cell_angle_beta 36.167455
_cell_angle_gamma 90.000000
_cell_volume 2495.333129
_symmetry_space_group_name_H-M "C 2/C"
_symmetry_group_IT_number 15
_symmetry_cell_setting 'monoclinic'
loop_
_space_group_symop_operation_xyz
x,y,z
-x,y,1/2-z
-x,-y,-z
x,-y,1/2+z
1/2+x,1/2+y,z
1/2-x,1/2+y,1/2-z
1/2-x,1/2-y,-z
1/2+x,1/2-y,1/2+z
loop_
_atom_site_type_symbol
_atom_site_label
_atom_site_fract_x
_atom_site_fract_y
_atom_site_fract_z
Si Si1 0.855422 0.919181 0.263796
Si Si2 0.367443 0.355384 0.032721
Si Si3 0.990955 0.756945 0.138549
Si Si4 0.110460 0.897163 0.726307
Si Si5 0.214622 0.204296 0.266756
Si Si6 0.787846 0.665301 0.391929
O O1 0.817067 0.913603 0.192659
O O2 0.942293 0.844713 0.161721
O O3 0.751658 0.910223 0.479999
O O4 0.913602 0.007030 0.209444
O O5 0.316934 0.262680 0.106207
O O6 0.497236 0.347103 0.876025
O O7 0.337842 0.395224 0.959298
O O8 0.917679 0.675184 0.208434
O O9 0.000000 0.767178 0.250000
O O10 0.106436 0.740633 0.930164
O O11 0.196811 0.857905 0.692462
O O12 0.236381 0.152214 0.345022
O O13 0.750000 0.750000 0.500000
#
# Coordination Sequence:
#
# PCOD8133776 Si02
#       6
#     8   8   8   8   8   8
#     4  11  21  37  57  91 119 140 189 249 291 327
#     4  11  23  39  53  88 117 148 200 228 280 358
#     4  11  19  32  62  91 114 149 188 238 284 331
#     4  11  26  35  60  84 119 154 182 246 292 336
#     4  12  20  37  57  83 118 156 190 229 289 336
#     4  10  19  34  56  92 113 147 193 234 272 346
#
# _framework density 19.235908999999999
#
# number of rings (size 3 to 8) (size 9 to 14) (size 15 to 20)
#    0.000    1.000    8.333    1.000    4.667    0.000 
#    0.000    0.000    0.000    1.000   26.000    0.000 
#    0.000    0.000    0.000    0.000    0.000    0.000 
#
# Total GULP energy -297506.869224 kJ/mol
# GULP energy per Si atom -12396.119551 kJ/mol
# Density = 1.919213 g / cm^3
# Si number density = 19.235909 Si / 1000 Ang^3
#
#
#
# Elastic Constant Matrix: (Units=GPa)
#
#
# Indices 1 2 3 4 5 6 
#
# 1 123.0284 40.1287 68.0369 0.0000 37.0434 0.0000
# 2 40.1287 69.3183 42.7531 0.0000 -0.4386 0.0000
# 3 68.0369 42.7531 96.1650 0.0000 11.0171 0.0000
# 4 0.0000 0.0000 0.0000 13.8268 0.0000 2.4421
# 5 37.0434 -0.4386 11.0171 0.0000 45.9703 0.0000
# 6 0.0000 0.0000 0.0000 2.4421 0.0000 22.6307
#
#
#
# Elastic Compliance Matrix: (Units=1/GPa)
#
#
# Indices 1 2 3 4 5 6 
#
# 1 0.019173 -0.005161 -0.009763 0.000000 -0.013159 0.000000
# 2 -0.005161 0.021521 -0.006597 0.000000 0.005945 0.000000
# 3 -0.009763 -0.006597 0.019891 0.000000 0.003037 0.000000
# 4 0.000000 0.000000 0.000000 0.073729 0.000000 -0.007956
# 5 -0.013159 0.005945 0.003037 0.000000 0.031686 0.000000
# 6 0.000000 0.000000 0.000000 -0.007956 0.000000 0.045046
#
#
# Mechanical properties :
#
#
# Convention : Reuss Voigt Hill
#
# Bulk Modulus (GPa) = 57.00530 65.59434 61.29982
# Shear Modulus (GPa) = 19.23562 25.65842 22.44702
#
# Velocity S-wave (km/s) = 3.16568 3.65620 3.41975
# Velocity P-wave (km/s) = 6.56211 7.21094 6.89416
#
# Compressibility (1/GPa) = 0.01754223
#
# Stress axis : x y z
#
# Youngs Moduli (GPa) = 52.15756 46.46708 50.27423
#
# Poissons Ratio (x) = 0.23983 0.49080
# Poissons Ratio (y) = 0.26920 0.33167
# Poissons Ratio (z) = 0.50919 0.30655
#
# Static dielectric constant tensor:
#      x y z
#    x 3.922610 0.000000 0.151590 
#    y 0.000000 3.138820 0.000000 
#    z 0.151590 0.000000 3.951830 
# 
# 
# High freq. dielectric constant tensor:
#      x y z
#    x 1.761680 0.000000 0.023830 
#    y 0.000000 1.698780 0.000000 
#    z 0.023830 0.000000 1.752560 
# 
# From -- ./inp_files/112935.got.cif
#   From: 2010.06.25/outbox.cif.g09.slc.cpg/sg15_57_cif.got.tgz:112935.got - 2010.06.28 07:06:18.
