data_PCOD8133325
_publ_section_title
;
Structure prediction by ZEFSAII (Michael W. Deem and Ramdas Pophale) SiO2 
 PCOD8133325
Probable space group: C 2/C
;
_chemical_formula_sum "Si O2"
_cell_formula_units_Z 60
_cell_length_a 24.944246
_cell_length_b 23.941778
_cell_length_c 10.255001
_cell_angle_alpha 90.000000
_cell_angle_beta 35.901813
_cell_angle_gamma 90.000000
_cell_volume 3591.327072
_symmetry_space_group_name_H-M "C 2/C"
_symmetry_group_IT_number 15
_symmetry_cell_setting 'monoclinic'
loop_
_space_group_symop_operation_xyz
x,y,z
-x,y,1/2-z
-x,-y,-z
x,-y,1/2+z
1/2+x,1/2+y,z
1/2-x,1/2+y,1/2-z
1/2-x,1/2-y,-z
1/2+x,1/2-y,1/2+z
loop_
_atom_site_type_symbol
_atom_site_label
_atom_site_fract_x
_atom_site_fract_y
_atom_site_fract_z
Si Si1 0.702674 0.794293 0.691439
Si Si2 0.196831 0.293397 0.013331
Si Si3 0.992746 0.156185 0.470834
Si Si4 0.000000 0.067043 0.250000
Si Si5 0.102916 0.995014 0.739633
Si Si6 0.831020 0.888946 0.758557
Si Si7 0.495232 0.780310 0.402420
Si Si8 0.344296 0.613954 0.933620
O O1 0.750000 0.750000 0.500000
O O2 0.750440 0.854437 0.584144
O O3 0.703797 0.775588 0.844432
O O4 0.597753 0.803716 0.848128
O O5 0.092643 0.295303 0.275443
O O6 0.250000 0.250000 0.000000
O O7 0.234837 0.356347 0.958760
O O8 0.960193 0.105866 0.442433
O O9 0.981310 0.213973 0.419859
O O10 0.927343 0.153389 0.724712
O O11 0.097444 0.149377 0.305211
O O12 0.914728 0.028823 0.371414
O O13 0.169139 0.951653 0.684138
O O14 0.155686 0.053434 0.634750
O O15 0.000000 0.000000 0.000000
O O16 0.861615 0.894633 0.550567
O O17 0.500000 0.806526 0.250000
#
# Coordination Sequence:
#
# PCOD8133325 Si02
#       8
#     8   8   8   4   8   8   8   8
#     4  10  21  35  52  77 105 139 176 214 260 312
#     4  10  20  35  54  78 105 139 175 217 257 311
#     4  11  18  28  50  72 104 132 164 209 246 307
#     4  10  20  28  42  76  98 138 162 200 260 300
#     4  11  20  31  48  70 103 134 166 211 260 311
#     4  10  21  33  48  75 103 134 171 204 260 310
#     4  10  19  33  53  75 106 137 175 209 257 311
#     4  11  21  33  48  72 104 136 169 208 255 312
#
# _framework density 16.706916
#
# number of rings (size 3 to 8) (size 9 to 14) (size 15 to 20)
#    0.000    1.600    6.000    1.200    0.000    0.000 
#    0.000    0.667    0.000    0.800    0.000    0.000 
#    0.000    0.000    0.000    0.000    0.000    0.000 
#
# Total GULP energy -371665.272648 kJ/mol
# GULP energy per Si atom -12388.842422 kJ/mol
# Density = 1.666889 g / cm^3
# Si number density = 16.706916 Si / 1000 Ang^3
#
#
#
# Elastic Constant Matrix: (Units=GPa)
#
#
# Indices 1 2 3 4 5 6 
#
# 1 83.1419 37.9171 45.3316 0.0000 -10.5851 0.0000
# 2 37.9171 91.3263 41.0752 0.0000 -9.3505 0.0000
# 3 45.3316 41.0752 87.4872 0.0000 -16.8804 0.0000
# 4 0.0000 0.0000 0.0000 21.6866 0.0000 -5.6987
# 5 -10.5851 -9.3505 -16.8804 0.0000 30.0428 0.0000
# 6 0.0000 0.0000 0.0000 -5.6987 0.0000 24.6158
#
#
#
# Elastic Compliance Matrix: (Units=1/GPa)
#
#
# Indices 1 2 3 4 5 6 
#
# 1 0.017944 -0.004123 -0.007167 0.000000 0.001012 0.000000
# 2 -0.004123 0.014843 -0.004735 0.000000 0.000507 0.000000
# 3 -0.007167 -0.004735 0.018613 0.000000 0.006460 0.000000
# 4 0.000000 0.000000 0.000000 0.049098 0.000000 0.011367
# 5 0.001012 0.000507 0.006460 0.000000 0.037430 0.000000
# 6 0.000000 0.000000 0.000000 0.011367 0.000000 0.043256
#
#
# Mechanical properties :
#
#
# Convention : Reuss Voigt Hill
#
# Bulk Modulus (GPa) = 51.67624 56.73370 54.20497
# Shear Modulus (GPa) = 22.76002 24.44448 23.60225
#
# Velocity S-wave (km/s) = 3.69495 3.82925 3.76270
# Velocity P-wave (km/s) = 7.01440 7.32002 7.16884
#
# Compressibility (1/GPa) = 0.01935125
#
# Stress axis : x y z
#
# Youngs Moduli (GPa) = 55.72748 67.37217 53.72610
#
# Poissons Ratio (x) = 0.27779 0.38504
# Poissons Ratio (y) = 0.22978 0.25437
# Poissons Ratio (z) = 0.39939 0.31897
#
# Static dielectric constant tensor:
#      x y z
#    x 3.361830 0.000000 0.121780 
#    y 0.000000 3.176590 0.000000 
#    z 0.121780 0.000000 3.274270 
# 
# 
# High freq. dielectric constant tensor:
#      x y z
#    x 1.637320 0.000000 0.010860 
#    y 0.000000 1.635200 0.000000 
#    z 0.010860 0.000000 1.632740 
# 
# From -- ./inp_files/63925.got.cif
#   From: 2010.06.25/outbox.cif.g09.slc.cpg/sg15_32_cif.got.tgz:63925.got - 2010.06.28 07:06:18.
