data_PCOD8133463
_publ_section_title
;
Structure prediction by ZEFSAII (Michael W. Deem and Ramdas Pophale) SiO2 
 PCOD8133463
Probable space group: C 2/C
;
_chemical_formula_sum "Si O2"
_cell_formula_units_Z 64
_cell_length_a 14.066645
_cell_length_b 14.283562
_cell_length_c 18.747115
_cell_angle_alpha 90.000000
_cell_angle_beta 101.846056
_cell_angle_gamma 90.000000
_cell_volume 3686.483363
_symmetry_space_group_name_H-M "C 2/C"
_symmetry_group_IT_number 15
_symmetry_cell_setting 'monoclinic'
loop_
_space_group_symop_operation_xyz
x,y,z
-x,y,1/2-z
-x,-y,-z
x,-y,1/2+z
1/2+x,1/2+y,z
1/2-x,1/2+y,1/2-z
1/2-x,1/2-y,-z
1/2+x,1/2-y,1/2+z
loop_
_atom_site_type_symbol
_atom_site_label
_atom_site_fract_x
_atom_site_fract_y
_atom_site_fract_z
Si Si1 0.743762 0.122858 0.554707
Si Si2 0.674498 0.932279 0.338494
Si Si3 0.003342 0.864847 0.953431
Si Si4 0.840921 0.994930 0.458199
Si Si5 0.137621 0.436152 0.171881
Si Si6 0.519484 0.219353 0.833345
Si Si7 0.482660 0.913005 0.666319
Si Si8 0.908613 0.739689 0.050732
O O1 0.720601 0.070259 0.624899
O O2 0.834117 0.192720 0.581326
O O3 0.648566 0.178464 0.515782
O O4 0.766226 0.047593 0.497832
O O5 0.779837 0.936680 0.390913
O O6 0.690282 0.935540 0.256200
O O7 0.621153 0.836527 0.353135
O O8 0.611036 0.020910 0.353082
O O9 0.023513 0.809210 0.884213
O O10 0.097820 0.925941 0.983050
O O11 0.909456 0.931016 0.927620
O O12 0.987813 0.798535 0.019311
O O13 0.066581 0.347903 0.154662
O O14 0.076592 0.531410 0.151870
O O15 0.500000 0.254168 0.750000
O O16 0.500000 0.880639 0.750000
O O17 0.466949 0.821580 0.616537
#
# Coordination Sequence:
#
# PCOD8133463 Si02
#       8
#     8   8   8   8   8   8   8   8
#     4  10  19  33  56  79 100 137 178 211 247 309
#     4   9  18  34  54  77 107 138 168 215 259 303
#     4  10  21  37  55  74 106 141 173 211 258 308
#     4  10  21  37  55  74 107 140 171 213 261 302
#     4   9  18  33  54  80 106 134 172 212 261 306
#     4   9  18  34  55  78 105 137 171 212 259 307
#     4   9  18  33  53  79 108 135 169 215 261 302
#     4  10  19  33  56  79 101 136 176 213 252 301
#
# _framework density 17.360717999999999
#
# number of rings (size 3 to 8) (size 9 to 14) (size 15 to 20)
#    0.000    2.500    2.500    1.500    0.000    2.000 
#    4.500    0.000    0.000    0.000    0.000    0.000 
#    0.000    0.000    0.000    0.000    0.000    0.000 
#
# Total GULP energy -396840.201970 kJ/mol
# GULP energy per Si atom -12401.256312 kJ/mol
# Density = 1.732120 g / cm^3
# Si number density = 17.360718 Si / 1000 Ang^3
#
#
#
# Elastic Constant Matrix: (Units=GPa)
#
#
# Indices 1 2 3 4 5 6 
#
# 1 62.4630 28.8745 46.8181 0.0000 0.5255 0.0000
# 2 28.8745 86.9405 53.7625 0.0000 2.8047 0.0000
# 3 46.8181 53.7625 98.1830 0.0000 0.8476 0.0000
# 4 0.0000 0.0000 0.0000 25.3997 0.0000 3.9435
# 5 0.5255 2.8047 0.8476 0.0000 17.0771 0.0000
# 6 0.0000 0.0000 0.0000 3.9435 0.0000 8.2929
#
#
#
# Elastic Compliance Matrix: (Units=1/GPa)
#
#
# Indices 1 2 3 4 5 6 
#
# 1 0.025028 -0.001410 -0.011162 0.000000 0.000015 0.000000
# 2 -0.001410 0.017568 -0.008927 0.000000 -0.002399 0.000000
# 3 -0.011162 -0.008927 0.020389 0.000000 0.000798 0.000000
# 4 0.000000 0.000000 0.000000 0.042509 0.000000 -0.020214
# 5 0.000015 -0.002399 0.000798 0.000000 0.058912 0.000000
# 6 0.000000 0.000000 0.000000 -0.020214 0.000000 0.130197
#
#
# Mechanical properties :
#
#
# Convention : Reuss Voigt Hill
#
# Bulk Modulus (GPa) = 50.03402 56.27742 53.15572
# Shear Modulus (GPa) = 14.52378 18.02937 16.27658
#
# Velocity S-wave (km/s) = 2.89552 3.22610 3.06527
# Velocity P-wave (km/s) = 6.32942 6.80910 6.57364
#
# Compressibility (1/GPa) = 0.01998640
#
# Stress axis : x y z
#
# Youngs Moduli (GPa) = 39.95562 56.92198 49.04622
#
# Poissons Ratio (x) = 0.08026 0.54747
# Poissons Ratio (y) = 0.05634 0.43782
# Poissons Ratio (z) = 0.44600 0.50812
#
# Static dielectric constant tensor:
#      x y z
#    x 3.098140 0.000000 -0.035620 
#    y 0.000000 3.196020 0.000000 
#    z -0.035620 0.000000 3.085780 
# 
# 
# High freq. dielectric constant tensor:
#      x y z
#    x 1.660930 0.000000 -0.003850 
#    y 0.000000 1.665960 0.000000 
#    z -0.003850 0.000000 1.667070 
# 
# From -- ./inp_files/205124.got.cif
#   From: 2010.06.25/outbox.cif.g09.slc.cpg/sg15_103_cif.got.tgz:205124.got - 2010.06.28 07:06:18.
