data_PCOD8133698
_publ_section_title
;
Structure prediction by ZEFSAII (Michael W. Deem and Ramdas Pophale) SiO2 
 PCOD8133698
Probable space group: C 2/C
;
_chemical_formula_sum "Si O2"
_cell_formula_units_Z 56
_cell_length_a 25.981480
_cell_length_b 12.647450
_cell_length_c 14.126520
_cell_angle_alpha 90.000000
_cell_angle_beta 140.559214
_cell_angle_gamma 90.000000
_cell_volume 2948.950742
_symmetry_space_group_name_H-M "C 2/C"
_symmetry_group_IT_number 15
_symmetry_cell_setting 'monoclinic'
loop_
_space_group_symop_operation_xyz
x,y,z
-x,y,1/2-z
-x,-y,-z
x,-y,1/2+z
1/2+x,1/2+y,z
1/2-x,1/2+y,1/2-z
1/2-x,1/2-y,-z
1/2+x,1/2-y,1/2+z
loop_
_atom_site_type_symbol
_atom_site_label
_atom_site_fract_x
_atom_site_fract_y
_atom_site_fract_z
Si Si1 0.807307 0.154362 0.605174
Si Si2 0.011773 0.673822 0.661381
Si Si3 0.787613 0.493448 0.392211
Si Si4 0.420261 0.194169 0.355992
Si Si5 0.035366 0.432428 0.896495
Si Si6 0.808981 0.652158 0.592667
Si Si7 0.232198 0.539022 0.341642
O O1 0.750000 0.250000 0.500000
O O2 0.772683 0.087960 0.644048
O O3 0.894374 0.201064 0.760297
O O4 0.808755 0.083828 0.511391
O O5 0.103046 0.699885 0.760145
O O6 0.000000 0.718496 0.750000
O O7 0.945630 0.728783 0.498406
O O8 0.999410 0.548555 0.636941
O O9 0.867494 0.431966 0.469412
O O10 0.812193 0.586895 0.498559
O O11 0.745025 0.540055 0.237109
O O12 0.502528 0.143206 0.432147
O O13 0.348050 0.108702 0.252967
O O14 0.000000 0.384092 0.750000
O O15 0.750000 0.750000 0.500000
O O16 0.783181 0.579453 0.643942
#
# Coordination Sequence:
#
# PCOD8133698 Si02
#       7
#     8   8   8   8   8   8   8
#     4   9  21  35  52  84 121 146 185 229 284 343
#     4  11  19  32  54  81 115 143 178 232 281 332
#     4  11  20  35  57  82 115 152 184 234 287 333
#     4  11  19  34  57  84 115 147 181 233 291 334
#     4  11  17  30  56  82 113 142 179 229 291 325
#     4  11  22  35  52  86 118 147 187 232 282 340
#     4  10  19  34  55  77 114 152 183 231 282 331
#
# _framework density 18.989803999999999
#
# number of rings (size 3 to 8) (size 9 to 14) (size 15 to 20)
#    0.000    1.429    5.714    3.000    0.000    3.429 
#    0.000    1.429    0.000    3.429    0.000   20.000 
#    0.000    0.000    0.000    0.000    0.000    0.000 
#
# Total GULP energy -347093.016462 kJ/mol
# GULP energy per Si atom -12396.179159 kJ/mol
# Density = 1.894658 g / cm^3
# Si number density = 18.989804 Si / 1000 Ang^3
#
#
#
# Elastic Constant Matrix: (Units=GPa)
#
#
# Indices 1 2 3 4 5 6 
#
# 1 59.8044 20.9666 37.4591 0.0000 -17.9657 0.0000
# 2 20.9666 50.9385 40.1232 0.0000 0.5149 0.0000
# 3 37.4591 40.1232 128.0678 0.0000 -21.3555 0.0000
# 4 0.0000 0.0000 0.0000 29.8703 0.0000 3.2812
# 5 -17.9657 0.5149 -21.3555 0.0000 36.6174 0.0000
# 6 0.0000 0.0000 0.0000 3.2812 0.0000 16.1050
#
#
#
# Elastic Compliance Matrix: (Units=1/GPa)
#
#
# Indices 1 2 3 4 5 6 
#
# 1 0.024439 -0.007827 -0.002967 0.000000 0.010370 0.000000
# 2 -0.007827 0.029683 -0.008552 0.000000 -0.009245 0.000000
# 3 -0.002967 -0.008552 0.012332 0.000000 0.005857 0.000000
# 4 0.000000 0.000000 0.000000 0.034244 0.000000 -0.006977
# 5 0.010370 -0.009245 0.005857 0.000000 0.035943 0.000000
# 6 0.000000 0.000000 0.000000 -0.006977 0.000000 0.063514
#
#
# Mechanical properties :
#
#
# Convention : Reuss Voigt Hill
#
# Bulk Modulus (GPa) = 36.02010 48.43427 42.22719
# Shear Modulus (GPa) = 20.15315 25.86934 23.01124
#
# Velocity S-wave (km/s) = 3.26124 3.69491 3.48482
# Velocity P-wave (km/s) = 5.76109 6.61543 6.20299
#
# Compressibility (1/GPa) = 0.02776228
#
# Stress axis : x y z
#
# Youngs Moduli (GPa) = 40.91847 33.68966 81.09014
#
# Poissons Ratio (x) = 0.26369 0.24057
# Poissons Ratio (y) = 0.32028 0.69346
# Poissons Ratio (z) = 0.12139 0.28810
#
# Static dielectric constant tensor:
#      x y z
#    x 3.413360 0.000000 -0.350610 
#    y 0.000000 3.310680 0.000000 
#    z -0.350610 0.000000 3.956990 
# 
# 
# High freq. dielectric constant tensor:
#      x y z
#    x 1.723700 0.000000 -0.027690 
#    y 0.000000 1.696940 0.000000 
#    z -0.027690 0.000000 1.748000 
# 
# From -- ./inp_files/177635.got.cif
#   From: 2010.06.25/outbox.cif.g09.slc.cpg/sg15_89_cif.got.tgz:177635.got - 2010.06.28 07:06:18.
