data_PCOD8133873
_publ_section_title
;
Structure prediction by ZEFSAII (Michael W. Deem and Ramdas Pophale) SiO2 
 PCOD8133873
Probable space group: C 2/C
;
_chemical_formula_sum "Si O2"
_cell_formula_units_Z 64
_cell_length_a 14.092307
_cell_length_b 26.861466
_cell_length_c 8.855846
_cell_angle_alpha 90.000000
_cell_angle_beta 96.040864
_cell_angle_gamma 90.000000
_cell_volume 3333.677198
_symmetry_space_group_name_H-M "C 2/C"
_symmetry_group_IT_number 15
_symmetry_cell_setting 'monoclinic'
loop_
_space_group_symop_operation_xyz
x,y,z
-x,y,1/2-z
-x,-y,-z
x,-y,1/2+z
1/2+x,1/2+y,z
1/2-x,1/2+y,1/2-z
1/2-x,1/2-y,-z
1/2+x,1/2-y,1/2+z
loop_
_atom_site_type_symbol
_atom_site_label
_atom_site_fract_x
_atom_site_fract_y
_atom_site_fract_z
Si Si1 0.922446 0.060050 0.402299
Si Si2 0.901874 0.170757 0.813066
Si Si3 0.258580 0.806012 0.450371
Si Si4 0.680573 0.346556 0.726217
Si Si5 0.766892 0.103306 0.967180
Si Si6 0.128781 0.017943 0.398908
Si Si7 0.858287 0.760029 0.566536
Si Si8 0.394307 0.840344 0.221825
O O1 0.901968 0.117296 0.356622
O O2 0.864689 0.022255 0.280266
O O3 0.035054 0.051437 0.421114
O O4 0.880920 0.040252 0.556369
O O5 0.831268 0.186315 0.670701
O O6 0.859853 0.123908 0.895888
O O7 0.000000 0.155379 0.750000
O O8 0.915091 0.216027 0.934999
O O9 0.250000 0.750000 0.500000
O O10 0.253843 0.838492 0.601485
O O11 0.354296 0.821332 0.376564
O O12 0.635076 0.295331 0.783091
O O13 0.740747 0.371119 0.870277
O O14 0.671713 0.115795 0.857565
O O15 0.782297 0.044422 0.999441
O O16 0.750000 0.750000 0.500000
O O17 0.903595 0.706997 0.612571
O O18 0.500000 0.863430 0.250000
#
# Coordination Sequence:
#
# PCOD8133873 Si02
#       8
#     8   8   8   8   8   8   8   8
#     4   9  19  33  54  85 112 149 180 217 278 354
#     4  10  22  32  50  76 101 142 188 219 279 330
#     4  11  21  35  49  79 107 136 188 238 266 326
#     4  10  19  34  59  78 112 146 185 227 281 338
#     4   9  20  39  55  73 114 150 183 229 283 334
#     4   9  18  35  53  81 118 145 180 223 279 335
#     4  11  18  39  53  70 114 151 183 235 283 330
#     4  11  23  38  54  76 106 156 197 228 284 329
#
# _framework density 19.19802
#
# number of rings (size 3 to 8) (size 9 to 14) (size 15 to 20)
#    0.000    2.000    5.000    0.000    3.500    2.000 
#    9.000    0.625    0.000    0.000    0.000    7.875 
#    0.000    0.000    0.000    0.000    0.000    0.000 
#
# Total GULP energy -396510.354904 kJ/mol
# GULP energy per Si atom -12390.948591 kJ/mol
# Density = 1.915432 g / cm^3
# Si number density = 19.198020 Si / 1000 Ang^3
#
#
#
# Elastic Constant Matrix: (Units=GPa)
#
#
# Indices 1 2 3 4 5 6 
#
# 1 95.2194 13.4560 34.3568 0.0000 -3.1858 0.0000
# 2 13.4560 50.2206 17.2527 0.0000 11.4318 0.0000
# 3 34.3568 17.2527 92.8748 0.0000 -12.8025 0.0000
# 4 0.0000 0.0000 0.0000 27.1032 0.0000 2.5997
# 5 -3.1858 11.4318 -12.8025 0.0000 25.8035 0.0000
# 6 0.0000 0.0000 0.0000 2.5997 0.0000 13.1817
#
#
#
# Elastic Compliance Matrix: (Units=1/GPa)
#
#
# Indices 1 2 3 4 5 6 
#
# 1 0.012280 -0.001943 -0.004137 0.000000 0.000324 0.000000
# 2 -0.001943 0.025895 -0.006125 0.000000 -0.014751 0.000000
# 3 -0.004137 -0.006125 0.014748 0.000000 0.009520 0.000000
# 4 0.000000 0.000000 0.000000 0.037607 0.000000 -0.007417
# 5 0.000324 -0.014751 0.009520 0.000000 0.050053 0.000000
# 6 0.000000 0.000000 0.000000 -0.007417 0.000000 0.077325
#
#
# Mechanical properties :
#
#
# Convention : Reuss Voigt Hill
#
# Bulk Modulus (GPa) = 35.07215 40.93843 38.00529
# Shear Modulus (GPa) = 19.85526 24.76763 22.31145
#
# Velocity S-wave (km/s) = 3.21944 3.59571 3.41277
# Velocity P-wave (km/s) = 5.66816 6.21365 5.94716
#
# Compressibility (1/GPa) = 0.02851266
#
# Stress axis : x y z
#
# Youngs Moduli (GPa) = 81.43166 38.61805 67.80731
#
# Poissons Ratio (x) = 0.07503 0.28053
# Poissons Ratio (y) = 0.15821 0.41531
# Poissons Ratio (z) = 0.33690 0.23653
#
# Static dielectric constant tensor:
#      x y z
#    x 3.259830 0.000000 -0.181410 
#    y 0.000000 3.436020 0.000000 
#    z -0.181410 0.000000 4.189830 
# 
# 
# High freq. dielectric constant tensor:
#      x y z
#    x 1.700630 0.000000 -0.003220 
#    y 0.000000 1.729000 0.000000 
#    z -0.003220 0.000000 1.769500 
# 
# From -- ./inp_files/44300.got.cif
#   From: 2010.06.25/outbox.cif.g09.slc.cpg/sg15_23_cif.got.tgz:44300.got - 2010.06.28 07:06:18.
