data_PCOD8133625
_publ_section_title
;
Structure prediction by ZEFSAII (Michael W. Deem and Ramdas Pophale) SiO2 
 PCOD8133625
Probable space group: C 2/C
;
_chemical_formula_sum "Si O2"
_cell_formula_units_Z 48
_cell_length_a 22.474300
_cell_length_b 20.309001
_cell_length_c 9.932357
_cell_angle_alpha 90.000000
_cell_angle_beta 31.546919
_cell_angle_gamma 90.000000
_cell_volume 2371.875976
_symmetry_space_group_name_H-M "C 2/C"
_symmetry_group_IT_number 15
_symmetry_cell_setting 'monoclinic'
loop_
_space_group_symop_operation_xyz
x,y,z
-x,y,1/2-z
-x,-y,-z
x,-y,1/2+z
1/2+x,1/2+y,z
1/2-x,1/2+y,1/2-z
1/2-x,1/2-y,-z
1/2+x,1/2-y,1/2+z
loop_
_atom_site_type_symbol
_atom_site_label
_atom_site_fract_x
_atom_site_fract_y
_atom_site_fract_z
Si Si1 0.767449 0.711380 0.133161
Si Si2 0.745433 0.040738 0.124283
Si Si3 0.526691 0.386097 0.353712
Si Si4 0.557200 0.746816 0.408441
Si Si5 0.289626 0.433205 0.838335
Si Si6 0.419519 0.848996 0.535329
O O1 0.641298 0.744989 0.377973
O O2 0.759483 0.640645 0.071629
O O3 0.856615 0.758476 0.885013
O O4 0.811969 0.697088 0.197884
O O5 0.763057 0.029036 0.249290
O O6 0.629439 0.081509 0.320379
O O7 0.852775 0.079802 0.854480
O O8 0.730953 0.971812 0.074747
O O9 0.500000 0.371466 0.250000
O O10 0.526069 0.315964 0.432434
O O11 0.425201 0.432285 0.604756
O O12 0.484223 0.813718 0.534486
O O13 0.500000 0.858844 0.250000
#
# Coordination Sequence:
#
# PCOD8133625 Si02
#       6
#     8   8   8   8   8   8
#     4   8  16  32  52  72 101 138 171 213 262 317
#     4  10  19  34  52  75 107 140 178 223 267 316
#     4   9  18  32  52  76 105 138 171 221 278 318
#     4   9  16  31  52  73  97 133 174 207 260 326
#     4   9  18  34  54  75 105 143 179 215 266 321
#     4   9  18  33  53  77 104 141 178 217 274 326
#
# _framework density 20.237145000000002
#
# number of rings (size 3 to 8) (size 9 to 14) (size 15 to 20)
#    0.000    3.000    0.000    1.500    0.000    0.667 
#    0.000   20.833    0.000    0.000    0.000    0.000 
#    0.000    0.000    0.000    0.000    0.000    0.000 
#
# Total GULP energy -297375.363569 kJ/mol
# GULP energy per Si atom -12390.640149 kJ/mol
# Density = 2.019108 g / cm^3
# Si number density = 20.237145 Si / 1000 Ang^3
#
#
#
# Elastic Constant Matrix: (Units=GPa)
#
#
# Indices 1 2 3 4 5 6 
#
# 1 53.7486 40.6604 30.3947 0.0000 -9.1354 0.0000
# 2 40.6604 84.6497 37.5810 0.0000 -1.0670 0.0000
# 3 30.3947 37.5810 48.7713 0.0001 -14.6284 0.0000
# 4 0.0000 0.0000 0.0001 42.8115 0.0000 6.6912
# 5 -9.1354 -1.0670 -14.6284 0.0000 29.2343 0.0000
# 6 0.0000 0.0000 0.0000 6.6912 0.0000 25.7913
#
#
#
# Elastic Compliance Matrix: (Units=1/GPa)
#
#
# Indices 1 2 3 4 5 6 
#
# 1 0.034447 -0.011536 -0.011149 0.000000 0.004764 0.000000
# 2 -0.011536 0.023281 -0.013620 0.000000 -0.009571 0.000000
# 3 -0.011149 -0.013620 0.043244 0.000000 0.017657 0.000000
# 4 0.000000 0.000000 0.000000 0.024345 0.000000 -0.006316
# 5 0.004764 -0.009571 0.017657 0.000000 0.044181 0.000000
# 6 0.000000 0.000000 0.000000 -0.006316 0.000000 0.040411
#
#
# Mechanical properties :
#
#
# Convention : Reuss Voigt Hill
#
# Bulk Modulus (GPa) = 35.26149 44.93798 40.09973
# Shear Modulus (GPa) = 17.12476 24.80296 20.96386
#
# Velocity S-wave (km/s) = 2.91212 3.50468 3.22205
# Velocity P-wave (km/s) = 5.36369 6.21538 5.80517
#
# Compressibility (1/GPa) = 0.02835955
#
# Stress axis : x y z
#
# Youngs Moduli (GPa) = 29.03019 42.95351 23.12478
#
# Poissons Ratio (x) = 0.49552 0.25782
# Poissons Ratio (y) = 0.33490 0.31497
# Poissons Ratio (z) = 0.32367 0.58505
#
# Static dielectric constant tensor:
#      x y z
#    x 3.583200 0.000000 -0.373540 
#    y 0.000000 3.447360 0.000000 
#    z -0.373540 0.000000 3.954550 
# 
# 
# High freq. dielectric constant tensor:
#      x y z
#    x 1.758980 0.000000 -0.023970 
#    y 0.000000 1.769180 0.000000 
#    z -0.023970 0.000000 1.791420 
# 
# From -- ./inp_files/119675.got.cif
#   From: 2010.06.25/outbox.cif.g09.slc.cpg/sg15_60_cif.got.tgz:119675.got - 2010.06.28 07:06:18.
