data_PCOD8133931
_publ_section_title
;
Structure prediction by ZEFSAII (Michael W. Deem and Ramdas Pophale) SiO2 
 PCOD8133931
Probable space group: C 2/C
;
_chemical_formula_sum "Si O2"
_cell_formula_units_Z 56
_cell_length_a 15.393783
_cell_length_b 9.758585
_cell_length_c 19.340559
_cell_angle_alpha 90.000000
_cell_angle_beta 84.509984
_cell_angle_gamma 90.000000
_cell_volume 2892.041295
_symmetry_space_group_name_H-M "C 2/C"
_symmetry_group_IT_number 15
_symmetry_cell_setting 'monoclinic'
loop_
_space_group_symop_operation_xyz
x,y,z
-x,y,1/2-z
-x,-y,-z
x,-y,1/2+z
1/2+x,1/2+y,z
1/2-x,1/2+y,1/2-z
1/2-x,1/2-y,-z
1/2+x,1/2-y,1/2+z
loop_
_atom_site_type_symbol
_atom_site_label
_atom_site_fract_x
_atom_site_fract_y
_atom_site_fract_z
Si Si1 0.173324 0.081628 0.843073
Si Si2 0.982927 0.019641 0.902860
Si Si3 0.502780 0.268148 0.513752
Si Si4 0.186620 0.308445 0.946349
Si Si5 0.787117 0.657308 0.389659
Si Si6 0.408738 0.328620 0.288252
Si Si7 0.165599 0.612630 0.958782
O O1 0.205308 0.222082 0.876001
O O2 0.157789 0.113754 0.763759
O O3 0.244048 0.963337 0.848070
O O4 0.086432 0.031745 0.887486
O O5 0.931475 0.043341 0.835957
O O6 0.961777 0.865096 0.927264
O O7 0.952680 0.132488 0.962305
O O8 0.585673 0.194406 0.475774
O O9 0.435808 0.152339 0.545962
O O10 0.199406 0.467766 0.926614
O O11 0.250000 0.250000 0.000000
O O12 0.866671 0.707501 0.336001
O O13 0.820883 0.601824 0.459986
O O14 0.720609 0.778576 0.411404
O O15 0.500000 0.271187 0.250000
#
# Coordination Sequence:
#
# PCOD8133931 Si02
#       7
#     8   8   8   8   8   8   8
#     4  10  21  40  59  86 118 159 204 252 302 367
#     4   9  18  35  62  89 108 153 207 245 295 358
#     4  10  19  34  60  88 124 150 195 253 305 362
#     4  11  23  36  58  91 128 158 197 257 317 362
#     4  11  22  38  64  89 119 156 208 252 301 368
#     4  10  22  39  62  86 118 167 211 252 304 378
#     4  11  22  37  61  94 122 154 199 259 315 355
#
# _framework density 19.363486000000002
#
# number of rings (size 3 to 8) (size 9 to 14) (size 15 to 20)
#    0.000    1.714    4.286    0.429    2.000    1.143 
#    0.000    0.000    0.000    0.000    3.714    0.000 
#    0.000    0.000    0.000    0.000    0.000    0.000 
#
# Total GULP energy -347177.605897 kJ/mol
# GULP energy per Si atom -12399.200211 kJ/mol
# Density = 1.931941 g / cm^3
# Si number density = 19.363486 Si / 1000 Ang^3
#
#
#
# Elastic Constant Matrix: (Units=GPa)
#
#
# Indices 1 2 3 4 5 6 
#
# 1 74.3512 39.8605 35.8155 0.0000 6.8715 0.0000
# 2 39.8605 123.4294 45.3076 0.0000 8.9013 0.0000
# 3 35.8155 45.3076 109.1235 0.0000 12.1706 0.0000
# 4 0.0000 0.0000 0.0000 19.8572 0.0000 2.4407
# 5 6.8715 8.9013 12.1706 0.0000 30.7404 0.0000
# 6 0.0000 0.0000 0.0000 2.4407 0.0000 29.5201
#
#
#
# Elastic Compliance Matrix: (Units=1/GPa)
#
#
# Indices 1 2 3 4 5 6 
#
# 1 0.017700 -0.004185 -0.003940 0.000000 -0.001185 0.000000
# 2 -0.004185 0.010594 -0.002916 0.000000 -0.000978 0.000000
# 3 -0.003940 -0.002916 0.012006 0.000000 -0.003028 0.000000
# 4 0.000000 0.000000 0.000000 0.050877 0.000000 -0.004206
# 5 -0.001185 -0.000978 -0.003028 0.000000 0.034277 0.000000
# 6 0.000000 0.000000 0.000000 -0.004206 0.000000 0.034223
#
#
# Mechanical properties :
#
#
# Convention : Reuss Voigt Hill
#
# Bulk Modulus (GPa) = 54.88801 60.98569 57.93685
# Shear Modulus (GPa) = 26.61962 28.41823 27.51893
#
# Velocity S-wave (km/s) = 3.71176 3.83511 3.77394
# Velocity P-wave (km/s) = 6.83939 7.15362 6.99827
#
# Compressibility (1/GPa) = 0.01821892
#
# Stress axis : x y z
#
# Youngs Moduli (GPa) = 56.49573 94.39206 83.29477
#
# Poissons Ratio (x) = 0.39498 0.32817
# Poissons Ratio (y) = 0.23641 0.24290
# Poissons Ratio (z) = 0.22259 0.27526
#
# Static dielectric constant tensor:
#      x y z
#    x 3.499420 0.000000 0.034280 
#    y 0.000000 3.495710 0.000000 
#    z 0.034280 0.000000 3.493110 
# 
# 
# High freq. dielectric constant tensor:
#      x y z
#    x 1.754690 0.000000 0.002660 
#    y 0.000000 1.748800 0.000000 
#    z 0.002660 0.000000 1.741390 
# 
# From -- ./inp_files/246980.got.cif
#   From: 2010.06.25/outbox.cif.g09.slc.cpg/sg15_124_cif.got.tgz:246980.got - 2010.06.28 07:06:18.
