data_PCOD8133631
_publ_section_title
;
Structure prediction by ZEFSAII (Michael W. Deem and Ramdas Pophale) SiO2 
 PCOD8133631
Probable space group: C 2/C
;
_chemical_formula_sum "Si O2"
_cell_formula_units_Z 56
_cell_length_a 9.466574
_cell_length_b 17.920615
_cell_length_c 28.846739
_cell_angle_alpha 90.000000
_cell_angle_beta 37.769962
_cell_angle_gamma 90.000000
_cell_volume 2997.391014
_symmetry_space_group_name_H-M "C 2/C"
_symmetry_group_IT_number 15
_symmetry_cell_setting 'monoclinic'
loop_
_space_group_symop_operation_xyz
x,y,z
-x,y,1/2-z
-x,-y,-z
x,-y,1/2+z
1/2+x,1/2+y,z
1/2-x,1/2+y,1/2-z
1/2-x,1/2-y,-z
1/2+x,1/2-y,1/2+z
loop_
_atom_site_type_symbol
_atom_site_label
_atom_site_fract_x
_atom_site_fract_y
_atom_site_fract_z
Si Si1 0.593971 0.522776 0.104538
Si Si2 0.300699 0.125040 0.334322
Si Si3 0.016182 0.920112 0.046310
Si Si4 0.623793 0.993141 0.613175
Si Si5 0.472427 0.300933 0.987147
Si Si6 0.908804 0.639965 0.978037
Si Si7 0.792907 0.054838 0.834519
O O1 0.373955 0.574172 0.150238
O O2 0.578806 0.440401 0.083386
O O3 0.608730 0.506757 0.155202
O O4 0.820329 0.569287 0.030349
O O5 0.500000 0.160008 0.250000
O O6 0.166966 0.190362 0.396589
O O7 0.428615 0.075142 0.339277
O O8 0.746341 0.940373 0.109890
O O9 0.046636 0.835577 0.018193
O O10 0.189805 0.973923 0.974230
O O11 0.382795 0.014878 0.654262
O O12 0.417671 0.213716 0.008080
O O13 0.249403 0.345953 0.026231
O O14 0.166464 0.622075 0.893943
O O15 0.000000 0.087961 0.750000
#
# Coordination Sequence:
#
# PCOD8133631 Si02
#       7
#     8   8   8   8   8   8   8
#     4  10  20  33  55  78 105 139 176 223 265 316
#     4   9  17  31  51  77 104 134 177 219 262 310
#     4   9  15  32  55  76  95 130 182 227 247 296
#     4   9  16  29  50  74  99 131 174 214 257 305
#     4   9  18  32  56  77  99 138 186 221 257 314
#     4  10  19  34  52  79 103 140 180 217 267 319
#     4  12  22  32  50  80 113 137 165 218 284 323
#
# _framework density 18.682915000000001
#
# number of rings (size 3 to 8) (size 9 to 14) (size 15 to 20)
#    0.000    2.286    2.857    3.000    0.000    0.571 
#    0.000    0.714    0.000    0.000    0.000    0.000 
#    0.000    0.000    0.000    0.000    0.000    0.000 
#
# Total GULP energy -346917.866219 kJ/mol
# GULP energy per Si atom -12389.923794 kJ/mol
# Density = 1.864039 g / cm^3
# Si number density = 18.682915 Si / 1000 Ang^3
#
#
#
# Elastic Constant Matrix: (Units=GPa)
#
#
# Indices 1 2 3 4 5 6 
#
# 1 64.8731 20.5708 36.1495 0.0137 -9.8451 -0.0005
# 2 20.5708 66.8657 20.4442 0.0151 -0.3507 -0.0043
# 3 36.1495 20.4442 90.4292 0.0084 -4.5560 -0.0042
# 4 0.0137 0.0151 0.0084 10.8284 -0.0092 -4.4009
# 5 -9.8451 -0.3507 -4.5560 -0.0092 15.1257 0.0020
# 6 -0.0005 -0.0043 -0.0042 -4.4009 0.0020 18.1082
#
#
#
# Elastic Compliance Matrix: (Units=1/GPa)
#
#
# Indices 1 2 3 4 5 6 
#
# 1 0.022998 -0.004719 -0.007492 -0.000008 0.012603 -0.000006
# 2 -0.004719 0.017042 -0.002134 -0.000019 -0.003319 -0.000001
# 3 -0.007492 -0.002134 0.014508 0.000002 -0.000556 0.000003
# 4 -0.000008 -0.000019 0.000002 0.102471 0.000054 0.024904
# 5 0.012603 -0.003319 -0.000556 0.000054 0.074071 0.000004
# 6 -0.000006 -0.000001 0.000003 0.024904 0.000004 0.061276
#
#
# Mechanical properties :
#
#
# Convention : Reuss Voigt Hill
#
# Bulk Modulus (GPa) = 38.67056 41.83301 40.25178
# Shear Modulus (GPa) = 15.16644 18.47938 16.82291
#
# Velocity S-wave (km/s) = 2.85227 3.14842 3.00399
# Velocity P-wave (km/s) = 5.62055 5.97130 5.79857
#
# Compressibility (1/GPa) = 0.02585947
#
# Stress axis : x y z
#
# Youngs Moduli (GPa) = 43.48138 58.67865 68.92888
#
# Poissons Ratio (x) = 0.27688 0.51641
# Poissons Ratio (y) = 0.20517 0.14708
# Poissons Ratio (z) = 0.32576 0.12521
#
# Static dielectric constant tensor:
#      x y z
#    x 3.464700 0.000000 -0.082080 
#    y 0.000000 3.113630 0.000020 
#    z -0.082080 0.000020 3.357170 
# 
# 
# High freq. dielectric constant tensor:
#      x y z
#    x 1.721700 0.000000 -0.009150 
#    y 0.000000 1.693550 0.000000 
#    z -0.009150 0.000000 1.711160 
# 
# From -- ./inp_files/289676.got.cif
#   From: 2010.06.25/outbox.cif.g09.slc.cpg/sg15_145_cif.got.tgz:289676.got - 2010.06.28 07:06:18.
