data_PCOD8133500
_publ_section_title
;
Structure prediction by ZEFSAII (Michael W. Deem and Ramdas Pophale) SiO2 
 PCOD8133500
Probable space group: C 2/C
;
_chemical_formula_sum "Si O2"
_cell_formula_units_Z 48
_cell_length_a 28.194803
_cell_length_b 11.214729
_cell_length_c 8.732850
_cell_angle_alpha 90.000000
_cell_angle_beta 101.249188
_cell_angle_gamma 90.000000
_cell_volume 2708.251623
_symmetry_space_group_name_H-M "C 2/C"
_symmetry_group_IT_number 15
_symmetry_cell_setting 'monoclinic'
loop_
_space_group_symop_operation_xyz
x,y,z
-x,y,1/2-z
-x,-y,-z
x,-y,1/2+z
1/2+x,1/2+y,z
1/2-x,1/2+y,1/2-z
1/2-x,1/2-y,-z
1/2+x,1/2-y,1/2+z
loop_
_atom_site_type_symbol
_atom_site_label
_atom_site_fract_x
_atom_site_fract_y
_atom_site_fract_z
Si Si1 0.555227 0.103405 0.821623
Si Si2 0.673981 0.779984 0.892207
Si Si3 0.210283 0.847618 0.948606
Si Si4 0.109658 0.556518 0.548309
Si Si5 0.370275 0.206154 0.443868
Si Si6 0.728994 0.409282 0.617284
O O1 0.500000 0.128012 0.750000
O O2 0.589161 0.104077 0.694594
O O3 0.574678 0.206394 0.952487
O O4 0.563545 0.974066 0.908256
O O5 0.637725 0.741536 0.731452
O O6 0.715244 0.868585 0.854320
O O7 0.643308 0.840162 0.006137
O O8 0.697579 0.661549 0.973500
O O9 0.159980 0.784043 0.955981
O O10 0.208334 0.891576 0.773660
O O11 0.250000 0.750000 0.000000
O O12 0.223468 0.952634 0.074003
O O13 0.142893 0.436227 0.579327
#
# Coordination Sequence:
#
# PCOD8133500 Si02
#       6
#     8   8   8   8   8   8
#     4  10  20  34  55  87 116 149 188 244 302 358
#     4  11  21  38  52  85 113 159 195 235 287 340
#     4  12  23  40  57  83 118 156 203 240 287 336
#     4  10  19  33  57  81 117 148 189 239 295 345
#     4  10  20  36  54  80 114 153 188 236 292 342
#     4  11  26  35  58  80 118 159 202 234 281 345
#
# _framework density 17.723611999999999
#
# number of rings (size 3 to 8) (size 9 to 14) (size 15 to 20)
#    1.000    0.333    3.333    3.500    2.333    0.000 
#    0.000    0.000    0.000    0.000    0.000   11.667 
#    0.000    0.000    0.000    0.000    0.000    0.000 
#
# Total GULP energy -297349.352806 kJ/mol
# GULP energy per Si atom -12389.556367 kJ/mol
# Density = 1.768327 g / cm^3
# Si number density = 17.723612 Si / 1000 Ang^3
#
#
#
# Elastic Constant Matrix: (Units=GPa)
#
#
# Indices 1 2 3 4 5 6 
#
# 1 49.4310 36.2313 41.1512 0.0000 7.6623 0.0000
# 2 36.2313 82.4481 34.1380 0.0000 2.0934 0.0000
# 3 41.1512 34.1380 130.3817 0.0000 1.0683 0.0000
# 4 0.0000 0.0000 0.0000 29.2200 0.0000 -3.6448
# 5 7.6623 2.0934 1.0683 0.0000 33.2169 0.0000
# 6 0.0000 0.0000 0.0000 -3.6448 0.0000 18.7864
#
#
#
# Elastic Compliance Matrix: (Units=1/GPa)
#
#
# Indices 1 2 3 4 5 6 
#
# 1 0.038059 -0.012990 -0.008548 0.000000 -0.007686 0.000000
# 2 -0.012990 0.018056 -0.000643 0.000000 0.001879 0.000000
# 3 -0.008548 -0.000643 0.010522 0.000000 0.001674 0.000000
# 4 0.000000 0.000000 0.000000 0.035072 0.000000 0.006804
# 5 -0.007686 0.001879 0.001674 0.000000 0.031706 0.000000
# 6 0.000000 0.000000 0.000000 0.006804 0.000000 0.054550
#
#
# Mechanical properties :
#
#
# Convention : Reuss Voigt Hill
#
# Bulk Modulus (GPa) = 44.89387 53.92243 49.40815
# Shear Modulus (GPa) = 20.85475 26.29399 23.57437
#
# Velocity S-wave (km/s) = 3.43398 3.85588 3.65103
# Velocity P-wave (km/s) = 6.41154 7.09322 6.76098
#
# Compressibility (1/GPa) = 0.02227476
#
# Stress axis : x y z
#
# Youngs Moduli (GPa) = 26.27467 55.38345 95.03561
#
# Poissons Ratio (x) = 0.71946 0.81237
# Poissons Ratio (y) = 0.34132 0.06110
# Poissons Ratio (z) = 0.22460 0.03561
#
# Static dielectric constant tensor:
#      x y z
#    x 2.966080 0.000000 0.186010 
#    y 0.000000 3.020880 0.000000 
#    z 0.186010 0.000000 3.282630 
# 
# 
# High freq. dielectric constant tensor:
#      x y z
#    x 1.658350 0.000000 -0.001090 
#    y 0.000000 1.659370 0.000000 
#    z -0.001090 0.000000 1.713820 
# 
# From -- ./inp_files/64892.got.cif
#   From: 2010.06.25/outbox.cif.g09.slc.cpg/sg15_33_cif.got.tgz:64892.got - 2010.06.28 07:06:18.
