data_PCOD8133220
_publ_section_title
;
Structure prediction by ZEFSAII (Michael W. Deem and Ramdas Pophale) SiO2 
 PCOD8133220
Probable space group: C 2/C
;
_chemical_formula_sum "Si O2"
_cell_formula_units_Z 60
_cell_length_a 12.164577
_cell_length_b 14.323410
_cell_length_c 21.547756
_cell_angle_alpha 90.000000
_cell_angle_beta 129.382879
_cell_angle_gamma 90.000000
_cell_volume 2901.895921
_symmetry_space_group_name_H-M "C 2/C"
_symmetry_group_IT_number 15
_symmetry_cell_setting 'monoclinic'
loop_
_space_group_symop_operation_xyz
x,y,z
-x,y,1/2-z
-x,-y,-z
x,-y,1/2+z
1/2+x,1/2+y,z
1/2-x,1/2+y,1/2-z
1/2-x,1/2-y,-z
1/2+x,1/2-y,1/2+z
loop_
_atom_site_type_symbol
_atom_site_label
_atom_site_fract_x
_atom_site_fract_y
_atom_site_fract_z
Si Si1 0.035932 0.722948 0.974195
Si Si2 0.500000 0.086724 0.750000
Si Si3 0.049509 0.908046 0.701490
Si Si4 0.064197 0.114895 0.706498
Si Si5 0.039352 0.123373 0.959500
Si Si6 0.729501 0.516682 0.589839
Si Si7 0.646510 0.211278 0.699223
Si Si8 0.792328 0.871824 0.536604
O O1 0.116671 0.780623 0.948749
O O2 0.899504 0.683846 0.888032
O O3 0.157102 0.646251 0.034181
O O4 0.992626 0.776848 0.020684
O O5 0.371055 0.017195 0.683036
O O6 0.549086 0.155436 0.712855
O O7 0.142009 0.824718 0.705117
O O8 0.000000 0.870489 0.750000
O O9 0.906197 0.936348 0.612115
O O10 0.127545 0.008490 0.732194
O O11 0.191099 0.183633 0.734082
O O12 0.000000 0.142479 0.750000
O O13 0.945545 0.132633 0.609611
O O14 0.904893 0.054369 0.919780
O O15 0.181736 0.083801 0.044403
O O16 0.768414 0.582688 0.546905
#
# Coordination Sequence:
#
# PCOD8133220 Si02
#       8
#     8   4   8   8   8   8   8   8
#     4   9  19  30  56  87 121 158 198 260 311 372
#     4  12  20  32  60 100 134 152 200 284 334 352
#     4  10  21  35  61  93 123 162 209 265 313 382
#     4  11  24  42  63  90 129 178 211 253 318 394
#     4  10  20  36  60  90 124 171 212 251 313 391
#     4  10  19  32  56  93 130 157 201 261 324 373
#     4  11  22  36  60  96 129 159 212 270 323 367
#     4   9  16  30  52  90 126 146 191 255 328 363
#
# _framework density 20.676137000000001
#
# number of rings (size 3 to 8) (size 9 to 14) (size 15 to 20)
#    0.000    1.867    4.667    0.000    5.600    0.000 
#    0.000    0.667    5.867    7.200    0.000    0.000 
#    0.000    0.000    0.000    0.000    0.000    0.000 
#
# Total GULP energy -371692.937459 kJ/mol
# GULP energy per Si atom -12389.764582 kJ/mol
# Density = 2.062908 g / cm^3
# Si number density = 20.676137 Si / 1000 Ang^3
#
#
#
# Elastic Constant Matrix: (Units=GPa)
#
#
# Indices 1 2 3 4 5 6 
#
# 1 66.4217 29.6409 35.1033 0.0000 -15.7880 0.0000
# 2 29.6409 55.7290 25.4469 0.0000 1.7973 0.0000
# 3 35.1033 25.4469 121.7600 0.0000 -5.1276 0.0000
# 4 0.0000 0.0000 0.0000 19.9159 0.0000 5.3625
# 5 -15.7880 1.7973 -5.1276 0.0000 32.7016 0.0000
# 6 0.0000 0.0000 0.0000 5.3625 0.0000 11.7381
#
#
#
# Elastic Compliance Matrix: (Units=1/GPa)
#
#
# Indices 1 2 3 4 5 6 
#
# 1 0.025691 -0.012072 -0.004362 0.000000 0.012383 0.000000
# 2 -0.012072 0.025610 -0.002191 0.000000 -0.007579 0.000000
# 3 -0.004362 -0.002191 0.009910 0.000000 -0.000432 0.000000
# 4 0.000000 0.000000 0.000000 0.057254 0.000000 -0.026156
# 5 0.012383 -0.007579 -0.000432 0.000000 0.036907 0.000000
# 6 0.000000 0.000000 0.000000 -0.026156 0.000000 0.097142
#
#
# Mechanical properties :
#
#
# Convention : Reuss Voigt Hill
#
# Bulk Modulus (GPa) = 41.73547 47.14366 44.43957
# Shear Modulus (GPa) = 16.79250 23.11908 19.95579
#
# Velocity S-wave (km/s) = 2.85295 3.34751 3.11007
# Velocity P-wave (km/s) = 5.57508 6.14748 5.86827
#
# Compressibility (1/GPa) = 0.02396044
#
# Stress axis : x y z
#
# Youngs Moduli (GPa) = 38.92361 39.04766 100.90534
#
# Poissons Ratio (x) = 0.47138 0.44019
# Poissons Ratio (y) = 0.46989 0.22109
# Poissons Ratio (z) = 0.16980 0.08556
#
# Static dielectric constant tensor:
#      x y z
#    x 3.429100 0.000000 -0.068810 
#    y 0.000000 3.456520 0.000000 
#    z -0.068810 0.000000 4.081940 
# 
# 
# High freq. dielectric constant tensor:
#      x y z
#    x 1.775830 0.000000 -0.012980 
#    y 0.000000 1.777150 0.000000 
#    z -0.012980 0.000000 1.822180 
# 
# From -- ./inp_files/269968.got.cif
#   From: 2010.06.25/outbox.cif.g09.slc.cpg/sg15_135_cif.got.tgz:269968.got - 2010.06.28 07:06:18.
