data_PCOD8133167
_publ_section_title
;
Structure prediction by ZEFSAII (Michael W. Deem and Ramdas Pophale) SiO2 
 PCOD8133167
Probable space group: C 2/C
;
_chemical_formula_sum "Si O2"
_cell_formula_units_Z 56
_cell_length_a 16.132480
_cell_length_b 33.167301
_cell_length_c 5.177465
_cell_angle_alpha 90.000000
_cell_angle_beta 73.706879
_cell_angle_gamma 90.000000
_cell_volume 2659.051956
_symmetry_space_group_name_H-M "C 2/C"
_symmetry_group_IT_number 15
_symmetry_cell_setting 'monoclinic'
loop_
_space_group_symop_operation_xyz
x,y,z
-x,y,1/2-z
-x,-y,-z
x,-y,1/2+z
1/2+x,1/2+y,z
1/2-x,1/2+y,1/2-z
1/2-x,1/2-y,-z
1/2+x,1/2-y,1/2+z
loop_
_atom_site_type_symbol
_atom_site_label
_atom_site_fract_x
_atom_site_fract_y
_atom_site_fract_z
Si Si1 0.854088 0.019625 0.253937
Si Si2 0.680921 0.338501 0.031373
Si Si3 0.840601 0.606826 0.383565
Si Si4 0.096387 0.647475 0.689021
Si Si5 0.243287 0.797162 0.467158
Si Si6 0.163644 0.514274 0.014032
Si Si7 0.946429 0.902057 0.536602
O O1 0.870383 0.066882 0.184993
O O2 0.897746 0.006848 0.486117
O O3 0.752394 0.009112 0.350910
O O4 0.679596 0.309582 0.285749
O O5 0.749251 0.373421 0.026800
O O6 0.704399 0.312550 0.765202
O O7 0.590737 0.360330 0.048273
O O8 0.905635 0.620023 0.552850
O O9 0.823715 0.559618 0.408429
O O10 0.877454 0.619570 0.074661
O O11 0.160956 0.685146 0.663972
O O12 0.000000 0.665304 0.750000
O O13 0.250000 0.750000 0.500000
O O14 0.112864 0.510177 0.785392
O O15 0.000000 0.892593 0.750000
O O16 0.000000 0.921019 0.250000
#
# Coordination Sequence:
#
# PCOD8133167 Si02
#       7
#     8   8   8   8   8   8   8
#     4  10  21  35  52  76 110 151 204 260 304 343
#     4  10  21  39  60  84 118 158 201 240 287 355
#     4  10  20  36  61  85 112 154 197 241 287 351
#     4  10  21  38  62  91 119 148 188 237 294 352
#     4  10  21  39  66  95 120 151 191 238 291 356
#     4  10  19  32  54  81 107 142 197 246 289 340
#     4  12  25  39  56  82 121 164 208 256 304 354
#
# _framework density 21.060137000000001
#
# number of rings (size 3 to 8) (size 9 to 14) (size 15 to 20)
#    0.000    1.714    0.000    5.143    0.000    8.571 
#    0.000    2.143    0.000   10.286    0.000    0.000 
#    0.000    0.000    0.000    0.000    0.000    0.000 
#
# Total GULP energy -347009.297641 kJ/mol
# GULP energy per Si atom -12393.189201 kJ/mol
# Density = 2.101220 g / cm^3
# Si number density = 21.060137 Si / 1000 Ang^3
#
#
#
# Elastic Constant Matrix: (Units=GPa)
#
#
# Indices 1 2 3 4 5 6 
#
# 1 77.0127 33.8971 27.5353 0.0000 15.7407 0.0000
# 2 33.8971 127.7350 47.8138 0.0000 9.7487 0.0000
# 3 27.5353 47.8138 132.5202 0.0000 45.4414 0.0000
# 4 0.0000 0.0000 0.0000 20.2957 0.0000 0.1521
# 5 15.7407 9.7487 45.4414 0.0000 33.6967 0.0000
# 6 0.0000 0.0000 0.0000 0.1521 0.0000 10.2750
#
#
#
# Elastic Compliance Matrix: (Units=1/GPa)
#
#
# Indices 1 2 3 4 5 6 
#
# 1 0.015946 -0.003878 0.000475 0.000000 -0.006967 0.000000
# 2 -0.003878 0.010198 -0.004619 0.000000 0.005090 0.000000
# 3 0.000475 -0.004619 0.016243 0.000000 -0.020789 0.000000
# 4 0.000000 0.000000 0.000000 0.049277 0.000000 -0.000729
# 5 -0.006967 0.005090 -0.020789 0.000000 0.059494 0.000000
# 6 0.000000 0.000000 0.000000 -0.000729 0.000000 0.097335
#
#
# Mechanical properties :
#
#
# Convention : Reuss Voigt Hill
#
# Bulk Modulus (GPa) = 37.96092 61.75113 49.85603
# Shear Modulus (GPa) = 18.29373 28.05493 23.17433
#
# Velocity S-wave (km/s) = 2.95047 3.65380 3.32081
# Velocity P-wave (km/s) = 5.44713 6.86916 6.19905
#
# Compressibility (1/GPa) = 0.02634288
#
# Stress axis : x y z
#
# Youngs Moduli (GPa) = 62.71220 98.05522 61.56587
#
# Poissons Ratio (x) = 0.38022 -0.02924
# Poissons Ratio (y) = 0.24317 0.28440
# Poissons Ratio (z) = -0.02978 0.45295
#
# Static dielectric constant tensor:
#      x y z
#    x 3.767930 0.000000 0.533860 
#    y 0.000000 3.510100 0.000000 
#    z 0.533860 0.000000 4.468820 
# 
# 
# High freq. dielectric constant tensor:
#      x y z
#    x 1.804030 0.000000 0.027030 
#    y 0.000000 1.808380 0.000000 
#    z 0.027030 0.000000 1.855420 
# 
# From -- ./inp_files/11970.got.cif
#   From: 2010.06.25/outbox.cif.g09.slc.cpg/sg15_6_cif.got.tgz:11970.got - 2010.06.28 07:06:18.
