data_PCOD8133572
_publ_section_title
;
Structure prediction by ZEFSAII (Michael W. Deem and Ramdas Pophale) SiO2 
 PCOD8133572
Probable space group: C 2/C
;
_chemical_formula_sum "Si O2"
_cell_formula_units_Z 64
_cell_length_a 11.726052
_cell_length_b 18.305062
_cell_length_c 22.197317
_cell_angle_alpha 90.000000
_cell_angle_beta 138.661947
_cell_angle_gamma 90.000000
_cell_volume 3146.999241
_symmetry_space_group_name_H-M "C 2/C"
_symmetry_group_IT_number 15
_symmetry_cell_setting 'monoclinic'
loop_
_space_group_symop_operation_xyz
x,y,z
-x,y,1/2-z
-x,-y,-z
x,-y,1/2+z
1/2+x,1/2+y,z
1/2-x,1/2+y,1/2-z
1/2-x,1/2-y,-z
1/2+x,1/2-y,1/2+z
loop_
_atom_site_type_symbol
_atom_site_label
_atom_site_fract_x
_atom_site_fract_y
_atom_site_fract_z
Si Si1 0.550393 0.464848 0.838882
Si Si2 0.743464 0.074282 0.291606
Si Si3 0.370787 0.894154 0.625491
Si Si4 0.347765 0.264438 0.835596
Si Si5 0.500548 0.783233 0.518008
Si Si6 0.249307 0.603959 0.551101
Si Si7 0.888556 0.804085 0.645720
Si Si8 0.509589 0.263882 0.350402
O O1 0.500000 0.464805 0.750000
O O2 0.383133 0.480717 0.816317
O O3 0.697686 0.525801 0.902899
O O4 0.631122 0.386424 0.888017
O O5 0.736946 0.071828 0.361703
O O6 0.550629 0.060669 0.189169
O O7 0.801738 0.154516 0.294952
O O8 0.250442 0.904633 0.520628
O O9 0.420146 0.808606 0.656323
O O10 0.522699 0.248200 0.867007
O O11 0.185007 0.216455 0.748498
O O12 0.386277 0.256691 0.921647
O O13 0.438890 0.868438 0.499473
O O14 0.699390 0.773852 0.582434
O O15 0.465225 0.744983 0.567893
O O16 0.381133 0.666144 0.625797
O O17 0.000000 0.803489 0.750000
#
# Coordination Sequence:
#
# PCOD8133572 Si02
#       8
#     8   8   8   8   8   8   8   8
#     4  10  24  38  54  79 116 162 193 231 287 346
#     4   9  18  37  60  79 110 149 200 238 275 352
#     4   9  18  35  61  88 103 148 198 242 292 335
#     4  10  19  33  60  84 112 152 188 239 296 345
#     4  11  21  35  60  88 115 146 193 243 290 357
#     4  11  23  35  54  89 121 147 183 244 300 343
#     4  10  20  40  58  78 111 157 201 234 280 341
#     4  10  20  35  56  89 122 142 180 248 305 338
#
# _framework density 20.336834
#
# number of rings (size 3 to 8) (size 9 to 14) (size 15 to 20)
#    0.000    2.000    1.250    3.375    7.000    2.000 
#    0.000    0.000    0.000    3.000    0.000    0.000 
#    0.000    0.000    0.000    0.000    0.000    0.000 
#
# Total GULP energy -396588.308442 kJ/mol
# GULP energy per Si atom -12393.384639 kJ/mol
# Density = 2.029055 g / cm^3
# Si number density = 20.336834 Si / 1000 Ang^3
#
#
#
# Elastic Constant Matrix: (Units=GPa)
#
#
# Indices 1 2 3 4 5 6 
#
# 1 103.7884 -0.9768 29.4504 0.0000 2.9472 0.0000
# 2 -0.9768 29.2781 14.2832 0.0000 -4.6494 0.0000
# 3 29.4504 14.2832 96.0686 -0.0001 -5.7603 0.0000
# 4 0.0000 0.0000 -0.0001 6.0118 0.0000 3.2421
# 5 2.9472 -4.6494 -5.7603 0.0000 29.1530 0.0000
# 6 0.0000 0.0000 0.0000 3.2421 0.0000 14.3539
#
#
#
# Elastic Compliance Matrix: (Units=1/GPa)
#
#
# Indices 1 2 3 4 5 6 
#
# 1 0.010736 0.001907 -0.003665 0.000000 -0.001505 0.000000
# 2 0.001907 0.037855 -0.005933 0.000000 0.004672 0.000000
# 3 -0.003665 -0.005933 0.012529 0.000000 0.001900 0.000000
# 4 0.000000 0.000000 0.000000 0.189411 0.000000 -0.042782
# 5 -0.001505 0.004672 0.001900 0.000000 0.035574 0.000000
# 6 0.000000 0.000000 0.000000 -0.042782 0.000000 0.079330
#
#
# Mechanical properties :
#
#
# Convention : Reuss Voigt Hill
#
# Bulk Modulus (GPa) = 21.86350 34.96096 28.41223
# Shear Modulus (GPa) = 12.62427 22.32895 17.47661
#
# Velocity S-wave (km/s) = 2.49421 3.31714 2.93466
# Velocity P-wave (km/s) = 4.36678 5.64796 5.04818
#
# Compressibility (1/GPa) = 0.04573833
#
# Stress axis : x y z
#
# Youngs Moduli (GPa) = 93.14804 26.41658 79.81686
#
# Poissons Ratio (x) = -0.05038 0.29252
# Poissons Ratio (y) = -0.17764 0.47353
# Poissons Ratio (z) = 0.34137 0.15672
#
# Static dielectric constant tensor:
#      x y z
#    x 3.950840 0.000000 0.139800 
#    y 0.000000 3.325170 0.000000 
#    z 0.139800 0.000000 3.735970 
# 
# 
# High freq. dielectric constant tensor:
#      x y z
#    x 1.810750 0.000000 0.001810 
#    y 0.000000 1.735950 0.000000 
#    z 0.001810 0.000000 1.802300 
# 
# From -- ./inp_files/270861.got.cif
#   From: 2010.06.25/outbox.cif.g09.slc.cpg/sg15_136_cif.got.tgz:270861.got - 2010.06.28 07:06:18.
