data_PCOD8133949
_publ_section_title
;
Structure prediction by ZEFSAII (Michael W. Deem and Ramdas Pophale) SiO2 
 PCOD8133949
Probable space group: C 2/C
;
_chemical_formula_sum "Si O2"
_cell_formula_units_Z 64
_cell_length_a 26.684593
_cell_length_b 22.499777
_cell_length_c 14.297453
_cell_angle_alpha 90.000000
_cell_angle_beta 19.958861
_cell_angle_gamma 90.000000
_cell_volume 2930.160840
_symmetry_space_group_name_H-M "C 2/C"
_symmetry_group_IT_number 15
_symmetry_cell_setting 'monoclinic'
loop_
_space_group_symop_operation_xyz
x,y,z
-x,y,1/2-z
-x,-y,-z
x,-y,1/2+z
1/2+x,1/2+y,z
1/2-x,1/2+y,1/2-z
1/2-x,1/2-y,-z
1/2+x,1/2-y,1/2+z
loop_
_atom_site_type_symbol
_atom_site_label
_atom_site_fract_x
_atom_site_fract_y
_atom_site_fract_z
Si Si1 0.793568 0.450653 0.055896
Si Si2 0.062514 0.953995 0.316315
Si Si3 0.204295 0.995758 0.398577
Si Si4 0.790373 0.317356 0.075200
Si Si5 0.029755 0.165216 0.446730
Si Si6 0.710988 0.884000 0.125580
Si Si7 0.005447 0.532689 0.893041
Si Si8 0.425571 0.218888 0.522596
O O1 0.726630 0.445370 0.068843
O O2 0.676905 0.480222 0.336348
O O3 0.837988 0.385241 0.012108
O O4 0.938127 0.490262 0.789830
O O5 0.983492 0.890284 0.458333
O O6 0.000000 0.000000 0.500000
O O7 0.068292 0.977454 0.198099
O O8 0.252591 0.934306 0.362462
O O9 0.334918 0.045232 0.167549
O O10 0.623740 0.314361 0.330840
O O11 0.812030 0.282580 0.134885
O O12 0.903109 0.287356 0.804966
O O13 0.099697 0.218661 0.381837
O O14 0.137877 0.144883 0.174690
O O15 0.613442 0.910576 0.211015
O O16 0.608909 0.833854 0.346880
O O17 0.000000 0.500000 0.000000
#
# Coordination Sequence:
#
# PCOD8133949 Si02
#       8
#     8   8   8   8   8   8   8   8
#     4  11  20  36  64  95 124 166 224 276 324 396
#     4  11  22  41  60  92 136 171 214 275 344 406
#     4  11  21  36  63  97 128 171 216 271 332 397
#     4  10  23  40  67  96 122 166 233 284 318 403
#     4  11  24  42  68  92 133 178 220 280 346 396
#     4  11  21  40  64  93 132 170 212 275 341 389
#     4  10  19  34  61  93 131 166 204 267 338 393
#     4  11  23  42  66  93 127 174 227 280 330 397
#
# _framework density 21.841805000000001
#
# number of rings (size 3 to 8) (size 9 to 14) (size 15 to 20)
#    0.000    1.250    5.000    2.625    3.500    1.000 
#    0.000    5.000    2.750    0.000    0.000    0.000 
#    0.000    0.000    0.000    0.000    0.000    0.000 
#
# Total GULP energy -396542.168900 kJ/mol
# GULP energy per Si atom -12391.942778 kJ/mol
# Density = 2.179209 g / cm^3
# Si number density = 21.841805 Si / 1000 Ang^3
#
#
#
# Elastic Constant Matrix: (Units=GPa)
#
#
# Indices 1 2 3 4 5 6 
#
# 1 89.0225 41.9466 27.8648 0.0045 21.9426 0.0016
# 2 41.9466 103.0523 19.2378 -0.0035 6.2758 -0.0031
# 3 27.8648 19.2378 92.6756 -0.0112 10.4331 -0.0022
# 4 0.0045 -0.0035 -0.0112 20.5991 -0.0046 4.4449
# 5 21.9426 6.2758 10.4331 -0.0046 27.0075 -0.0004
# 6 0.0016 -0.0031 -0.0022 4.4449 -0.0004 14.8943
#
#
#
# Elastic Compliance Matrix: (Units=1/GPa)
#
#
# Indices 1 2 3 4 5 6 
#
# 1 0.017930 -0.006044 -0.002775 -0.000009 -0.012091 -0.000001
# 2 -0.006044 0.012199 -0.000992 0.000003 0.002459 0.000002
# 3 -0.002775 -0.000992 0.012076 0.000007 -0.002180 0.000000
# 4 -0.000009 0.000003 0.000007 0.051887 0.000013 -0.015485
# 5 -0.012091 0.002459 -0.002180 0.000013 0.047121 -0.000001
# 6 -0.000001 0.000002 0.000000 -0.015485 -0.000001 0.071761
#
#
# Mechanical properties :
#
#
# Convention : Reuss Voigt Hill
#
# Bulk Modulus (GPa) = 44.28073 51.42764 47.85419
# Shear Modulus (GPa) = 20.82259 25.54692 23.18476
#
# Velocity S-wave (km/s) = 3.09096 3.42370 3.26158
# Velocity P-wave (km/s) = 5.74945 6.26303 6.01173
#
# Compressibility (1/GPa) = 0.02258318
#
# Stress axis : x y z
#
# Youngs Moduli (GPa) = 55.77332 81.97182 82.80846
#
# Poissons Ratio (x) = 0.49542 0.22981
# Poissons Ratio (y) = 0.33708 0.08214
# Poissons Ratio (z) = 0.15478 0.08131
#
# Static dielectric constant tensor:
#      x y z
#    x 3.712440 -0.000020 -0.004130 
#    y -0.000020 3.877720 0.000020 
#    z -0.004130 0.000020 4.155000 
# 
# 
# High freq. dielectric constant tensor:
#      x y z
#    x 1.859110 0.000000 0.003180 
#    y 0.000000 1.832360 0.000000 
#    z 0.003180 0.000000 1.875130 
# 
# From -- ./inp_files/183108.got.cif
#   From: 2010.06.25/outbox.cif.g09.slc.cpg/sg15_92_cif.got.tgz:183108.got - 2010.06.28 07:06:18.
