data_PCOD8133514
_publ_section_title
;
Structure prediction by ZEFSAII (Michael W. Deem and Ramdas Pophale) SiO2 
 PCOD8133514
Probable space group: C 2/C
;
_chemical_formula_sum "Si O2"
_cell_formula_units_Z 44
_cell_length_a 23.813342
_cell_length_b 18.015483
_cell_length_c 5.157923
_cell_angle_alpha 90.000000
_cell_angle_beta 78.996171
_cell_angle_gamma 90.000000
_cell_volume 2172.111164
_symmetry_space_group_name_H-M "C 2/C"
_symmetry_group_IT_number 15
_symmetry_cell_setting 'monoclinic'
loop_
_space_group_symop_operation_xyz
x,y,z
-x,y,1/2-z
-x,-y,-z
x,-y,1/2+z
1/2+x,1/2+y,z
1/2-x,1/2+y,1/2-z
1/2-x,1/2-y,-z
1/2+x,1/2-y,1/2+z
loop_
_atom_site_type_symbol
_atom_site_label
_atom_site_fract_x
_atom_site_fract_y
_atom_site_fract_z
Si Si1 0.810045 0.174051 0.966167
Si Si2 0.000000 0.448248 0.250000
Si Si3 0.814133 0.345676 0.932722
Si Si4 0.878313 0.819883 0.919999
Si Si5 0.934472 0.036286 0.294780
Si Si6 0.886117 0.648883 0.883558
O O1 0.804038 0.259408 0.883053
O O2 0.855641 0.146589 0.712893
O O3 0.751491 0.125503 0.992466
O O4 0.829492 0.170777 0.246038
O O5 0.055538 0.396182 0.195848
O O6 0.000000 0.500000 0.500000
O O7 0.849830 0.380796 0.661990
O O8 0.848066 0.364030 0.163412
O O9 0.930158 0.874307 0.800151
O O10 0.901695 0.735767 0.908878
O O11 0.000000 0.012200 0.250000
O O12 0.903942 0.997047 0.567044
#
# Coordination Sequence:
#
# PCOD8133514 Si02
#       6
#     8   4   8   8   8   8
#     4   9  17  30  54  86 115 143 174 230 285 320
#     4  12  26  44  62  82 114 152 188 240 304 348
#     4   9  17  33  55  85 115 138 182 227 281 339
#     4  10  19  33  57  86 112 143 187 232 268 321
#     4  10  21  36  53  75 110 154 182 213 265 318
#     4  10  21  36  60  85 106 145 187 235 276 328
#
# _framework density 20.256789999999999
#
# number of rings (size 3 to 8) (size 9 to 14) (size 15 to 20)
#    0.000    2.182    0.000    3.273    1.273    4.364 
#    0.000    0.000    0.000   21.818    0.000    0.000 
#    0.000    0.000    0.000    0.000    0.000    0.000 
#
# Total GULP energy -272634.438339 kJ/mol
# GULP energy per Si atom -12392.474470 kJ/mol
# Density = 2.021068 g / cm^3
# Si number density = 20.256790 Si / 1000 Ang^3
#
#
#
# Elastic Constant Matrix: (Units=GPa)
#
#
# Indices 1 2 3 4 5 6 
#
# 1 87.6882 34.1870 47.9287 0.0000 -4.7618 0.0000
# 2 34.1870 78.5063 41.2384 0.0000 -5.2654 0.0000
# 3 47.9287 41.2384 153.7452 0.0000 9.7015 0.0000
# 4 0.0000 0.0000 0.0000 23.6850 0.0000 1.7525
# 5 -4.7618 -5.2654 9.7015 0.0000 28.9232 0.0000
# 6 0.0000 0.0000 0.0000 1.7525 0.0000 9.3171
#
#
#
# Elastic Compliance Matrix: (Units=1/GPa)
#
#
# Indices 1 2 3 4 5 6 
#
# 1 0.015390 -0.004520 -0.003773 0.000000 0.002976 0.000000
# 2 -0.004520 0.016651 -0.003271 0.000000 0.003384 0.000000
# 3 -0.003773 -0.003271 0.008821 0.000000 -0.004175 0.000000
# 4 0.000000 0.000000 0.000000 0.042817 0.000000 -0.008053
# 5 0.002976 0.003384 -0.004175 0.000000 0.037081 0.000000
# 6 0.000000 0.000000 0.000000 -0.008053 0.000000 0.108844
#
#
# Mechanical properties :
#
#
# Convention : Reuss Voigt Hill
#
# Bulk Modulus (GPa) = 56.38710 62.96089 59.67400
# Shear Modulus (GPa) = 19.33152 25.49076 22.41114
#
# Velocity S-wave (km/s) = 3.09256 3.55122 3.32980
# Velocity P-wave (km/s) = 6.37562 6.92558 6.65628
#
# Compressibility (1/GPa) = 0.01773455
#
# Stress axis : x y z
#
# Youngs Moduli (GPa) = 64.97564 60.05526 113.36236
#
# Poissons Ratio (x) = 0.27147 0.42773
# Poissons Ratio (y) = 0.29372 0.37077
# Poissons Ratio (z) = 0.24516 0.19642
#
# Static dielectric constant tensor:
#      x y z
#    x 3.527040 0.000000 -0.019370 
#    y 0.000000 3.398760 0.000000 
#    z -0.019370 0.000000 4.203190 
# 
# 
# High freq. dielectric constant tensor:
#      x y z
#    x 1.780460 0.000000 0.006090 
#    y 0.000000 1.758300 0.000000 
#    z 0.006090 0.000000 1.816140 
# 
# From -- ./inp_files/12884.got.cif
#   From: 2010.06.25/outbox.cif.g09.slc.cpg/sg15_7_cif.got.tgz:12884.got - 2010.06.28 07:06:18.
