data_PCOD8133980
_publ_section_title
;
Structure prediction by ZEFSAII (Michael W. Deem and Ramdas Pophale) SiO2 
 PCOD8133980
Probable space group: C 2/C
;
_chemical_formula_sum "Si O2"
_cell_formula_units_Z 52
_cell_length_a 7.506448
_cell_length_b 17.436477
_cell_length_c 21.316325
_cell_angle_alpha 90.000000
_cell_angle_beta 113.154787
_cell_angle_gamma 90.000000
_cell_volume 2565.262096
_symmetry_space_group_name_H-M "C 2/C"
_symmetry_group_IT_number 15
_symmetry_cell_setting 'monoclinic'
loop_
_space_group_symop_operation_xyz
x,y,z
-x,y,1/2-z
-x,-y,-z
x,-y,1/2+z
1/2+x,1/2+y,z
1/2-x,1/2+y,1/2-z
1/2-x,1/2-y,-z
1/2+x,1/2-y,1/2+z
loop_
_atom_site_type_symbol
_atom_site_label
_atom_site_fract_x
_atom_site_fract_y
_atom_site_fract_z
Si Si1 0.611742 0.298932 0.090037
Si Si2 0.311290 0.446805 0.623642
Si Si3 0.457203 0.360334 0.945770
Si Si4 0.067306 0.367092 0.959642
Si Si5 0.794772 0.121708 0.619140
Si Si6 0.548220 0.232912 0.653364
Si Si7 0.500000 0.343860 0.750000
O O1 0.529882 0.215377 0.062494
O O2 0.494066 0.334592 0.131705
O O3 0.834027 0.296388 0.141594
O O4 0.588034 0.353860 0.026224
O O5 0.457286 0.426033 0.587232
O O6 0.341783 0.535038 0.644987
O O7 0.350101 0.396073 0.690815
O O8 0.091416 0.432903 0.571927
O O9 0.236964 0.381199 0.932726
O O10 0.462174 0.277884 0.913540
O O11 0.149457 0.374273 0.040589
O O12 0.694660 0.162063 0.665438
O O13 0.620945 0.289820 0.718676
#
# Coordination Sequence:
#
# PCOD8133980 Si02
#       7
#     8   8   8   8   8   8   4
#     4  11  19  35  64  96 120 150 197 241 292 368
#     4  11  24  41  57  88 127 158 193 248 302 347
#     4  10  19  34  63  90 124 150 190 240 297 357
#     4  11  19  36  64  96 120 155 195 236 304 373
#     4  11  23  37  63  97 121 147 195 256 305 348
#     4  11  20  39  63  83 115 161 204 241 283 348
#     4  10  24  44  60  76 116 168 212 236 284 364
#
# _framework density 20.270831999999999
#
# number of rings (size 3 to 8) (size 9 to 14) (size 15 to 20)
#    0.000    1.231    6.154    2.769    0.000    3.692 
#    2.769    6.154    0.000    0.000    0.000    0.000 
#    0.000    0.000    0.000    0.000    0.000    0.000 
#
# Total GULP energy -322478.825915 kJ/mol
# GULP energy per Si atom -12403.031766 kJ/mol
# Density = 2.022469 g / cm^3
# Si number density = 20.270832 Si / 1000 Ang^3
#
#
#
# Elastic Constant Matrix: (Units=GPa)
#
#
# Indices 1 2 3 4 5 6 
#
# 1 118.7161 42.6875 37.1988 0.0000 -18.3556 0.0000
# 2 42.6875 121.7739 29.0501 0.0000 -15.8586 0.0000
# 3 37.1988 29.0501 61.5583 0.0000 -13.2244 0.0000
# 4 0.0000 0.0000 0.0000 20.6440 0.0000 -7.2101
# 5 -18.3556 -15.8586 -13.2244 0.0000 12.9692 0.0000
# 6 0.0000 0.0000 0.0000 -7.2101 0.0000 25.7050
#
#
#
# Elastic Compliance Matrix: (Units=1/GPa)
#
#
# Indices 1 2 3 4 5 6 
#
# 1 0.012009 -0.001856 -0.004120 0.000000 0.010527 0.000000
# 2 -0.001856 0.010395 -0.002071 0.000000 0.007972 0.000000
# 3 -0.004120 -0.002071 0.022940 0.000000 0.015028 0.000000
# 4 0.000000 0.000000 0.000000 0.053701 0.000000 0.015063
# 5 0.010527 0.007972 0.015028 0.000000 0.117076 0.000000
# 6 0.000000 0.000000 0.000000 0.015063 0.000000 0.043128
#
#
# Mechanical properties :
#
#
# Convention : Reuss Voigt Hill
#
# Bulk Modulus (GPa) = 34.18792 57.76901 45.97847
# Shear Modulus (GPa) = 17.53807 24.73777 21.13792
#
# Velocity S-wave (km/s) = 2.94460 3.49716 3.23271
# Velocity P-wave (km/s) = 5.33508 6.69830 6.05518
#
# Compressibility (1/GPa) = 0.02925009
#
# Stress axis : x y z
#
# Youngs Moduli (GPa) = 83.26812 96.20117 43.59166
#
# Poissons Ratio (x) = 0.17857 0.17959
# Poissons Ratio (y) = 0.15456 0.09029
# Poissons Ratio (z) = 0.34304 0.19926
#
# Static dielectric constant tensor:
#      x y z
#    x 3.825670 0.000000 -0.096800 
#    y 0.000000 3.633950 0.000000 
#    z -0.096800 0.000000 3.525640 
# 
# 
# High freq. dielectric constant tensor:
#      x y z
#    x 1.794850 0.000000 -0.010080 
#    y 0.000000 1.786400 0.000000 
#    z -0.010080 0.000000 1.772710 
# 
# From -- ./inp_files/232271.got.cif
#   From: 2010.06.25/outbox.cif.g09.slc.cpg/sg15_117_cif.got.tgz:232271.got - 2010.06.28 07:06:18.
