data_PCOD8133772
_publ_section_title
;
Structure prediction by ZEFSAII (Michael W. Deem and Ramdas Pophale) SiO2 
 PCOD8133772
Probable space group: C 2/C
;
_chemical_formula_sum "Si O2"
_cell_formula_units_Z 44
_cell_length_a 22.204281
_cell_length_b 19.122081
_cell_length_c 10.983727
_cell_angle_alpha 90.000000
_cell_angle_beta 153.200668
_cell_angle_gamma 90.000000
_cell_volume 2102.665442
_symmetry_space_group_name_H-M "C 2/C"
_symmetry_group_IT_number 15
_symmetry_cell_setting 'monoclinic'
loop_
_space_group_symop_operation_xyz
x,y,z
-x,y,1/2-z
-x,-y,-z
x,-y,1/2+z
1/2+x,1/2+y,z
1/2-x,1/2+y,1/2-z
1/2-x,1/2-y,-z
1/2+x,1/2-y,1/2+z
loop_
_atom_site_type_symbol
_atom_site_label
_atom_site_fract_x
_atom_site_fract_y
_atom_site_fract_z
Si Si1 0.356515 0.037364 0.237396
Si Si2 0.341825 0.965215 0.974429
Si Si3 0.568826 0.284459 0.758880
Si Si4 0.000000 0.236495 0.750000
Si Si5 0.378484 0.202400 0.257344
Si Si6 0.790009 0.822701 0.713751
O O1 0.283254 0.015262 0.233514
O O2 0.353569 0.120893 0.230335
O O3 0.500000 0.000000 0.500000
O O4 0.284239 0.013337 0.981091
O O5 0.307910 0.886907 0.950386
O O6 0.500000 0.972032 0.250000
O O7 0.500000 0.324804 0.750000
O O8 0.456163 0.228197 0.516973
O O9 0.607630 0.335014 0.716060
O O10 0.705687 0.247547 0.044983
O O11 0.975743 0.288175 0.818344
O O12 0.875238 0.186269 0.491662
O O13 0.250000 0.250000 0.000000
#
# Coordination Sequence:
#
# PCOD8133772 Si02
#       6
#     8   8   8   4   8   8
#     4  10  21  35  59  88 123 157 202 256 311 367
#     4  10  20  37  58  87 119 157 197 255 311 371
#     4  10  19  34  56  88 119 157 201 250 306 373
#     4  10  22  34  60  88 118 154 206 246 298 372
#     4  11  22  37  59  89 123 158 199 257 313 367
#     4  10  20  36  58  86 122 161 197 253 313 367
#
# _framework density 20.925820999999999
#
# number of rings (size 3 to 8) (size 9 to 14) (size 15 to 20)
#    0.000    1.818    0.000    6.000    3.818    0.000 
#    3.273    0.000    0.000    9.818    2.364    0.000 
#    0.000    0.000    0.000    0.000    0.000    0.000 
#
# Total GULP energy -272542.511096 kJ/mol
# GULP energy per Si atom -12388.295959 kJ/mol
# Density = 2.087819 g / cm^3
# Si number density = 20.925821 Si / 1000 Ang^3
#
#
#
# Elastic Constant Matrix: (Units=GPa)
#
#
# Indices 1 2 3 4 5 6 
#
# 1 155.4661 23.1463 7.9077 0.0000 -37.8235 0.0000
# 2 23.1463 67.5255 16.1576 0.0000 -12.9827 0.0000
# 3 7.9077 16.1576 88.2718 0.0000 -13.5592 0.0000
# 4 0.0000 0.0000 0.0000 23.5165 0.0000 1.9638
# 5 -37.8235 -12.9827 -13.5592 0.0000 31.8902 0.0000
# 6 0.0000 0.0000 0.0000 1.9638 0.0000 21.0194
#
#
#
# Elastic Compliance Matrix: (Units=1/GPa)
#
#
# Indices 1 2 3 4 5 6 
#
# 1 0.009215 -0.001333 0.001085 0.000000 0.010848 0.000000
# 2 -0.001333 0.016622 -0.002275 0.000000 0.004219 0.000000
# 3 0.001085 -0.002275 0.012521 0.000000 0.005684 0.000000
# 4 0.000000 0.000000 0.000000 0.042858 0.000000 -0.004004
# 5 0.010848 0.004219 0.005684 0.000000 0.048358 0.000000
# 6 0.000000 0.000000 0.000000 -0.004004 0.000000 0.047949
#
#
# Mechanical properties :
#
#
# Convention : Reuss Voigt Hill
#
# Bulk Modulus (GPa) = 30.01957 45.07629 37.54793
# Shear Modulus (GPa) = 25.81688 32.88866 29.35277
#
# Velocity S-wave (km/s) = 3.51626 3.96874 3.74933
# Velocity P-wave (km/s) = 5.55539 6.52602 6.06017
#
# Compressibility (1/GPa) = 0.03331160
#
# Stress axis : x y z
#
# Youngs Moduli (GPa) = 108.52266 60.16296 79.86571
#
# Poissons Ratio (x) = 0.08017 -0.08663
# Poissons Ratio (y) = 0.14461 0.18170
# Poissons Ratio (z) = -0.11772 0.13687
#
# Static dielectric constant tensor:
#      x y z
#    x 6.340000 0.000000 -0.691000 
#    y 0.000000 3.402760 0.000000 
#    z -0.691000 0.000000 3.863980 
# 
# 
# High freq. dielectric constant tensor:
#      x y z
#    x 1.855000 0.000000 -0.025550 
#    y 0.000000 1.775300 0.000000 
#    z -0.025550 0.000000 1.800410 
# 
# From -- ./inp_files/119307.got.cif
#   From: 2010.06.25/outbox.cif.g09.slc.cpg/sg15_60_cif.got.tgz:119307.got - 2010.06.28 07:06:18.
