data_PCOD8133207
_publ_section_title
;
Structure prediction by ZEFSAII (Michael W. Deem and Ramdas Pophale) SiO2 
 PCOD8133207
Probable space group: C 2/C
;
_chemical_formula_sum "Si O2"
_cell_formula_units_Z 56
_cell_length_a 21.037674
_cell_length_b 11.125992
_cell_length_c 25.555878
_cell_angle_alpha 90.000000
_cell_angle_beta 149.378574
_cell_angle_gamma 90.000000
_cell_volume 3046.876741
_symmetry_space_group_name_H-M "C 2/C"
_symmetry_group_IT_number 15
_symmetry_cell_setting 'monoclinic'
loop_
_space_group_symop_operation_xyz
x,y,z
-x,y,1/2-z
-x,-y,-z
x,-y,1/2+z
1/2+x,1/2+y,z
1/2-x,1/2+y,1/2-z
1/2-x,1/2-y,-z
1/2+x,1/2-y,1/2+z
loop_
_atom_site_type_symbol
_atom_site_label
_atom_site_fract_x
_atom_site_fract_y
_atom_site_fract_z
Si Si1 0.776698 0.416934 0.235144
Si Si2 0.143665 0.414748 0.549873
Si Si3 0.037942 0.132789 0.634724
Si Si4 0.065548 0.047910 0.241446
Si Si5 0.407618 0.461574 0.478260
Si Si6 0.454081 0.114237 0.407958
Si Si7 0.007894 0.240057 0.117494
O O1 0.661066 0.411665 0.192127
O O2 0.730930 0.439289 0.142780
O O3 0.859813 0.527569 0.311525
O O4 0.852568 0.292067 0.290212
O O5 0.290768 0.419784 0.648983
O O6 0.102281 0.347718 0.575108
O O7 0.091336 0.349442 0.459820
O O8 0.086840 0.549412 0.511658
O O9 0.023604 0.274680 0.615908
O O10 0.052880 0.082671 0.704305
O O11 0.911268 0.068006 0.523849
O O12 0.000000 0.034817 0.250000
O O13 0.999233 0.159490 0.163823
O O14 0.500000 0.500000 0.500000
O O15 0.471840 0.341257 0.543460
#
# Coordination Sequence:
#
# PCOD8133207 Si02
#       7
#     8   8   8   8   8   8   8
#     4  10  19  32  56  83 115 137 175 234 290 342
#     4  10  20  37  55  87 113 143 186 230 288 334
#     4  10  20  33  53  81 112 148 184 222 284 332
#     4  11  23  39  56  79 115 156 194 227 268 335
#     4   9  18  29  45  78 111 137 172 220 276 339
#     4  10  20  34  58  87 115 143 173 238 292 332
#     4  10  20  34  57  80 109 144 184 234 284 322
#
# _framework density 18.379476
#
# number of rings (size 3 to 8) (size 9 to 14) (size 15 to 20)
#    0.000    2.000    1.429    3.429    4.000    1.714 
#    0.000    0.714    0.000    3.429    0.000    0.000 
#    0.000    0.000    0.000    0.000    0.000    0.000 
#
# Total GULP energy -346876.123979 kJ/mol
# GULP energy per Si atom -12388.432999 kJ/mol
# Density = 1.833764 g / cm^3
# Si number density = 18.379476 Si / 1000 Ang^3
#
#
#
# Elastic Constant Matrix: (Units=GPa)
#
#
# Indices 1 2 3 4 5 6 
#
# 1 90.6008 38.1754 40.0491 -0.0002 -11.3864 -0.0001
# 2 38.1754 103.8928 41.6870 -0.0001 -9.5177 -0.0002
# 3 40.0491 41.6870 122.7593 -0.0002 -9.8348 -0.0005
# 4 -0.0002 -0.0001 -0.0002 26.6765 -0.0003 -8.5326
# 5 -11.3864 -9.5177 -9.8348 -0.0003 16.4010 -0.0003
# 6 -0.0001 -0.0002 -0.0005 -8.5326 -0.0003 18.4929
#
#
#
# Elastic Compliance Matrix: (Units=1/GPa)
#
#
# Indices 1 2 3 4 5 6 
#
# 1 0.014698 -0.003593 -0.003072 0.000000 0.006277 0.000000
# 2 -0.003593 0.012334 -0.002776 0.000000 0.002999 0.000000
# 3 -0.003072 -0.002776 0.010285 0.000000 0.002424 0.000000
# 4 0.000000 0.000000 0.000000 0.043976 0.000001 0.020291
# 5 0.006277 0.002999 0.002424 0.000001 0.068523 0.000002
# 6 0.000000 0.000000 0.000000 0.020291 0.000002 0.063437
#
#
# Mechanical properties :
#
#
# Convention : Reuss Voigt Hill
#
# Bulk Modulus (GPa) = 54.24472 61.89734 58.07103
# Shear Modulus (GPa) = 20.98357 25.47017 23.22687
#
# Velocity S-wave (km/s) = 3.38255 3.72666 3.55877
# Velocity P-wave (km/s) = 6.69577 7.22965 6.96783
#
# Compressibility (1/GPa) = 0.01843498
#
# Stress axis : x y z
#
# Youngs Moduli (GPa) = 68.03507 81.07547 97.22768
#
# Poissons Ratio (x) = 0.29132 0.29870
# Poissons Ratio (y) = 0.24446 0.26991
# Poissons Ratio (z) = 0.20901 0.22507
#
# Static dielectric constant tensor:
#      x y z
#    x 3.118440 0.000000 -1.074510 
#    y 0.000000 3.565530 0.000000 
#    z -1.074510 0.000000 6.886770 
# 
# 
# High freq. dielectric constant tensor:
#      x y z
#    x 1.645960 0.000000 -0.013810 
#    y 0.000000 1.722480 0.000000 
#    z -0.013810 0.000000 1.739620 
# 
# From -- ./inp_files/110997.got.cif
#   From: 2010.06.25/outbox.cif.g09.slc.cpg/sg15_56_cif.got.tgz:110997.got - 2010.06.28 07:06:18.
