data_PCOD8133085
_publ_section_title
;
Structure prediction by ZEFSAII (Michael W. Deem and Ramdas Pophale) SiO2 
 PCOD8133085
Probable space group: C 2/C
;
_chemical_formula_sum "Si O2"
_cell_formula_units_Z 44
_cell_length_a 10.860274
_cell_length_b 23.200723
_cell_length_c 13.905393
_cell_angle_alpha 90.000000
_cell_angle_beta 47.250705
_cell_angle_gamma 90.000000
_cell_volume 2572.867077
_symmetry_space_group_name_H-M "C 2/C"
_symmetry_group_IT_number 15
_symmetry_cell_setting 'monoclinic'
loop_
_space_group_symop_operation_xyz
x,y,z
-x,y,1/2-z
-x,-y,-z
x,-y,1/2+z
1/2+x,1/2+y,z
1/2-x,1/2+y,1/2-z
1/2-x,1/2-y,-z
1/2+x,1/2-y,1/2+z
loop_
_atom_site_type_symbol
_atom_site_label
_atom_site_fract_x
_atom_site_fract_y
_atom_site_fract_z
Si Si1 0.558860 0.975729 0.615127
Si Si2 0.000000 0.133086 0.250000
Si Si3 0.985948 0.303945 0.538882
Si Si4 0.847836 0.577368 0.066420
Si Si5 0.146207 0.203670 0.335165
Si Si6 0.329401 0.139376 0.398417
O O1 0.500000 0.995396 0.750000
O O2 0.400121 0.951467 0.639467
O O3 0.704005 0.925381 0.542035
O O4 0.625063 0.034241 0.534950
O O5 0.846512 0.090063 0.331222
O O6 0.989839 0.173403 0.161081
O O7 0.054470 0.260053 0.423496
O O8 0.136903 0.314394 0.534866
O O9 0.948223 0.362656 0.500816
O O10 0.817556 0.282283 0.684741
O O11 0.183325 0.161823 0.406357
O O12 0.500000 0.130211 0.250000
#
# Coordination Sequence:
#
# PCOD8133085 Si02
#       6
#     8   4   8   8   8   8
#     4   9  16  33  55  74  93 130 173 208 248 299
#     4  10  20  34  48  70 104 138 162 196 254 304
#     4   9  18  33  51  73  98 134 168 208 249 297
#     4   9  19  33  51  72 102 131 166 208 251 302
#     4  10  19  32  50  73 101 135 166 206 252 303
#     4   8  15  30  54  73  94 128 172 207 251 300
#
# _framework density 17.101545000000002
#
# number of rings (size 3 to 8) (size 9 to 14) (size 15 to 20)
#    0.000    2.909    0.000    3.818    0.000    2.909 
#    4.909    3.636    8.000    0.000    0.000    0.000 
#    0.000    0.000    0.000    0.000    0.000    0.000 
#
# Total GULP energy -272619.608285 kJ/mol
# GULP energy per Si atom -12391.800377 kJ/mol
# Density = 1.706262 g / cm^3
# Si number density = 17.101545 Si / 1000 Ang^3
#
#
#
# Elastic Constant Matrix: (Units=GPa)
#
#
# Indices 1 2 3 4 5 6 
#
# 1 88.2065 53.0559 31.1756 0.0002 15.7579 0.0005
# 2 53.0559 130.7486 69.4911 0.0000 11.3286 0.0001
# 3 31.1756 69.4911 73.4163 0.0000 16.0218 0.0001
# 4 0.0002 0.0000 0.0000 -22.6459 0.0000 -153.5825
# 5 15.7579 11.3286 16.0218 0.0000 17.0164 -0.0001
# 6 0.0005 0.0001 0.0001 -153.5825 -0.0001 -433.3412
#
#
#
# Elastic Compliance Matrix: (Units=1/GPa)
#
#
# Indices 1 2 3 4 5 6 
#
# 1 0.017128 -0.006994 0.002256 0.000000 -0.013329 0.000000
# 2 -0.006994 0.018510 -0.016707 0.000000 0.009885 0.000000
# 3 0.002256 -0.016707 0.033360 0.000000 -0.022377 0.000000
# 4 0.000000 0.000000 0.000000 0.031460 0.000000 -0.011150
# 5 -0.013329 0.009885 -0.022377 0.000000 0.085598 0.000000
# 6 0.000000 0.000000 0.000000 -0.011150 0.000000 0.001644
#
#
# Mechanical properties :
#
#
# Convention : Reuss Voigt Hill
#
# Bulk Modulus (GPa) = 38.30438 66.64628 52.47533
# Shear Modulus (GPa) = 20.89486 -78.55088 -28.82801
#
# Velocity S-wave (km/s) = 3.49923 -6.78467 -4.11018
# Velocity P-wave (km/s) = 6.22680 4.72442 2.86817
#
# Compressibility (1/GPa) = 0.02610667
#
# Stress axis : x y z
#
# Youngs Moduli (GPa) = 58.38393 54.02591 29.97592
#
# Poissons Ratio (x) = 0.37788 -0.06763
# Poissons Ratio (y) = 0.40837 0.50081
# Poissons Ratio (z) = -0.13172 0.90262
#
# Static dielectric constant tensor:
#      x y z
#    x 3.467650 0.000000 0.307500 
#    y 0.000000 3.366070 0.000000 
#    z 0.307500 0.000000 2.954320 
# 
# 
# High freq. dielectric constant tensor:
#      x y z
#    x 1.670030 0.000000 0.022680 
#    y 0.000000 1.666730 0.000000 
#    z 0.022680 0.000000 1.622980 
# 
# From -- ./inp_files/31418.got.cif
#   From: 2010.06.25/outbox.cif.g09.slc.cpg/sg15_16_cif.got.tgz:31418.got - 2010.06.28 07:06:18.
