data_PCOD8133091
_publ_section_title
;
Structure prediction by ZEFSAII (Michael W. Deem and Ramdas Pophale) SiO2 
 PCOD8133091
Probable space group: C 2/C
;
_chemical_formula_sum "Si O2"
_cell_formula_units_Z 40
_cell_length_a 8.220296
_cell_length_b 24.167211
_cell_length_c 16.263513
_cell_angle_alpha 90.000000
_cell_angle_beta 35.776539
_cell_angle_gamma 90.000000
_cell_volume 1888.887615
_symmetry_space_group_name_H-M "C 2/C"
_symmetry_group_IT_number 15
_symmetry_cell_setting 'monoclinic'
loop_
_space_group_symop_operation_xyz
x,y,z
-x,y,1/2-z
-x,-y,-z
x,-y,1/2+z
1/2+x,1/2+y,z
1/2-x,1/2+y,1/2-z
1/2-x,1/2-y,-z
1/2+x,1/2-y,1/2+z
loop_
_atom_site_type_symbol
_atom_site_label
_atom_site_fract_x
_atom_site_fract_y
_atom_site_fract_z
Si Si1 0.936419 0.332825 0.684638
Si Si2 0.663304 0.335770 0.523027
Si Si3 0.299245 0.453332 0.953492
Si Si4 0.592891 0.950006 0.853619
Si Si5 0.180950 0.740591 0.405907
O O1 0.607804 0.343449 0.809249
O O2 0.062210 0.393346 0.612755
O O3 0.011152 0.284230 0.588701
O O4 0.000000 0.311677 0.750000
O O5 0.772894 0.398006 0.463396
O O6 0.872801 0.298048 0.491449
O O7 0.589291 0.303585 0.467719
O O8 0.172702 0.443305 0.915571
O O9 0.631246 0.465360 0.812558
O O10 0.141457 0.503286 0.063397
O O11 0.500000 0.745231 0.250000
#
# Coordination Sequence:
#
# PCOD8133091 Si02
#       5
#     8   8   8   8   8
#     4  10  19  32  50  76 109 142 174 219 278 328
#     4   9  17  32  54  76  99 138 184 224 263 320
#     4   9  16  31  55  78 105 140 182 224 266 321
#     4   9  17  31  52  79 107 142 180 218 271 326
#     4   9  17  32  53  75 100 136 184 223 265 321
#
# _framework density 21.176483999999999
#
# number of rings (size 3 to 8) (size 9 to 14) (size 15 to 20)
#    0.000    2.800    2.000    0.000    0.000    0.800 
#    0.000    7.000    0.000    2.400    0.000    0.000 
#    0.000    0.000    0.000    0.000    0.000    0.000 
#
# Total GULP energy -247799.500895 kJ/mol
# GULP energy per Si atom -12389.975045 kJ/mol
# Density = 2.112829 g / cm^3
# Si number density = 21.176484 Si / 1000 Ang^3
#
#
#
# Elastic Constant Matrix: (Units=GPa)
#
#
# Indices 1 2 3 4 5 6 
#
# 1 66.2922 54.0197 16.1756 0.0001 24.7987 0.0000
# 2 54.0197 201.0592 64.0816 0.0000 17.0670 0.0000
# 3 16.1756 64.0816 59.6575 0.0002 2.4016 -0.0001
# 4 0.0001 0.0000 0.0002 34.2934 -0.0001 6.3508
# 5 24.7987 17.0670 2.4016 -0.0001 24.1078 0.0000
# 6 0.0000 0.0000 -0.0001 6.3508 0.0000 31.4101
#
#
#
# Elastic Compliance Matrix: (Units=1/GPa)
#
#
# Indices 1 2 3 4 5 6 
#
# 1 0.029695 -0.005309 -0.001276 0.000000 -0.026661 0.000000
# 2 -0.005309 0.009047 -0.008274 0.000000 -0.000120 0.000000
# 3 -0.001276 -0.008274 0.025811 0.000000 0.004599 0.000000
# 4 0.000000 0.000000 0.000000 0.030294 0.000000 -0.006125
# 5 -0.026661 -0.000120 0.004599 0.000000 0.068532 0.000000
# 6 0.000000 0.000000 0.000000 -0.006125 0.000000 0.033075
#
#
# Mechanical properties :
#
#
# Convention : Reuss Voigt Hill
#
# Bulk Modulus (GPa) = 28.70592 66.17363 47.43978
# Shear Modulus (GPa) = 21.02747 30.81106 25.91927
#
# Velocity S-wave (km/s) = 3.15455 3.81854 3.50232
# Velocity P-wave (km/s) = 5.18201 7.12447 6.22942
#
# Compressibility (1/GPa) = 0.03483602
#
# Stress axis : x y z
#
# Youngs Moduli (GPa) = 33.67540 110.53169 38.74360
#
# Poissons Ratio (x) = 0.58676 0.04944
# Poissons Ratio (y) = 0.17877 0.32056
# Poissons Ratio (z) = 0.04297 0.91453
#
# Static dielectric constant tensor:
#      x y z
#    x 3.511090 0.000000 0.066210 
#    y 0.000000 4.089240 0.000000 
#    z 0.066210 0.000000 3.620000 
# 
# 
# High freq. dielectric constant tensor:
#      x y z
#    x 1.809220 0.000000 0.009190 
#    y 0.000000 1.840440 0.000000 
#    z 0.009190 0.000000 1.791790 
# 
# From -- ./inp_files/77641.got.cif
#   From: 2010.06.25/outbox.cif.g09.slc.cpg/sg15_39_cif.got.tgz:77641.got - 2010.06.28 07:06:18.
