data_PCOD8133413
_publ_section_title
;
Structure prediction by ZEFSAII (Michael W. Deem and Ramdas Pophale) SiO2 
 PCOD8133413
Probable space group: C 2/C
;
_chemical_formula_sum "Si O2"
_cell_formula_units_Z 56
_cell_length_a 8.816316
_cell_length_b 26.776770
_cell_length_c 19.644328
_cell_angle_alpha 90.000000
_cell_angle_beta 140.409140
_cell_angle_gamma 90.000000
_cell_volume 2955.474106
_symmetry_space_group_name_H-M "C 2/C"
_symmetry_group_IT_number 15
_symmetry_cell_setting 'monoclinic'
loop_
_space_group_symop_operation_xyz
x,y,z
-x,y,1/2-z
-x,-y,-z
x,-y,1/2+z
1/2+x,1/2+y,z
1/2-x,1/2+y,1/2-z
1/2-x,1/2-y,-z
1/2+x,1/2-y,1/2+z
loop_
_atom_site_type_symbol
_atom_site_label
_atom_site_fract_x
_atom_site_fract_y
_atom_site_fract_z
Si Si1 0.546371 0.904043 0.951015
Si Si2 0.997126 0.736712 0.325198
Si Si3 0.789634 0.918517 0.541677
Si Si4 0.439580 0.519592 0.553117
Si Si5 0.264654 0.898158 0.131053
Si Si6 0.848903 0.149488 0.262338
Si Si7 0.607243 0.679817 0.963202
O O1 0.435243 0.916229 0.985986
O O2 0.340382 0.892647 0.825151
O O3 0.689168 0.951060 0.970461
O O4 0.713808 0.855394 0.017988
O O5 0.777768 0.698396 0.252688
O O6 0.000000 0.757725 0.250000
O O7 0.246032 0.710257 0.429580
O O8 0.963413 0.783619 0.363252
O O9 0.687597 0.915708 0.429743
O O10 0.978778 0.874574 0.621406
O O11 0.924035 0.972086 0.598243
O O12 0.500000 0.500000 0.500000
O O13 0.653694 0.558513 0.641873
O O14 0.500000 0.879783 0.250000
O O15 0.084725 0.852157 0.062492
O O16 0.000000 0.167181 0.250000
#
# Coordination Sequence:
#
# PCOD8133413 Si02
#       7
#     8   8   8   8   8   8   8
#     4   9  18  35  54  76 108 137 169 215 261 309
#     4  10  19  34  57  78 100 135 174 214 265 315
#     4  10  19  33  55  79 104 137 176 214 257 307
#     4   9  19  34  52  77 107 140 176 211 253 308
#     4  10  21  36  51  73 107 142 176 214 257 307
#     4   9  19  34  54  80 105 130 168 220 267 307
#     4   9  20  36  52  76 106 134 172 218 259 312
#
# _framework density 18.947892
#
# number of rings (size 3 to 8) (size 9 to 14) (size 15 to 20)
#    0.000    2.571    0.000    1.286    0.000    5.143 
#    0.000    3.571    0.000    8.571    0.000    0.000 
#    0.000    0.000    0.000    0.000    0.000    0.000 
#
# Total GULP energy -347088.040054 kJ/mol
# GULP energy per Si atom -12396.001430 kJ/mol
# Density = 1.890477 g / cm^3
# Si number density = 18.947892 Si / 1000 Ang^3
#
#
#
# Elastic Constant Matrix: (Units=GPa)
#
#
# Indices 1 2 3 4 5 6 
#
# 1 98.9873 31.0624 36.1958 0.0000 0.4999 0.0000
# 2 31.0624 78.5127 20.1729 0.0000 -5.2040 0.0000
# 3 36.1958 20.1729 76.2775 -0.0002 -4.5238 0.0000
# 4 0.0000 0.0000 -0.0002 20.1445 -0.0001 -3.0390
# 5 0.4999 -5.2040 -4.5238 -0.0001 25.2003 0.0000
# 6 0.0000 0.0000 0.0000 -3.0390 0.0000 20.3616
#
#
#
# Elastic Compliance Matrix: (Units=1/GPa)
#
#
# Indices 1 2 3 4 5 6 
#
# 1 0.013350 -0.004033 -0.005391 0.000000 -0.002065 0.000000
# 2 -0.004033 0.015005 -0.001886 0.000000 0.002840 0.000000
# 3 -0.005391 -0.001886 0.016324 0.000000 0.002648 0.000000
# 4 0.000000 0.000000 0.000000 0.050785 0.000000 0.007580
# 5 -0.002065 0.002840 0.002648 0.000000 0.040785 0.000000
# 6 0.000000 0.000000 0.000000 0.007580 0.000000 0.050243
#
#
# Mechanical properties :
#
#
# Convention : Reuss Voigt Hill
#
# Bulk Modulus (GPa) = 45.33337 47.62665 46.48001
# Shear Modulus (GPa) = 23.09846 24.23103 23.66475
#
# Velocity S-wave (km/s) = 3.49528 3.57995 3.53787
# Velocity P-wave (km/s) = 6.34559 6.50217 6.42436
#
# Compressibility (1/GPa) = 0.02205880
#
# Stress axis : x y z
#
# Youngs Moduli (GPa) = 74.90897 66.64266 61.26027
#
# Poissons Ratio (x) = 0.26880 0.33022
# Poissons Ratio (y) = 0.30214 0.11554
# Poissons Ratio (z) = 0.40380 0.12569
#
# Static dielectric constant tensor:
#      x y z
#    x 3.523080 0.000000 0.159800 
#    y 0.000000 3.693010 0.000000 
#    z 0.159800 0.000000 3.205260 
# 
# 
# High freq. dielectric constant tensor:
#      x y z
#    x 1.739490 0.000000 0.008360 
#    y 0.000000 1.743210 0.000000 
#    z 0.008360 0.000000 1.714500 
# 
# From -- ./inp_files/81295.got.cif
#   From: 2010.06.25/outbox.cif.g09.slc.cpg/sg15_41_cif.got.tgz:81295.got - 2010.06.28 07:06:18.
