data_PCOD8133317
_publ_section_title
;
Structure prediction by ZEFSAII (Michael W. Deem and Ramdas Pophale) SiO2 
 PCOD8133317
Probable space group: C 2/C
;
_chemical_formula_sum "Si O2"
_cell_formula_units_Z 60
_cell_length_a 15.980558
_cell_length_b 20.162063
_cell_length_c 12.849435
_cell_angle_alpha 90.000000
_cell_angle_beta 126.852337
_cell_angle_gamma 90.000000
_cell_volume 3312.842009
_symmetry_space_group_name_H-M "C 2/C"
_symmetry_group_IT_number 15
_symmetry_cell_setting 'monoclinic'
loop_
_space_group_symop_operation_xyz
x,y,z
-x,y,1/2-z
-x,-y,-z
x,-y,1/2+z
1/2+x,1/2+y,z
1/2-x,1/2+y,1/2-z
1/2-x,1/2-y,-z
1/2+x,1/2-y,1/2+z
loop_
_atom_site_type_symbol
_atom_site_label
_atom_site_fract_x
_atom_site_fract_y
_atom_site_fract_z
Si Si1 0.500000 0.217913 0.250000
Si Si2 0.643391 0.660236 0.153107
Si Si3 0.191975 0.832373 0.023646
Si Si4 0.123711 0.088225 0.821912
Si Si5 0.888200 0.263982 0.208196
Si Si6 0.878423 0.934388 0.674582
Si Si7 0.445235 0.322390 0.388632
Si Si8 0.223543 0.321423 0.933679
O O1 0.466506 0.262535 0.324134
O O2 0.401992 0.170372 0.147566
O O3 0.603599 0.729765 0.173035
O O4 0.660316 0.601400 0.248707
O O5 0.750318 0.674110 0.170100
O O6 0.554399 0.642035 0.001556
O O7 0.311806 0.827467 0.151996
O O8 0.114204 0.801127 0.050920
O O9 0.168772 0.791332 0.902689
O O10 0.174313 0.908022 0.972022
O O11 0.135309 0.123075 0.718592
O O12 0.000000 0.103268 0.750000
O O13 0.149333 0.011125 0.835744
O O14 0.208809 0.121307 0.960990
O O15 0.000000 0.287245 0.250000
O O16 0.000000 0.920198 0.750000
O O17 0.250000 0.250000 0.000000
#
# Coordination Sequence:
#
# PCOD8133317 Si02
#       8
#     4   8   8   8   8   8   8   8
#     4  12  24  36  56  84 116 146 184 230 284 326
#     4  11  19  34  57  83 117 141 179 227 282 330
#     4  10  20  33  55  79 111 144 183 222 276 327
#     4  11  22  36  57  83 115 142 187 225 276 334
#     4  10  19  33  52  82 109 144 182 225 268 332
#     4  10  21  37  55  83 112 147 178 227 275 335
#     4  12  18  34  54  85 109 142 176 223 279 335
#     4  12  22  38  57  83 114 146 186 233 277 331
#
# _framework density 18.111336999999999
#
# number of rings (size 3 to 8) (size 9 to 14) (size 15 to 20)
#    0.000    1.067    7.333    1.600    0.000    1.600 
#    0.000    0.000    1.467    0.800    0.000    0.000 
#    0.000    0.000    0.000    0.000    0.000    0.000 
#
# Total GULP energy -371744.654903 kJ/mol
# GULP energy per Si atom -12391.488497 kJ/mol
# Density = 1.807012 g / cm^3
# Si number density = 18.111337 Si / 1000 Ang^3
#
#
#
# Elastic Constant Matrix: (Units=GPa)
#
#
# Indices 1 2 3 4 5 6 
#
# 1 105.7497 44.5555 50.0535 0.0000 8.2355 0.0000
# 2 44.5555 94.1150 47.6205 0.0000 6.4514 0.0000
# 3 50.0535 47.6205 94.3848 0.0000 11.6400 0.0000
# 4 0.0000 0.0000 0.0000 23.8844 0.0000 5.9536
# 5 8.2355 6.4514 11.6400 0.0000 38.4969 0.0000
# 6 0.0000 0.0000 0.0000 5.9536 0.0000 11.5654
#
#
#
# Elastic Compliance Matrix: (Units=1/GPa)
#
#
# Indices 1 2 3 4 5 6 
#
# 1 0.013552 -0.003726 -0.005221 0.000000 -0.000696 0.000000
# 2 -0.003726 0.015294 -0.005736 0.000000 -0.000031 0.000000
# 3 -0.005221 -0.005736 0.016621 0.000000 -0.002947 0.000000
# 4 0.000000 0.000000 0.000000 0.048031 0.000000 -0.024725
# 5 -0.000696 -0.000031 -0.002947 0.000000 0.027021 0.000000
# 6 0.000000 0.000000 0.000000 -0.024725 0.000000 0.099193
#
#
# Mechanical properties :
#
#
# Convention : Reuss Voigt Hill
#
# Bulk Modulus (GPa) = 62.11142 64.30093 63.20618
# Shear Modulus (GPa) = 19.65053 24.92401 22.28727
#
# Velocity S-wave (km/s) = 3.29748 3.71368 3.51175
# Velocity P-wave (km/s) = 6.99046 7.34634 7.17061
#
# Compressibility (1/GPa) = 0.01610010
#
# Stress axis : x y z
#
# Youngs Moduli (GPa) = 73.79242 65.38488 60.16383
#
# Poissons Ratio (x) = 0.24364 0.31410
# Poissons Ratio (y) = 0.27497 0.34513
# Poissons Ratio (z) = 0.38525 0.37508
#
# Static dielectric constant tensor:
#      x y z
#    x 3.419670 0.000000 0.003780 
#    y 0.000000 3.194570 0.000000 
#    z 0.003780 0.000000 3.728650 
# 
# 
# High freq. dielectric constant tensor:
#      x y z
#    x 1.701200 0.000000 -0.012810 
#    y 0.000000 1.662540 0.000000 
#    z -0.012810 0.000000 1.711150 
# 
# From -- ./inp_files/163452.got.cif
#   From: 2010.06.25/outbox.cif.g09.slc.cpg/sg15_82_cif.got.tgz:163452.got - 2010.06.28 07:06:18.
