data_PCOD8133553
_publ_section_title
;
Structure prediction by ZEFSAII (Michael W. Deem and Ramdas Pophale) SiO2 
 PCOD8133553
Probable space group: C 2/C
;
_chemical_formula_sum "Si O2"
_cell_formula_units_Z 32
_cell_length_a 18.539922
_cell_length_b 4.940321
_cell_length_c 21.379264
_cell_angle_alpha 90.000000
_cell_angle_beta 125.194805
_cell_angle_gamma 90.000000
_cell_volume 1600.230965
_symmetry_space_group_name_H-M "C 2/C"
_symmetry_group_IT_number 15
_symmetry_cell_setting 'monoclinic'
loop_
_space_group_symop_operation_xyz
x,y,z
-x,y,1/2-z
-x,-y,-z
x,-y,1/2+z
1/2+x,1/2+y,z
1/2-x,1/2+y,1/2-z
1/2-x,1/2-y,-z
1/2+x,1/2-y,1/2+z
loop_
_atom_site_type_symbol
_atom_site_label
_atom_site_fract_x
_atom_site_fract_y
_atom_site_fract_z
Si Si1 0.512140 0.523173 0.183248
Si Si2 0.468458 0.992112 0.588571
Si Si3 0.193498 0.034654 0.208897
Si Si4 0.921090 0.783013 0.951710
O O1 0.500000 0.566235 0.250000
O O2 0.492848 0.216092 0.155298
O O3 0.611995 0.597454 0.214481
O O4 0.445153 0.725708 0.111832
O O5 0.394704 0.857587 0.505338
O O6 0.550340 0.044427 0.582151
O O7 0.274276 0.229201 0.266441
O O8 0.163729 0.071386 0.121355
O O9 0.000000 0.000000 0.000000
#
# Coordination Sequence:
#
# PCOD8133553 Si02
#       4
#     8   8   8   8
#     4  11  22  38  59  86 120 158 193 232 286 363
#     4  10  19  33  59  87 105 151 207 232 270 334
#     4  11  23  36  58  91 119 144 190 253 302 321
#     4  10  19  35  61  85 117 149 201 242 279 345
#
# _framework density 19.997115999999998
#
# number of rings (size 3 to 8) (size 9 to 14) (size 15 to 20)
#    0.000    1.500    5.000    3.750    3.500    0.000 
#    0.000    0.000    0.000    9.000    0.000    0.000 
#    0.000    0.000    0.000    0.000    0.000    0.000 
#
# Total GULP energy -198232.284774 kJ/mol
# GULP energy per Si atom -12389.517798 kJ/mol
# Density = 1.995160 g / cm^3
# Si number density = 19.997116 Si / 1000 Ang^3
#
#
#
# Elastic Constant Matrix: (Units=GPa)
#
#
# Indices 1 2 3 4 5 6 
#
# 1 50.5770 8.1581 20.6399 0.0049 -19.6904 0.0009
# 2 8.1581 93.8215 17.1479 0.0120 -6.0614 -0.0025
# 3 20.6399 17.1479 88.3264 0.0025 -10.1780 0.0040
# 4 0.0049 0.0120 0.0025 53.5061 0.0002 -10.1017
# 5 -19.6904 -6.0614 -10.1780 0.0002 35.4556 0.0005
# 6 0.0009 -0.0025 0.0040 -10.1017 0.0005 20.0611
#
#
#
# Elastic Compliance Matrix: (Units=1/GPa)
#
#
# Indices 1 2 3 4 5 6 
#
# 1 0.027054 -0.000628 -0.004634 -0.000003 0.013587 -0.000002
# 2 -0.000628 0.011125 -0.001897 -0.000002 0.001009 0.000001
# 3 -0.004634 -0.001897 0.012864 0.000000 0.000795 -0.000003
# 4 -0.000003 -0.000002 0.000000 0.020653 -0.000002 0.010400
# 5 0.013587 0.001009 0.000795 -0.000002 0.036150 -0.000003
# 6 -0.000002 0.000001 -0.000003 0.010400 -0.000003 0.055085
#
#
# Mechanical properties :
#
#
# Convention : Reuss Voigt Hill
#
# Bulk Modulus (GPa) = 27.22906 36.06854 31.64880
# Shear Modulus (GPa) = 26.38648 34.25648 30.32148
#
# Velocity S-wave (km/s) = 3.63645 4.14342 3.89818
# Velocity P-wave (km/s) = 5.59265 6.40051 6.01017
#
# Compressibility (1/GPa) = 0.03672546
#
# Stress axis : x y z
#
# Youngs Moduli (GPa) = 36.96323 89.88776 77.73347
#
# Poissons Ratio (x) = 0.05641 0.36025
# Poissons Ratio (y) = 0.02320 0.14745
# Poissons Ratio (z) = 0.17130 0.17051
#
# Static dielectric constant tensor:
#      x y z
#    x 3.035030 0.000000 -0.276880 
#    y 0.000000 3.902110 0.000000 
#    z -0.276880 0.000000 4.020280 
# 
# 
# High freq. dielectric constant tensor:
#      x y z
#    x 1.697970 0.000000 -0.030930 
#    y 0.000000 1.811740 0.000000 
#    z -0.030930 0.000000 1.793030 
# 
# From -- ./inp_files/212517.got.cif
#   From: 2010.06.25/outbox.cif.g09.slc.cpg/sg15_107_cif.got.tgz:212517.got - 2010.06.28 07:06:18.
