data_PCOD8133721
_publ_section_title
;
Structure prediction by ZEFSAII (Michael W. Deem and Ramdas Pophale) SiO2 
 PCOD8133721
Probable space group: C 2/C
;
_chemical_formula_sum "Si O2"
_cell_formula_units_Z 56
_cell_length_a 12.099460
_cell_length_b 13.032028
_cell_length_c 20.191146
_cell_angle_alpha 90.000000
_cell_angle_beta 65.888535
_cell_angle_gamma 90.000000
_cell_volume 2905.975641
_symmetry_space_group_name_H-M "C 2/C"
_symmetry_group_IT_number 15
_symmetry_cell_setting 'monoclinic'
loop_
_space_group_symop_operation_xyz
x,y,z
-x,y,1/2-z
-x,-y,-z
x,-y,1/2+z
1/2+x,1/2+y,z
1/2-x,1/2+y,1/2-z
1/2-x,1/2-y,-z
1/2+x,1/2-y,1/2+z
loop_
_atom_site_type_symbol
_atom_site_label
_atom_site_fract_x
_atom_site_fract_y
_atom_site_fract_z
Si Si1 0.319205 0.365366 0.775247
Si Si2 0.193243 0.647079 0.541445
Si Si3 0.038666 0.948001 0.311105
Si Si4 0.778901 0.639381 0.811307
Si Si5 0.212308 0.998309 0.590554
Si Si6 0.956833 0.553845 0.576018
Si Si7 0.587763 0.049626 0.281960
O O1 0.419273 0.432843 0.711522
O O2 0.344662 0.244640 0.772638
O O3 0.302727 0.406115 0.853634
O O4 0.195010 0.371036 0.765206
O O5 0.250000 0.750000 0.500000
O O6 0.230410 0.631535 0.607780
O O7 0.245300 0.548198 0.489565
O O8 0.045751 0.650934 0.568027
O O9 0.000000 0.899856 0.250000
O O10 0.918222 0.946771 0.386899
O O11 0.142387 0.877282 0.317363
O O12 0.867174 0.556600 0.759683
O O13 0.313103 0.077221 0.598318
O O14 0.975717 0.475408 0.632601
O O15 0.000000 0.500000 0.500000
O O16 0.500000 0.102350 0.250000
#
# Coordination Sequence:
#
# PCOD8133721 Si02
#       7
#     8   8   8   8   8   8   8
#     4   9  19  34  54  80 108 144 184 229 284 334
#     4  11  20  32  55  88 111 140 191 239 285 336
#     4   9  20  37  56  76 111 151 187 226 290 345
#     4  11  21  34  56  87 111 143 189 240 282 336
#     4   9  18  36  55  75 110 154 182 221 284 344
#     4   9  19  35  56  80 110 151 183 227 284 340
#     4  10  19  34  55  83 109 143 189 234 279 333
#
# _framework density 19.270636
#
# number of rings (size 3 to 8) (size 9 to 14) (size 15 to 20)
#    0.000    2.286    2.857    0.857    0.000    4.000 
#    0.000    0.000    0.000    0.857    0.000    0.000 
#    0.000    0.000    0.000    0.000    0.000    0.000 
#
# Total GULP energy -346902.853673 kJ/mol
# GULP energy per Si atom -12389.387631 kJ/mol
# Density = 1.922677 g / cm^3
# Si number density = 19.270636 Si / 1000 Ang^3
#
#
#
# Elastic Constant Matrix: (Units=GPa)
#
#
# Indices 1 2 3 4 5 6 
#
# 1 128.8995 17.0223 38.8139 0.0000 3.1350 0.0000
# 2 17.0223 46.6183 11.0646 0.0000 1.5573 0.0000
# 3 38.8139 11.0646 100.2777 0.0000 9.4690 0.0000
# 4 0.0000 0.0000 0.0000 12.7408 0.0000 -2.4172
# 5 3.1350 1.5573 9.4690 0.0000 35.3934 0.0000
# 6 0.0000 0.0000 0.0000 -2.4172 0.0000 12.8175
#
#
#
# Elastic Compliance Matrix: (Units=1/GPa)
#
#
# Indices 1 2 3 4 5 6 
#
# 1 0.009067 -0.002546 -0.003245 0.000000 0.000177 0.000000
# 2 -0.002546 0.022747 -0.001489 0.000000 -0.000377 0.000000
# 3 -0.003245 -0.001489 0.011654 0.000000 -0.002765 0.000000
# 4 0.000000 0.000000 0.000000 0.081401 0.000000 0.015351
# 5 0.000177 -0.000377 -0.002765 0.000000 0.028994 0.000000
# 6 0.000000 0.000000 0.000000 0.015351 0.000000 0.080914
#
#
# Mechanical properties :
#
#
# Convention : Reuss Voigt Hill
#
# Bulk Modulus (GPa) = 34.59402 45.51077 40.05239
# Shear Modulus (GPa) = 19.30707 26.11666 22.71186
#
# Velocity S-wave (km/s) = 3.16870 3.68537 3.43676
# Velocity P-wave (km/s) = 5.60162 6.46353 6.04795
#
# Compressibility (1/GPa) = 0.02890673
#
# Stress axis : x y z
#
# Youngs Moduli (GPa) = 110.28789 43.96273 85.80900
#
# Poissons Ratio (x) = 0.11195 0.27848
# Poissons Ratio (y) = 0.28084 0.12774
# Poissons Ratio (z) = 0.35792 0.06544
#
# Static dielectric constant tensor:
#      x y z
#    x 4.145110 0.000000 -0.090090 
#    y 0.000000 3.278660 0.000000 
#    z -0.090090 0.000000 3.520560 
# 
# 
# High freq. dielectric constant tensor:
#      x y z
#    x 1.772160 0.000000 -0.000140 
#    y 0.000000 1.701350 0.000000 
#    z -0.000140 0.000000 1.753760 
# 
# From -- ./inp_files/237533.got.cif
#   From: 2010.06.25/outbox.cif.g09.slc.cpg/sg15_119_cif.got.tgz:237533.got - 2010.06.28 07:06:18.
