data_PCOD8133501
_publ_section_title
;
Structure prediction by ZEFSAII (Michael W. Deem and Ramdas Pophale) SiO2 
 PCOD8133501
Probable space group: C 2/C
;
_chemical_formula_sum "Si O2"
_cell_formula_units_Z 44
_cell_length_a 29.467126
_cell_length_b 14.044925
_cell_length_c 11.797760
_cell_angle_alpha 90.000000
_cell_angle_beta 29.051407
_cell_angle_gamma 90.000000
_cell_volume 2370.992663
_symmetry_space_group_name_H-M "C 2/C"
_symmetry_group_IT_number 15
_symmetry_cell_setting 'monoclinic'
loop_
_space_group_symop_operation_xyz
x,y,z
-x,y,1/2-z
-x,-y,-z
x,-y,1/2+z
1/2+x,1/2+y,z
1/2-x,1/2+y,1/2-z
1/2-x,1/2-y,-z
1/2+x,1/2-y,1/2+z
loop_
_atom_site_type_symbol
_atom_site_label
_atom_site_fract_x
_atom_site_fract_y
_atom_site_fract_z
Si Si1 0.500000 0.536000 0.750000
Si Si2 0.569949 0.049977 0.697129
Si Si3 0.699929 0.824038 0.767493
Si Si4 0.912600 0.832881 0.262597
Si Si5 0.590035 0.355624 0.494256
Si Si6 0.919396 0.371182 0.686811
O O1 0.515722 0.602580 0.823762
O O2 0.591227 0.465825 0.535452
O O3 0.500000 0.019418 0.750000
O O4 0.652995 0.114969 0.469232
O O5 0.613328 0.955130 0.658069
O O6 0.515953 0.106665 0.912714
O O7 0.808339 0.847075 0.537168
O O8 0.679350 0.710300 0.830533
O O9 0.662752 0.852087 0.724187
O O10 0.924213 0.863155 0.108191
O O11 0.938634 0.722081 0.220184
O O12 0.500000 0.303540 0.750000
#
# Coordination Sequence:
#
# PCOD8133501 Si02
#       6
#     4   8   8   8   8   8
#     4  10  24  36  58  78 114 148 178 228 282 328
#     4   9  18  33  55  83 105 145 175 224 274 331
#     4  10  19  33  57  82 107 140 188 228 263 324
#     4  11  21  35  55  84 109 142 184 231 275 320
#     4   9  19  37  59  74 105 154 192 213 262 346
#     4   9  18  33  56  78 111 142 184 218 274 328
#
# _framework density 18.557628999999999
#
# number of rings (size 3 to 8) (size 9 to 14) (size 15 to 20)
#    0.545    1.818    0.000    5.455    1.273    2.909 
#    0.000    0.000    0.000    2.182    0.000    0.000 
#    0.000    0.000    0.000    0.000    0.000    0.000 
#
# Total GULP energy -272655.843858 kJ/mol
# GULP energy per Si atom -12393.447448 kJ/mol
# Density = 1.851539 g / cm^3
# Si number density = 18.557629 Si / 1000 Ang^3
#
#
#
# Elastic Constant Matrix: (Units=GPa)
#
#
# Indices 1 2 3 4 5 6 
#
# 1 40.7359 46.0280 27.5767 0.0000 15.9604 0.0000
# 2 46.0280 144.2727 35.5221 0.0000 12.3639 0.0000
# 3 27.5767 35.5221 79.3183 0.0000 13.8645 0.0000
# 4 0.0000 0.0000 0.0000 24.8501 0.0000 11.3656
# 5 15.9604 12.3639 13.8645 0.0000 24.0223 0.0000
# 6 0.0000 0.0000 0.0000 11.3656 0.0000 5.2394
#
#
#
# Elastic Compliance Matrix: (Units=1/GPa)
#
#
# Indices 1 2 3 4 5 6 
#
# 1 0.055391 -0.013345 -0.008952 0.000000 -0.024766 0.000000
# 2 -0.013345 0.011113 -0.000987 0.000000 0.003716 0.000000
# 3 -0.008952 -0.000987 0.016720 0.000000 -0.003194 0.000000
# 4 0.000000 0.000000 0.000000 5.125493 0.000000-11.118499
# 5 -0.024766 0.003716 -0.003194 0.000000 0.058014 0.000000
# 6 0.000000 0.000000 0.000000-11.118499 0.000000 24.309716
#
#
# Mechanical properties :
#
#
# Convention : Reuss Voigt Hill
#
# Bulk Modulus (GPa) = 27.28067 53.62006 40.45036
# Shear Modulus (GPa) = 0.16872 21.16903 10.66887
#
# Velocity S-wave (km/s) = 0.30185 3.38112 2.40032
# Velocity P-wave (km/s) = 3.85408 6.64824 5.43383
#
# Compressibility (1/GPa) = 0.03665600
#
# Stress axis : x y z
#
# Youngs Moduli (GPa) = 18.05355 89.98175 59.80787
#
# Poissons Ratio (x) = 1.20080 0.53542
# Poissons Ratio (y) = 0.24092 0.05903
# Poissons Ratio (z) = 0.16162 0.08881
#
# Static dielectric constant tensor:
#      x y z
#    x 3.157360 0.000000 0.248590 
#    y 0.000000 3.649580 0.000000 
#    z 0.248590 0.000000 3.350390 
# 
# 
# High freq. dielectric constant tensor:
#      x y z
#    x 1.686500 0.000000 0.025150 
#    y 0.000000 1.732680 0.000000 
#    z 0.025150 0.000000 1.718900 
# 
# From -- ./inp_files/95728.got.cif
#   From: 2010.06.25/outbox.cif.g09.slc.cpg/sg15_48_cif.got.tgz:95728.got - 2010.06.28 07:06:18.
