data_PCOD8133124
_publ_section_title
;
Structure prediction by ZEFSAII (Michael W. Deem and Ramdas Pophale) SiO2 
 PCOD8133124
Probable space group: C 2/C
;
_chemical_formula_sum "Si O2"
_cell_formula_units_Z 48
_cell_length_a 18.128299
_cell_length_b 8.577998
_cell_length_c 27.514870
_cell_angle_alpha 90.000000
_cell_angle_beta 145.608704
_cell_angle_gamma 90.000000
_cell_volume 2416.780317
_symmetry_space_group_name_H-M "C 2/C"
_symmetry_group_IT_number 15
_symmetry_cell_setting 'monoclinic'
loop_
_space_group_symop_operation_xyz
x,y,z
-x,y,1/2-z
-x,-y,-z
x,-y,1/2+z
1/2+x,1/2+y,z
1/2-x,1/2+y,1/2-z
1/2-x,1/2-y,-z
1/2+x,1/2-y,1/2+z
loop_
_atom_site_type_symbol
_atom_site_label
_atom_site_fract_x
_atom_site_fract_y
_atom_site_fract_z
Si Si1 0.301730 0.171967 0.978965
Si Si2 0.866620 0.849316 0.917688
Si Si3 0.774878 0.896711 0.221125
Si Si4 0.150488 0.071004 0.333136
Si Si5 0.344022 0.315922 0.413296
Si Si6 0.089822 0.645741 0.146117
O O1 0.334719 0.301087 0.956005
O O2 0.195726 0.049758 0.899883
O O3 0.250000 0.250000 0.000000
O O4 0.439404 0.089033 0.068026
O O5 0.821482 0.726079 0.854479
O O6 0.792535 0.014498 0.867717
O O7 0.019869 0.860068 0.986590
O O8 0.888249 0.800648 0.309877
O O9 0.838585 0.999282 0.214265
O O10 0.689129 0.002909 0.211981
O O11 0.235759 0.228887 0.387408
O O12 0.000000 0.119150 0.250000
O O13 0.378615 0.189838 0.391730
#
# Coordination Sequence:
#
# PCOD8133124 Si02
#       6
#     8   8   8   8   8   8
#     4  10  20  35  53  75 105 141 175 210 257 311
#     4   9  18  34  55  75  99 131 173 215 261 308
#     4  10  19  32  52  78 104 137 172 215 259 305
#     4  10  20  35  53  75 107 141 174 212 258 308
#     4   9  18  34  54  76 100 132 171 218 261 304
#     4  10  19  32  53  79 106 135 174 215 256 305
#
# _framework density 19.861135000000001
#
# number of rings (size 3 to 8) (size 9 to 14) (size 15 to 20)
#    0.000    2.333    0.000    3.000    0.000    4.000 
#    0.000    9.167    0.000    0.000    0.000    0.000 
#    0.000    0.000    0.000    0.000    0.000    0.000 
#
# Total GULP energy -297315.372112 kJ/mol
# GULP energy per Si atom -12388.140505 kJ/mol
# Density = 1.981593 g / cm^3
# Si number density = 19.861135 Si / 1000 Ang^3
#
#
#
# Elastic Constant Matrix: (Units=GPa)
#
#
# Indices 1 2 3 4 5 6 
#
# 1 58.9275 30.3289 38.1961 0.0000 16.1911 0.0000
# 2 30.3289 105.7276 35.4570 0.0000 23.8596 0.0000
# 3 38.1961 35.4570 100.4361 0.0000 20.4225 0.0000
# 4 0.0000 0.0000 0.0000 27.0241 0.0000 8.7209
# 5 16.1911 23.8596 20.4225 0.0000 23.0631 0.0000
# 6 0.0000 0.0000 0.0000 8.7209 0.0000 20.0941
#
#
#
# Elastic Compliance Matrix: (Units=1/GPa)
#
#
# Indices 1 2 3 4 5 6 
#
# 1 0.025306 -0.003037 -0.006803 0.000000 -0.008599 0.000000
# 2 -0.003037 0.013095 -0.001399 0.000000 -0.010177 0.000000
# 3 -0.006803 -0.001399 0.014357 0.000000 -0.006491 0.000000
# 4 0.000000 0.000000 0.000000 0.043031 0.000000 -0.018675
# 5 -0.008599 -0.010177 -0.006491 0.000000 0.065672 0.000000
# 6 0.000000 0.000000 0.000000 -0.018675 0.000000 0.057871
#
#
# Mechanical properties :
#
#
# Convention : Reuss Voigt Hill
#
# Bulk Modulus (GPa) = 33.02455 52.56168 42.79312
# Shear Modulus (GPa) = 19.84896 24.77688 22.31292
#
# Velocity S-wave (km/s) = 3.16474 3.53584 3.35542
# Velocity P-wave (km/s) = 5.47886 6.57203 6.05018
#
# Compressibility (1/GPa) = 0.03028050
#
# Stress axis : x y z
#
# Youngs Moduli (GPa) = 39.51705 76.36436 69.65078
#
# Poissons Ratio (x) = 0.23192 0.47384
# Poissons Ratio (y) = 0.12001 0.09742
# Poissons Ratio (z) = 0.26884 0.10681
#
# Static dielectric constant tensor:
#      x y z
#    x 3.599950 0.000000 0.048880 
#    y 0.000000 3.983160 0.000000 
#    z 0.048880 0.000000 3.708620 
# 
# 
# High freq. dielectric constant tensor:
#      x y z
#    x 1.746030 0.000000 0.003740 
#    y 0.000000 1.778990 0.000000 
#    z 0.003740 0.000000 1.777980 
# 
# From -- ./inp_files/176962.got.cif
#   From: 2010.06.25/outbox.cif.g09.slc.cpg/sg15_89_cif.got.tgz:176962.got - 2010.06.28 07:06:18.
