data_PCOD8133744
_publ_section_title
;
Structure prediction by ZEFSAII (Michael W. Deem and Ramdas Pophale) SiO2 
 PCOD8133744
Probable space group: C 2/C
;
_chemical_formula_sum "Si O2"
_cell_formula_units_Z 40
_cell_length_a 12.594096
_cell_length_b 13.707420
_cell_length_c 12.131117
_cell_angle_alpha 90.000000
_cell_angle_beta 76.655287
_cell_angle_gamma 90.000000
_cell_volume 2037.679734
_symmetry_space_group_name_H-M "C 2/C"
_symmetry_group_IT_number 15
_symmetry_cell_setting 'monoclinic'
loop_
_space_group_symop_operation_xyz
x,y,z
-x,y,1/2-z
-x,-y,-z
x,-y,1/2+z
1/2+x,1/2+y,z
1/2-x,1/2+y,1/2-z
1/2-x,1/2-y,-z
1/2+x,1/2-y,1/2+z
loop_
_atom_site_type_symbol
_atom_site_label
_atom_site_fract_x
_atom_site_fract_y
_atom_site_fract_z
Si Si1 0.511394 0.798449 0.486296
Si Si2 0.608324 0.291525 0.165728
Si Si3 0.167553 0.755079 0.619319
Si Si4 0.185673 0.601770 0.803152
Si Si5 0.829283 0.622994 0.192916
O O1 0.583664 0.724232 0.542133
O O2 0.453736 0.734696 0.402605
O O3 0.588088 0.876928 0.410300
O O4 0.420861 0.856272 0.578356
O O5 0.500000 0.332680 0.250000
O O6 0.701926 0.371425 0.161448
O O7 0.640886 0.185771 0.206654
O O8 0.250000 0.750000 0.500000
O O9 0.175439 0.657535 0.690374
O O10 0.207025 0.846697 0.682853
O O11 0.177934 0.489025 0.772897
#
# Coordination Sequence:
#
# PCOD8133744 Si02
#       5
#     8   8   8   8   8
#     4  10  19  34  56  81 109 140 181 234 279 324
#     4   9  20  37  52  74 111 147 178 222 276 329
#     4   9  20  37  54  77 113 148 178 222 277 328
#     4  11  20  34  57  82 105 143 190 230 274 329
#     4   9  20  36  55  80 112 144 179 226 279 328
#
# _framework density 19.63017
#
# number of rings (size 3 to 8) (size 9 to 14) (size 15 to 20)
#    0.000    2.400    0.000    3.000    0.000    8.000 
#    0.000    5.000    0.000    0.000    0.000    0.000 
#    0.000    0.000    0.000    0.000    0.000    0.000 
#
# Total GULP energy -247912.904527 kJ/mol
# GULP energy per Si atom -12395.645226 kJ/mol
# Density = 1.958549 g / cm^3
# Si number density = 19.630170 Si / 1000 Ang^3
#
#
#
# Elastic Constant Matrix: (Units=GPa)
#
#
# Indices 1 2 3 4 5 6 
#
# 1 137.0662 28.4849 31.7548 0.0000 19.2068 0.0000
# 2 28.4849 45.8598 22.9413 0.0000 -11.9737 0.0000
# 3 31.7548 22.9413 60.4007 0.0000 14.2032 0.0000
# 4 0.0000 0.0000 0.0000 18.4418 0.0000 -2.8777
# 5 19.2068 -11.9737 14.2032 0.0000 32.8328 0.0000
# 6 0.0000 0.0000 0.0000 -2.8777 0.0000 10.7617
#
#
#
# Elastic Compliance Matrix: (Units=1/GPa)
#
#
# Indices 1 2 3 4 5 6 
#
# 1 0.010475 -0.009082 0.000180 0.000000 -0.009518 0.000000
# 2 -0.009082 0.045023 -0.019411 0.000000 0.030129 0.000000
# 3 0.000180 -0.019411 0.028414 0.000000 -0.019476 0.000000
# 4 0.000000 0.000000 0.000000 0.056586 0.000000 0.015131
# 5 -0.009518 0.030129 -0.019476 0.000000 0.055438 0.000000
# 6 0.000000 0.000000 0.000000 0.015131 0.000000 0.096968
#
#
# Mechanical properties :
#
#
# Convention : Reuss Voigt Hill
#
# Bulk Modulus (GPa) = 36.64676 45.52096 41.08386
# Shear Modulus (GPa) = 13.94219 23.08363 18.51291
#
# Velocity S-wave (km/s) = 2.66793 3.43290 3.07430
# Velocity P-wave (km/s) = 5.31033 6.24121 5.79449
#
# Compressibility (1/GPa) = 0.02728754
#
# Stress axis : x y z
#
# Youngs Moduli (GPa) = 95.46579 22.21081 35.19429
#
# Poissons Ratio (x) = 0.20171 -0.00635
# Poissons Ratio (y) = 0.86697 0.68315
# Poissons Ratio (z) = -0.01721 0.43113
#
# Static dielectric constant tensor:
#      x y z
#    x 4.803500 0.000000 0.406030 
#    y 0.000000 3.174090 0.000000 
#    z 0.406030 0.000000 3.674750 
# 
# 
# High freq. dielectric constant tensor:
#      x y z
#    x 1.786720 0.000000 0.009780 
#    y 0.000000 1.723890 0.000000 
#    z 0.009780 0.000000 1.769860 
# 
# From -- ./inp_files/85549.got.cif
#   From: 2010.06.25/outbox.cif.g09.slc.cpg/sg15_43_cif.got.tgz:85549.got - 2010.06.28 07:06:18.
