data_PCOD8133942
_publ_section_title
;
Structure prediction by ZEFSAII (Michael W. Deem and Ramdas Pophale) SiO2 
 PCOD8133942
Probable space group: C 2/C
;
_chemical_formula_sum "Si O2"
_cell_formula_units_Z 56
_cell_length_a 9.753501
_cell_length_b 14.501365
_cell_length_c 17.657340
_cell_angle_alpha 90.000000
_cell_angle_beta 81.960695
_cell_angle_gamma 90.000000
_cell_volume 2472.893976
_symmetry_space_group_name_H-M "C 2/C"
_symmetry_group_IT_number 15
_symmetry_cell_setting 'monoclinic'
loop_
_space_group_symop_operation_xyz
x,y,z
-x,y,1/2-z
-x,-y,-z
x,-y,1/2+z
1/2+x,1/2+y,z
1/2-x,1/2+y,1/2-z
1/2-x,1/2-y,-z
1/2+x,1/2-y,1/2+z
loop_
_atom_site_type_symbol
_atom_site_label
_atom_site_fract_x
_atom_site_fract_y
_atom_site_fract_z
Si Si1 0.490907 0.632888 0.124377
Si Si2 0.213440 0.008413 0.447811
Si Si3 0.810916 0.171414 0.940194
Si Si4 0.899682 0.811020 0.029051
Si Si5 0.283623 0.167250 0.139643
Si Si6 0.956549 0.568413 0.334372
Si Si7 0.761079 0.729122 0.300986
O O1 0.416670 0.543251 0.093198
O O2 0.638166 0.611304 0.153135
O O3 0.388526 0.680676 0.190989
O O4 0.522343 0.708597 0.056229
O O5 0.233107 0.073265 0.520205
O O6 0.356641 0.001161 0.389191
O O7 0.183936 0.905829 0.477506
O O8 0.756576 0.181117 0.856628
O O9 0.977472 0.179081 0.919057
O O10 0.750000 0.250000 0.000000
O O11 0.796626 0.728662 0.062182
O O12 0.403148 0.090434 0.130896
O O13 0.298147 0.240279 0.209343
O O14 0.873496 0.663181 0.330866
O O15 0.000000 0.524111 0.250000
#
# Coordination Sequence:
#
# PCOD8133942 Si02
#       7
#     8   8   8   8   8   8   8
#     4  10  20  36  59  89 113 149 193 249 287 340
#     4  10  21  37  62  86 121 154 195 243 300 348
#     4  11  16  33  63  86 107 150 209 241 271 349
#     4  11  21  36  60  89 122 155 188 248 301 351
#     4  11  21  35  61  86 116 151 201 245 291 347
#     4   9  18  35  60  81 110 158 202 234 283 357
#     4  10  19  34  61  86 108 151 208 243 280 340
#
# _framework density 22.645530999999998
#
# number of rings (size 3 to 8) (size 9 to 14) (size 15 to 20)
#    0.000    1.714    5.714    2.571    0.000    0.000 
#    0.000    2.143   34.571    0.000    0.000    0.000 
#    0.000    0.000    0.000    0.000    0.000    0.000 
#
# Total GULP energy -346956.510608 kJ/mol
# GULP energy per Si atom -12391.303950 kJ/mol
# Density = 2.259399 g / cm^3
# Si number density = 22.645531 Si / 1000 Ang^3
#
#
#
# Elastic Constant Matrix: (Units=GPa)
#
#
# Indices 1 2 3 4 5 6 
#
# 1 135.6341 9.9282 6.4190 0.0000 -12.4808 0.0000
# 2 9.9282 52.3437 3.6187 0.0000 -6.1641 0.0000
# 3 6.4190 3.6187 80.6904 0.0000 -12.7614 0.0000
# 4 0.0000 0.0000 0.0000 11.8471 0.0000 0.4646
# 5 -12.4808 -6.1641 -12.7614 0.0000 34.6698 0.0000
# 6 0.0000 0.0000 0.0000 0.4646 0.0000 20.6263
#
#
#
# Elastic Compliance Matrix: (Units=1/GPa)
#
#
# Indices 1 2 3 4 5 6 
#
# 1 0.007695 -0.001153 -0.000164 0.000000 0.002505 0.000000
# 2 -0.001153 0.019695 -0.000322 0.000000 0.002968 0.000000
# 3 -0.000164 -0.000322 0.013169 0.000000 0.004731 0.000000
# 4 0.000000 0.000000 0.000000 0.084483 0.000000 -0.001903
# 5 0.002505 0.002968 0.004731 0.000000 0.032014 0.000000
# 6 0.000000 0.000000 0.000000 -0.001903 0.000000 0.048525
#
#
# Mechanical properties :
#
#
# Convention : Reuss Voigt Hill
#
# Bulk Modulus (GPa) = 26.82422 34.28889 30.55655
# Shear Modulus (GPa) = 22.59504 30.00879 26.30192
#
# Velocity S-wave (km/s) = 3.16218 3.64421 3.41172
# Velocity P-wave (km/s) = 5.02030 5.73424 5.38911
#
# Compressibility (1/GPa) = 0.03727975
#
# Stress axis : x y z
#
# Youngs Moduli (GPa) = 129.94679 50.77422 75.93731
#
# Poissons Ratio (x) = 0.05856 0.01248
# Poissons Ratio (y) = 0.14987 0.02446
# Poissons Ratio (z) = 0.02135 0.01636
#
# Static dielectric constant tensor:
#      x y z
#    x 4.445790 0.000000 -0.242550 
#    y 0.000000 3.375810 0.000000 
#    z -0.242550 0.000000 4.340270 
# 
# 
# High freq. dielectric constant tensor:
#      x y z
#    x 1.916060 0.000000 -0.014290 
#    y 0.000000 1.825810 0.000000 
#    z -0.014290 0.000000 1.899350 
# 
# From -- ./inp_files/232112.got.cif
#   From: 2010.06.25/outbox.cif.g09.slc.cpg/sg15_117_cif.got.tgz:232112.got - 2010.06.28 07:06:18.
