data_PCOD8133670
_publ_section_title
;
Structure prediction by ZEFSAII (Michael W. Deem and Ramdas Pophale) SiO2 
 PCOD8133670
Probable space group: C 2/C
;
_chemical_formula_sum "Si O2"
_cell_formula_units_Z 60
_cell_length_a 27.663393
_cell_length_b 14.890457
_cell_length_c 19.607895
_cell_angle_alpha 90.000000
_cell_angle_beta 157.091678
_cell_angle_gamma 90.000000
_cell_volume 3143.993997
_symmetry_space_group_name_H-M "C 2/C"
_symmetry_group_IT_number 15
_symmetry_cell_setting 'monoclinic'
loop_
_space_group_symop_operation_xyz
x,y,z
-x,y,1/2-z
-x,-y,-z
x,-y,1/2+z
1/2+x,1/2+y,z
1/2-x,1/2+y,1/2-z
1/2-x,1/2-y,-z
1/2+x,1/2-y,1/2+z
loop_
_atom_site_type_symbol
_atom_site_label
_atom_site_fract_x
_atom_site_fract_y
_atom_site_fract_z
Si Si1 0.249545 0.777891 0.200957
Si Si2 0.455338 0.400735 0.615505
Si Si3 0.000000 0.401297 0.750000
Si Si4 0.475894 0.214854 0.083713
Si Si5 0.375572 0.708687 0.829966
Si Si6 0.113824 0.128644 0.196765
Si Si7 0.268007 0.554639 0.617441
Si Si8 0.506137 0.402983 0.178988
O O1 0.368563 0.821159 0.393736
O O2 0.159373 0.741685 0.144850
O O3 0.281912 0.701551 0.188014
O O4 0.177983 0.854999 0.066999
O O5 0.500000 0.388304 0.750000
O O6 0.563340 0.357944 0.708272
O O7 0.432539 0.505212 0.566832
O O8 0.003494 0.342184 0.686204
O O9 0.875882 0.462762 0.590320
O O10 0.600101 0.217728 0.197546
O O11 0.442177 0.318362 0.059118
O O12 0.265177 0.640919 0.664489
O O13 0.496870 0.643268 0.994430
O O14 0.176649 0.031163 0.270952
O O15 0.350904 0.581596 0.659453
O O16 0.500000 0.380813 0.250000
#
# Coordination Sequence:
#
# PCOD8133670 Si02
#       8
#     8   8   4   8   8   8   8   8
#     4  10  19  34  54  80 110 142 182 233 272 320
#     4   9  19  36  59  85 104 139 188 236 279 313
#     4  12  22  34  54  84 124 154 168 220 296 340
#     4  10  20  33  53  85 112 144 180 224 278 332
#     4   9  18  34  58  80 105 144 194 236 264 317
#     4   9  19  35  57  81 107 145 191 228 274 325
#     4  10  20  34  54  82 116 150 183 223 272 343
#     4   9  18  35  59  83 109 141 191 234 268 319
#
# _framework density 19.084005999999999
#
# number of rings (size 3 to 8) (size 9 to 14) (size 15 to 20)
#    0.000    2.400    2.000    0.400    0.000    6.933 
#    1.200    0.000   11.733    0.800    0.000    0.000 
#    0.000    0.000    0.000    0.000    0.000    0.000 
#
# Total GULP energy -371686.932487 kJ/mol
# GULP energy per Si atom -12389.564416 kJ/mol
# Density = 1.904057 g / cm^3
# Si number density = 19.084006 Si / 1000 Ang^3
#
#
#
# Elastic Constant Matrix: (Units=GPa)
#
#
# Indices 1 2 3 4 5 6 
#
# 1 73.7813 18.7016 6.5046 0.0000 -6.1864 0.0000
# 2 18.7016 43.6599 23.2146 0.0000 3.1751 0.0000
# 3 6.5046 23.2146 87.6552 0.0000 4.3632 0.0000
# 4 0.0000 0.0000 0.0000 22.8107 0.0000 3.1729
# 5 -6.1864 3.1751 4.3632 0.0000 24.9396 0.0000
# 6 0.0000 0.0000 0.0000 3.1729 0.0000 27.0780
#
#
#
# Elastic Compliance Matrix: (Units=1/GPa)
#
#
# Indices 1 2 3 4 5 6 
#
# 1 0.015779 -0.007398 0.000552 0.000000 0.004760 0.000000
# 2 -0.007398 0.030245 -0.007241 0.000000 -0.004419 0.000000
# 3 0.000552 -0.007241 0.013349 0.000000 -0.001277 0.000000
# 4 0.000000 0.000000 0.000000 0.044565 0.000000 -0.005222
# 5 0.004760 -0.004419 -0.001277 0.000000 0.042064 0.000000
# 6 0.000000 0.000000 0.000000 -0.005222 0.000000 0.037542
#
#
# Mechanical properties :
#
#
# Convention : Reuss Voigt Hill
#
# Bulk Modulus (GPa) = 32.05431 33.54864 32.80147
# Shear Modulus (GPa) = 22.51044 25.41069 23.96056
#
# Velocity S-wave (km/s) = 3.43818 3.65296 3.54719
# Velocity P-wave (km/s) = 5.70914 5.95061 5.83112
#
# Compressibility (1/GPa) = 0.03119705
#
# Stress axis : x y z
#
# Youngs Moduli (GPa) = 63.37402 33.06333 74.91371
#
# Poissons Ratio (x) = 0.24462 -0.04132
# Poissons Ratio (y) = 0.46887 0.54246
# Poissons Ratio (z) = -0.03495 0.23942
#
# Static dielectric constant tensor:
#      x y z
#    x 3.802470 0.000000 0.100200 
#    y 0.000000 3.299790 0.000000 
#    z 0.100200 0.000000 3.386140 
# 
# 
# High freq. dielectric constant tensor:
#      x y z
#    x 1.763860 0.000000 0.001780 
#    y 0.000000 1.708740 0.000000 
#    z 0.001780 0.000000 1.727300 
# 
# From -- ./inp_files/248990.got.cif
#   From: 2010.06.25/outbox.cif.g09.slc.cpg/sg15_125_cif.got.tgz:248990.got - 2010.06.28 07:06:18.
