data_PCOD8133661
_publ_section_title
;
Structure prediction by ZEFSAII (Michael W. Deem and Ramdas Pophale) SiO2 
 PCOD8133661
Probable space group: C 2/C
;
_chemical_formula_sum "Si O2"
_cell_formula_units_Z 60
_cell_length_a 8.758015
_cell_length_b 10.062975
_cell_length_c 32.748859
_cell_angle_alpha 90.000000
_cell_angle_beta 72.248054
_cell_angle_gamma 90.000000
_cell_volume 2748.786450
_symmetry_space_group_name_H-M "C 2/C"
_symmetry_group_IT_number 15
_symmetry_cell_setting 'monoclinic'
loop_
_space_group_symop_operation_xyz
x,y,z
-x,y,1/2-z
-x,-y,-z
x,-y,1/2+z
1/2+x,1/2+y,z
1/2-x,1/2+y,1/2-z
1/2-x,1/2-y,-z
1/2+x,1/2-y,1/2+z
loop_
_atom_site_type_symbol
_atom_site_label
_atom_site_fract_x
_atom_site_fract_y
_atom_site_fract_z
Si Si1 0.559556 0.603924 0.156473
Si Si2 0.174364 0.902781 0.032009
Si Si3 0.592025 0.311540 0.124950
Si Si4 0.500000 0.770818 0.750000
Si Si5 0.803856 0.308582 0.179221
Si Si6 0.502517 0.201030 0.502734
Si Si7 0.129430 0.598230 0.318364
Si Si8 0.166938 0.816897 0.561436
O O1 0.518264 0.453038 0.146567
O O2 0.400772 0.678130 0.185620
O O3 0.685564 0.611556 0.183219
O O4 0.623896 0.688963 0.112485
O O5 0.369113 0.915779 0.011031
O O6 0.133832 0.809923 0.074138
O O7 0.104889 0.047932 0.045292
O O8 0.095762 0.837573 0.998540
O O9 0.759309 0.289861 0.135224
O O10 0.474343 0.188258 0.142627
O O11 0.364894 0.679665 0.782334
O O12 0.404953 0.860625 0.725200
O O13 0.911663 0.440998 0.175676
O O14 0.640613 0.190741 0.457395
O O15 0.580627 0.202114 0.541886
#
# Coordination Sequence:
#
# PCOD8133661 Si02
#       8
#     8   8   8   4   8   8   8   8
#     4  10  21  37  60  83 111 149 187 227 276 328
#     4  10  19  34  54  76 108 150 185 226 277 322
#     4   9  20  38  57  82 116 147 187 232 272 324
#     4  10  24  40  58  86 118 140 172 228 276 330
#     4  10  22  40  61  86 112 145 183 223 274 331
#     4  10  20  32  51  79 109 144 188 229 275 322
#     4  10  22  39  60  86 112 144 183 224 273 331
#     4  10  20  35  52  78 111 143 184 233 273 319
#
# _framework density 21.827814
#
# number of rings (size 3 to 8) (size 9 to 14) (size 15 to 20)
#    0.000    2.133    0.000    2.400    0.000    6.933 
#    0.000    6.667    0.000    0.800    0.000    0.000 
#    0.000    0.000    0.000    0.000    0.000    0.000 
#
# Total GULP energy -371872.788288 kJ/mol
# GULP energy per Si atom -12395.759610 kJ/mol
# Density = 2.177813 g / cm^3
# Si number density = 21.827814 Si / 1000 Ang^3
#
#
#
# Elastic Constant Matrix: (Units=GPa)
#
#
# Indices 1 2 3 4 5 6 
#
# 1 86.9078 31.5069 34.5598 0.0000 1.4488 0.0000
# 2 31.5069 73.4227 5.2517 0.0000 -5.4484 0.0000
# 3 34.5598 5.2517 70.0276 0.0000 1.0327 0.0000
# 4 0.0000 0.0000 0.0000 25.4041 0.0000 -2.0954
# 5 1.4488 -5.4484 1.0327 0.0000 33.3407 0.0000
# 6 0.0000 0.0000 0.0000 -2.0954 0.0000 33.0513
#
#
#
# Elastic Compliance Matrix: (Units=1/GPa)
#
#
# Indices 1 2 3 4 5 6 
#
# 1 0.017210 -0.006938 -0.007949 0.000000 -0.001635 0.000000
# 2 -0.006938 0.016664 0.002131 0.000000 0.002959 0.000000
# 3 -0.007949 0.002131 0.018041 0.000000 0.000135 0.000000
# 4 0.000000 0.000000 0.000000 0.039571 0.000000 0.002509
# 5 -0.001635 0.002959 0.000135 0.000000 0.030544 0.000000
# 6 0.000000 0.000000 0.000000 0.002509 0.000000 0.030415
#
#
# Mechanical properties :
#
#
# Convention : Reuss Voigt Hill
#
# Bulk Modulus (GPa) = 37.87475 41.44386 39.65931
# Shear Modulus (GPa) = 26.77263 28.96188 27.86725
#
# Velocity S-wave (km/s) = 3.50600 3.64652 3.57695
# Velocity P-wave (km/s) = 5.81194 6.06279 5.93869
#
# Compressibility (1/GPa) = 0.02640281
#
# Stress axis : x y z
#
# Youngs Moduli (GPa) = 58.10617 60.00937 55.42853
#
# Poissons Ratio (x) = 0.41633 0.44060
# Poissons Ratio (y) = 0.40313 -0.11809
# Poissons Ratio (z) = 0.46188 -0.12785
#
# Static dielectric constant tensor:
#      x y z
#    x 3.901790 0.000000 0.103540 
#    y 0.000000 3.801560 0.000000 
#    z 0.103540 0.000000 3.785390 
# 
# 
# High freq. dielectric constant tensor:
#      x y z
#    x 1.860370 0.000000 0.009210 
#    y 0.000000 1.849990 0.000000 
#    z 0.009210 0.000000 1.847500 
# 
# From -- ./inp_files/307459.got.cif
#   From: 2010.06.25/outbox.cif.g09.slc.cpg/sg15_154_cif.got.tgz:307459.got - 2010.06.28 07:06:18.
