data_PCOD8133821
_publ_section_title
;
Structure prediction by ZEFSAII (Michael W. Deem and Ramdas Pophale) SiO2 
 PCOD8133821
Probable space group: C 2/C
;
_chemical_formula_sum "Si O2"
_cell_formula_units_Z 52
_cell_length_a 18.892796
_cell_length_b 8.635450
_cell_length_c 23.321114
_cell_angle_alpha 90.000000
_cell_angle_beta 140.428826
_cell_angle_gamma 90.000000
_cell_volume 2423.788118
_symmetry_space_group_name_H-M "C 2/C"
_symmetry_group_IT_number 15
_symmetry_cell_setting 'monoclinic'
loop_
_space_group_symop_operation_xyz
x,y,z
-x,y,1/2-z
-x,-y,-z
x,-y,1/2+z
1/2+x,1/2+y,z
1/2-x,1/2+y,1/2-z
1/2-x,1/2-y,-z
1/2+x,1/2-y,1/2+z
loop_
_atom_site_type_symbol
_atom_site_label
_atom_site_fract_x
_atom_site_fract_y
_atom_site_fract_z
Si Si1 0.156686 0.088732 0.702876
Si Si2 0.706306 0.562143 0.346063
Si Si3 0.728412 0.910800 0.347765
Si Si4 0.937450 0.368832 0.802484
Si Si5 0.500000 0.640250 0.750000
Si Si6 0.547157 0.935801 0.470119
Si Si7 0.959964 0.924843 0.533452
O O1 0.218639 0.077923 0.682031
O O2 0.147905 0.270095 0.712116
O O3 0.227788 0.999538 0.795098
O O4 0.031925 0.012347 0.626676
O O5 0.675164 0.743398 0.326023
O O6 0.609285 0.466399 0.316264
O O7 0.821001 0.540223 0.451348
O O8 0.826078 0.949056 0.455032
O O9 0.629856 0.035033 0.288199
O O10 0.013302 0.247897 0.814661
O O11 0.003862 0.480857 0.886065
O O12 0.512059 0.756693 0.446333
O O13 0.500000 0.000000 0.500000
O O14 0.000000 0.000000 0.500000
#
# Coordination Sequence:
#
# PCOD8133821 Si02
#       7
#     8   8   8   8   4   8   8
#     4  10  19  34  57  90 123 154 190 250 317 358
#     4  10  22  39  59  82 123 160 201 247 292 362
#     4  10  19  35  60  89 115 155 200 254 308 351
#     4  11  23  38  61  87 122 158 204 247 291 366
#     4  10  26  44  56  82 118 174 210 236 292 344
#     4  11  21  36  63  97 121 153 197 252 311 355
#     4   9  19  33  54  88 127 152 183 235 308 371
#
# _framework density 21.454021000000001
#
# number of rings (size 3 to 8) (size 9 to 14) (size 15 to 20)
#    0.000    1.846    0.000    5.538    0.000    9.846 
#    0.000    1.538    0.000   10.154    0.000    0.000 
#    0.000    0.000    0.000    0.000    0.000    0.000 
#
# Total GULP energy -322285.185831 kJ/mol
# GULP energy per Si atom -12395.584070 kJ/mol
# Density = 2.140519 g / cm^3
# Si number density = 21.454021 Si / 1000 Ang^3
#
#
#
# Elastic Constant Matrix: (Units=GPa)
#
#
# Indices 1 2 3 4 5 6 
#
# 1 70.0720 32.7234 6.1786 0.0000 10.9470 0.0000
# 2 32.7234 149.7565 62.2247 0.0000 17.2510 0.0000
# 3 6.1786 62.2247 91.0944 0.0000 12.2090 0.0000
# 4 0.0000 0.0000 0.0000 33.6489 0.0000 3.2963
# 5 10.9470 17.2510 12.2090 0.0000 21.9008 0.0000
# 6 0.0000 0.0000 0.0000 3.2963 0.0000 29.3668
#
#
#
# Elastic Compliance Matrix: (Units=1/GPa)
#
#
# Indices 1 2 3 4 5 6 
#
# 1 0.016949 -0.003945 0.002447 0.000000 -0.006728 0.000000
# 2 -0.003945 0.010596 -0.006610 0.000000 -0.002689 0.000000
# 3 0.002447 -0.006610 0.015987 0.000000 -0.004929 0.000000
# 4 0.000000 0.000000 0.000000 0.030049 0.000000 -0.003373
# 5 -0.006728 -0.002689 -0.004929 0.000000 0.053890 0.000000
# 6 0.000000 0.000000 0.000000 -0.003373 0.000000 0.034431
#
#
# Mechanical properties :
#
#
# Convention : Reuss Voigt Hill
#
# Bulk Modulus (GPa) = 36.60839 57.01960 46.81399
# Shear Modulus (GPa) = 26.70622 30.96971 28.83796
#
# Velocity S-wave (km/s) = 3.53202 3.80351 3.67028
# Velocity P-wave (km/s) = 5.80812 6.77674 6.31104
#
# Compressibility (1/GPa) = 0.02731614
#
# Stress axis : x y z
#
# Youngs Moduli (GPa) = 59.00119 94.37741 62.54994
#
# Poissons Ratio (x) = 0.37234 -0.15307
# Poissons Ratio (y) = 0.23277 0.41344
# Poissons Ratio (z) = -0.14438 0.62381
#
# Static dielectric constant tensor:
#      x y z
#    x 3.564420 0.000000 0.346950 
#    y 0.000000 4.438810 0.000000 
#    z 0.346950 0.000000 4.877020 
# 
# 
# High freq. dielectric constant tensor:
#      x y z
#    x 1.807920 0.000000 0.007400 
#    y 0.000000 1.863330 0.000000 
#    z 0.007400 0.000000 1.848480 
# 
# From -- ./inp_files/166339.got.cif
#   From: 2010.06.25/outbox.cif.g09.slc.cpg/sg15_84_cif.got.tgz:166339.got - 2010.06.28 07:06:18.
