data_PCOD8133029
_publ_section_title
;
Structure prediction by ZEFSAII (Michael W. Deem and Ramdas Pophale) SiO2 
 PCOD8133029
Probable space group: C 2/C
;
_chemical_formula_sum "Si O2"
_cell_formula_units_Z 56
_cell_length_a 17.441096
_cell_length_b 11.272751
_cell_length_c 32.225306
_cell_angle_alpha 90.000000
_cell_angle_beta 156.226418
_cell_angle_gamma 90.000000
_cell_volume 2554.104878
_symmetry_space_group_name_H-M "C 2/C"
_symmetry_group_IT_number 15
_symmetry_cell_setting 'monoclinic'
loop_
_space_group_symop_operation_xyz
x,y,z
-x,y,1/2-z
-x,-y,-z
x,-y,1/2+z
1/2+x,1/2+y,z
1/2-x,1/2+y,1/2-z
1/2-x,1/2-y,-z
1/2+x,1/2-y,1/2+z
loop_
_atom_site_type_symbol
_atom_site_label
_atom_site_fract_x
_atom_site_fract_y
_atom_site_fract_z
Si Si1 0.935960 0.676160 0.582753
Si Si2 0.572398 0.212633 0.330762
Si Si3 0.018624 0.749909 0.452468
Si Si4 0.396019 0.289890 0.481093
Si Si5 0.145545 0.995956 0.136999
Si Si6 0.205710 0.677399 0.232601
Si Si7 0.062258 0.548356 0.838559
O O1 0.750000 0.750000 0.500000
O O2 0.945260 0.680579 0.537076
O O3 0.924996 0.553686 0.603801
O O4 0.125545 0.734271 0.695904
O O5 0.500000 0.255712 0.250000
O O6 0.760145 0.286948 0.435600
O O7 0.410313 0.228263 0.285120
O O8 0.645868 0.076495 0.365154
O O9 0.917996 0.733445 0.446926
O O10 0.925093 0.661852 0.372681
O O11 0.994568 0.886282 0.425145
O O12 0.544897 0.399466 0.560433
O O13 0.182054 0.340917 0.380184
O O14 0.203412 0.050383 0.210438
O O15 0.342391 0.949748 0.212899
#
# Coordination Sequence:
#
# PCOD8133029 Si02
#       7
#     8   8   8   8   8   8   8
#     4   9  18  35  50  78 115 155 176 229 282 338
#     4  11  23  36  58  86 115 148 192 238 285 340
#     4  12  21  37  58  85 117 153 183 242 285 336
#     4  10  21  33  55  84 117 141 192 230 290 338
#     4  10  20  35  54  83 113 147 188 234 280 338
#     4  10  22  36  53  84 117 148 193 229 287 345
#     4  10  19  31  55  81 111 145 185 227 294 326
#
# _framework density 21.925488999999999
#
# number of rings (size 3 to 8) (size 9 to 14) (size 15 to 20)
#    0.000    1.714    2.857    3.429    4.000    0.000 
#    0.000    0.000    0.000    3.429    3.714    0.000 
#    0.000    0.000    0.000    0.000    0.000    0.000 
#
# Total GULP energy -346869.254641 kJ/mol
# GULP energy per Si atom -12388.187666 kJ/mol
# Density = 2.187559 g / cm^3
# Si number density = 21.925489 Si / 1000 Ang^3
#
#
#
# Elastic Constant Matrix: (Units=GPa)
#
#
# Indices 1 2 3 4 5 6 
#
# 1 109.8452 9.5565 54.6035 0.0003 -16.3073 -0.0002
# 2 9.5565 8.6453 9.2177 0.0005 -10.6256 -0.0001
# 3 54.6035 9.2177 138.9983 0.0038 -2.3620 -0.0010
# 4 0.0003 0.0005 0.0038 31.6136 -0.0003 -7.2791
# 5 -16.3073 -10.6256 -2.3620 -0.0003 49.6521 -0.0001
# 6 -0.0002 -0.0001 -0.0010 -7.2791 -0.0001 25.7457
#
#
#
# Elastic Compliance Matrix: (Units=1/GPa)
#
#
# Indices 1 2 3 4 5 6 
#
# 1 0.012138 -0.005606 -0.004353 0.000001 0.002580 0.000000
# 2 -0.005606 0.174267 -0.008759 -0.000001 0.035036 0.000000
# 3 -0.004353 -0.008759 0.009437 -0.000001 -0.002855 0.000000
# 4 0.000001 -0.000001 -0.000001 0.033835 0.000000 0.009566
# 5 0.002580 0.035036 -0.002855 0.000000 0.028349 0.000000
# 6 0.000000 0.000000 0.000000 0.009566 0.000000 0.041546
#
#
# Mechanical properties :
#
#
# Convention : Reuss Voigt Hill
#
# Bulk Modulus (GPa) = 6.31286 44.91604 25.61445
# Shear Modulus (GPa) = 12.82678 33.67635 23.25156
#
# Velocity S-wave (km/s) = 2.42134 3.92337 3.26004
# Velocity P-wave (km/s) = 3.27149 6.40734 5.08707
#
# Compressibility (1/GPa) = 0.15840673
#
# Stress axis : x y z
#
# Youngs Moduli (GPa) = 82.38505 5.73831 105.97069
#
# Poissons Ratio (x) = 0.03217 0.46126
# Poissons Ratio (y) = 0.46184 0.92821
# Poissons Ratio (z) = 0.35860 0.05026
#
# Static dielectric constant tensor:
#      x y z
#    x 3.890920 0.000010 0.720710 
#    y 0.000010 3.558020 -0.000050 
#    z 0.720710 -0.000050 1.249180 
# 
# 
# High freq. dielectric constant tensor:
#      x y z
#    x 1.862600 0.000000 0.006870 
#    y 0.000000 1.790710 0.000000 
#    z 0.006870 0.000000 1.892990 
# 
# From -- ./inp_files/296589.got.cif
#   From: 2010.06.25/outbox.cif.g09.slc.cpg/sg15_149_cif.got.tgz:296589.got - 2010.06.28 07:06:18.
