data_PCOD8133948
_publ_section_title
;
Structure prediction by ZEFSAII (Michael W. Deem and Ramdas Pophale) SiO2 
 PCOD8133948
Probable space group: C 2/C
;
_chemical_formula_sum "Si O2"
_cell_formula_units_Z 64
_cell_length_a 9.034089
_cell_length_b 17.909811
_cell_length_c 28.694553
_cell_angle_alpha 90.000000
_cell_angle_beta 140.117709
_cell_angle_gamma 90.000000
_cell_volume 2976.986062
_symmetry_space_group_name_H-M "C 2/C"
_symmetry_group_IT_number 15
_symmetry_cell_setting 'monoclinic'
loop_
_space_group_symop_operation_xyz
x,y,z
-x,y,1/2-z
-x,-y,-z
x,-y,1/2+z
1/2+x,1/2+y,z
1/2-x,1/2+y,1/2-z
1/2-x,1/2-y,-z
1/2+x,1/2-y,1/2+z
loop_
_atom_site_type_symbol
_atom_site_label
_atom_site_fract_x
_atom_site_fract_y
_atom_site_fract_z
Si Si1 0.583548 0.158971 0.868558
Si Si2 0.335325 0.837734 0.472479
Si Si3 0.773101 0.352117 0.996835
Si Si4 0.334790 0.486032 0.026623
Si Si5 0.331029 0.286330 0.844523
Si Si6 0.345439 0.995833 0.619208
Si Si7 0.584994 0.154989 0.202298
Si Si8 0.901210 0.738509 0.385319
O O1 0.350927 0.203403 0.826691
O O2 0.711522 0.201833 0.857144
O O3 0.513349 0.073580 0.839993
O O4 0.760094 0.152321 0.955363
O O5 0.466897 0.828169 0.454795
O O6 0.237629 0.920723 0.455965
O O7 0.530691 0.819389 0.558023
O O8 0.128743 0.780200 0.423205
O O9 0.746192 0.435959 0.971253
O O10 0.581368 0.299816 0.927458
O O11 0.610339 0.490992 0.090430
O O12 0.214357 0.472167 0.947801
O O13 0.280480 0.343560 0.789581
O O14 0.129523 0.292464 0.833708
O O15 0.500118 0.930032 0.677603
O O16 0.691011 0.189456 0.180489
#
# Coordination Sequence:
#
# PCOD8133948 Si02
#       8
#     8   8   8   8   8   8   8   8
#     4  11  23  41  66  98 127 163 213 272 319 368
#     4  11  21  34  57  99 127 159 202 265 327 363
#     4  11  22  37  63  92 132 161 213 263 322 381
#     4  10  19  34  61  92 129 160 200 264 326 372
#     4  11  24  41  63  89 121 178 210 256 316 384
#     4  10  20  38  64  91 123 164 207 264 315 378
#     4  11  24  44  63  86 127 172 219 252 315 396
#     4  11  23  35  63  92 127 161 206 265 320 369
#
# _framework density 21.498255
#
# number of rings (size 3 to 8) (size 9 to 14) (size 15 to 20)
#    0.000    1.250    5.000    1.500    3.500    0.500 
#    0.000    3.750    0.000    6.000    0.000    0.000 
#    0.000    0.000    0.000    0.000    0.000    0.000 
#
# Total GULP energy -396741.608070 kJ/mol
# GULP energy per Si atom -12398.175252 kJ/mol
# Density = 2.144932 g / cm^3
# Si number density = 21.498255 Si / 1000 Ang^3
#
#
#
# Elastic Constant Matrix: (Units=GPa)
#
#
# Indices 1 2 3 4 5 6 
#
# 1 99.1062 30.5884 7.6977 -0.0001 -1.8172 0.0001
# 2 30.5884 125.3438 15.6051 -0.0001 3.1926 0.0000
# 3 7.6977 15.6051 31.0482 -0.0003 -4.6705 0.0000
# 4 -0.0001 -0.0001 -0.0003 25.4944 0.0000 3.1328
# 5 -1.8172 3.1926 -4.6705 0.0000 24.0264 0.0001
# 6 0.0001 0.0000 0.0000 3.1328 0.0001 39.7681
#
#
#
# Elastic Compliance Matrix: (Units=1/GPa)
#
#
# Indices 1 2 3 4 5 6 
#
# 1 0.010994 -0.002543 -0.001310 0.000000 0.000915 0.000000
# 2 -0.002543 0.009195 -0.004330 0.000000 -0.002256 0.000000
# 3 -0.001310 -0.004330 0.035829 0.000000 0.007441 0.000000
# 4 0.000000 0.000000 0.000000 0.039608 0.000000 -0.003120
# 5 0.000915 -0.002256 0.007441 0.000000 0.043436 0.000000
# 6 0.000000 0.000000 0.000000 -0.003120 0.000000 0.025392
#
#
# Mechanical properties :
#
#
# Convention : Reuss Voigt Hill
#
# Bulk Modulus (GPa) = 25.22027 40.36453 32.79240
# Shear Modulus (GPa) = 25.76833 31.29825 28.53329
#
# Velocity S-wave (km/s) = 3.46587 3.81970 3.64708
# Velocity P-wave (km/s) = 5.27002 6.18627 5.74644
#
# Compressibility (1/GPa) = 0.03965065
#
# Stress axis : x y z
#
# Youngs Moduli (GPa) = 90.96207 108.75171 27.91066
#
# Poissons Ratio (x) = 0.27656 0.03656
# Poissons Ratio (y) = 0.23132 0.12087
# Poissons Ratio (z) = 0.11915 0.47095
#
# Static dielectric constant tensor:
#      x y z
#    x 3.892650 0.000000 -0.090540 
#    y 0.000000 4.072060 0.000000 
#    z -0.090540 0.000000 3.537960 
# 
# 
# High freq. dielectric constant tensor:
#      x y z
#    x 1.846190 0.000000 -0.007160 
#    y 0.000000 1.857470 0.000000 
#    z -0.007160 0.000000 1.807050 
# 
# From -- ./inp_files/308788.got.cif
#   From: 2010.06.25/outbox.cif.g09.slc.cpg/sg15_155_cif.got.tgz:308788.got - 2010.06.28 07:06:18.
