data_PCOD8133425
_publ_section_title
;
Structure prediction by ZEFSAII (Michael W. Deem and Ramdas Pophale) SiO2 
 PCOD8133425
Probable space group: C 2/C
;
_chemical_formula_sum "Si O2"
_cell_formula_units_Z 48
_cell_length_a 18.210355
_cell_length_b 15.877068
_cell_length_c 9.701422
_cell_angle_alpha 90.000000
_cell_angle_beta 117.594061
_cell_angle_gamma 90.000000
_cell_volume 2485.885633
_symmetry_space_group_name_H-M "C 2/C"
_symmetry_group_IT_number 15
_symmetry_cell_setting 'monoclinic'
loop_
_space_group_symop_operation_xyz
x,y,z
-x,y,1/2-z
-x,-y,-z
x,-y,1/2+z
1/2+x,1/2+y,z
1/2-x,1/2+y,1/2-z
1/2-x,1/2-y,-z
1/2+x,1/2-y,1/2+z
loop_
_atom_site_type_symbol
_atom_site_label
_atom_site_fract_x
_atom_site_fract_y
_atom_site_fract_z
Si Si1 0.393138 0.049092 0.777400
Si Si2 0.714215 0.579256 0.699242
Si Si3 0.500000 0.615636 0.250000
Si Si4 0.428402 0.094551 0.504826
Si Si5 0.080955 0.783182 0.054362
Si Si6 0.367845 0.520578 0.606214
Si Si7 0.500000 0.343007 0.250000
O O1 0.310784 0.096458 0.756749
O O2 0.395442 0.047082 0.613148
O O3 0.395657 0.954389 0.841274
O O4 0.471659 0.099432 0.906537
O O5 0.666671 0.665956 0.629228
O O6 0.700439 0.548479 0.842545
O O7 0.680750 0.504913 0.572732
O O8 0.515574 0.674770 0.394195
O O9 0.579452 0.557460 0.287028
O O10 0.394789 0.189316 0.469711
O O11 0.038098 0.783073 0.166558
O O12 0.428933 0.597583 0.623067
#
# Coordination Sequence:
#
# PCOD8133425 Si02
#       7
#     8   8   4   8   8   8   4
#     4  10  21  38  57  75 102 138 177 213 256 315
#     4  10  19  33  55  81 107 135 172 218 258 300
#     4   9  16  30  52  79 112 144 172 205 252 314
#     4  10  22  39  57  75 100 140 179 212 259 314
#     4  10  20  34  55  81 106 134 173 219 260 300
#     4   9  17  30  51  79 111 145 173 203 256 315
#     4   9  18  32  50  77 112 144 172 207 258 316
#
# _framework density 19.309014999999999
#
# number of rings (size 3 to 8) (size 9 to 14) (size 15 to 20)
#    0.000    2.333    0.000    3.000    0.000    7.333 
#    0.000    3.333    0.000    5.000    0.000    0.000 
#    0.000    0.000    0.000    0.000    0.000    0.000 
#
# Total GULP energy -297631.401700 kJ/mol
# GULP energy per Si atom -12401.308404 kJ/mol
# Density = 1.926507 g / cm^3
# Si number density = 19.309015 Si / 1000 Ang^3
#
#
#
# Elastic Constant Matrix: (Units=GPa)
#
#
# Indices 1 2 3 4 5 6 
#
# 1 128.2990 27.1005 36.6490 0.0000 1.1137 0.0000
# 2 27.1005 98.2209 36.7761 0.0000 -11.3257 0.0000
# 3 36.6490 36.7761 68.3141 0.0000 -11.3796 0.0000
# 4 0.0000 0.0000 0.0000 19.2608 0.0000 -6.2362
# 5 1.1137 -11.3257 -11.3796 0.0000 26.1701 0.0000
# 6 0.0000 0.0000 0.0000 -6.2362 0.0000 13.8735
#
#
#
# Elastic Compliance Matrix: (Units=1/GPa)
#
#
# Indices 1 2 3 4 5 6 
#
# 1 0.009482 -0.001094 -0.005007 0.000000 -0.003054 0.000000
# 2 -0.001094 0.013061 -0.005924 0.000000 0.003123 0.000000
# 3 -0.005007 -0.005924 0.021693 0.000000 0.007082 0.000000
# 4 0.000000 0.000000 0.000000 0.060762 0.000000 0.027313
# 5 -0.003054 0.003123 0.007082 0.000000 0.042773 0.000000
# 6 0.000000 0.000000 0.000000 0.027313 0.000000 0.084357
#
#
# Mechanical properties :
#
#
# Convention : Reuss Voigt Hill
#
# Bulk Modulus (GPa) = 49.53741 55.09837 52.31789
# Shear Modulus (GPa) = 19.01807 24.81476 21.91642
#
# Velocity S-wave (km/s) = 3.14177 3.58877 3.37268
# Velocity P-wave (km/s) = 6.23472 6.76531 6.50542
#
# Compressibility (1/GPa) = 0.02018676
#
# Stress axis : x y z
#
# Youngs Moduli (GPa) = 105.46247 76.56238 46.09695
#
# Poissons Ratio (x) = 0.08374 0.23080
# Poissons Ratio (y) = 0.11534 0.27310
# Poissons Ratio (z) = 0.52803 0.45359
#
# Static dielectric constant tensor:
#      x y z
#    x 3.534920 0.000000 -0.031140 
#    y 0.000000 3.282690 0.000000 
#    z -0.031140 0.000000 3.518380 
# 
# 
# High freq. dielectric constant tensor:
#      x y z
#    x 1.752600 0.000000 -0.006130 
#    y 0.000000 1.732130 0.000000 
#    z -0.006130 0.000000 1.750720 
# 
# From -- ./inp_files/48751.got.cif
#   From: 2010.06.25/outbox.cif.g09.slc.cpg/sg15_25_cif.got.tgz:48751.got - 2010.06.28 07:06:18.
