data_PCOD8133064
_publ_section_title
;
Structure prediction by ZEFSAII (Michael W. Deem and Ramdas Pophale) SiO2 
 PCOD8133064
Probable space group: C 2/C
;
_chemical_formula_sum "Si O2"
_cell_formula_units_Z 60
_cell_length_a 22.332752
_cell_length_b 14.080596
_cell_length_c 28.454567
_cell_angle_alpha 90.000000
_cell_angle_beta 20.567624
_cell_angle_gamma 90.000000
_cell_volume 3143.468095
_symmetry_space_group_name_H-M "C 2/C"
_symmetry_group_IT_number 15
_symmetry_cell_setting 'monoclinic'
loop_
_space_group_symop_operation_xyz
x,y,z
-x,y,1/2-z
-x,-y,-z
x,-y,1/2+z
1/2+x,1/2+y,z
1/2-x,1/2+y,1/2-z
1/2-x,1/2-y,-z
1/2+x,1/2-y,1/2+z
loop_
_atom_site_type_symbol
_atom_site_label
_atom_site_fract_x
_atom_site_fract_y
_atom_site_fract_z
Si Si1 0.549383 0.943810 0.528662
Si Si2 0.887661 0.663451 0.276299
Si Si3 0.000000 0.826616 0.250000
Si Si4 0.728148 0.914892 0.302118
Si Si5 0.235064 0.306298 0.733005
Si Si6 0.002802 0.040486 0.444422
Si Si7 0.283516 0.066327 0.497632
Si Si8 0.812447 0.523610 0.884520
O O1 0.692557 0.925352 0.383857
O O2 0.435190 0.847878 0.616929
O O3 0.646878 0.973678 0.504271
O O4 0.430336 0.035033 0.607172
O O5 0.766860 0.666639 0.320324
O O6 0.826526 0.584117 0.356776
O O7 0.867993 0.763308 0.317257
O O8 0.083809 0.645168 0.118247
O O9 0.900450 0.888627 0.360802
O O10 0.745168 0.805723 0.273153
O O11 0.905172 0.964239 0.157135
O O12 0.400530 0.359645 0.630796
O O13 0.000000 0.000000 0.500000
O O14 0.818778 0.068881 0.556701
O O15 0.252021 0.981377 0.483220
O O16 0.000000 0.573796 0.750000
#
# Coordination Sequence:
#
# PCOD8133064 Si02
#       8
#     8   8   4   8   8   8   8   8
#     4   9  21  40  54  84 124 157 193 240 303 347
#     4  10  19  32  48  76 117 146 182 231 286 342
#     4  12  20  28  48  78 114 152 190 218 280 368
#     4  10  22  38  61  84 120 157 193 251 294 348
#     4  10  21  36  59  87 115 154 199 245 290 346
#     4  11  23  38  62  89 116 154 206 241 289 354
#     4  10  21  32  49  75 111 154 184 224 289 349
#     4  10  21  37  54  80 119 154 188 245 292 342
#
# _framework density 19.087198999999998
#
# number of rings (size 3 to 8) (size 9 to 14) (size 15 to 20)
#    0.000    1.867    3.333    1.200    7.467    1.067 
#    0.000    0.000    0.000    0.800    1.733    0.000 
#    0.000    0.000    0.000    0.000    0.000    0.000 
#
# Total GULP energy -371758.080746 kJ/mol
# GULP energy per Si atom -12391.936025 kJ/mol
# Density = 1.904376 g / cm^3
# Si number density = 19.087199 Si / 1000 Ang^3
#
#
#
# Elastic Constant Matrix: (Units=GPa)
#
#
# Indices 1 2 3 4 5 6 
#
# 1 121.4225 25.4068 41.0150 0.0020 -2.3080 -0.0039
# 2 25.4068 72.6068 19.6261 0.0283 -2.0513 0.0127
# 3 41.0150 19.6261 82.4384 0.0458 3.0846 -0.0336
# 4 0.0020 0.0283 0.0458 16.3244 0.0090 -3.0699
# 5 -2.3080 -2.0513 3.0846 0.0090 39.5432 -0.0047
# 6 -0.0039 0.0127 -0.0336 -3.0699 -0.0047 9.7747
#
#
#
# Elastic Compliance Matrix: (Units=1/GPa)
#
#
# Indices 1 2 3 4 5 6 
#
# 1 0.010293 -0.002336 -0.004596 0.000015 0.000838 -0.000004
# 2 -0.002336 0.015293 -0.002511 -0.000027 0.000853 -0.000037
# 3 -0.004596 -0.002511 0.015074 -0.000028 -0.001574 0.000044
# 4 0.000015 -0.000027 -0.000028 0.065103 -0.000011 0.020447
# 5 0.000838 0.000853 -0.001574 -0.000011 0.025505 0.000003
# 6 -0.000004 -0.000037 0.000044 0.020447 0.000003 0.108727
#
#
# Mechanical properties :
#
#
# Convention : Reuss Voigt Hill
#
# Bulk Modulus (GPa) = 45.92568 49.84038 47.88303
# Shear Modulus (GPa) = 18.78728 25.82312 22.30520
#
# Velocity S-wave (km/s) = 3.14074 3.68217 3.42218
# Velocity P-wave (km/s) = 6.10455 6.65180 6.38404
#
# Compressibility (1/GPa) = 0.02177431
#
# Stress axis : x y z
#
# Youngs Moduli (GPa) = 97.15405 65.38999 66.34078
#
# Poissons Ratio (x) = 0.15273 0.30492
# Poissons Ratio (y) = 0.22692 0.16656
# Poissons Ratio (z) = 0.44655 0.16417
#
# Static dielectric constant tensor:
#      x y z
#    x 3.821960 0.000000 0.000970 
#    y 0.000000 3.124000 0.000160 
#    z 0.000970 0.000160 3.726920 
# 
# 
# High freq. dielectric constant tensor:
#      x y z
#    x 1.756470 0.000000 0.006340 
#    y 0.000000 1.693230 0.000020 
#    z 0.006340 0.000020 1.749100 
# 
# From -- ./inp_files/318872.got.cif
#   From: 2010.06.25/outbox.cif.g09.slc.cpg/sg15_160_cif.got.tgz:318872.got - 2010.06.28 07:06:18.
