data_PCOD8133763
_publ_section_title
;
Structure prediction by ZEFSAII (Michael W. Deem and Ramdas Pophale) SiO2 
 PCOD8133763
Probable space group: C 2/C
;
_chemical_formula_sum "Si O2"
_cell_formula_units_Z 56
_cell_length_a 6.415150
_cell_length_b 26.283682
_cell_length_c 20.549083
_cell_angle_alpha 90.000000
_cell_angle_beta 123.024263
_cell_angle_gamma 90.000000
_cell_volume 2905.075208
_symmetry_space_group_name_H-M "C 2/C"
_symmetry_group_IT_number 15
_symmetry_cell_setting 'monoclinic'
loop_
_space_group_symop_operation_xyz
x,y,z
-x,y,1/2-z
-x,-y,-z
x,-y,1/2+z
1/2+x,1/2+y,z
1/2-x,1/2+y,1/2-z
1/2-x,1/2-y,-z
1/2+x,1/2-y,1/2+z
loop_
_atom_site_type_symbol
_atom_site_label
_atom_site_fract_x
_atom_site_fract_y
_atom_site_fract_z
Si Si1 0.000000 0.874401 0.750000
Si Si2 0.000000 0.700000 0.750000
Si Si3 0.745495 0.570380 0.176616
Si Si4 0.245017 0.652263 0.672757
Si Si5 0.011325 0.251937 0.826025
Si Si6 0.549849 0.086830 0.522777
Si Si7 0.468759 0.147235 0.112672
Si Si8 0.880584 0.008128 0.047397
O O1 0.058059 0.907026 0.696793
O O2 0.250251 0.844371 0.811681
O O3 0.044665 0.664340 0.694749
O O4 0.238233 0.735401 0.803881
O O5 0.613779 0.518586 0.133160
O O6 0.000000 0.551354 0.250000
O O7 0.803326 0.608955 0.127313
O O8 0.500000 0.631579 0.750000
O O9 0.307463 0.703166 0.642392
O O10 0.119055 0.612393 0.602837
O O11 0.130851 0.294992 0.894097
O O12 0.000000 0.273609 0.750000
O O13 0.544790 0.128562 0.464036
O O14 0.285512 0.059219 0.481715
O O15 0.749480 0.043029 0.546316
O O16 0.000000 0.000000 0.000000
#
# Coordination Sequence:
#
# PCOD8133763 Si02
#       8
#     4   4   8   8   8   8   8   8
#     4  10  19  34  56  86 122 150 196 236 291 364
#     4   8  17  38  62  80 120 158 196 240 295 346
#     4  10  21  37  61  86 118 155 198 244 294 359
#     4   9  21  42  60  86 117 156 203 247 285 352
#     4   9  18  34  60  88 120 154 191 239 292 355
#     4  11  24  40  63  85 120 158 201 249 303 351
#     4  11  20  35  60  93 120 155 188 243 306 356
#     4  11  23  44  60  82 120 161 195 250 306 347
#
# _framework density 19.276610000000002
#
# number of rings (size 3 to 8) (size 9 to 14) (size 15 to 20)
#    0.000    2.286    2.857    1.714    0.000    4.000 
#    3.857    0.714    0.000    0.000    0.000    0.000 
#    0.000    0.000    0.000    0.000    0.000    0.000 
#
# Total GULP energy -346969.419648 kJ/mol
# GULP energy per Si atom -12391.764987 kJ/mol
# Density = 1.923274 g / cm^3
# Si number density = 19.276610 Si / 1000 Ang^3
#
#
#
# Elastic Constant Matrix: (Units=GPa)
#
#
# Indices 1 2 3 4 5 6 
#
# 1 112.7184 36.0718 34.6815 0.0000 -18.6628 0.0000
# 2 36.0718 105.2896 60.6260 0.0000 -3.3268 0.0000
# 3 34.6815 60.6260 97.3814 0.0000 -13.6564 0.0000
# 4 0.0000 0.0000 0.0000 41.6421 0.0000 -3.6780
# 5 -18.6628 -3.3268 -13.6564 0.0000 28.2575 0.0000
# 6 0.0000 0.0000 0.0000 -3.6780 0.0000 -4.5548
#
#
#
# Elastic Compliance Matrix: (Units=1/GPa)
#
#
# Indices 1 2 3 4 5 6 
#
# 1 0.011274 -0.002913 -0.001293 0.000000 0.006478 0.000000
# 2 -0.002913 0.015784 -0.009438 0.000000 -0.004627 0.000000
# 3 -0.001293 -0.009438 0.017517 0.000000 0.006500 0.000000
# 4 0.000000 0.000000 0.000000 0.022415 0.000000 -0.018101
# 5 0.006478 -0.004627 0.006500 0.000000 0.042264 0.000000
# 6 0.000000 0.000000 0.000000 -0.018101 0.000000 -0.204932
#
#
# Mechanical properties :
#
#
# Convention : Reuss Voigt Hill
#
# Bulk Modulus (GPa) = 57.84830 64.23865 61.04347
# Shear Modulus (GPa) = -79.83703 25.33630 -27.25037
#
# Velocity S-wave (km/s) = -6.44255 3.62934 -3.76393
# Velocity P-wave (km/s) = 5.02665 7.13861 3.58417
#
# Compressibility (1/GPa) = 0.01728659
#
# Stress axis : x y z
#
# Youngs Moduli (GPa) = 88.69601 63.35627 57.08891
#
# Poissons Ratio (x) = 0.18458 0.07382
# Poissons Ratio (y) = 0.25840 0.53879
# Poissons Ratio (z) = 0.11469 0.59794
#
# Static dielectric constant tensor:
#      x y z
#    x 3.730280 0.000000 -0.050630 
#    y 0.000000 3.258090 0.000000 
#    z -0.050630 0.000000 3.398830 
# 
# 
# High freq. dielectric constant tensor:
#      x y z
#    x 1.767530 0.000000 -0.009580 
#    y 0.000000 1.740770 0.000000 
#    z -0.009580 0.000000 1.736060 
# 
# From -- ./inp_files/186269.got.cif
#   From: 2010.06.25/outbox.cif.g09.slc.cpg/sg15_94_cif.got.tgz:186269.got - 2010.06.28 07:06:18.
