data_PCOD8133651
_publ_section_title
;
Structure prediction by ZEFSAII (Michael W. Deem and Ramdas Pophale) SiO2 
 PCOD8133651
Probable space group: C 2/C
;
_chemical_formula_sum "Si O2"
_cell_formula_units_Z 56
_cell_length_a 14.971928
_cell_length_b 21.581001
_cell_length_c 15.236368
_cell_angle_alpha 90.000000
_cell_angle_beta 141.953792
_cell_angle_gamma 90.000000
_cell_volume 3034.035618
_symmetry_space_group_name_H-M "C 2/C"
_symmetry_group_IT_number 15
_symmetry_cell_setting 'monoclinic'
loop_
_space_group_symop_operation_xyz
x,y,z
-x,y,1/2-z
-x,-y,-z
x,-y,1/2+z
1/2+x,1/2+y,z
1/2-x,1/2+y,1/2-z
1/2-x,1/2-y,-z
1/2+x,1/2-y,1/2+z
loop_
_atom_site_type_symbol
_atom_site_label
_atom_site_fract_x
_atom_site_fract_y
_atom_site_fract_z
Si Si1 0.589477 0.691965 0.729985
Si Si2 0.000000 0.361796 0.750000
Si Si3 0.706474 0.965505 0.872670
Si Si4 0.069630 0.293854 0.981643
Si Si5 0.197718 0.508747 0.170796
Si Si6 0.002049 0.600734 0.558705
Si Si7 0.475425 0.448000 0.332141
Si Si8 0.500000 0.068436 0.750000
O O1 0.500000 0.702724 0.750000
O O2 0.511313 0.727197 0.587354
O O3 0.586393 0.620461 0.698995
O O4 0.756321 0.713272 0.875512
O O5 0.854885 0.402769 0.633489
O O6 0.988024 0.321675 0.654045
O O7 0.652750 0.968962 0.732007
O O8 0.641309 0.024577 0.874247
O O9 0.877712 0.962143 0.004141
O O10 0.006989 0.332171 0.016202
O O11 0.118114 0.442427 0.096593
O O12 0.366581 0.498669 0.286376
O O13 0.149570 0.564032 0.068752
O O14 0.025779 0.609882 0.682282
O O15 0.500000 0.460767 0.250000
#
# Coordination Sequence:
#
# PCOD8133651 Si02
#       8
#     8   4   8   8   8   8   8   4
#     4  11  24  36  54  80 115 150 184 224 270 334
#     4  11  20  34  56  80 116 144 184 219 268 334
#     4  10  20  32  53  85 111 148 177 224 273 337
#     4  12  23  38  56  82 113 148 189 225 274 331
#     4  10  19  34  53  81 112 144 179 225 276 334
#     4  10  20  36  57  79 107 144 187 228 275 330
#     4  11  21  33  51  79 119 148 180 219 277 324
#     4   9  20  36  58  80 108 142 190 223 280 330
#
# _framework density 18.457266000000001
#
# number of rings (size 3 to 8) (size 9 to 14) (size 15 to 20)
#    0.000    1.429    3.571    3.429    4.000    0.000 
#    0.000    0.000    0.000    0.857    0.000    0.000 
#    0.000    0.000    0.000    0.000    0.000    0.000 
#
# Total GULP energy -347067.210074 kJ/mol
# GULP energy per Si atom -12395.257503 kJ/mol
# Density = 1.841526 g / cm^3
# Si number density = 18.457266 Si / 1000 Ang^3
#
#
#
# Elastic Constant Matrix: (Units=GPa)
#
#
# Indices 1 2 3 4 5 6 
#
# 1 73.7122 31.9501 32.8674 0.0000 4.0883 0.0000
# 2 31.9501 44.9940 22.3923 0.0000 -1.2637 0.0000
# 3 32.8674 22.3923 94.8951 0.0000 19.4994 0.0000
# 4 0.0000 0.0000 0.0000 22.9633 0.0000 -2.4036
# 5 4.0883 -1.2637 19.4994 0.0000 41.9174 0.0000
# 6 0.0000 0.0000 0.0000 -2.4036 0.0000 19.5350
#
#
#
# Elastic Compliance Matrix: (Units=1/GPa)
#
#
# Indices 1 2 3 4 5 6 
#
# 1 0.021024 -0.012885 -0.004135 0.000000 -0.000515 0.000000
# 2 -0.012885 0.033669 -0.004366 0.000000 0.004303 0.000000
# 3 -0.004135 -0.004366 0.014313 0.000000 -0.006386 0.000000
# 4 0.000000 0.000000 0.000000 0.044116 0.000000 0.005428
# 5 -0.000515 0.004303 -0.006386 0.000000 0.027007 0.000000
# 6 0.000000 0.000000 0.000000 0.005428 0.000000 0.051858
#
#
# Mechanical properties :
#
#
# Convention : Reuss Voigt Hill
#
# Bulk Modulus (GPa) = 38.12140 43.11343 40.61742
# Shear Modulus (GPa) = 20.53357 25.30926 22.92141
#
# Velocity S-wave (km/s) = 3.33902 3.70704 3.52783
# Velocity P-wave (km/s) = 5.96357 6.46004 6.21676
#
# Compressibility (1/GPa) = 0.02623198
#
# Stress axis : x y z
#
# Youngs Moduli (GPa) = 47.56510 29.70116 69.86770
#
# Poissons Ratio (x) = 0.38271 0.28892
# Poissons Ratio (y) = 0.61289 0.30504
# Poissons Ratio (z) = 0.19670 0.12967
#
# Static dielectric constant tensor:
#      x y z
#    x 3.278620 0.000000 -0.042270 
#    y 0.000000 3.328060 0.000000 
#    z -0.042270 0.000000 3.001960 
# 
# 
# High freq. dielectric constant tensor:
#      x y z
#    x 1.703850 0.000000 0.004990 
#    y 0.000000 1.693010 0.000000 
#    z 0.004990 0.000000 1.723000 
# 
# From -- ./inp_files/156261.got.cif
#   From: 2010.06.25/outbox.cif.g09.slc.cpg/sg15_79_cif.got.tgz:156261.got - 2010.06.28 07:06:18.
