data_PCOD8133664
_publ_section_title
;
Structure prediction by ZEFSAII (Michael W. Deem and Ramdas Pophale) SiO2 
 PCOD8133664
Probable space group: C 2/C
;
_chemical_formula_sum "Si O2"
_cell_formula_units_Z 56
_cell_length_a 16.806019
_cell_length_b 13.902958
_cell_length_c 12.218493
_cell_angle_alpha 90.000000
_cell_angle_beta 112.867594
_cell_angle_gamma 90.000000
_cell_volume 2630.512875
_symmetry_space_group_name_H-M "C 2/C"
_symmetry_group_IT_number 15
_symmetry_cell_setting 'monoclinic'
loop_
_space_group_symop_operation_xyz
x,y,z
-x,y,1/2-z
-x,-y,-z
x,-y,1/2+z
1/2+x,1/2+y,z
1/2-x,1/2+y,1/2-z
1/2-x,1/2-y,-z
1/2+x,1/2-y,1/2+z
loop_
_atom_site_type_symbol
_atom_site_label
_atom_site_fract_x
_atom_site_fract_y
_atom_site_fract_z
Si Si1 0.521024 0.367546 0.555386
Si Si2 0.222469 0.449443 0.320834
Si Si3 0.620645 0.327561 0.399704
Si Si4 0.286351 0.847959 0.626046
Si Si5 0.885138 0.017849 0.766349
Si Si6 0.344205 0.630462 0.063007
Si Si7 0.168613 0.750538 0.742037
O O1 0.542014 0.347495 0.440076
O O2 0.545048 0.477849 0.607431
O O3 0.420542 0.342523 0.518203
O O4 0.576989 0.292982 0.657190
O O5 0.171389 0.548545 0.320097
O O6 0.293176 0.486114 0.273655
O O7 0.262748 0.405657 0.452161
O O8 0.164317 0.366073 0.234557
O O9 0.636522 0.214089 0.386457
O O10 0.709931 0.369627 0.497846
O O11 0.595352 0.376048 0.269998
O O12 0.245823 0.790005 0.707076
O O13 0.885411 0.951247 0.660455
O O14 0.313692 0.719036 0.122662
#
# Coordination Sequence:
#
# PCOD8133664 Si02
#       7
#     8   8   8   8   8   8   8
#     4  10  22  37  55  85 116 155 188 223 294 345
#     4  12  21  34  58  89 112 145 192 236 288 332
#     4  10  19  34  54  77 119 150 184 232 272 346
#     4  10  19  34  56  82 111 147 192 228 287 327
#     4  11  18  32  53  81 117 147 180 223 279 344
#     4  11  22  36  54  85 120 146 186 235 285 348
#     4  10  20  37  55  82 114 147 188 238 276 335
#
# _framework density 21.288625
#
# number of rings (size 3 to 8) (size 9 to 14) (size 15 to 20)
#    0.000    1.429    7.143    2.143    0.000    3.429 
#    0.000    0.000    0.000    0.857    3.714    0.000 
#    0.000    0.000    0.000    0.000    0.000    0.000 
#
# Total GULP energy -347088.611726 kJ/mol
# GULP energy per Si atom -12396.021847 kJ/mol
# Density = 2.124017 g / cm^3
# Si number density = 21.288625 Si / 1000 Ang^3
#
#
#
# Elastic Constant Matrix: (Units=GPa)
#
#
# Indices 1 2 3 4 5 6 
#
# 1 32.9801 18.3320 28.5387 0.0000 -13.3747 0.0000
# 2 18.3320 142.5686 33.7483 0.0000 -6.2770 0.0000
# 3 28.5387 33.7483 77.1627 0.0000 -16.0854 0.0000
# 4 0.0000 0.0000 0.0000 21.7781 0.0000 -13.2204
# 5 -13.3747 -6.2770 -16.0854 0.0000 27.2560 0.0000
# 6 0.0000 0.0000 0.0000 -13.2204 0.0000 16.2961
#
#
#
# Elastic Compliance Matrix: (Units=1/GPa)
#
#
# Indices 1 2 3 4 5 6 
#
# 1 0.050433 -0.002402 -0.014320 0.000000 0.015743 0.000000
# 2 -0.002402 0.007940 -0.002792 0.000000 -0.000998 0.000000
# 3 -0.014320 -0.002792 0.020386 0.000000 0.004361 0.000000
# 4 0.000000 0.000000 0.000000 0.090474 0.000000 0.073399
# 5 0.015743 -0.000998 0.004361 0.000000 0.046758 0.000000
# 6 0.000000 0.000000 0.000000 0.073399 0.000000 0.120910
#
#
# Mechanical properties :
#
#
# Convention : Reuss Voigt Hill
#
# Bulk Modulus (GPa) = 25.16988 45.99438 35.58213
# Shear Modulus (GPa) = 12.84772 24.53886 18.69329
#
# Velocity S-wave (km/s) = 2.45929 3.39879 2.96647
# Velocity P-wave (km/s) = 4.46240 6.08723 5.33701
#
# Compressibility (1/GPa) = 0.03973003
#
# Stress axis : x y z
#
# Youngs Moduli (GPa) = 19.82848 125.94335 49.05221
#
# Poissons Ratio (x) = 0.30249 0.70244
# Poissons Ratio (y) = 0.04762 0.13698
# Poissons Ratio (z) = 0.28395 0.35169
#
# Static dielectric constant tensor:
#      x y z
#    x 3.394150 0.000000 -0.218870 
#    y 0.000000 4.113570 0.000000 
#    z -0.218870 0.000000 4.098700 
# 
# 
# High freq. dielectric constant tensor:
#      x y z
#    x 1.786680 0.000000 -0.021830 
#    y 0.000000 1.832030 0.000000 
#    z -0.021830 0.000000 1.851870 
# 
# From -- ./inp_files/111092.got.cif
#   From: 2010.06.25/outbox.cif.g09.slc.cpg/sg15_56_cif.got.tgz:111092.got - 2010.06.28 07:06:18.
