data_PCOD8133396
_publ_section_title
;
Structure prediction by ZEFSAII (Michael W. Deem and Ramdas Pophale) SiO2 
 PCOD8133396
Probable space group: C 2/C
;
_chemical_formula_sum "Si O2"
_cell_formula_units_Z 64
_cell_length_a 18.732563
_cell_length_b 13.844813
_cell_length_c 26.142751
_cell_angle_alpha 90.000000
_cell_angle_beta 150.700578
_cell_angle_gamma 90.000000
_cell_volume 3317.998364
_symmetry_space_group_name_H-M "C 2/C"
_symmetry_group_IT_number 15
_symmetry_cell_setting 'monoclinic'
loop_
_space_group_symop_operation_xyz
x,y,z
-x,y,1/2-z
-x,-y,-z
x,-y,1/2+z
1/2+x,1/2+y,z
1/2-x,1/2+y,1/2-z
1/2-x,1/2-y,-z
1/2+x,1/2-y,1/2+z
loop_
_atom_site_type_symbol
_atom_site_label
_atom_site_fract_x
_atom_site_fract_y
_atom_site_fract_z
Si Si1 0.706390 0.208772 0.761759
Si Si2 0.117025 0.928662 0.509547
Si Si3 0.009242 0.722536 0.445220
Si Si4 0.009980 0.526039 0.110243
Si Si5 0.461026 0.835293 0.031617
Si Si6 0.689488 0.500402 0.664913
Si Si7 0.156126 0.245024 0.341987
Si Si8 0.617853 0.959781 0.362883
O O1 0.575060 0.217214 0.640047
O O2 0.738237 0.102317 0.803766
O O3 0.666900 0.263276 0.788058
O O4 0.849302 0.251622 0.823670
O O5 0.114051 0.813127 0.498301
O O6 0.235380 0.977368 0.547091
O O7 0.962471 0.981088 0.400034
O O8 0.157224 0.941133 0.593858
O O9 0.068878 0.627156 0.453240
O O10 0.994544 0.704905 0.496574
O O11 0.984417 0.450835 0.047927
O O12 0.945694 0.472986 0.120084
O O13 0.184073 0.551629 0.222749
O O14 0.298645 0.810735 0.951562
O O15 0.148579 0.348783 0.366267
O O16 0.000000 0.191183 0.250000
O O17 0.500000 0.004530 0.250000
#
# Coordination Sequence:
#
# PCOD8133396 Si02
#       8
#     8   8   8   8   8   8   8   8
#     4   9  18  34  54  85 107 138 190 231 279 323
#     4  10  19  34  58  86 108 140 186 240 278 315
#     4  10  23  35  55  83 112 148 190 226 269 345
#     4  11  22  37  55  81 118 154 183 220 285 346
#     4  10  21  37  57  79 114 152 184 233 276 327
#     4   9  17  33  58  81 108 139 184 239 273 311
#     4  10  19  33  54  86 114 141 185 233 281 339
#     4  11  20  34  57  84 113 143 183 238 287 322
#
# _framework density 19.288737000000001
#
# number of rings (size 3 to 8) (size 9 to 14) (size 15 to 20)
#    0.000    2.000    2.500    2.625    3.500    2.500 
#    0.000    1.250    0.000    0.750    0.000    0.000 
#    0.000    0.000    0.000    0.000    0.000    0.000 
#
# Total GULP energy -396461.245505 kJ/mol
# GULP energy per Si atom -12389.413922 kJ/mol
# Density = 1.924484 g / cm^3
# Si number density = 19.288737 Si / 1000 Ang^3
#
#
#
# Elastic Constant Matrix: (Units=GPa)
#
#
# Indices 1 2 3 4 5 6 
#
# 1 44.9192 10.0828 25.2353 0.0007 10.3457 0.0005
# 2 10.0828 73.3132 37.8066 0.0006 0.5958 0.0006
# 3 25.2353 37.8066 123.4079 0.0055 17.6560 0.0025
# 4 0.0007 0.0006 0.0055 27.3684 0.0018 0.5880
# 5 10.3457 0.5958 17.6560 0.0018 26.3347 0.0005
# 6 0.0005 0.0006 0.0025 0.5880 0.0005 23.3239
#
#
#
# Elastic Compliance Matrix: (Units=1/GPa)
#
#
# Indices 1 2 3 4 5 6 
#
# 1 0.026577 -0.001624 -0.003814 0.000001 -0.007847 0.000000
# 2 -0.001624 0.016558 -0.005285 0.000000 0.003807 0.000000
# 3 -0.003814 -0.005285 0.011361 -0.000002 -0.005999 -0.000001
# 4 0.000001 0.000000 -0.000002 0.036558 -0.000002 -0.000922
# 5 -0.007847 0.003807 -0.005999 -0.000002 0.044991 0.000000
# 6 0.000000 0.000000 -0.000001 -0.000922 0.000000 0.042898
#
#
# Mechanical properties :
#
#
# Convention : Reuss Voigt Hill
#
# Bulk Modulus (GPa) = 30.25919 43.09887 36.67903
# Shear Modulus (GPa) = 23.65116 26.63977 25.14547
#
# Velocity S-wave (km/s) = 3.50546 3.72035 3.61451
# Velocity P-wave (km/s) = 5.66621 6.39119 6.03959
#
# Compressibility (1/GPa) = 0.03304781
#
# Stress axis : x y z
#
# Youngs Moduli (GPa) = 37.62659 60.39366 88.02404
#
# Poissons Ratio (x) = 0.09810 0.33576
# Poissons Ratio (y) = 0.06112 0.46522
# Poissons Ratio (z) = 0.14352 0.31919
#
# Static dielectric constant tensor:
#      x y z
#    x 3.269890 0.000000 0.280980 
#    y 0.000000 3.449550 0.000000 
#    z 0.280980 0.000000 3.865990 
# 
# 
# High freq. dielectric constant tensor:
#      x y z
#    x 1.727210 0.000000 0.011310 
#    y 0.000000 1.737500 0.000000 
#    z 0.011310 0.000000 1.758900 
# 
# From -- ./inp_files/277668.got.cif
#   From: 2010.06.25/outbox.cif.g09.slc.cpg/sg15_139_cif.got.tgz:277668.got - 2010.06.28 07:06:18.
