data_PCOD8133040
_publ_section_title
;
Structure prediction by ZEFSAII (Michael W. Deem and Ramdas Pophale) SiO2 
 PCOD8133040
Probable space group: C 2/C
;
_chemical_formula_sum "Si O2"
_cell_formula_units_Z 64
_cell_length_a 12.045509
_cell_length_b 15.796207
_cell_length_c 18.975277
_cell_angle_alpha 90.000000
_cell_angle_beta 96.531315
_cell_angle_gamma 90.000000
_cell_volume 3587.056921
_symmetry_space_group_name_H-M "C 2/C"
_symmetry_group_IT_number 15
_symmetry_cell_setting 'monoclinic'
loop_
_space_group_symop_operation_xyz
x,y,z
-x,y,1/2-z
-x,-y,-z
x,-y,1/2+z
1/2+x,1/2+y,z
1/2-x,1/2+y,1/2-z
1/2-x,1/2-y,-z
1/2+x,1/2-y,1/2+z
loop_
_atom_site_type_symbol
_atom_site_label
_atom_site_fract_x
_atom_site_fract_y
_atom_site_fract_z
Si Si1 0.829062 0.350822 0.070886
Si Si2 0.541219 0.802537 0.174714
Si Si3 0.319772 0.960996 0.291153
Si Si4 0.703113 0.020061 0.367180
Si Si5 0.313938 0.195713 0.411896
Si Si6 0.598338 0.381204 0.667788
Si Si7 0.484485 0.888557 0.828066
Si Si8 0.855285 0.076805 0.174212
O O1 0.792934 0.449371 0.071502
O O2 0.729607 0.292273 0.095042
O O3 0.942446 0.342022 0.122570
O O4 0.855151 0.326709 0.992754
O O5 0.500000 0.781366 0.250000
O O6 0.645576 0.866737 0.184557
O O7 0.580438 0.715191 0.141569
O O8 0.309355 0.968039 0.206436
O O9 0.414104 0.025468 0.323816
O O10 0.203547 0.984758 0.322124
O O11 0.818012 0.072570 0.379513
O O12 0.603618 0.087952 0.371020
O O13 0.419768 0.183481 0.367700
O O14 0.209948 0.135841 0.384992
O O15 0.651527 0.378710 0.749708
O O16 0.482328 0.433754 0.658032
O O17 0.500000 0.853217 0.750000
#
# Coordination Sequence:
#
# PCOD8133040 Si02
#       8
#     8   8   8   8   8   8   8   8
#     4  11  21  34  55  82 110 144 182 226 265 319
#     4  12  17  31  55  83 102 137 189 230 261 310
#     4   9  17  29  53  79 108 127 177 238 264 305
#     4  10  19  33  51  81 108 138 176 224 274 319
#     4  10  21  35  55  82 111 142 182 222 270 327
#     4  10  19  31  57  77 105 141 182 223 269 325
#     4   9  17  34  56  79 109 138 173 229 278 315
#     4   9  17  34  50  78 105 139 177 225 270 316
#
# _framework density 17.841923999999999
#
# number of rings (size 3 to 8) (size 9 to 14) (size 15 to 20)
#    0.000    2.000    5.000    1.125    0.000    0.500 
#    0.000    1.875    2.750    0.750    0.000    0.000 
#    0.000    0.000    0.000    0.000    0.000    0.000 
#
# Total GULP energy -396782.847425 kJ/mol
# GULP energy per Si atom -12399.463982 kJ/mol
# Density = 1.780132 g / cm^3
# Si number density = 17.841924 Si / 1000 Ang^3
#
#
#
# Elastic Constant Matrix: (Units=GPa)
#
#
# Indices 1 2 3 4 5 6 
#
# 1 118.7426 56.1538 23.8215 0.0000 -8.8820 0.0000
# 2 56.1538 89.9167 18.0084 0.0000 -13.5930 0.0000
# 3 23.8215 18.0084 46.1583 0.0000 -1.1014 0.0000
# 4 0.0000 0.0000 0.0000 10.8692 0.0000 -9.6170
# 5 -8.8820 -13.5930 -1.1014 0.0000 19.3166 0.0000
# 6 0.0000 0.0000 0.0000 -9.6170 0.0000 12.8152
#
#
#
# Elastic Compliance Matrix: (Units=1/GPa)
#
#
# Indices 1 2 3 4 5 6 
#
# 1 0.012514 -0.006973 -0.003722 0.000000 0.000634 0.000000
# 2 -0.006973 0.017416 -0.002984 0.000000 0.008879 0.000000
# 3 -0.003722 -0.002984 0.024692 0.000000 -0.002403 0.000000
# 4 0.000000 0.000000 0.000000 0.273810 0.000000 0.205477
# 5 0.000634 0.008879 -0.002403 0.000000 0.058172 0.000000
# 6 0.000000 0.000000 0.000000 0.205477 0.000000 0.232231
#
#
# Mechanical properties :
#
#
# Convention : Reuss Voigt Hill
#
# Bulk Modulus (GPa) = 36.68014 50.08722 43.38368
# Shear Modulus (GPa) = 7.63031 19.05578 13.34305
#
# Velocity S-wave (km/s) = 2.07024 3.27162 2.73765
# Velocity P-wave (km/s) = 5.13006 6.51192 5.86185
#
# Compressibility (1/GPa) = 0.02726271
#
# Stress axis : x y z
#
# Youngs Moduli (GPa) = 79.91359 57.41739 40.49824
#
# Poissons Ratio (x) = 0.40040 0.15074
# Poissons Ratio (y) = 0.55727 0.12085
# Poissons Ratio (z) = 0.29746 0.17134
#
# Static dielectric constant tensor:
#      x y z
#    x 3.454920 0.000000 0.042460 
#    y 0.000000 3.255810 0.000000 
#    z 0.042460 0.000000 3.101690 
# 
# 
# High freq. dielectric constant tensor:
#      x y z
#    x 1.689990 0.000000 0.012980 
#    y 0.000000 1.676280 0.000000 
#    z 0.012980 0.000000 1.662870 
# 
# From -- ./inp_files/239323.got.cif
#   From: 2010.06.25/outbox.cif.g09.slc.cpg/sg15_120_cif.got.tgz:239323.got - 2010.06.28 07:06:18.
