data_PCOD8133690
_publ_section_title
;
Structure prediction by ZEFSAII (Michael W. Deem and Ramdas Pophale) SiO2 
 PCOD8133690
Probable space group: C 2/C
;
_chemical_formula_sum "Si O2"
_cell_formula_units_Z 44
_cell_length_a 24.008050
_cell_length_b 12.243326
_cell_length_c 11.073322
_cell_angle_alpha 90.000000
_cell_angle_beta 44.764334
_cell_angle_gamma 90.000000
_cell_volume 2292.057701
_symmetry_space_group_name_H-M "C 2/C"
_symmetry_group_IT_number 15
_symmetry_cell_setting 'monoclinic'
loop_
_space_group_symop_operation_xyz
x,y,z
-x,y,1/2-z
-x,-y,-z
x,-y,1/2+z
1/2+x,1/2+y,z
1/2-x,1/2+y,1/2-z
1/2-x,1/2-y,-z
1/2+x,1/2-y,1/2+z
loop_
_atom_site_type_symbol
_atom_site_label
_atom_site_fract_x
_atom_site_fract_y
_atom_site_fract_z
Si Si1 0.610144 0.086555 0.431369
Si Si2 0.270795 0.911252 0.541130
Si Si3 0.927076 0.348173 0.951117
Si Si4 0.693526 0.147788 0.067411
Si Si5 0.623541 0.733372 0.245498
Si Si6 0.000000 0.736729 0.750000
O O1 0.690566 0.089315 0.385756
O O2 0.627740 0.134827 0.272498
O O3 0.542351 0.162480 0.587060
O O4 0.571945 0.966471 0.486926
O O5 0.327177 0.842276 0.365024
O O6 0.182858 0.864413 0.682557
O O7 0.259196 0.033419 0.508509
O O8 0.847397 0.333286 0.997640
O O9 0.000000 0.330311 0.750000
O O10 0.927295 0.257867 0.056323
O O11 0.750000 0.250000 0.000000
O O12 0.565107 0.694578 0.226094
#
# Coordination Sequence:
#
# PCOD8133690 Si02
#       6
#     8   8   8   8   8   4
#     4  10  19  34  54  86 112 137 185 231 282 329
#     4   9  20  35  56  80 112 148 179 232 276 322
#     4  11  21  33  59  84 116 145 173 240 291 319
#     4  11  22  36  57  85 111 148 188 229 277 332
#     4  10  19  36  55  83 114 143 186 224 277 336
#     4  10  20  32  58  80 112 148 178 232 278 330
#
# _framework density 19.196724
#
# number of rings (size 3 to 8) (size 9 to 14) (size 15 to 20)
#    0.000    1.818    2.727    2.182    0.000    1.455 
#    0.000    0.000    2.000    2.182    0.000    0.000 
#    0.000    0.000    0.000    0.000    0.000    0.000 
#
# Total GULP energy -272784.978000 kJ/mol
# GULP energy per Si atom -12399.317182 kJ/mol
# Density = 1.915303 g / cm^3
# Si number density = 19.196724 Si / 1000 Ang^3
#
#
#
# Elastic Constant Matrix: (Units=GPa)
#
#
# Indices 1 2 3 4 5 6 
#
# 1 72.5601 21.1018 21.6903 0.0000 -4.3650 0.0000
# 2 21.1018 71.4014 23.1244 0.0000 -6.9894 0.0000
# 3 21.6903 23.1244 100.5170 0.0000 8.1112 0.0000
# 4 0.0000 0.0000 0.0000 -49.9986 0.0000 131.9989
# 5 -4.3650 -6.9894 8.1112 0.0000 34.1340 0.0000
# 6 0.0000 0.0000 0.0000 131.9989 0.0000 -215.7705
#
#
#
# Elastic Compliance Matrix: (Units=1/GPa)
#
#
# Indices 1 2 3 4 5 6 
#
# 1 0.015756 -0.003583 -0.002731 0.000000 0.001930 0.000000
# 2 -0.003583 0.016504 -0.003323 0.000000 0.003711 0.000000
# 3 -0.002731 -0.003323 0.011608 0.000000 -0.003788 0.000000
# 4 0.000000 0.000000 0.000000 0.032518 0.000000 0.019893
# 5 0.001930 0.003711 -0.003788 0.000000 0.031203 0.000000
# 6 0.000000 0.000000 0.000000 0.019893 0.000000 0.007535
#
#
# Mechanical properties :
#
#
# Convention : Reuss Voigt Hill
#
# Bulk Modulus (GPa) = 40.66177 41.81239 41.23708
# Shear Modulus (GPa) = 35.06391 -34.42289 0.32051
#
# Velocity S-wave (km/s) = 4.27846 -4.23917 0.40905
# Velocity P-wave (km/s) = 6.75534 1.46030 4.66380
#
# Compressibility (1/GPa) = 0.02459313
#
# Stress axis : x y z
#
# Youngs Moduli (GPa) = 63.46662 60.59249 86.14627
#
# Poissons Ratio (x) = 0.21710 0.23531
# Poissons Ratio (y) = 0.22740 0.28627
# Poissons Ratio (z) = 0.17336 0.20135
#
# Static dielectric constant tensor:
#      x y z
#    x 3.712140 0.000000 0.105470 
#    y 0.000000 3.224470 0.000000 
#    z 0.105470 0.000000 3.413420 
# 
# 
# High freq. dielectric constant tensor:
#      x y z
#    x 1.761880 0.000000 0.008930 
#    y 0.000000 1.710000 0.000000 
#    z 0.008930 0.000000 1.746400 
# 
# From -- ./inp_files/94993.got.cif
#   From: 2010.06.25/outbox.cif.g09.slc.cpg/sg15_48_cif.got.tgz:94993.got - 2010.06.28 07:06:18.
