data_PCOD8133896
_publ_section_title
;
Structure prediction by ZEFSAII (Michael W. Deem and Ramdas Pophale) SiO2 
 PCOD8133896
Probable space group: C 2/C
;
_chemical_formula_sum "Si O2"
_cell_formula_units_Z 64
_cell_length_a 18.640914
_cell_length_b 28.079496
_cell_length_c 16.469843
_cell_angle_alpha 90.000000
_cell_angle_beta 157.726557
_cell_angle_gamma 90.000000
_cell_volume 3267.506322
_symmetry_space_group_name_H-M "C 2/C"
_symmetry_group_IT_number 15
_symmetry_cell_setting 'monoclinic'
loop_
_space_group_symop_operation_xyz
x,y,z
-x,y,1/2-z
-x,-y,-z
x,-y,1/2+z
1/2+x,1/2+y,z
1/2-x,1/2+y,1/2-z
1/2-x,1/2-y,-z
1/2+x,1/2-y,1/2+z
loop_
_atom_site_type_symbol
_atom_site_label
_atom_site_fract_x
_atom_site_fract_y
_atom_site_fract_z
Si Si1 0.441266 0.370113 0.776367
Si Si2 0.669366 0.398914 0.251575
Si Si3 0.331181 0.761732 0.758335
Si Si4 0.381332 0.187377 0.044212
Si Si5 0.032788 0.183942 0.044715
Si Si6 0.119810 0.554313 0.954104
Si Si7 0.746571 0.059946 0.824685
Si Si8 0.466929 0.511273 0.810554
O O1 0.500000 0.350257 0.750000
O O2 0.404812 0.324785 0.797213
O O3 0.243185 0.398382 0.566949
O O4 0.620837 0.401228 0.992654
O O5 0.806291 0.365873 0.449438
O O6 0.777696 0.430371 0.297017
O O7 0.551999 0.432888 0.189270
O O8 0.524150 0.367060 0.049593
O O9 0.500677 0.796147 0.910847
O O10 0.279339 0.728947 0.624080
O O11 0.181126 0.798301 0.634295
O O12 0.372329 0.724726 0.875295
O O13 0.500000 0.186422 0.250000
O O14 0.000000 0.540011 0.750000
O O15 0.968709 0.560933 0.868154
O O16 0.269252 0.512775 0.131199
O O17 0.852487 0.009444 0.951011
O O18 0.500000 0.502526 0.750000
#
# Coordination Sequence:
#
# PCOD8133896 Si02
#       8
#     8   8   8   8   8   8   8   8
#     4  10  19  34  59  88 115 146 193 239 274 324
#     4  10  23  37  55  85 115 145 186 241 287 319
#     4   9  19  38  59  80 109 150 182 223 286 348
#     4  10  20  36  58  84 111 141 187 231 280 343
#     4   9  20  38  58  81 112 145 184 231 283 339
#     4  11  19  35  60  84 109 158 199 225 276 332
#     4  10  20  39  58  79 117 155 195 230 273 342
#     4  11  22  38  56  81 119 155 189 235 282 329
#
# _framework density 19.586803
#
# number of rings (size 3 to 8) (size 9 to 14) (size 15 to 20)
#    0.000    2.000    2.500    1.500    1.750    2.000 
#    2.250    1.875    0.000    0.000    0.000    0.000 
#    0.000    0.000    0.000    0.000    0.000    0.000 
#
# Total GULP energy -396505.028000 kJ/mol
# GULP energy per Si atom -12390.782125 kJ/mol
# Density = 1.954222 g / cm^3
# Si number density = 19.586803 Si / 1000 Ang^3
#
#
#
# Elastic Constant Matrix: (Units=GPa)
#
#
# Indices 1 2 3 4 5 6 
#
# 1 75.6492 47.6767 30.6971 0.0002 3.6548 0.0000
# 2 47.6767 97.3422 28.7828 0.0003 -2.2846 0.0002
# 3 30.6971 28.7828 75.2959 0.0006 9.6539 -0.0002
# 4 0.0002 0.0003 0.0006 13.9890 0.0001 0.6764
# 5 3.6548 -2.2846 9.6539 0.0001 33.8141 -0.0003
# 6 0.0000 0.0002 -0.0002 0.6764 -0.0003 22.0157
#
#
#
# Elastic Compliance Matrix: (Units=1/GPa)
#
#
# Indices 1 2 3 4 5 6 
#
# 1 0.020824 -0.008768 -0.004955 0.000000 -0.001429 0.000000
# 2 -0.008768 0.015423 -0.002674 0.000000 0.002753 0.000000
# 3 -0.004955 -0.002674 0.016896 -0.000001 -0.004469 0.000000
# 4 0.000000 0.000000 -0.000001 0.071591 0.000000 -0.002199
# 5 -0.001429 0.002753 -0.004469 0.000000 0.031190 0.000000
# 6 0.000000 0.000000 0.000000 -0.002199 0.000000 0.045490
#
#
# Mechanical properties :
#
#
# Convention : Reuss Voigt Hill
#
# Bulk Modulus (GPa) = 49.14119 51.40005 50.27062
# Shear Modulus (GPa) = 20.74771 23.37248 22.06009
#
# Velocity S-wave (km/s) = 3.25817 3.45813 3.35964
# Velocity P-wave (km/s) = 6.26878 6.49954 6.38521
#
# Compressibility (1/GPa) = 0.02034953
#
# Stress axis : x y z
#
# Youngs Moduli (GPa) = 48.02058 64.83971 59.18500
#
# Poissons Ratio (x) = 0.56850 0.29327
# Poissons Ratio (y) = 0.42104 0.15826
# Poissons Ratio (z) = 0.23794 0.17338
#
# Static dielectric constant tensor:
#      x y z
#    x 3.558680 0.000000 0.038780 
#    y 0.000000 3.606920 0.000000 
#    z 0.038780 0.000000 3.743220 
# 
# 
# High freq. dielectric constant tensor:
#      x y z
#    x 1.759560 0.000000 0.002650 
#    y 0.000000 1.754570 0.000000 
#    z 0.002650 0.000000 1.761860 
# 
# From -- ./inp_files/216970.got.cif
#   From: 2010.06.25/outbox.cif.g09.slc.cpg/sg15_109_cif.got.tgz:216970.got - 2010.06.28 07:06:18.
