data_PCOD8133749
_publ_section_title
;
Structure prediction by ZEFSAII (Michael W. Deem and Ramdas Pophale) SiO2 
 PCOD8133749
Probable space group: C 2/C
;
_chemical_formula_sum "Si O2"
_cell_formula_units_Z 64
_cell_length_a 11.809385
_cell_length_b 23.923706
_cell_length_c 12.243773
_cell_angle_alpha 90.000000
_cell_angle_beta 108.317289
_cell_angle_gamma 90.000000
_cell_volume 3283.889438
_symmetry_space_group_name_H-M "C 2/C"
_symmetry_group_IT_number 15
_symmetry_cell_setting 'monoclinic'
loop_
_space_group_symop_operation_xyz
x,y,z
-x,y,1/2-z
-x,-y,-z
x,-y,1/2+z
1/2+x,1/2+y,z
1/2-x,1/2+y,1/2-z
1/2-x,1/2-y,-z
1/2+x,1/2-y,1/2+z
loop_
_atom_site_type_symbol
_atom_site_label
_atom_site_fract_x
_atom_site_fract_y
_atom_site_fract_z
Si Si1 0.950259 0.685571 0.857016
Si Si2 0.259910 0.966772 0.609971
Si Si3 0.874468 0.200689 0.275032
Si Si4 0.540680 0.587951 0.138011
Si Si5 0.696560 0.193979 0.029027
Si Si6 0.123658 0.542376 0.139565
Si Si7 0.781170 0.920338 0.502982
Si Si8 0.894333 0.576843 0.957569
O O1 0.860306 0.739273 0.830645
O O2 0.000000 0.673881 0.750000
O O3 0.876736 0.631849 0.878080
O O4 0.053776 0.698919 0.977885
O O5 0.127852 0.958999 0.617465
O O6 0.359496 0.947844 0.726803
O O7 0.283017 0.931068 0.506827
O O8 0.274660 0.033273 0.594036
O O9 0.892547 0.147677 0.359993
O O10 0.757158 0.186615 0.166700
O O11 0.000000 0.206188 0.250000
O O12 0.500000 0.578031 0.250000
O O13 0.422422 0.583806 0.029726
O O14 0.728677 0.140983 0.961637
O O15 0.750000 0.250000 0.000000
O O16 0.245131 0.561505 0.115641
O O17 0.017236 0.581328 0.063332
O O18 0.095077 0.477026 0.116220
#
# Coordination Sequence:
#
# PCOD8133749 Si02
#       8
#     8   8   8   8   8   8   8   8
#     4  11  22  35  58  88 117 149 190 244 293 337
#     4  11  23  36  57  83 116 157 190 236 291 341
#     4  10  19  34  56  82 112 147 191 243 280 338
#     4  11  19  38  60  78 112 150 200 240 285 338
#     4  12  19  33  56  87 116 144 194 239 291 337
#     4  10  20  37  53  77 119 156 182 231 282 347
#     4  11  21  35  57  87 109 148 196 239 281 346
#     4  10  23  35  53  85 120 148 192 226 291 357
#
# _framework density 19.489086
#
# number of rings (size 3 to 8) (size 9 to 14) (size 15 to 20)
#    0.000    1.250    7.500    0.750    1.750    0.000 
#    0.000    0.625    0.000    0.000    0.000    0.000 
#    0.000    0.000    0.000    0.000    0.000    0.000 
#
# Total GULP energy -396556.319772 kJ/mol
# GULP energy per Si atom -12392.384993 kJ/mol
# Density = 1.944473 g / cm^3
# Si number density = 19.489086 Si / 1000 Ang^3
#
#
#
# Elastic Constant Matrix: (Units=GPa)
#
#
# Indices 1 2 3 4 5 6 
#
# 1 60.0151 22.5258 20.3160 0.0000 3.4172 0.0000
# 2 22.5258 133.5705 24.0987 0.0000 -12.8637 0.0000
# 3 20.3160 24.0987 64.3200 0.0000 5.0302 0.0000
# 4 0.0000 0.0000 0.0000 28.4259 0.0000 0.4465
# 5 3.4172 -12.8637 5.0302 0.0000 29.1518 0.0000
# 6 0.0000 0.0000 0.0000 0.4465 0.0000 22.0492
#
#
#
# Elastic Compliance Matrix: (Units=1/GPa)
#
#
# Indices 1 2 3 4 5 6 
#
# 1 0.019480 -0.002640 -0.004961 0.000000 -0.002592 0.000000
# 2 -0.002640 0.008906 -0.002873 0.000000 0.004735 0.000000
# 3 -0.004961 -0.002873 0.018494 0.000000 -0.003878 0.000000
# 4 0.000000 0.000000 0.000000 0.035190 0.000000 -0.000713
# 5 -0.002592 0.004735 -0.003878 0.000000 0.037366 0.000000
# 6 0.000000 0.000000 0.000000 -0.000713 0.000000 0.045368
#
#
# Mechanical properties :
#
#
# Convention : Reuss Voigt Hill
#
# Bulk Modulus (GPa) = 38.56263 43.53186 41.04725
# Shear Modulus (GPa) = 25.72052 28.65639 27.18846
#
# Velocity S-wave (km/s) = 3.63676 3.83872 3.73910
# Velocity P-wave (km/s) = 6.12082 6.48326 6.30465
#
# Compressibility (1/GPa) = 0.02593184
#
# Stress axis : x y z
#
# Youngs Moduli (GPa) = 51.33379 112.27956 54.07114
#
# Poissons Ratio (x) = 0.29639 0.26826
# Poissons Ratio (y) = 0.13551 0.15537
# Poissons Ratio (z) = 0.25468 0.32263
#
# Static dielectric constant tensor:
#      x y z
#    x 3.647100 0.000000 0.489490 
#    y 0.000000 3.898170 0.000000 
#    z 0.489490 0.000000 3.755050 
# 
# 
# High freq. dielectric constant tensor:
#      x y z
#    x 1.729780 0.000000 0.026550 
#    y 0.000000 1.771990 0.000000 
#    z 0.026550 0.000000 1.738940 
# 
# From -- ./inp_files/91300.got.cif
#   From: 2010.06.25/outbox.cif.g09.slc.cpg/sg15_46_cif.got.tgz:91300.got - 2010.06.28 07:06:18.
