data_PCOD8133897
_publ_section_title
;
Structure prediction by ZEFSAII (Michael W. Deem and Ramdas Pophale) SiO2 
 PCOD8133897
Probable space group: C 2/C
;
_chemical_formula_sum "Si O2"
_cell_formula_units_Z 56
_cell_length_a 15.574120
_cell_length_b 12.059616
_cell_length_c 30.680004
_cell_angle_alpha 90.000000
_cell_angle_beta 27.485293
_cell_angle_gamma 90.000000
_cell_volume 2659.400799
_symmetry_space_group_name_H-M "C 2/C"
_symmetry_group_IT_number 15
_symmetry_cell_setting 'monoclinic'
loop_
_space_group_symop_operation_xyz
x,y,z
-x,y,1/2-z
-x,-y,-z
x,-y,1/2+z
1/2+x,1/2+y,z
1/2-x,1/2+y,1/2-z
1/2-x,1/2-y,-z
1/2+x,1/2-y,1/2+z
loop_
_atom_site_type_symbol
_atom_site_label
_atom_site_fract_x
_atom_site_fract_y
_atom_site_fract_z
Si Si1 0.962929 0.704937 0.628224
Si Si2 0.290929 0.042873 0.088947
Si Si3 0.319303 0.377197 0.012227
Si Si4 0.790476 0.485617 0.684142
Si Si5 0.385228 0.251389 0.156117
Si Si6 0.074409 0.047861 0.605237
Si Si7 0.782640 0.286982 0.359045
O O1 0.927190 0.590074 0.619375
O O2 0.794233 0.739450 0.733756
O O3 0.140808 0.693554 0.578419
O O4 0.996267 0.803232 0.578664
O O5 0.192528 0.026552 0.180830
O O6 0.268971 0.174579 0.090281
O O7 0.198739 0.970240 0.092111
O O8 0.500000 0.000000 0.000000
O O9 0.283507 0.390362 0.080375
O O10 0.337837 0.491124 0.977148
O O11 0.925067 0.380341 0.634337
O O12 0.631311 0.498817 0.792391
O O13 0.553701 0.321038 0.102520
O O14 0.340161 0.300099 0.128874
O O15 0.000000 0.292802 0.250000
#
# Coordination Sequence:
#
# PCOD8133897 Si02
#       7
#     8   8   8   8   8   8   8
#     4  10  19  34  59  88 115 153 196 254 289 353
#     4  11  21  36  56  88 117 155 198 252 302 350
#     4  11  20  34  59  89 115 148 210 241 295 340
#     4  10  20  37  59  86 123 156 197 242 308 359
#     4  10  21  38  57  90 120 158 194 245 307 361
#     4  11  22  36  60  89 122 156 200 250 299 359
#     4  11  21  37  61  86 117 155 203 251 290 359
#
# _framework density 21.057373999999999
#
# number of rings (size 3 to 8) (size 9 to 14) (size 15 to 20)
#    0.000    1.429    2.857    5.571    0.000    0.571 
#    0.000    6.429    0.000    1.714   11.143    0.000 
#    0.000    0.000    0.000    0.000    0.000    0.000 
#
# Total GULP energy -347005.537985 kJ/mol
# GULP energy per Si atom -12393.054928 kJ/mol
# Density = 2.100945 g / cm^3
# Si number density = 21.057374 Si / 1000 Ang^3
#
#
#
# Elastic Constant Matrix: (Units=GPa)
#
#
# Indices 1 2 3 4 5 6 
#
# 1 97.7273 44.6947 18.8935 0.0003 4.4505 -0.0004
# 2 44.6947 96.8073 26.8067 0.0040 -0.3563 0.0004
# 3 18.8935 26.8067 73.3065 0.0014 8.4889 -0.0046
# 4 0.0003 0.0040 0.0014 16.0632 -0.0015 -5.9897
# 5 4.4505 -0.3563 8.4889 -0.0015 25.8824 0.0002
# 6 -0.0004 0.0004 -0.0046 -5.9897 0.0002 33.6431
#
#
#
# Elastic Compliance Matrix: (Units=1/GPa)
#
#
# Indices 1 2 3 4 5 6 
#
# 1 0.013180 -0.005804 -0.001042 0.000001 -0.002004 0.000000
# 2 -0.005804 0.014113 -0.003953 -0.000003 0.002489 -0.000001
# 3 -0.001042 -0.003953 0.015947 0.000000 -0.005105 0.000002
# 4 0.000001 -0.000003 0.000000 0.066681 0.000003 0.011872
# 5 -0.002004 0.002489 -0.005105 0.000003 0.040690 0.000000
# 6 0.000000 -0.000001 0.000002 0.011872 0.000000 0.031837
#
#
# Mechanical properties :
#
#
# Convention : Reuss Voigt Hill
#
# Bulk Modulus (GPa) = 46.20883 49.84786 48.02835
# Shear Modulus (GPa) = 23.66756 26.94749 25.30752
#
# Velocity S-wave (km/s) = 3.35618 3.58119 3.47051
# Velocity P-wave (km/s) = 6.08363 6.38935 6.23836
#
# Compressibility (1/GPa) = 0.02164088
#
# Stress axis : x y z
#
# Youngs Moduli (GPa) = 75.87502 70.85624 62.70807
#
# Poissons Ratio (x) = 0.41122 0.06537
# Poissons Ratio (y) = 0.44034 0.24790
# Poissons Ratio (z) = 0.07910 0.28012
#
# Static dielectric constant tensor:
#      x y z
#    x 3.845630 0.000000 0.253630 
#    y 0.000000 3.916820 0.000010 
#    z 0.253630 0.000010 3.944900 
# 
# 
# High freq. dielectric constant tensor:
#      x y z
#    x 1.811320 0.000000 0.020790 
#    y 0.000000 1.807210 0.000000 
#    z 0.020790 0.000000 1.837390 
# 
# From -- ./inp_files/313733.got.cif
#   From: 2010.06.25/outbox.cif.g09.slc.cpg/sg15_157_cif.got.tgz:313733.got - 2010.06.28 07:06:18.
