data_PCOD8133194
_publ_section_title
;
Structure prediction by ZEFSAII (Michael W. Deem and Ramdas Pophale) SiO2 
 PCOD8133194
Probable space group: C 2/C
;
_chemical_formula_sum "Si O2"
_cell_formula_units_Z 48
_cell_length_a 12.533548
_cell_length_b 13.702758
_cell_length_c 15.177309
_cell_angle_alpha 90.000000
_cell_angle_beta 102.368747
_cell_angle_gamma 90.000000
_cell_volume 2546.112976
_symmetry_space_group_name_H-M "C 2/C"
_symmetry_group_IT_number 15
_symmetry_cell_setting 'monoclinic'
loop_
_space_group_symop_operation_xyz
x,y,z
-x,y,1/2-z
-x,-y,-z
x,-y,1/2+z
1/2+x,1/2+y,z
1/2-x,1/2+y,1/2-z
1/2-x,1/2-y,-z
1/2+x,1/2-y,1/2+z
loop_
_atom_site_type_symbol
_atom_site_label
_atom_site_fract_x
_atom_site_fract_y
_atom_site_fract_z
Si Si1 0.231564 0.390406 0.739172
Si Si2 0.387346 0.756559 0.190459
Si Si3 0.292550 0.895756 0.312763
Si Si4 0.802436 0.730571 0.104120
Si Si5 0.473739 0.900059 0.074018
Si Si6 0.995571 0.605008 0.381017
O O1 0.298111 0.329691 0.676317
O O2 0.261974 0.502503 0.726549
O O3 0.259880 0.349841 0.843201
O O4 0.100263 0.378655 0.707015
O O5 0.500000 0.714651 0.250000
O O6 0.340999 0.848152 0.234499
O O7 0.415204 0.802800 0.100434
O O8 0.197565 0.831890 0.341656
O O9 0.393508 0.900287 0.399049
O O10 0.925736 0.697408 0.110305
O O11 0.750000 0.750000 0.000000
O O12 0.440281 0.000811 0.120212
O O13 0.437960 0.902037 0.966374
#
# Coordination Sequence:
#
# PCOD8133194 Si02
#       6
#     8   8   8   8   8   8
#     4  10  21  35  54  82 109 141 182 234 275 320
#     4   9  18  33  54  76 105 145 180 220 271 329
#     4   9  18  35  54  81 110 140 184 222 272 327
#     4  11  20  34  58  84 109 147 184 226 272 334
#     4   9  17  32  55  81 108 138 179 229 274 327
#     4  10  19  32  55  85 108 135 181 234 279 318
#
# _framework density 18.852266
#
# number of rings (size 3 to 8) (size 9 to 14) (size 15 to 20)
#    0.000    2.333    1.667    1.500    0.000    3.333 
#    0.000    3.333    0.000    1.000    0.000    0.000 
#    0.000    0.000    0.000    0.000    0.000    0.000 
#
# Total GULP energy -297334.850181 kJ/mol
# GULP energy per Si atom -12388.952091 kJ/mol
# Density = 1.880936 g / cm^3
# Si number density = 18.852266 Si / 1000 Ang^3
#
#
#
# Elastic Constant Matrix: (Units=GPa)
#
#
# Indices 1 2 3 4 5 6 
#
# 1 59.7018 50.1513 10.9476 0.0000 -9.9166 0.0000
# 2 50.1513 130.6406 35.5802 0.0000 -7.9700 0.0000
# 3 10.9476 35.5802 71.1919 0.0000 -0.1375 0.0000
# 4 0.0000 0.0000 0.0000 26.9249 0.0000 -5.7315
# 5 -9.9166 -7.9700 -0.1375 0.0000 17.8505 0.0000
# 6 0.0000 0.0000 0.0000 -5.7315 0.0000 34.2373
#
#
#
# Elastic Compliance Matrix: (Units=1/GPa)
#
#
# Indices 1 2 3 4 5 6 
#
# 1 0.026538 -0.009779 0.000827 0.000000 0.010383 0.000000
# 2 -0.009779 0.012748 -0.004867 0.000000 0.000221 0.000000
# 3 0.000827 -0.004867 0.016349 0.000000 -0.001588 0.000000
# 4 0.000000 0.000000 0.000000 0.038513 0.000000 0.006447
# 5 0.010383 0.000221 -0.001588 0.000000 0.061876 0.000000
# 6 0.000000 0.000000 0.000000 0.006447 0.000000 0.030287
#
#
# Mechanical properties :
#
#
# Convention : Reuss Voigt Hill
#
# Bulk Modulus (GPa) = 35.72013 50.54359 43.13186
# Shear Modulus (GPa) = 22.39334 26.79287 24.59310
#
# Velocity S-wave (km/s) = 3.45023 3.77397 3.61573
# Velocity P-wave (km/s) = 5.90429 6.77193 6.35294
#
# Compressibility (1/GPa) = 0.02799542
#
# Stress axis : x y z
#
# Youngs Moduli (GPa) = 37.68203 78.44539 61.16700
#
# Poissons Ratio (x) = 0.76714 -0.05056
# Poissons Ratio (y) = 0.36850 0.29769
# Poissons Ratio (z) = -0.03115 0.38178
#
# Static dielectric constant tensor:
#      x y z
#    x 3.343520 0.000000 -0.117810 
#    y 0.000000 3.595880 0.000000 
#    z -0.117810 0.000000 3.454990 
# 
# 
# High freq. dielectric constant tensor:
#      x y z
#    x 1.695470 0.000000 -0.014330 
#    y 0.000000 1.732640 0.000000 
#    z -0.014330 0.000000 1.736890 
# 
# From -- ./inp_files/209796.got.cif
#   From: 2010.06.25/outbox.cif.g09.slc.cpg/sg15_105_cif.got.tgz:209796.got - 2010.06.28 07:06:18.
