data_PCOD8133051
_publ_section_title
;
Structure prediction by ZEFSAII (Michael W. Deem and Ramdas Pophale) SiO2 
 PCOD8133051
Probable space group: C 2/C
;
_chemical_formula_sum "Si O2"
_cell_formula_units_Z 48
_cell_length_a 20.848073
_cell_length_b 32.998868
_cell_length_c 5.162815
_cell_angle_alpha 90.000000
_cell_angle_beta 108.925758
_cell_angle_gamma 90.000000
_cell_volume 3359.811795
_symmetry_space_group_name_H-M "C 2/C"
_symmetry_group_IT_number 15
_symmetry_cell_setting 'monoclinic'
loop_
_space_group_symop_operation_xyz
x,y,z
-x,y,1/2-z
-x,-y,-z
x,-y,1/2+z
1/2+x,1/2+y,z
1/2-x,1/2+y,1/2-z
1/2-x,1/2-y,-z
1/2+x,1/2-y,1/2+z
loop_
_atom_site_type_symbol
_atom_site_label
_atom_site_fract_x
_atom_site_fract_y
_atom_site_fract_z
Si Si1 0.323232 0.780012 0.825419
Si Si2 0.125936 0.848490 0.037914
Si Si3 0.045734 0.231953 0.556484
Si Si4 0.426130 0.388467 0.054320
Si Si5 0.924492 0.982242 0.927770
Si Si6 0.258940 0.802671 0.240614
O O1 0.400604 0.768616 0.865344
O O2 0.296746 0.809625 0.562892
O O3 0.278095 0.740120 0.789907
O O4 0.315213 0.803549 0.086865
O O5 0.095534 0.861752 0.721337
O O6 0.084282 0.810528 0.091448
O O7 0.122245 0.882565 0.258993
O O8 0.204807 0.837826 0.107415
O O9 0.000000 0.232858 0.750000
O O10 0.000000 0.239224 0.250000
O O11 0.500000 0.375043 0.250000
O O12 0.425548 0.434490 0.962194
O O13 0.886065 0.995343 0.614617
O O14 0.000000 0.000000 0.000000
#
# Coordination Sequence:
#
# PCOD8133051 Si02
#       6
#     8   8   8   8   8   8
#     4   9  17  29  47  55  72 108 130 163 193 243
#     4  11  22  30  42  62  83 105 125 174 218 262
#     4  11  20  31  41  62  87 102 129 165 217 261
#     4  12  21  30  44  59  81 104 133 165 228 262
#     4  10  19  32  44  56  72 102 139 173 190 252
#     4   9  17  31  43  58  74  98 142 158 194 248
#
# _framework density 14.286512999999999
#
# number of rings (size 3 to 8) (size 9 to 14) (size 15 to 20)
#    0.000    1.667    1.667    6.000    2.333    5.333 
#    0.000    0.000    0.000    0.000    0.000    0.000 
#    0.000    0.000    0.000    0.000    0.000    0.000 
#
# Total GULP energy -297477.866964 kJ/mol
# GULP energy per Si atom -12394.911123 kJ/mol
# Density = 1.425400 g / cm^3
# Si number density = 14.286513 Si / 1000 Ang^3
#
#
#
# Elastic Constant Matrix: (Units=GPa)
#
#
# Indices 1 2 3 4 5 6 
#
# 1 65.3102 29.2154 39.8833 0.0000 -9.3654 0.0000
# 2 29.2154 49.3201 27.0597 0.0000 -0.2241 0.0000
# 3 39.8833 27.0597 109.8646 0.0000 -23.1634 0.0000
# 4 0.0000 0.0000 0.0000 19.3080 0.0000 -6.4821
# 5 -9.3654 -0.2241 -23.1634 0.0000 24.9088 0.0000
# 6 0.0000 0.0000 0.0000 -6.4821 0.0000 14.4463
#
#
#
# Elastic Compliance Matrix: (Units=1/GPa)
#
#
# Indices 1 2 3 4 5 6 
#
# 1 0.024155 -0.011535 -0.005019 0.000000 0.004311 0.000000
# 2 -0.011535 0.029807 -0.004990 0.000000 -0.008709 0.000000
# 3 -0.005019 -0.004990 0.014610 0.000000 0.011655 0.000000
# 4 0.000000 0.000000 0.000000 0.060978 0.000000 0.027361
# 5 0.004311 -0.008709 0.011655 0.000000 0.052527 0.000000
# 6 0.000000 0.000000 0.000000 0.027361 0.000000 0.081499
#
#
# Mechanical properties :
#
#
# Convention : Reuss Voigt Hill
#
# Bulk Modulus (GPa) = 39.24044 46.31242 42.77643
# Shear Modulus (GPa) = 15.86506 20.28837 18.07672
#
# Velocity S-wave (km/s) = 3.33602 3.77252 3.56096
# Velocity P-wave (km/s) = 6.50885 7.17378 6.84939
#
# Compressibility (1/GPa) = 0.02548391
#
# Stress axis : x y z
#
# Youngs Moduli (GPa) = 41.40005 33.54910 68.44484
#
# Poissons Ratio (x) = 0.38699 0.34350
# Poissons Ratio (y) = 0.47756 0.34156
# Poissons Ratio (z) = 0.20777 0.16742
#
# Static dielectric constant tensor:
#      x y z
#    x 2.719670 0.000000 -0.210980 
#    y 0.000000 2.578520 0.000000 
#    z -0.210980 0.000000 3.224690 
# 
# 
# High freq. dielectric constant tensor:
#      x y z
#    x 1.517760 0.000000 -0.028390 
#    y 0.000000 1.505420 0.000000 
#    z -0.028390 0.000000 1.569640 
# 
# From -- ./inp_files/11073.got.cif
#   From: 2010.06.25/outbox.cif.g09.slc.cpg/sg15_6_cif.got.tgz:11073.got - 2010.06.28 07:06:18.
