data_PCOD8133057
_publ_section_title
;
Structure prediction by ZEFSAII (Michael W. Deem and Ramdas Pophale) SiO2 
 PCOD8133057
Probable space group: C 2/C
;
_chemical_formula_sum "Si O2"
_cell_formula_units_Z 64
_cell_length_a 26.413902
_cell_length_b 25.145558
_cell_length_c 19.690680
_cell_angle_alpha 90.000000
_cell_angle_beta 162.356732
_cell_angle_gamma 90.000000
_cell_volume 3963.926780
_symmetry_space_group_name_H-M "C 2/C"
_symmetry_group_IT_number 15
_symmetry_cell_setting 'monoclinic'
loop_
_space_group_symop_operation_xyz
x,y,z
-x,y,1/2-z
-x,-y,-z
x,-y,1/2+z
1/2+x,1/2+y,z
1/2-x,1/2+y,1/2-z
1/2-x,1/2-y,-z
1/2+x,1/2-y,1/2+z
loop_
_atom_site_type_symbol
_atom_site_label
_atom_site_fract_x
_atom_site_fract_y
_atom_site_fract_z
Si Si1 0.351216 0.010528 0.173504
Si Si2 0.233895 0.458253 0.784917
Si Si3 0.420797 0.504627 0.787842
Si Si4 0.440432 0.097004 0.846979
Si Si5 0.041534 0.194598 0.228337
Si Si6 0.199149 0.459899 0.125038
Si Si7 0.571260 0.186935 0.772666
Si Si8 0.636943 0.600899 0.562937
O O1 0.283125 0.030341 0.157833
O O2 0.512858 0.045796 0.356120
O O3 0.411150 0.949303 0.253958
O O4 0.206442 0.018451 0.934341
O O5 0.172307 0.508760 0.662230
O O6 0.114844 0.409453 0.611335
O O7 0.432184 0.450571 0.023873
O O8 0.322938 0.507975 0.733997
O O9 0.500771 0.446383 0.878307
O O10 0.463268 0.152081 0.837293
O O11 0.281122 0.098262 0.691420
O O12 0.236062 0.193104 0.464706
O O13 0.981819 0.255836 0.145276
O O14 0.000000 0.171671 0.250000
O O15 0.952793 0.157813 0.058347
O O16 0.283003 0.404577 0.258428
O O17 0.500000 0.160138 0.750000
#
# Coordination Sequence:
#
# PCOD8133057 Si02
#       8
#     8   8   8   8   8   8   8   8
#     4  11  19  32  48  72  99 132 165 199 237 293
#     4  10  19  32  47  69  97 128 168 200 233 288
#     4  11  22  29  49  74 101 127 166 206 241 282
#     4  11  19  32  53  67  96 136 170 195 240 298
#     4  10  20  34  52  71  98 129 167 208 242 288
#     4  10  20  34  45  71 101 127 162 210 242 278
#     4  10  22  34  47  75 102 124 163 217 248 271
#     4  11  19  32  53  68  92 139 172 187 243 304
#
# _framework density 16.145606000000001
#
# number of rings (size 3 to 8) (size 9 to 14) (size 15 to 20)
#    0.000    1.500    5.000    3.750    0.000    5.000 
#    0.000    0.000    0.000    0.000    0.000    0.000 
#    0.000    6.000    0.000    0.000    0.000    0.000 
#
# Total GULP energy -396570.960843 kJ/mol
# GULP energy per Si atom -12392.842526 kJ/mol
# Density = 1.610886 g / cm^3
# Si number density = 16.145606 Si / 1000 Ang^3
#
#
#
# Elastic Constant Matrix: (Units=GPa)
#
#
# Indices 1 2 3 4 5 6 
#
# 1 80.2667 32.5927 24.1056 -0.0001 9.4460 0.0001
# 2 32.5927 69.9693 37.9213 0.0002 -7.5718 0.0000
# 3 24.1056 37.9213 110.8670 -0.0001 -0.6179 0.0000
# 4 -0.0001 0.0002 -0.0001 -173.1229 -0.0002 0.8251
# 5 9.4460 -7.5718 -0.6179 -0.0002 27.7308 0.0000
# 6 0.0001 0.0000 0.0000 0.8251 0.0000 22.2681
#
#
#
# Elastic Compliance Matrix: (Units=1/GPa)
#
#
# Indices 1 2 3 4 5 6 
#
# 1 0.017071 -0.008340 -0.000904 0.000000 -0.008112 0.000000
# 2 -0.008340 0.022241 -0.005745 0.000000 0.008786 0.000000
# 3 -0.000904 -0.005745 0.011176 0.000000 -0.001012 0.000000
# 4 0.000000 0.000000 0.000000 -0.005775 0.000000 0.000214
# 5 -0.008112 0.008786 -0.001012 0.000000 0.041201 0.000000
# 6 0.000000 0.000000 0.000000 0.000214 0.000000 0.044899
#
#
# Mechanical properties :
#
#
# Convention : Reuss Voigt Hill
#
# Bulk Modulus (GPa) = 48.75758 50.03805 49.39782
# Shear Modulus (GPa) = 29.82789 -13.52590 8.15100
#
# Velocity S-wave (km/s) = 4.30284 -2.89752 2.24931
# Velocity P-wave (km/s) = 7.41283 4.45700 6.11617
#
# Compressibility (1/GPa) = 0.02050963
#
# Stress axis : x y z
#
# Youngs Moduli (GPa) = 58.57839 44.96152 89.47795
#
# Poissons Ratio (x) = 0.37497 0.08093
# Poissons Ratio (y) = 0.48853 0.51407
# Poissons Ratio (z) = 0.05298 0.25831
#
# Static dielectric constant tensor:
#      x y z
#    x 3.088080 0.000000 0.099860 
#    y 0.000000 2.973430 0.000000 
#    z 0.099860 0.000000 3.438510 
# 
# 
# High freq. dielectric constant tensor:
#      x y z
#    x 1.627320 0.000000 0.018990 
#    y 0.000000 1.571240 0.000000 
#    z 0.018990 0.000000 1.632400 
# 
# From -- ./inp_files/220430.got.cif
#   From: 2010.06.25/outbox.cif.g09.slc.cpg/sg15_111_cif.got.tgz:220430.got - 2010.06.28 07:06:18.
