data_PCOD8133634
_publ_section_title
;
Structure prediction by ZEFSAII (Michael W. Deem and Ramdas Pophale) SiO2 
 PCOD8133634
Probable space group: C 2/C
;
_chemical_formula_sum "Si O2"
_cell_formula_units_Z 44
_cell_length_a 27.453869
_cell_length_b 9.566331
_cell_length_c 26.146823
_cell_angle_alpha 90.000000
_cell_angle_beta 19.580428
_cell_angle_gamma 90.000000
_cell_volume 2301.340427
_symmetry_space_group_name_H-M "C 2/C"
_symmetry_group_IT_number 15
_symmetry_cell_setting 'monoclinic'
loop_
_space_group_symop_operation_xyz
x,y,z
-x,y,1/2-z
-x,-y,-z
x,-y,1/2+z
1/2+x,1/2+y,z
1/2-x,1/2+y,1/2-z
1/2-x,1/2-y,-z
1/2+x,1/2-y,1/2+z
loop_
_atom_site_type_symbol
_atom_site_label
_atom_site_fract_x
_atom_site_fract_y
_atom_site_fract_z
Si Si1 0.693972 0.357224 0.396758
Si Si2 0.612234 0.338838 0.850445
Si Si3 0.753936 0.649065 0.064040
Si Si4 0.500000 0.762134 0.250000
Si Si5 0.888652 0.155062 0.030186
Si Si6 0.198167 0.079568 0.698894
O O1 0.527169 0.327960 0.548017
O O2 0.794014 0.300969 0.251512
O O3 0.734139 0.281420 0.409746
O O4 0.716176 0.524500 0.380620
O O5 0.569599 0.355154 0.951315
O O6 0.704734 0.473976 0.740746
O O7 0.606471 0.663820 0.177529
O O8 0.743170 0.502436 0.103491
O O9 0.897987 0.641140 0.886513
O O10 0.814135 0.299577 0.091574
O O11 0.038330 0.146258 0.850650
#
# Coordination Sequence:
#
# PCOD8133634 Si02
#       6
#     8   8   8   4   8   8
#     4  10  20  34  55  79 114 142 184 224 263 309
#     4  10  19  34  52  80 113 154 190 216 247 306
#     4  10  21  39  60  87 102 136 176 233 278 327
#     4  10  20  38  68  82 102 128 182 228 286 340
#     4  11  20  34  53  79 116 157 179 215 258 312
#     4  10  22  35  53  79 116 144 185 220 264 315
#
# _framework density 19.119292999999999
#
# number of rings (size 3 to 8) (size 9 to 14) (size 15 to 20)
#    0.000    1.818    0.000    7.636    0.000    4.364 
#    0.000    6.364    0.000   18.545    0.000    0.000 
#    0.000    0.000    0.000    0.000    0.000    0.000 
#
# Total GULP energy -272816.593182 kJ/mol
# GULP energy per Si atom -12400.754236 kJ/mol
# Density = 1.907578 g / cm^3
# Si number density = 19.119293 Si / 1000 Ang^3
#
#
#
# Elastic Constant Matrix: (Units=GPa)
#
#
# Indices 1 2 3 4 5 6 
#
# 1 96.1108 59.1722 44.6019 0.0023 1.9214 0.0007
# 2 59.1722 102.6613 54.5137 -0.0005 -5.0483 -0.0009
# 3 44.6019 54.5137 108.5856 0.0051 7.2804 -0.0026
# 4 0.0023 -0.0005 0.0051 32.7589 -0.0028 2.9877
# 5 1.9214 -5.0483 7.2804 -0.0028 29.5155 0.0004
# 6 0.0007 -0.0009 -0.0026 2.9877 0.0004 19.2206
#
#
#
# Elastic Compliance Matrix: (Units=1/GPa)
#
#
# Indices 1 2 3 4 5 6 
#
# 1 0.016817 -0.008436 -0.002545 -0.000001 -0.001910 -0.000001
# 2 -0.008436 0.017990 -0.005907 0.000002 0.005083 0.000000
# 3 -0.002545 -0.005907 0.013500 -0.000003 -0.004175 0.000002
# 4 -0.000001 0.000002 -0.000003 0.030965 0.000004 -0.004813
# 5 -0.001910 0.005083 -0.004175 0.000004 0.035904 -0.000002
# 6 -0.000001 0.000000 0.000002 -0.004813 -0.000002 0.052776
#
#
# Mechanical properties :
#
#
# Convention : Reuss Voigt Hill
#
# Bulk Modulus (GPa) = 68.81501 69.32590 69.07046
# Shear Modulus (GPa) = 24.20465 26.23700 25.22083
#
# Velocity S-wave (km/s) = 3.56192 3.70845 3.63592
# Velocity P-wave (km/s) = 7.27921 7.39426 7.33697
#
# Compressibility (1/GPa) = 0.01453171
#
# Stress axis : x y z
#
# Youngs Moduli (GPa) = 59.46190 55.58680 74.07376
#
# Poissons Ratio (x) = 0.46893 0.18849
# Poissons Ratio (y) = 0.50162 0.43757
# Poissons Ratio (z) = 0.15131 0.32836
#
# Static dielectric constant tensor:
#      x y z
#    x 3.397430 0.000000 0.119040 
#    y 0.000000 3.526840 0.000010 
#    z 0.119040 0.000010 3.635680 
# 
# 
# High freq. dielectric constant tensor:
#      x y z
#    x 1.729450 0.000000 0.004050 
#    y 0.000000 1.736010 0.000000 
#    z 0.004050 0.000000 1.756320 
# 
# From -- ./inp_files/68292.got.cif
#   From: 2010.06.25/outbox.cif.g09.slc.cpg/sg15_35_cif.got.tgz:68292.got - 2010.06.28 07:06:18.
