data_PCOD8133263
_publ_section_title
;
Structure prediction by ZEFSAII (Michael W. Deem and Ramdas Pophale) SiO2 
 PCOD8133263
Probable space group: C 2/C
;
_chemical_formula_sum "Si O2"
_cell_formula_units_Z 48
_cell_length_a 19.450618
_cell_length_b 14.582747
_cell_length_c 9.016891
_cell_angle_alpha 90.000000
_cell_angle_beta 104.988964
_cell_angle_gamma 90.000000
_cell_volume 2470.561955
_symmetry_space_group_name_H-M "C 2/C"
_symmetry_group_IT_number 15
_symmetry_cell_setting 'monoclinic'
loop_
_space_group_symop_operation_xyz
x,y,z
-x,y,1/2-z
-x,-y,-z
x,-y,1/2+z
1/2+x,1/2+y,z
1/2-x,1/2+y,1/2-z
1/2-x,1/2-y,-z
1/2+x,1/2-y,1/2+z
loop_
_atom_site_type_symbol
_atom_site_label
_atom_site_fract_x
_atom_site_fract_y
_atom_site_fract_z
Si Si1 0.193061 0.119981 0.402395
Si Si2 0.641367 0.917011 0.913175
Si Si3 0.658292 0.787848 0.552971
Si Si4 0.925101 0.542215 0.413285
Si Si5 0.326052 0.728272 0.609472
Si Si6 0.803648 0.060236 0.423438
O O1 0.275833 0.147232 0.453306
O O2 0.146530 0.210516 0.419386
O O3 0.170530 0.080998 0.229271
O O4 0.178139 0.042810 0.518292
O O5 0.582753 0.958532 0.767898
O O6 0.622541 0.809078 0.925122
O O7 0.718994 0.923421 0.883434
O O8 0.636041 0.972829 0.061718
O O9 0.589528 0.854790 0.530806
O O10 0.674748 0.731713 0.712835
O O11 0.000000 0.500000 0.500000
O O12 0.250000 0.750000 0.500000
O O13 0.346886 0.627982 0.559716
#
# Coordination Sequence:
#
# PCOD8133263 Si02
#       6
#     8   8   8   8   8   8
#     4  11  20  30  51  73 109 138 179 215 282 328
#     4  10  19  33  47  74 102 140 183 222 263 328
#     4  10  20  33  46  76 103 144 182 225 262 335
#     4  11  21  35  51  71 105 146 184 222 265 306
#     4   9  17  31  48  69 103 133 177 214 276 328
#     4  11  18  33  50  78 104 147 170 224 279 342
#
# _framework density 19.428777
#
# number of rings (size 3 to 8) (size 9 to 14) (size 15 to 20)
#    0.000    1.667    6.667    1.500    0.000    2.667 
#    0.000    0.000    0.000    0.000    0.000    1.167 
#    0.000    2.667    0.000    0.667    0.000    0.000 
#
# Total GULP energy -297372.384372 kJ/mol
# GULP energy per Si atom -12390.516015 kJ/mol
# Density = 1.938456 g / cm^3
# Si number density = 19.428777 Si / 1000 Ang^3
#
#
#
# Elastic Constant Matrix: (Units=GPa)
#
#
# Indices 1 2 3 4 5 6 
#
# 1 36.2487 28.5992 26.1181 0.0000 1.1921 0.0000
# 2 28.5992 145.3890 61.1072 0.0000 -11.8716 0.0000
# 3 26.1181 61.1072 91.1085 0.0000 -9.9237 0.0000
# 4 0.0000 0.0000 0.0000 44.7267 0.0000 -4.4157
# 5 1.1921 -11.8716 -9.9237 0.0000 21.7496 0.0000
# 6 0.0000 0.0000 0.0000 -4.4157 0.0000 26.0521
#
#
#
# Elastic Compliance Matrix: (Units=1/GPa)
#
#
# Indices 1 2 3 4 5 6 
#
# 1 0.037661 -0.004421 -0.008754 0.000000 -0.008471 0.000000
# 2 -0.004421 0.010219 -0.005212 0.000000 0.003442 0.000000
# 3 -0.008754 -0.005212 0.017598 0.000000 0.005664 0.000000
# 4 0.000000 0.000000 0.000000 0.022739 0.000000 0.003854
# 5 -0.008471 0.003442 0.005664 0.000000 0.050905 0.000000
# 6 0.000000 0.000000 0.000000 0.003854 0.000000 0.039038
#
#
# Mechanical properties :
#
#
# Convention : Reuss Voigt Hill
#
# Bulk Modulus (GPa) = 34.83690 56.04389 45.44040
# Shear Modulus (GPa) = 22.27150 28.96714 25.61932
#
# Velocity S-wave (km/s) = 3.38940 3.86546 3.63523
# Velocity P-wave (km/s) = 5.76948 6.98790 6.40772
#
# Compressibility (1/GPa) = 0.02870519
#
# Stress axis : x y z
#
# Youngs Moduli (GPa) = 26.55264 97.85356 56.82403
#
# Poissons Ratio (x) = 0.43257 0.49744
# Poissons Ratio (y) = 0.11738 0.29617
# Poissons Ratio (z) = 0.23244 0.51001
#
# Static dielectric constant tensor:
#      x y z
#    x 3.025290 0.000000 -0.259180 
#    y 0.000000 3.809010 0.000000 
#    z -0.259180 0.000000 3.613840 
# 
# 
# High freq. dielectric constant tensor:
#      x y z
#    x 1.683700 0.000000 -0.025700 
#    y 0.000000 1.778730 0.000000 
#    z -0.025700 0.000000 1.757180 
# 
# From -- ./inp_files/61276.got.cif
#   From: 2010.06.25/outbox.cif.g09.slc.cpg/sg15_31_cif.got.tgz:61276.got - 2010.06.28 07:06:18.
