data_PCOD8133319
_publ_section_title
;
Structure prediction by ZEFSAII (Michael W. Deem and Ramdas Pophale) SiO2 
 PCOD8133319
Probable space group: C 2/C
;
_chemical_formula_sum "Si O2"
_cell_formula_units_Z 60
_cell_length_a 23.740417
_cell_length_b 18.411907
_cell_length_c 14.994534
_cell_angle_alpha 90.000000
_cell_angle_beta 30.322334
_cell_angle_gamma 90.000000
_cell_volume 3308.983580
_symmetry_space_group_name_H-M "C 2/C"
_symmetry_group_IT_number 15
_symmetry_cell_setting 'monoclinic'
loop_
_space_group_symop_operation_xyz
x,y,z
-x,y,1/2-z
-x,-y,-z
x,-y,1/2+z
1/2+x,1/2+y,z
1/2-x,1/2+y,1/2-z
1/2-x,1/2-y,-z
1/2+x,1/2-y,1/2+z
loop_
_atom_site_type_symbol
_atom_site_label
_atom_site_fract_x
_atom_site_fract_y
_atom_site_fract_z
Si Si1 0.572278 0.413473 0.570037
Si Si2 0.692140 0.935905 0.173056
Si Si3 0.045279 0.839633 0.924589
Si Si4 0.686927 0.926672 0.788127
Si Si5 0.994446 0.685990 0.566038
Si Si6 0.500000 0.814870 0.250000
Si Si7 0.220593 0.592285 0.438948
Si Si8 0.436729 0.419000 0.422450
O O1 0.500000 0.381119 0.750000
O O2 0.701943 0.408041 0.416665
O O3 0.549310 0.366665 0.513853
O O4 0.536704 0.496252 0.599517
O O5 0.602987 0.872480 0.300951
O O6 0.640329 0.007062 0.291920
O O7 0.727374 0.954870 0.021634
O O8 0.032280 0.753149 0.961922
O O9 0.169254 0.857829 0.719224
O O10 0.016862 0.877382 0.055951
O O11 0.704669 0.952605 0.867884
O O12 0.806046 0.903657 0.585859
O O13 0.608170 0.856249 0.887057
O O14 0.002366 0.727153 0.652661
O O15 0.389405 0.861908 0.399265
O O16 0.500000 0.388261 0.250000
#
# Coordination Sequence:
#
# PCOD8133319 Si02
#       8
#     8   8   8   8   8   4   8   8
#     4  10  19  33  52  83 107 135 176 222 273 320
#     4  10  19  34  55  79 112 144 184 222 261 327
#     4  11  21  33  55  80 115 138 177 226 274 335
#     4   9  19  37  56  78 107 142 184 226 266 326
#     4  10  21  33  54  79 111 148 177 218 277 323
#     4   8  18  32  48  76 110 142 174 210 268 336
#     4   9  18  33  53  80 106 144 177 221 280 315
#     4   9  20  38  58  75 102 143 181 227 274 315
#
# _framework density 18.132456000000001
#
# number of rings (size 3 to 8) (size 9 to 14) (size 15 to 20)
#    0.000    2.400    1.333    0.800    0.933    5.333 
#    0.000    0.667    2.933    0.000    0.000    0.000 
#    0.000    0.000    0.000    0.000    0.000    0.000 
#
# Total GULP energy -371736.061012 kJ/mol
# GULP energy per Si atom -12391.202034 kJ/mol
# Density = 1.809119 g / cm^3
# Si number density = 18.132456 Si / 1000 Ang^3
#
#
#
# Elastic Constant Matrix: (Units=GPa)
#
#
# Indices 1 2 3 4 5 6 
#
# 1 102.0348 48.1915 45.4264 0.0000 14.1116 0.0000
# 2 48.1915 81.3318 33.8825 0.0000 15.4196 0.0000
# 3 45.4264 33.8825 97.0351 0.0000 8.4759 0.0000
# 4 0.0000 0.0000 0.0000 16.3991 0.0000 4.0315
# 5 14.1116 15.4196 8.4759 0.0000 27.9536 0.0000
# 6 0.0000 0.0000 0.0000 4.0315 0.0000 17.2768
#
#
#
# Elastic Compliance Matrix: (Units=1/GPa)
#
#
# Indices 1 2 3 4 5 6 
#
# 1 0.015391 -0.006679 -0.004639 0.000000 -0.002679 0.000000
# 2 -0.006679 0.018574 -0.002833 0.000000 -0.006015 0.000000
# 3 -0.004639 -0.002833 0.013483 0.000000 -0.000183 0.000000
# 4 0.000000 0.000000 0.000000 0.064690 0.000000 -0.015095
# 5 -0.002679 -0.006015 -0.000183 0.000000 0.040499 0.000000
# 6 0.000000 0.000000 0.000000 -0.015095 0.000000 0.061404
#
#
# Mechanical properties :
#
#
# Convention : Reuss Voigt Hill
#
# Bulk Modulus (GPa) = 52.23507 59.48918 55.86213
# Shear Modulus (GPa) = 20.10260 22.51932 21.31096
#
# Velocity S-wave (km/s) = 3.33326 3.52793 3.43197
# Velocity P-wave (km/s) = 6.60940 7.03381 6.82490
#
# Compressibility (1/GPa) = 0.01914423
#
# Stress axis : x y z
#
# Youngs Moduli (GPa) = 64.97332 53.84003 74.16967
#
# Poissons Ratio (x) = 0.35960 0.34407
# Poissons Ratio (y) = 0.43397 0.21015
# Poissons Ratio (z) = 0.30141 0.15255
#
# Static dielectric constant tensor:
#      x y z
#    x 3.726140 0.000000 0.161150 
#    y 0.000000 3.088230 0.000000 
#    z 0.161150 0.000000 3.512370 
# 
# 
# High freq. dielectric constant tensor:
#      x y z
#    x 1.713620 0.000000 -0.006370 
#    y 0.000000 1.670810 0.000000 
#    z -0.006370 0.000000 1.706660 
# 
# From -- ./inp_files/174096.got.cif
#   From: 2010.06.25/outbox.cif.g09.slc.cpg/sg15_88_cif.got.tgz:174096.got - 2010.06.28 07:06:18.
