data_PCOD8133747
_publ_section_title
;
Structure prediction by ZEFSAII (Michael W. Deem and Ramdas Pophale) SiO2 
 PCOD8133747
Probable space group: C 2/C
;
_chemical_formula_sum "Si O2"
_cell_formula_units_Z 64
_cell_length_a 25.386164
_cell_length_b 22.700335
_cell_length_c 18.801735
_cell_angle_alpha 90.000000
_cell_angle_beta 18.056933
_cell_angle_gamma 90.000000
_cell_volume 3358.424243
_symmetry_space_group_name_H-M "C 2/C"
_symmetry_group_IT_number 15
_symmetry_cell_setting 'monoclinic'
loop_
_space_group_symop_operation_xyz
x,y,z
-x,y,1/2-z
-x,-y,-z
x,-y,1/2+z
1/2+x,1/2+y,z
1/2-x,1/2+y,1/2-z
1/2-x,1/2-y,-z
1/2+x,1/2-y,1/2+z
loop_
_atom_site_type_symbol
_atom_site_label
_atom_site_fract_x
_atom_site_fract_y
_atom_site_fract_z
Si Si1 0.873410 0.513222 0.598355
Si Si2 0.477295 0.859940 0.940312
Si Si3 0.354568 0.333207 0.203710
Si Si4 0.931171 0.275746 0.118409
Si Si5 0.673268 0.190568 0.070541
Si Si6 0.091682 0.289958 0.059491
Si Si7 0.981950 0.050557 0.467439
Si Si8 0.151911 0.574318 0.501131
O O1 0.946287 0.571310 0.468355
O O2 0.872061 0.460865 0.542297
O O3 0.000000 0.500000 0.500000
O O4 0.680233 0.531020 0.873473
O O5 0.643565 0.848311 0.679376
O O6 0.320623 0.821661 0.112292
O O7 0.488940 0.837484 0.007020
O O8 0.310988 0.342190 0.343325
O O9 0.463456 0.275056 0.054737
O O10 0.451233 0.389336 0.049306
O O11 0.734842 0.258815 0.361277
O O12 0.958525 0.283236 0.166912
O O13 0.500000 0.202039 0.250000
O O14 0.750000 0.250000 0.000000
O O15 0.161089 0.356507 0.972553
O O16 0.000000 0.273167 0.250000
O O17 0.000000 0.000000 0.500000
O O18 0.167621 0.057317 0.191721
O O19 0.000000 0.558407 0.750000
#
# Coordination Sequence:
#
# PCOD8133747 Si02
#       8
#     8   8   8   8   8   8   8   8
#     4  10  21  39  59  87 118 151 200 245 296 350
#     4  10  21  35  58  86 115 158 189 232 298 350
#     4  10  19  34  56  81 114 150 190 232 283 355
#     4  12  20  36  58  81 116 151 191 239 297 353
#     4  10  20  34  52  83 118 148 187 229 281 346
#     4  11  24  38  57  86 116 150 199 248 301 350
#     4   9  19  36  59  82 109 155 199 238 289 352
#     4  10  21  39  62  86 113 155 202 249 292 358
#
# _framework density 19.056556
#
# number of rings (size 3 to 8) (size 9 to 14) (size 15 to 20)
#    0.000    1.750    3.750    1.125    0.000    3.500 
#    0.000    0.625    0.000    0.000    0.000    0.000 
#    0.000    0.000    0.000    0.000    0.000    0.000 
#
# Total GULP energy -396480.256599 kJ/mol
# GULP energy per Si atom -12390.008019 kJ/mol
# Density = 1.901318 g / cm^3
# Si number density = 19.056556 Si / 1000 Ang^3
#
#
#
# Elastic Constant Matrix: (Units=GPa)
#
#
# Indices 1 2 3 4 5 6 
#
# 1 87.0871 3.4078 39.0881 -0.0180 5.9203 0.0076
# 2 3.4078 46.2490 20.9107 0.0711 1.7513 -0.0105
# 3 39.0881 20.9107 120.6065 -0.0212 6.0642 0.0211
# 4 -0.0180 0.0711 -0.0212 24.5407 0.0149 -5.2175
# 5 5.9203 1.7513 6.0642 0.0149 32.4332 -0.0014
# 6 0.0076 -0.0105 0.0211 -5.2175 -0.0014 24.2053
#
#
#
# Elastic Compliance Matrix: (Units=1/GPa)
#
#
# Indices 1 2 3 4 5 6 
#
# 1 0.013577 0.001101 -0.004506 0.000004 -0.001695 0.000001
# 2 0.001101 0.023559 -0.004409 -0.000071 -0.000649 -0.000002
# 3 -0.004506 -0.004409 0.010562 0.000018 -0.000914 -0.000006
# 4 0.000004 -0.000071 0.000018 0.042706 -0.000020 0.009205
# 5 -0.001695 -0.000649 -0.000914 -0.000020 0.031348 -0.000001
# 6 0.000001 -0.000002 -0.000006 0.009205 -0.000001 0.043297
#
#
# Mechanical properties :
#
#
# Convention : Reuss Voigt Hill
#
# Bulk Modulus (GPa) = 31.18086 42.30619 36.74353
# Shear Modulus (GPa) = 26.12764 28.93824 27.53294
#
# Velocity S-wave (km/s) = 3.70680 3.90108 3.80518
# Velocity P-wave (km/s) = 5.89222 6.52225 6.21522
#
# Compressibility (1/GPa) = 0.03207096
#
# Stress axis : x y z
#
# Youngs Moduli (GPa) = 73.65171 42.44650 94.67705
#
# Poissons Ratio (x) = -0.04674 0.42662
# Poissons Ratio (y) = -0.08110 0.41742
# Poissons Ratio (z) = 0.33188 0.18714
#
# Static dielectric constant tensor:
#      x y z
#    x 4.848610 -0.002320 0.187960 
#    y -0.002320 3.471540 -0.000330 
#    z 0.187960 -0.000330 4.179050 
# 
# 
# High freq. dielectric constant tensor:
#      x y z
#    x 1.722230 -0.000010 -0.004610 
#    y -0.000010 1.744990 0.000020 
#    z -0.004610 0.000020 1.750880 
# 
# From -- ./inp_files/220281.got.cif
#   From: 2010.06.25/outbox.cif.g09.slc.cpg/sg15_111_cif.got.tgz:220281.got - 2010.06.28 07:06:18.
