data_PCOD8133235
_publ_section_title
;
Structure prediction by ZEFSAII (Michael W. Deem and Ramdas Pophale) SiO2 
 PCOD8133235
Probable space group: C 2/C
;
_chemical_formula_sum "Si O2"
_cell_formula_units_Z 48
_cell_length_a 17.354050
_cell_length_b 11.688154
_cell_length_c 11.879787
_cell_angle_alpha 90.000000
_cell_angle_beta 76.331395
_cell_angle_gamma 90.000000
_cell_volume 2341.413554
_symmetry_space_group_name_H-M "C 2/C"
_symmetry_group_IT_number 15
_symmetry_cell_setting 'monoclinic'
loop_
_space_group_symop_operation_xyz
x,y,z
-x,y,1/2-z
-x,-y,-z
x,-y,1/2+z
1/2+x,1/2+y,z
1/2-x,1/2+y,1/2-z
1/2-x,1/2-y,-z
1/2+x,1/2-y,1/2+z
loop_
_atom_site_type_symbol
_atom_site_label
_atom_site_fract_x
_atom_site_fract_y
_atom_site_fract_z
Si Si1 0.328708 0.318936 0.842120
Si Si2 0.821587 0.074054 0.787623
Si Si3 0.660886 0.226512 0.069185
Si Si4 0.359779 0.867184 0.151786
Si Si5 0.347180 0.266229 0.082385
Si Si6 0.418132 0.901304 0.716840
O O1 0.350515 0.445293 0.792440
O O2 0.365367 0.231524 0.741491
O O3 0.234806 0.304146 0.885498
O O4 0.370655 0.297702 0.947502
O O5 0.867578 0.154451 0.863165
O O6 0.727398 0.082048 0.837876
O O7 0.841589 0.116185 0.654770
O O8 0.653251 0.128721 0.169565
O O9 0.750000 0.250000 0.000000
O O10 0.610330 0.186361 0.977783
O O11 0.415929 0.968738 0.174973
O O12 0.413337 0.182025 0.110645
O O13 0.500000 0.875970 0.750000
#
# Coordination Sequence:
#
# PCOD8133235 Si02
#       6
#     8   8   8   8   8   8
#     4  10  19  32  58  86 116 149 201 257 296 346
#     4   9  18  33  57  83 118 149 195 259 305 334
#     4   9  21  37  59  87 117 157 204 250 298 346
#     4  10  21  33  55  87 121 153 202 243 299 359
#     4   9  20  35  53  86 115 155 199 247 299 356
#     4  11  23  40  60  86 126 164 195 242 304 368
#
# _framework density 20.500437000000002
#
# number of rings (size 3 to 8) (size 9 to 14) (size 15 to 20)
#    0.000    2.333    1.667    1.000    4.667    3.333 
#    0.000    0.000    0.000    8.000    0.000    0.000 
#    0.000    0.000    0.000    0.000    0.000    0.000 
#
# Total GULP energy -297515.165099 kJ/mol
# GULP energy per Si atom -12396.465212 kJ/mol
# Density = 2.045378 g / cm^3
# Si number density = 20.500437 Si / 1000 Ang^3
#
#
#
# Elastic Constant Matrix: (Units=GPa)
#
#
# Indices 1 2 3 4 5 6 
#
# 1 43.5265 26.7191 21.3677 0.0000 22.2822 0.0000
# 2 26.7191 166.9130 80.2680 0.0000 24.6690 0.0000
# 3 21.3677 80.2680 161.4250 0.0000 32.5116 0.0000
# 4 0.0000 0.0000 0.0000 32.0152 0.0000 13.1844
# 5 22.2822 24.6690 32.5116 0.0000 26.7180 0.0000
# 6 0.0000 0.0000 0.0000 13.1844 0.0000 18.7363
#
#
#
# Elastic Compliance Matrix: (Units=1/GPa)
#
#
# Indices 1 2 3 4 5 6 
#
# 1 0.041519 -0.002865 0.003139 0.000000 -0.035801 0.000000
# 2 -0.002865 0.008300 -0.003558 0.000000 -0.000946 0.000000
# 3 0.003139 -0.003558 0.009821 0.000000 -0.011284 0.000000
# 4 0.000000 0.000000 0.000000 0.043980 0.000000 -0.030948
# 5 -0.035801 -0.000946 -0.011284 0.000000 0.081889 0.000000
# 6 0.000000 0.000000 0.000000 -0.030948 0.000000 0.075150
#
#
# Mechanical properties :
#
#
# Convention : Reuss Voigt Hill
#
# Bulk Modulus (GPa) = 18.84163 69.84157 44.34160
# Shear Modulus (GPa) = 17.54892 31.72787 24.63840
#
# Velocity S-wave (km/s) = 2.92897 3.93831 3.47053
# Velocity P-wave (km/s) = 4.54415 7.40423 6.14296
#
# Compressibility (1/GPa) = 0.05307398
#
# Stress axis : x y z
#
# Youngs Moduli (GPa) = 24.08515 120.47694 101.82354
#
# Poissons Ratio (x) = 0.34513 -0.31963
# Poissons Ratio (y) = 0.06900 0.36226
# Poissons Ratio (z) = -0.07560 0.42862
#
# Static dielectric constant tensor:
#      x y z
#    x 3.151270 0.000000 0.285090 
#    y 0.000000 3.750120 0.000000 
#    z 0.285090 0.000000 4.173160 
# 
# 
# High freq. dielectric constant tensor:
#      x y z
#    x 1.742010 0.000000 0.019790 
#    y 0.000000 1.805450 0.000000 
#    z 0.019790 0.000000 1.819490 
# 
# From -- ./inp_files/110612.got.cif
#   From: 2010.06.25/outbox.cif.g09.slc.cpg/sg15_56_cif.got.tgz:110612.got - 2010.06.28 07:06:18.
