data_PCOD8133842
_publ_section_title
;
Structure prediction by ZEFSAII (Michael W. Deem and Ramdas Pophale) SiO2 
 PCOD8133842
Probable space group: C 2/C
;
_chemical_formula_sum "Si O2"
_cell_formula_units_Z 56
_cell_length_a 27.112307
_cell_length_b 11.097914
_cell_length_c 21.012862
_cell_angle_alpha 90.000000
_cell_angle_beta 28.045478
_cell_angle_gamma 90.000000
_cell_volume 2972.692768
_symmetry_space_group_name_H-M "C 2/C"
_symmetry_group_IT_number 15
_symmetry_cell_setting 'monoclinic'
loop_
_space_group_symop_operation_xyz
x,y,z
-x,y,1/2-z
-x,-y,-z
x,-y,1/2+z
1/2+x,1/2+y,z
1/2-x,1/2+y,1/2-z
1/2-x,1/2-y,-z
1/2+x,1/2-y,1/2+z
loop_
_atom_site_type_symbol
_atom_site_label
_atom_site_fract_x
_atom_site_fract_y
_atom_site_fract_z
Si Si1 0.270808 0.699172 0.337215
Si Si2 0.922105 0.049570 0.245311
Si Si3 0.120420 0.841655 0.301485
Si Si4 0.750891 0.613685 0.338616
Si Si5 0.650834 0.582048 0.029760
Si Si6 0.199976 0.486180 0.342757
Si Si7 0.099709 0.254837 0.432106
O O1 0.370635 0.654573 0.262757
O O2 0.202882 0.788454 0.457754
O O3 0.194348 0.587755 0.404295
O O4 0.319176 0.760486 0.219238
O O5 0.868884 0.055511 0.374499
O O6 0.045108 0.076104 0.109080
O O7 0.903195 0.919615 0.234475
O O8 0.183017 0.723762 0.207584
O O9 0.187312 0.916927 0.277401
O O10 0.015235 0.792228 0.455982
O O11 0.732185 0.520245 0.416206
O O12 0.811620 0.547831 0.212347
O O13 0.639833 0.661231 0.439059
O O14 0.104172 0.390078 0.457417
#
# Coordination Sequence:
#
# PCOD8133842 Si02
#       7
#     8   8   8   8   8   8   8
#     4  10  21  35  59  84 116 151 182 239 282 343
#     4  10  23  38  61  79 109 157 194 234 273 340
#     4  10  21  36  57  85 111 150 191 229 290 340
#     4  10  20  34  56  83 114 143 184 240 278 341
#     4  11  21  40  58  83 111 149 199 231 280 335
#     4   9  20  35  53  87 116 149 175 237 293 334
#     4  10  19  34  58  83 116 143 184 232 289 344
#
# _framework density 18.838139000000002
#
# number of rings (size 3 to 8) (size 9 to 14) (size 15 to 20)
#    0.000    2.000    2.857    0.429    2.000    2.857 
#    2.571    0.000    0.000    0.000    0.000    0.000 
#    0.000    0.000    0.000    0.000    0.000    0.000 
#
# Total GULP energy -347104.612617 kJ/mol
# GULP energy per Si atom -12396.593308 kJ/mol
# Density = 1.879526 g / cm^3
# Si number density = 18.838139 Si / 1000 Ang^3
#
#
#
# Elastic Constant Matrix: (Units=GPa)
#
#
# Indices 1 2 3 4 5 6 
#
# 1 69.9078 37.6177 24.1793 -0.0001 -2.1875 0.0000
# 2 37.6177 123.8795 40.0328 -0.0003 -2.0005 0.0002
# 3 24.1793 40.0328 63.5976 -0.0002 -2.2378 0.0001
# 4 -0.0001 -0.0003 -0.0002 27.0643 0.0000 -0.5869
# 5 -2.1875 -2.0005 -2.2378 0.0000 22.4655 0.0000
# 6 0.0000 0.0002 0.0001 -0.5869 0.0000 26.8691
#
#
#
# Elastic Compliance Matrix: (Units=1/GPa)
#
#
# Indices 1 2 3 4 5 6 
#
# 1 0.017996 -0.004079 -0.004241 0.000000 0.000967 0.000000
# 2 -0.004079 0.011060 -0.005409 0.000000 0.000049 0.000000
# 3 -0.004241 -0.005409 0.020782 0.000000 0.001176 0.000000
# 4 0.000000 0.000000 0.000000 0.036966 0.000000 0.000807
# 5 0.000967 0.000049 0.001176 0.000000 0.044728 0.000000
# 6 0.000000 0.000000 0.000000 0.000807 0.000000 0.037235
#
#
# Mechanical properties :
#
#
# Convention : Reuss Voigt Hill
#
# Bulk Modulus (GPa) = 44.68045 51.22717 47.95381
# Shear Modulus (GPa) = 24.54755 25.65015 25.09885
#
# Velocity S-wave (km/s) = 3.61373 3.69400 3.65409
# Velocity P-wave (km/s) = 6.41729 6.74141 6.58134
#
# Compressibility (1/GPa) = 0.02238115
#
# Stress axis : x y z
#
# Youngs Moduli (GPa) = 55.56688 90.41724 48.11742
#
# Poissons Ratio (x) = 0.36880 0.20404
# Poissons Ratio (y) = 0.22665 0.26029
# Poissons Ratio (z) = 0.23563 0.48910
#
# Static dielectric constant tensor:
#      x y z
#    x 3.434150 0.000000 -0.096130 
#    y 0.000000 3.687490 0.000000 
#    z -0.096130 0.000000 3.153020 
# 
# 
# High freq. dielectric constant tensor:
#      x y z
#    x 1.727070 0.000000 -0.011300 
#    y 0.000000 1.750730 0.000000 
#    z -0.011300 0.000000 1.702310 
# 
# From -- ./inp_files/257376.got.cif
#   From: 2010.06.25/outbox.cif.g09.slc.cpg/sg15_129_cif.got.tgz:257376.got - 2010.06.28 07:06:18.
