data_PCOD8133076
_publ_section_title
;
Structure prediction by ZEFSAII (Michael W. Deem and Ramdas Pophale) SiO2 
 PCOD8133076
Probable space group: C 2/C
;
_chemical_formula_sum "Si O2"
_cell_formula_units_Z 56
_cell_length_a 24.911071
_cell_length_b 22.931407
_cell_length_c 5.152059
_cell_angle_alpha 90.000000
_cell_angle_beta 106.895284
_cell_angle_gamma 90.000000
_cell_volume 2816.061411
_symmetry_space_group_name_H-M "C 2/C"
_symmetry_group_IT_number 15
_symmetry_cell_setting 'monoclinic'
loop_
_space_group_symop_operation_xyz
x,y,z
-x,y,1/2-z
-x,-y,-z
x,-y,1/2+z
1/2+x,1/2+y,z
1/2-x,1/2+y,1/2-z
1/2-x,1/2-y,-z
1/2+x,1/2-y,1/2+z
loop_
_atom_site_type_symbol
_atom_site_label
_atom_site_fract_x
_atom_site_fract_y
_atom_site_fract_z
Si Si1 0.799835 0.695739 0.686026
Si Si2 0.653563 0.142371 0.275624
Si Si3 0.808956 0.864208 0.251947
Si Si4 0.850631 0.188152 0.292727
Si Si5 0.023335 0.637024 0.031207
Si Si6 0.231902 0.538196 0.476905
Si Si7 0.526371 0.267452 0.538350
O O1 0.810313 0.664699 0.422700
O O2 0.745698 0.673025 0.760552
O O3 0.799799 0.766269 0.651599
O O4 0.847561 0.684416 0.974139
O O5 0.589749 0.138526 0.098166
O O6 0.678295 0.080823 0.411774
O O7 0.846741 0.863352 0.569035
O O8 0.845043 0.836285 0.072576
O O9 0.789756 0.927798 0.126122
O O10 0.907172 0.225141 0.351322
O O11 0.000000 0.603000 0.250000
O O12 0.000000 0.602177 0.750000
O O13 0.992631 0.700146 0.989280
O O14 0.229581 0.486853 0.683205
O O15 0.500000 0.299581 0.750000
O O16 0.500000 0.299126 0.250000
#
# Coordination Sequence:
#
# PCOD8133076 Si02
#       7
#     8   8   8   8   8   8   8
#     4  11  20  34  53  81 120 155 181 220 281 356
#     4  11  21  36  59  85 111 152 203 237 282 343
#     4  11  23  36  54  85 114 148 190 234 290 350
#     4  12  21  34  54  82 125 156 185 225 275 346
#     4  10  19  32  51  78 109 146 194 232 264 321
#     4  11  23  42  63  81 109 147 196 254 301 339
#     4  10  19  32  49  75 111 157 191 214 256 317
#
# _framework density 19.885929999999998
#
# number of rings (size 3 to 8) (size 9 to 14) (size 15 to 20)
#    0.000    1.143    0.000   11.143    0.000    0.000 
#    0.000    0.000    0.000    2.571    0.000    0.000 
#    0.000   40.000    0.000    0.000    0.000    0.000 
#
# Total GULP energy -346940.835686 kJ/mol
# GULP energy per Si atom -12390.744132 kJ/mol
# Density = 1.984067 g / cm^3
# Si number density = 19.885930 Si / 1000 Ang^3
#
#
#
# Elastic Constant Matrix: (Units=GPa)
#
#
# Indices 1 2 3 4 5 6 
#
# 1 73.0684 16.7289 19.1291 0.0000 -17.3726 0.0000
# 2 16.7289 53.1210 15.3138 0.0000 -2.3849 0.0000
# 3 19.1291 15.3138 140.7331 0.0000 -26.3588 0.0000
# 4 0.0000 0.0000 0.0000 30.1588 0.0000 1.1615
# 5 -17.3726 -2.3849 -26.3588 0.0000 38.1047 0.0000
# 6 0.0000 0.0000 0.0000 1.1615 0.0000 18.2835
#
#
#
# Elastic Compliance Matrix: (Units=1/GPa)
#
#
# Indices 1 2 3 4 5 6 
#
# 1 0.016543 -0.004774 -0.000428 0.000000 0.006947 0.000000
# 2 -0.004774 0.020815 -0.002045 0.000000 -0.002288 0.000000
# 3 -0.000428 -0.002045 0.008416 0.000000 0.005499 0.000000
# 4 0.000000 0.000000 0.000000 0.033239 0.000000 -0.002112
# 5 0.006947 -0.002288 0.005499 0.000000 0.033071 0.000000
# 6 0.000000 0.000000 0.000000 -0.002112 0.000000 0.054828
#
#
# Mechanical properties :
#
#
# Convention : Reuss Voigt Hill
#
# Bulk Modulus (GPa) = 31.96890 41.02957 36.49923
# Shear Modulus (GPa) = 26.06424 31.69277 28.87851
#
# Velocity S-wave (km/s) = 3.62427 3.99648 3.81492
# Velocity P-wave (km/s) = 5.79869 6.47866 6.14809
#
# Compressibility (1/GPa) = 0.03128040
#
# Stress axis : x y z
#
# Youngs Moduli (GPa) = 60.44963 48.04180 118.81842
#
# Poissons Ratio (x) = 0.22937 0.05083
# Poissons Ratio (y) = 0.28861 0.24294
# Poissons Ratio (z) = 0.02586 0.09823
#
# Static dielectric constant tensor:
#      x y z
#    x 1.922040 0.000000 4.314880 
#    y 0.000000 3.307680 0.000000 
#    z 4.314880 0.000000 -7.951850 
# 
# 
# High freq. dielectric constant tensor:
#      x y z
#    x 1.768470 0.000000 -0.010450 
#    y 0.000000 1.717340 0.000000 
#    z -0.010450 0.000000 1.820280 
# 
# From -- ./inp_files/15856.got.cif
#   From: 2010.06.25/outbox.cif.g09.slc.cpg/sg15_8_cif.got.tgz:15856.got - 2010.06.28 07:06:18.
