data_PCOD8133533
_publ_section_title
;
Structure prediction by ZEFSAII (Michael W. Deem and Ramdas Pophale) SiO2 
 PCOD8133533
Probable space group: C 2/C
;
_chemical_formula_sum "Si O2"
_cell_formula_units_Z 56
_cell_length_a 29.479312
_cell_length_b 8.417240
_cell_length_c 18.905093
_cell_angle_alpha 90.000000
_cell_angle_beta 138.514164
_cell_angle_gamma 90.000000
_cell_volume 3107.485163
_symmetry_space_group_name_H-M "C 2/C"
_symmetry_group_IT_number 15
_symmetry_cell_setting 'monoclinic'
loop_
_space_group_symop_operation_xyz
x,y,z
-x,y,1/2-z
-x,-y,-z
x,-y,1/2+z
1/2+x,1/2+y,z
1/2-x,1/2+y,1/2-z
1/2-x,1/2-y,-z
1/2+x,1/2-y,1/2+z
loop_
_atom_site_type_symbol
_atom_site_label
_atom_site_fract_x
_atom_site_fract_y
_atom_site_fract_z
Si Si1 0.927497 0.572632 0.147625
Si Si2 0.318532 0.924113 0.118751
Si Si3 0.413730 0.935102 0.839563
Si Si4 0.667578 0.571723 0.408227
Si Si5 0.552575 0.915099 0.467515
Si Si6 0.937092 0.847245 0.265377
Si Si7 0.454603 0.387895 0.633587
O O1 0.864479 0.480852 0.107334
O O2 0.920461 0.554718 0.054194
O O3 0.932846 0.750779 0.185448
O O4 0.000000 0.485735 0.250000
O O5 0.322164 0.734533 0.122865
O O6 0.345325 0.996237 0.223778
O O7 0.241916 0.990109 0.018997
O O8 0.473956 0.060743 0.896978
O O9 0.436977 0.768441 0.832224
O O10 0.400090 0.916526 0.907141
O O11 0.631702 0.452831 0.310704
O O12 0.620558 0.575818 0.423384
O O13 0.556658 0.739473 0.440502
O O14 0.005884 0.954489 0.348557
O O15 0.500000 0.313957 0.750000
#
# Coordination Sequence:
#
# PCOD8133533 Si02
#       7
#     8   8   8   8   8   8   8
#     4  11  18  33  57  81 103 140 182 227 259 320
#     4  10  20  36  57  78 109 139 189 216 267 325
#     4  10  22  34  53  81 113 143 176 226 267 335
#     4  10  20  33  59  82 103 143 180 235 264 309
#     4  11  20  34  55  79 110 148 177 210 287 315
#     4  10  21  33  58  86 109 131 186 233 268 305
#     4  10  19  33  58  83 104 138 182 232 263 321
#
# _framework density 18.021003
#
# number of rings (size 3 to 8) (size 9 to 14) (size 15 to 20)
#    0.000    1.714    4.286    3.429    0.000    2.857 
#    0.000    0.000    6.286    0.000    0.000    0.000 
#    0.000    0.000    0.000    0.000    0.000    0.000 
#
# Total GULP energy -346981.755180 kJ/mol
# GULP energy per Si atom -12392.205542 kJ/mol
# Density = 1.797999 g / cm^3
# Si number density = 18.021003 Si / 1000 Ang^3
#
#
#
# Elastic Constant Matrix: (Units=GPa)
#
#
# Indices 1 2 3 4 5 6 
#
# 1 93.5411 26.0413 67.7632 0.0000 0.8384 0.0000
# 2 26.0413 60.6001 20.3323 0.0000 -3.2142 0.0000
# 3 67.7632 20.3323 99.3508 0.0000 -0.3494 0.0000
# 4 0.0000 0.0000 0.0000 23.5021 0.0000 -0.1539
# 5 0.8384 -3.2142 -0.3494 0.0000 47.8653 0.0000
# 6 0.0000 0.0000 0.0000 -0.1539 0.0000 23.7073
#
#
#
# Elastic Compliance Matrix: (Units=1/GPa)
#
#
# Indices 1 2 3 4 5 6 
#
# 1 0.022405 -0.004879 -0.014286 0.000000 -0.000824 0.000000
# 2 -0.004879 0.018846 -0.000525 0.000000 0.001347 0.000000
# 3 -0.014286 -0.000525 0.019918 0.000000 0.000360 0.000000
# 4 0.000000 0.000000 0.000000 0.042551 0.000000 0.000276
# 5 -0.000824 0.001347 0.000360 0.000000 0.020999 0.000000
# 6 0.000000 0.000000 0.000000 0.000276 0.000000 0.042183
#
#
# Mechanical properties :
#
#
# Convention : Reuss Voigt Hill
#
# Bulk Modulus (GPa) = 45.89236 53.52951 49.71094
# Shear Modulus (GPa) = 23.41433 28.30530 25.85981
#
# Velocity S-wave (km/s) = 3.60846 3.96749 3.79223
# Velocity P-wave (km/s) = 6.54849 7.12435 6.84248
#
# Compressibility (1/GPa) = 0.02179012
#
# Stress axis : x y z
#
# Youngs Moduli (GPa) = 44.63230 53.06306 50.20581
#
# Poissons Ratio (x) = 0.25887 0.71725
# Poissons Ratio (y) = 0.21774 0.02633
# Poissons Ratio (z) = 0.63763 0.02783
#
# Static dielectric constant tensor:
#      x y z
#    x 3.364630 0.000000 0.039860 
#    y 0.000000 3.401930 0.000000 
#    z 0.039860 0.000000 3.327180 
# 
# 
# High freq. dielectric constant tensor:
#      x y z
#    x 1.686080 0.000000 0.007360 
#    y 0.000000 1.706560 0.000000 
#    z 0.007360 0.000000 1.673740 
# 
# From -- ./inp_files/224441.got.cif
#   From: 2010.06.25/outbox.cif.g09.slc.cpg/sg15_113_cif.got.tgz:224441.got - 2010.06.28 07:06:18.
