data_PCOD8133994
_publ_section_title
;
Structure prediction by ZEFSAII (Michael W. Deem and Ramdas Pophale) SiO2 
 PCOD8133994
Probable space group: C 2/C
;
_chemical_formula_sum "Si O2"
_cell_formula_units_Z 60
_cell_length_a 25.628770
_cell_length_b 14.587122
_cell_length_c 14.063097
_cell_angle_alpha 90.000000
_cell_angle_beta 150.722421
_cell_angle_gamma 90.000000
_cell_volume 2571.128370
_symmetry_space_group_name_H-M "C 2/C"
_symmetry_group_IT_number 15
_symmetry_cell_setting 'monoclinic'
loop_
_space_group_symop_operation_xyz
x,y,z
-x,y,1/2-z
-x,-y,-z
x,-y,1/2+z
1/2+x,1/2+y,z
1/2-x,1/2+y,1/2-z
1/2-x,1/2-y,-z
1/2+x,1/2-y,1/2+z
loop_
_atom_site_type_symbol
_atom_site_label
_atom_site_fract_x
_atom_site_fract_y
_atom_site_fract_z
Si Si1 0.381094 0.172917 0.172398
Si Si2 0.000000 0.480942 0.750000
Si Si3 0.701863 0.652574 0.025146
Si Si4 0.311852 0.617006 0.193666
Si Si5 0.018970 0.229775 0.494433
Si Si6 0.367406 0.461036 0.600942
Si Si7 0.602231 0.558148 0.553985
Si Si8 0.869446 0.360507 0.957584
O O1 0.423650 0.081657 0.191730
O O2 0.263060 0.151991 0.022070
O O3 0.457803 0.205086 0.379513
O O4 0.367056 0.254225 0.071615
O O5 0.928645 0.542919 0.566818
O O6 0.786578 0.633746 0.241138
O O7 0.620294 0.569532 0.892923
O O8 0.396689 0.698686 0.312871
O O9 0.281079 0.574031 0.041394
O O10 0.361515 0.536194 0.339449
O O11 0.202877 0.659836 0.063523
O O12 0.104718 0.144352 0.630924
O O13 0.040662 0.284685 0.428422
O O14 0.334612 0.421448 0.444470
O O15 0.480225 0.435714 0.825249
#
# Coordination Sequence:
#
# PCOD8133994 Si02
#       8
#     8   4   8   8   8   8   8   8
#     4  10  23  41  70  95 137 179 239 295 358 414
#     4  12  28  46  66 100 144 196 228 298 368 436
#     4  10  20  41  65 102 128 179 238 294 341 428
#     4  11  21  41  68 102 141 190 235 291 364 428
#     4  10  23  43  66 102 140 183 238 303 354 417
#     4  10  19  34  65  99 139 174 226 292 367 419
#     4  10  20  36  64 101 139 177 228 305 358 421
#     4  11  26  44  66  96 146 183 237 288 350 439
#
# _framework density 23.336057
#
# number of rings (size 3 to 8) (size 9 to 14) (size 15 to 20)
#    0.000    1.600    1.333    4.000    1.867    7.467 
#    0.000    4.000    0.000    0.000    0.000    0.000 
#    0.000    0.000    0.000    0.000    0.000    0.000 
#
# Total GULP energy -371648.746273 kJ/mol
# GULP energy per Si atom -12388.291542 kJ/mol
# Density = 2.328294 g / cm^3
# Si number density = 23.336057 Si / 1000 Ang^3
#
#
#
# Elastic Constant Matrix: (Units=GPa)
#
#
# Indices 1 2 3 4 5 6 
#
# 1 126.0330 55.6315 36.1259 0.0000 -1.4927 0.0000
# 2 55.6315 123.7114 35.0816 0.0000 9.7821 0.0000
# 3 36.1259 35.0816 45.7463 0.0000 2.1461 0.0000
# 4 0.0000 0.0000 0.0000 34.1905 0.0000 2.2059
# 5 -1.4927 9.7821 2.1461 0.0000 28.8326 0.0000
# 6 0.0000 0.0000 0.0000 2.2059 0.0000 51.9827
#
#
#
# Elastic Compliance Matrix: (Units=1/GPa)
#
#
# Indices 1 2 3 4 5 6 
#
# 1 0.011318 -0.003453 -0.006395 0.000000 0.002233 0.000000
# 2 -0.003453 0.011635 -0.006023 0.000000 -0.003678 0.000000
# 3 -0.006395 -0.006023 0.031559 0.000000 -0.000637 0.000000
# 4 0.000000 0.000000 0.000000 0.029328 0.000000 -0.001245
# 5 0.002233 -0.003678 -0.000637 0.000000 0.036094 0.000000
# 6 0.000000 0.000000 0.000000 -0.001245 0.000000 0.019290
#
#
# Mechanical properties :
#
#
# Convention : Reuss Voigt Hill
#
# Bulk Modulus (GPa) = 43.91778 61.01876 52.46827
# Shear Modulus (GPa) = 28.00261 34.24459 31.12360
#
# Velocity S-wave (km/s) = 3.46782 3.83489 3.65597
# Velocity P-wave (km/s) = 5.90719 6.76854 6.35248
#
# Compressibility (1/GPa) = 0.02276982
#
# Stress axis : x y z
#
# Youngs Moduli (GPa) = 88.35564 85.94870 31.68710
#
# Poissons Ratio (x) = 0.29676 0.20263
# Poissons Ratio (y) = 0.30507 0.19086
# Poissons Ratio (z) = 0.56501 0.51770
#
# Static dielectric constant tensor:
#      x y z
#    x 5.008480 0.000000 -0.054940 
#    y 0.000000 4.529890 0.000000 
#    z -0.054940 0.000000 3.821170 
# 
# 
# High freq. dielectric constant tensor:
#      x y z
#    x 1.937510 0.000000 -0.006690 
#    y 0.000000 1.922760 0.000000 
#    z -0.006690 0.000000 1.897500 
# 
# From -- ./inp_files/178544.got.cif
#   From: 2010.06.25/outbox.cif.g09.slc.cpg/sg15_90_cif.got.tgz:178544.got - 2010.06.28 07:06:18.
