data_PCOD8133434
_publ_section_title
;
Structure prediction by ZEFSAII (Michael W. Deem and Ramdas Pophale) SiO2 
 PCOD8133434
Probable space group: C 2/C
;
_chemical_formula_sum "Si O2"
_cell_formula_units_Z 60
_cell_length_a 19.309668
_cell_length_b 23.278245
_cell_length_c 12.572881
_cell_angle_alpha 90.000000
_cell_angle_beta 143.561274
_cell_angle_gamma 90.000000
_cell_volume 3356.750596
_symmetry_space_group_name_H-M "C 2/C"
_symmetry_group_IT_number 15
_symmetry_cell_setting 'monoclinic'
loop_
_space_group_symop_operation_xyz
x,y,z
-x,y,1/2-z
-x,-y,-z
x,-y,1/2+z
1/2+x,1/2+y,z
1/2-x,1/2+y,1/2-z
1/2-x,1/2-y,-z
1/2+x,1/2-y,1/2+z
loop_
_atom_site_type_symbol
_atom_site_label
_atom_site_fract_x
_atom_site_fract_y
_atom_site_fract_z
Si Si1 0.318916 0.009035 0.043693
Si Si2 0.316039 0.083306 0.377474
Si Si3 0.244056 0.425559 0.365758
Si Si4 0.074694 0.269215 0.237053
Si Si5 0.500000 0.892057 0.750000
Si Si6 0.481424 0.139673 0.994910
Si Si7 0.285367 0.336563 0.583370
Si Si8 0.864095 0.007148 0.844832
O O1 0.189727 0.022364 0.837267
O O2 0.378122 0.960121 0.039579
O O3 0.388800 0.067753 0.128998
O O4 0.309533 0.984026 0.150784
O O5 0.409080 0.099884 0.402796
O O6 0.274080 0.142217 0.381639
O O7 0.200469 0.050710 0.189342
O O8 0.138109 0.391540 0.182147
O O9 0.314195 0.391444 0.544761
O O10 0.338713 0.440511 0.393498
O O11 0.012222 0.298586 0.057531
O O12 0.198523 0.299013 0.405275
O O13 0.099014 0.201237 0.247287
O O14 0.000000 0.279130 0.250000
O O15 0.485863 0.851836 0.628173
O O16 0.000000 0.000000 0.000000
#
# Coordination Sequence:
#
# PCOD8133434 Si02
#       8
#     8   8   8   8   4   8   8   8
#     4   9  20  31  50  81 111 150 188 224 274 342
#     4   9  18  34  52  80 111 151 178 229 278 336
#     4  10  19  35  53  80 115 148 183 236 282 329
#     4  10  19  33  55  83 110 139 178 241 294 332
#     4  12  20  32  54  86 116 148 192 224 290 326
#     4  11  20  33  56  80 116 143 189 245 285 332
#     4   9  19  33  54  83 110 134 184 231 296 335
#     4  10  21  34  48  77 118 158 187 214 268 353
#
# _framework density 17.874428000000002
#
# number of rings (size 3 to 8) (size 9 to 14) (size 15 to 20)
#    0.800    1.333    2.667    1.600    0.000    3.200 
#    0.000    0.000    0.000    0.800    0.000    1.867 
#    0.000    0.000    0.000    0.000    0.000    0.000 
#
# Total GULP energy -371713.537548 kJ/mol
# GULP energy per Si atom -12390.451252 kJ/mol
# Density = 1.783375 g / cm^3
# Si number density = 17.874428 Si / 1000 Ang^3
#
#
#
# Elastic Constant Matrix: (Units=GPa)
#
#
# Indices 1 2 3 4 5 6 
#
# 1 99.2347 37.1658 43.7318 0.0000 -7.4475 0.0000
# 2 37.1658 71.6570 31.0953 0.0000 -2.5613 0.0000
# 3 43.7318 31.0953 76.9574 0.0000 1.1238 0.0000
# 4 0.0000 0.0000 0.0000 23.4515 0.0000 5.4685
# 5 -7.4475 -2.5613 1.1238 0.0000 33.7494 0.0000
# 6 0.0000 0.0000 0.0000 5.4685 0.0000 22.6870
#
#
#
# Elastic Compliance Matrix: (Units=1/GPa)
#
#
# Indices 1 2 3 4 5 6 
#
# 1 0.015048 -0.004802 -0.006657 0.000000 0.003178 0.000000
# 2 -0.004802 0.018533 -0.004767 0.000000 0.000505 0.000000
# 3 -0.006657 -0.004767 0.018739 0.000000 -0.002455 0.000000
# 4 0.000000 0.000000 0.000000 0.045181 0.000000 -0.010890
# 5 0.003178 0.000505 -0.002455 0.000000 0.030452 0.000000
# 6 0.000000 0.000000 0.000000 -0.010890 0.000000 0.046703
#
#
# Mechanical properties :
#
#
# Convention : Reuss Voigt Hill
#
# Bulk Modulus (GPa) = 50.33382 52.42610 51.37996
# Shear Modulus (GPa) = 23.39401 25.03466 24.21434
#
# Velocity S-wave (km/s) = 3.62166 3.74650 3.68461
# Velocity P-wave (km/s) = 6.76087 6.93606 6.84902
#
# Compressibility (1/GPa) = 0.01986736
#
# Stress axis : x y z
#
# Youngs Moduli (GPa) = 66.45414 53.95855 53.36451
#
# Poissons Ratio (x) = 0.25913 0.35525
# Poissons Ratio (y) = 0.31914 0.25437
# Poissons Ratio (z) = 0.44239 0.25720
#
# Static dielectric constant tensor:
#      x y z
#    x 3.211290 0.000000 -0.144990 
#    y 0.000000 3.390280 0.000000 
#    z -0.144990 0.000000 3.152770 
# 
# 
# High freq. dielectric constant tensor:
#      x y z
#    x 1.685210 0.000000 -0.001940 
#    y 0.000000 1.671060 0.000000 
#    z -0.001940 0.000000 1.666900 
# 
# From -- ./inp_files/108109.got.cif
#   From: 2010.06.25/outbox.cif.g09.slc.cpg/sg15_55_cif.got.tgz:108109.got - 2010.06.28 07:06:18.
