data_PCOD8133820
_publ_section_title
;
Structure prediction by ZEFSAII (Michael W. Deem and Ramdas Pophale) SiO2 
 PCOD8133820
Probable space group: C 2/C
;
_chemical_formula_sum "Si O2"
_cell_formula_units_Z 60
_cell_length_a 16.376695
_cell_length_b 9.474847
_cell_length_c 22.433831
_cell_angle_alpha 90.000000
_cell_angle_beta 119.974874
_cell_angle_gamma 90.000000
_cell_volume 3015.382734
_symmetry_space_group_name_H-M "C 2/C"
_symmetry_group_IT_number 15
_symmetry_cell_setting 'monoclinic'
loop_
_space_group_symop_operation_xyz
x,y,z
-x,y,1/2-z
-x,-y,-z
x,-y,1/2+z
1/2+x,1/2+y,z
1/2-x,1/2+y,1/2-z
1/2-x,1/2-y,-z
1/2+x,1/2-y,1/2+z
loop_
_atom_site_type_symbol
_atom_site_label
_atom_site_fract_x
_atom_site_fract_y
_atom_site_fract_z
Si Si1 0.621823 0.090137 0.567249
Si Si2 0.500000 0.781521 0.250000
Si Si3 0.606031 0.259724 0.192528
Si Si4 0.835324 0.421320 0.127587
Si Si5 0.241289 0.835220 0.661227
Si Si6 0.971193 0.453676 0.585792
Si Si7 0.111200 0.075206 0.219298
Si Si8 0.765442 0.329527 0.865512
O O1 0.701160 0.204555 0.609282
O O2 0.565515 0.128078 0.486473
O O3 0.549499 0.070963 0.596374
O O4 0.671048 0.938915 0.575283
O O5 0.413819 0.886196 0.205922
O O6 0.524745 0.681072 0.202391
O O7 0.662972 0.201909 0.269790
O O8 0.515118 0.161246 0.147233
O O9 0.571629 0.416958 0.196514
O O10 0.673791 0.261174 0.159697
O O11 0.765289 0.542983 0.123449
O O12 0.883982 0.465820 0.083951
O O13 0.775271 0.277120 0.099560
O O14 0.159354 0.882022 0.675503
O O15 0.184796 0.083927 0.300836
#
# Coordination Sequence:
#
# PCOD8133820 Si02
#       8
#     8   4   8   8   8   8   8   8
#     4  10  21  42  60  84 111 167 186 242 278 365
#     4  10  22  34  58  86 128 142 194 242 302 326
#     4  10  19  36  59  90 114 153 186 248 279 354
#     4  11  21  37  56  90 112 157 186 253 280 350
#     4  11  21  34  65  86 117 146 203 231 297 329
#     4  10  23  38  62  82 125 147 201 230 305 329
#     4  10  19  34  57  90 114 150 189 246 284 348
#     4   9  19  35  60  84 116 146 202 228 291 341
#
# _framework density 19.897971999999999
#
# number of rings (size 3 to 8) (size 9 to 14) (size 15 to 20)
#    0.000    1.867    2.667    1.600    0.000    2.133 
#    0.000    0.667    2.933    0.000    0.000    0.000 
#    0.000    0.000    0.000    0.000    0.000    0.000 
#
# Total GULP energy -371978.105057 kJ/mol
# GULP energy per Si atom -12399.270169 kJ/mol
# Density = 1.985268 g / cm^3
# Si number density = 19.897972 Si / 1000 Ang^3
#
#
#
# Elastic Constant Matrix: (Units=GPa)
#
#
# Indices 1 2 3 4 5 6 
#
# 1 108.4389 51.2088 19.8487 0.0000 -7.9258 0.0000
# 2 51.2088 111.4749 41.2466 0.0000 -5.9533 0.0000
# 3 19.8487 41.2466 73.6484 0.0000 7.8230 0.0000
# 4 0.0000 0.0000 0.0000 21.6553 0.0000 1.4879
# 5 -7.9258 -5.9533 7.8230 0.0000 19.8505 0.0000
# 6 0.0000 0.0000 0.0000 1.4879 0.0000 24.2206
#
#
#
# Elastic Compliance Matrix: (Units=1/GPa)
#
#
# Indices 1 2 3 4 5 6 
#
# 1 0.012005 -0.005025 -0.000804 0.000000 0.003603 0.000000
# 2 -0.005025 0.014187 -0.007128 0.000000 0.005057 0.000000
# 3 -0.000804 -0.007128 0.018836 0.000000 -0.009882 0.000000
# 4 0.000000 0.000000 0.000000 0.046374 0.000000 -0.002849
# 5 0.003603 0.005057 -0.009882 0.000000 0.057226 0.000000
# 6 0.000000 0.000000 0.000000 -0.002849 0.000000 0.041462
#
#
# Mechanical properties :
#
#
# Convention : Reuss Voigt Hill
#
# Bulk Modulus (GPa) = 52.31729 57.57449 54.94589
# Shear Modulus (GPa) = 22.48443 25.22916 23.85680
#
# Velocity S-wave (km/s) = 3.36517 3.56466 3.46635
# Velocity P-wave (km/s) = 6.43809 6.77791 6.61019
#
# Compressibility (1/GPa) = 0.01911414
#
# Stress axis : x y z
#
# Youngs Moduli (GPa) = 83.29655 70.48941 53.08860
#
# Poissons Ratio (x) = 0.35421 0.04268
# Poissons Ratio (y) = 0.41857 0.37842
# Poissons Ratio (z) = 0.06697 0.50245
#
# Static dielectric constant tensor:
#      x y z
#    x 3.682080 0.000000 0.075390 
#    y 0.000000 3.620570 0.000000 
#    z 0.075390 0.000000 3.263870 
# 
# 
# High freq. dielectric constant tensor:
#      x y z
#    x 1.778350 0.000000 0.002820 
#    y 0.000000 1.777370 0.000000 
#    z 0.002820 0.000000 1.746900 
# 
# From -- ./inp_files/247418.got.cif
#   From: 2010.06.25/outbox.cif.g09.slc.cpg/sg15_124_cif.got.tgz:247418.got - 2010.06.28 07:06:18.
