data_PCOD8133605
_publ_section_title
;
Structure prediction by ZEFSAII (Michael W. Deem and Ramdas Pophale) SiO2 
 PCOD8133605
Probable space group: C 2/C
;
_chemical_formula_sum "Si O2"
_cell_formula_units_Z 64
_cell_length_a 22.622797
_cell_length_b 18.048405
_cell_length_c 15.605226
_cell_angle_alpha 90.000000
_cell_angle_beta 29.270937
_cell_angle_gamma 90.000000
_cell_volume 3115.378290
_symmetry_space_group_name_H-M "C 2/C"
_symmetry_group_IT_number 15
_symmetry_cell_setting 'monoclinic'
loop_
_space_group_symop_operation_xyz
x,y,z
-x,y,1/2-z
-x,-y,-z
x,-y,1/2+z
1/2+x,1/2+y,z
1/2-x,1/2+y,1/2-z
1/2-x,1/2-y,-z
1/2+x,1/2-y,1/2+z
loop_
_atom_site_type_symbol
_atom_site_label
_atom_site_fract_x
_atom_site_fract_y
_atom_site_fract_z
Si Si1 0.520591 0.573536 0.624760
Si Si2 0.572835 0.424248 0.821354
Si Si3 0.528052 0.823351 0.989124
Si Si4 0.096813 0.304053 0.184385
Si Si5 0.294365 0.102481 0.711849
Si Si6 0.896269 0.169681 0.658018
Si Si7 0.828646 0.146045 0.460956
Si Si8 0.259492 0.067173 0.229757
O O1 0.500000 0.557580 0.750000
O O2 0.485941 0.505524 0.605634
O O3 0.432988 0.641107 0.706525
O O4 0.661574 0.589100 0.426922
O O5 0.578467 0.401682 0.713201
O O6 0.701253 0.424744 0.708755
O O7 0.488893 0.365380 0.973602
O O8 0.457018 0.782019 0.155381
O O9 0.428225 0.865707 0.058355
O O10 0.594096 0.758874 0.851923
O O11 0.626400 0.879241 0.903297
O O12 0.130712 0.231488 0.085297
O O13 0.000000 0.349080 0.250000
O O14 0.207877 0.358519 0.056401
O O15 0.238823 0.144496 0.699074
O O16 0.308328 0.015742 0.678993
O O17 0.198108 0.113858 0.911546
#
# Coordination Sequence:
#
# PCOD8133605 Si02
#       8
#     8   8   8   8   8   8   8   8
#     4  11  23  41  65  87 113 155 214 273 316 351
#     4  11  20  37  60  90 120 157 201 258 303 361
#     4  11  24  36  64  85 130 170 198 250 306 381
#     4  10  19  34  48  87 122 159 187 231 295 362
#     4  11  22  39  58  92 127 165 204 243 306 373
#     4  11  22  39  59  91 118 156 208 258 310 363
#     4  10  21  30  56  86 122 150 197 236 290 365
#     4  11  22  41  61  90 122 163 208 249 307 375
#
# _framework density 20.543251000000001
#
# number of rings (size 3 to 8) (size 9 to 14) (size 15 to 20)
#    0.000    1.250    3.750    3.375    3.500    0.000 
#    0.000    0.625    0.000    0.000    0.000    0.000 
#    0.000    0.000    0.000    0.000    0.000    0.000 
#
# Total GULP energy -396703.933129 kJ/mol
# GULP energy per Si atom -12396.997910 kJ/mol
# Density = 2.049649 g / cm^3
# Si number density = 20.543251 Si / 1000 Ang^3
#
#
#
# Elastic Constant Matrix: (Units=GPa)
#
#
# Indices 1 2 3 4 5 6 
#
# 1 98.7926 27.7991 19.0526 0.0000 -18.1730 -0.0001
# 2 27.7991 98.5891 7.0817 0.0000 -6.2272 0.0000
# 3 19.0526 7.0817 50.9629 -0.0001 -10.1397 -0.0002
# 4 0.0000 0.0000 -0.0001 20.8884 0.0000 -6.3697
# 5 -18.1730 -6.2272 -10.1397 0.0000 40.1139 0.0001
# 6 -0.0001 0.0000 -0.0002 -6.3697 0.0001 -44.4109
#
#
#
# Elastic Compliance Matrix: (Units=1/GPa)
#
#
# Indices 1 2 3 4 5 6 
#
# 1 0.012403 -0.002984 -0.003366 0.000000 0.004305 0.000000
# 2 -0.002984 0.011027 -0.000364 0.000000 0.000268 0.000000
# 3 -0.003366 -0.000364 0.021708 0.000000 0.003906 0.000000
# 4 0.000000 0.000000 0.000000 0.045867 0.000000 -0.006579
# 5 0.004305 0.000268 0.003906 0.000000 0.027908 0.000000
# 6 0.000000 0.000000 0.000000 -0.006579 0.000000 -0.021573
#
#
# Mechanical properties :
#
#
# Convention : Reuss Voigt Hill
#
# Bulk Modulus (GPa) = 31.53313 39.57904 35.55608
# Shear Modulus (GPa) = 41.20761 16.27903 28.74332
#
# Velocity S-wave (km/s) = 4.48358 2.81806 3.74459
# Velocity P-wave (km/s) = 6.49510 5.46778 6.00345
#
# Compressibility (1/GPa) = 0.03171268
#
# Stress axis : x y z
#
# Youngs Moduli (GPa) = 80.62740 90.68292 46.06584
#
# Poissons Ratio (x) = 0.27055 0.15504
# Poissons Ratio (y) = 0.24055 0.01675
# Poissons Ratio (z) = 0.27137 0.03297
#
# Static dielectric constant tensor:
#      x y z
#    x 3.965090 0.000000 -0.287980 
#    y 0.000000 3.559610 0.000000 
#    z -0.287980 0.000000 3.607820 
# 
# 
# High freq. dielectric constant tensor:
#      x y z
#    x 1.815210 0.000000 -0.026980 
#    y 0.000000 1.793150 0.000000 
#    z -0.026980 0.000000 1.782380 
# 
# From -- ./inp_files/219900.got.cif
#   From: 2010.06.25/outbox.cif.g09.slc.cpg/sg15_110_cif.got.tgz:219900.got - 2010.06.28 07:06:18.
