data_PCOD8133417
_publ_section_title
;
Structure prediction by ZEFSAII (Michael W. Deem and Ramdas Pophale) SiO2 
 PCOD8133417
Probable space group: C 2/C
;
_chemical_formula_sum "Si O2"
_cell_formula_units_Z 52
_cell_length_a 11.118294
_cell_length_b 8.962026
_cell_length_c 26.346583
_cell_angle_alpha 90.000000
_cell_angle_beta 102.844298
_cell_angle_gamma 90.000000
_cell_volume 2559.548518
_symmetry_space_group_name_H-M "C 2/C"
_symmetry_group_IT_number 15
_symmetry_cell_setting 'monoclinic'
loop_
_space_group_symop_operation_xyz
x,y,z
-x,y,1/2-z
-x,-y,-z
x,-y,1/2+z
1/2+x,1/2+y,z
1/2-x,1/2+y,1/2-z
1/2-x,1/2-y,-z
1/2+x,1/2-y,1/2+z
loop_
_atom_site_type_symbol
_atom_site_label
_atom_site_fract_x
_atom_site_fract_y
_atom_site_fract_z
Si Si1 0.646230 0.054649 0.983785
Si Si2 0.154142 0.958701 0.077878
Si Si3 0.532167 0.757017 0.103411
Si Si4 0.476188 0.818649 0.939850
Si Si5 0.879806 0.536379 0.336983
Si Si6 0.328557 0.757413 0.162735
Si Si7 0.500000 0.934268 0.250000
O O1 0.779432 0.053456 0.970773
O O2 0.542153 0.156825 0.947123
O O3 0.598806 0.882444 0.977906
O O4 0.647277 0.115030 0.041970
O O5 0.029154 0.861025 0.059468
O O6 0.242066 0.883183 0.128336
O O7 0.116191 0.125249 0.088646
O O8 0.626265 0.867669 0.141773
O O9 0.432210 0.695358 0.134114
O O10 0.473477 0.871006 0.881358
O O11 0.746624 0.614282 0.324534
O O12 0.938084 0.539731 0.286476
O O13 0.392054 0.832024 0.217093
#
# Coordination Sequence:
#
# PCOD8133417 Si02
#       7
#     8   8   8   8   8   8   4
#     4   9  18  34  52  75 112 145 172 210 248 298
#     4  10  19  33  55  79 106 142 175 209 256 305
#     4   9  19  34  54  79 104 137 177 209 251 308
#     4   9  18  34  53  77 109 142 174 210 256 304
#     4   9  19  37  56  74 104 137 167 216 268 308
#     4   9  20  37  54  75 105 133 167 220 265 308
#     4  10  20  36  58  78  96 130 178 216 264 320
#
# _framework density 20.316085000000001
#
# number of rings (size 3 to 8) (size 9 to 14) (size 15 to 20)
#    0.000    2.769    0.000    1.385    0.000    4.308 
#    0.000   10.000    0.000    1.846    0.000    0.000 
#    0.000    0.000    0.000    0.000    0.000    0.000 
#
# Total GULP energy -322191.985238 kJ/mol
# GULP energy per Si atom -12391.999432 kJ/mol
# Density = 2.026984 g / cm^3
# Si number density = 20.316085 Si / 1000 Ang^3
#
#
#
# Elastic Constant Matrix: (Units=GPa)
#
#
# Indices 1 2 3 4 5 6 
#
# 1 56.9952 38.4415 9.5952 0.0000 -3.5231 0.0000
# 2 38.4415 90.8560 5.0580 0.0000 -6.9331 0.0000
# 3 9.5952 5.0580 66.5801 0.0000 -17.7294 0.0000
# 4 0.0000 0.0000 0.0000 6.5602 0.0000 0.1146
# 5 -3.5231 -6.9331 -17.7294 0.0000 25.4322 0.0000
# 6 0.0000 0.0000 0.0000 0.1146 0.0000 45.1375
#
#
#
# Elastic Compliance Matrix: (Units=1/GPa)
#
#
# Indices 1 2 3 4 5 6 
#
# 1 0.025125 -0.010577 -0.003264 0.000000 -0.001678 0.000000
# 2 -0.010577 0.015693 0.001328 0.000000 0.003738 0.000000
# 3 -0.003264 0.001328 0.018868 0.000000 0.013063 0.000000
# 4 0.000000 0.000000 0.000000 0.152442 0.000000 -0.000387
# 5 -0.001678 0.003738 0.013063 0.000000 0.049213 0.000000
# 6 0.000000 0.000000 0.000000 -0.000387 0.000000 0.022156
#
#
# Mechanical properties :
#
#
# Convention : Reuss Voigt Hill
#
# Bulk Modulus (GPa) = 28.85320 35.62450 32.23885
# Shear Modulus (GPa) = 15.62133 26.18175 20.90154
#
# Velocity S-wave (km/s) = 2.77594 3.59377 3.21100
# Velocity P-wave (km/s) = 4.95050 5.89860 5.44522
#
# Compressibility (1/GPa) = 0.03465820
#
# Stress axis : x y z
#
# Youngs Moduli (GPa) = 39.80127 63.72326 53.00119
#
# Poissons Ratio (x) = 0.67399 0.17301
# Poissons Ratio (y) = 0.42097 -0.07036
# Poissons Ratio (z) = 0.12992 -0.08460
#
# Static dielectric constant tensor:
#      x y z
#    x 3.544380 0.000000 -0.155630 
#    y 0.000000 3.630920 0.000000 
#    z -0.155630 0.000000 3.752420 
# 
# 
# High freq. dielectric constant tensor:
#      x y z
#    x 1.775720 0.000000 -0.016490 
#    y 0.000000 1.784730 0.000000 
#    z -0.016490 0.000000 1.793410 
# 
# From -- ./inp_files/291104.got.cif
#   From: 2010.06.25/outbox.cif.g09.slc.cpg/sg15_146_cif.got.tgz:291104.got - 2010.06.28 07:06:18.
