data_PCOD8133637
_publ_section_title
;
Structure prediction by ZEFSAII (Michael W. Deem and Ramdas Pophale) SiO2 
 PCOD8133637
Probable space group: C 2/C
;
_chemical_formula_sum "Si O2"
_cell_formula_units_Z 60
_cell_length_a 9.976545
_cell_length_b 22.783278
_cell_length_c 18.593658
_cell_angle_alpha 90.000000
_cell_angle_beta 49.387084
_cell_angle_gamma 90.000000
_cell_volume 3208.294828
_symmetry_space_group_name_H-M "C 2/C"
_symmetry_group_IT_number 15
_symmetry_cell_setting 'monoclinic'
loop_
_space_group_symop_operation_xyz
x,y,z
-x,y,1/2-z
-x,-y,-z
x,-y,1/2+z
1/2+x,1/2+y,z
1/2-x,1/2+y,1/2-z
1/2-x,1/2-y,-z
1/2+x,1/2-y,1/2+z
loop_
_atom_site_type_symbol
_atom_site_label
_atom_site_fract_x
_atom_site_fract_y
_atom_site_fract_z
Si Si1 0.500000 0.724904 0.750000
Si Si2 0.263633 0.895716 0.805346
Si Si3 0.362002 0.974996 0.246671
Si Si4 0.739247 0.147214 0.926853
Si Si5 0.959016 0.671440 0.362943
Si Si6 0.897738 0.934647 0.959604
Si Si7 0.015790 0.447317 0.048027
Si Si8 0.511539 0.434216 0.410377
O O1 0.327646 0.687538 0.834016
O O2 0.469174 0.765879 0.690714
O O3 0.367076 0.870765 0.699064
O O4 0.315031 0.857268 0.858070
O O5 0.052528 0.898139 0.864411
O O6 0.320279 0.962789 0.799686
O O7 0.500000 0.941140 0.250000
O O8 0.453641 0.982092 0.139299
O O9 0.182705 0.938332 0.299730
O O10 0.613965 0.104600 0.926945
O O11 0.890515 0.115120 0.918670
O O12 0.620575 0.180222 0.029323
O O13 0.709070 0.918039 0.991342
O O14 0.919005 0.916445 0.035176
O O15 0.907217 0.004763 0.948163
O O16 0.000000 0.500000 0.000000
#
# Coordination Sequence:
#
# PCOD8133637 Si02
#       8
#     4   8   8   8   8   8   8   8
#     4  10  24  40  62  90 114 144 206 264 316 338
#     4   9  18  32  57  83 110 154 208 234 274 347
#     4  11  19  32  51  80 124 163 195 226 287 365
#     4  12  22  40  59  91 122 151 198 258 301 345
#     4  10  20  38  65  88 105 153 206 262 296 350
#     4  10  19  34  52  87 121 163 194 225 278 365
#     4  12  24  34  53  89 131 162 194 240 297 355
#     4  10  20  32  57  80 121 163 196 225 282 363
#
# _framework density 18.701523000000002
#
# number of rings (size 3 to 8) (size 9 to 14) (size 15 to 20)
#    0.000    1.600    5.333    2.000    0.000    0.000 
#    0.000    2.000    0.000    3.200    6.933    0.000 
#    0.000    0.000    0.000    0.000    0.000    0.000 
#
# Total GULP energy -371684.455908 kJ/mol
# GULP energy per Si atom -12389.481864 kJ/mol
# Density = 1.865896 g / cm^3
# Si number density = 18.701523 Si / 1000 Ang^3
#
#
#
# Elastic Constant Matrix: (Units=GPa)
#
#
# Indices 1 2 3 4 5 6 
#
# 1 111.2589 37.6162 44.7051 0.0000 -16.2146 0.0000
# 2 37.6162 77.1386 40.4142 0.0000 -7.9808 0.0000
# 3 44.7051 40.4142 139.5086 -0.0001 -11.8337 0.0000
# 4 0.0000 0.0000 -0.0001 31.9816 0.0000 -5.1765
# 5 -16.2146 -7.9808 -11.8337 0.0000 32.1602 0.0000
# 6 0.0000 0.0000 0.0000 -5.1765 0.0000 13.7962
#
#
#
# Elastic Compliance Matrix: (Units=1/GPa)
#
#
# Indices 1 2 3 4 5 6 
#
# 1 0.011916 -0.004204 -0.002250 0.000000 0.004137 0.000000
# 2 -0.004204 0.016924 -0.003488 0.000000 0.000797 0.000000
# 3 -0.002250 -0.003488 0.009011 0.000000 0.001316 0.000000
# 4 0.000000 0.000000 0.000000 0.033290 0.000000 0.012491
# 5 0.004137 0.000797 0.001316 0.000000 0.033862 0.000000
# 6 0.000000 0.000000 0.000000 0.012491 0.000000 0.077171
#
#
# Mechanical properties :
#
#
# Convention : Reuss Voigt Hill
#
# Bulk Modulus (GPa) = 55.65652 63.70857 59.68254
# Shear Modulus (GPa) = 24.03317 29.26562 26.64939
#
# Velocity S-wave (km/s) = 3.58871 3.96015 3.77899
# Velocity P-wave (km/s) = 6.85542 7.41959 7.14308
#
# Compressibility (1/GPa) = 0.01796735
#
# Stress axis : x y z
#
# Youngs Moduli (GPa) = 83.91837 59.08913 110.97639
#
# Poissons Ratio (x) = 0.24843 0.24967
# Poissons Ratio (y) = 0.35281 0.38706
# Poissons Ratio (z) = 0.18879 0.20609
#
# Static dielectric constant tensor:
#      x y z
#    x 3.341640 0.000000 -0.323780 
#    y 0.000000 3.601130 0.000000 
#    z -0.323780 0.000000 3.780900 
# 
# 
# High freq. dielectric constant tensor:
#      x y z
#    x 1.706930 0.000000 -0.016750 
#    y 0.000000 1.692590 0.000000 
#    z -0.016750 0.000000 1.749030 
# 
# From -- ./inp_files/192512.got.cif
#   From: 2010.06.25/outbox.cif.g09.slc.cpg/sg15_97_cif.got.tgz:192512.got - 2010.06.28 07:06:18.
