data_PCOD8134679
_publ_section_title
;
Structure prediction by ZEFSAII (Michael W. Deem and Ramdas Pophale) SiO2 
 PCOD8134679
Probable space group: C 2/C
;
_chemical_formula_sum "Si O2"
_cell_formula_units_Z 64
_cell_length_a 27.931869
_cell_length_b 10.447852
_cell_length_c 23.126178
_cell_angle_alpha 90.000000
_cell_angle_beta 151.566269
_cell_angle_gamma 90.000000
_cell_volume 3213.418990
_symmetry_space_group_name_H-M "C 2/C"
_symmetry_group_IT_number 15
_symmetry_cell_setting 'monoclinic'
loop_
_space_group_symop_operation_xyz
x,y,z
-x,y,1/2-z
-x,-y,-z
x,-y,1/2+z
1/2+x,1/2+y,z
1/2-x,1/2+y,1/2-z
1/2-x,1/2-y,-z
1/2+x,1/2-y,1/2+z
loop_
_atom_site_type_symbol
_atom_site_label
_atom_site_fract_x
_atom_site_fract_y
_atom_site_fract_z
Si Si1 0.109373 0.782539 0.013812
Si Si2 0.606967 0.688893 0.893478
Si Si3 0.738740 0.410547 0.434109
Si Si4 0.266653 0.202595 0.453732
Si Si5 0.257542 0.756209 0.263404
Si Si6 0.389099 0.275011 0.806763
Si Si7 0.380611 0.575852 0.804780
Si Si8 0.397707 0.417575 0.984908
O O1 0.134345 0.759265 0.972646
O O2 0.182895 0.699478 0.134059
O O3 0.999753 0.729037 0.909682
O O4 0.119322 0.931913 0.039843
O O5 0.500000 0.715484 0.750000
O O6 0.679048 0.601122 0.930733
O O7 0.591010 0.614264 0.935858
O O8 0.662667 0.822685 0.963961
O O9 0.779911 0.551523 0.469014
O O10 0.659379 0.377282 0.299635
O O11 0.250000 0.250000 0.500000
O O12 0.172545 0.252486 0.316749
O O13 0.350401 0.806161 0.321662
O O14 0.194397 0.866484 0.227412
O O15 0.300925 0.653770 0.355021
O O16 0.380141 0.424444 0.813843
O O17 0.496884 0.623182 0.934515
#
# Coordination Sequence:
#
# PCOD8134679 Si02
#       8
#     8   8   8   8   8   8   8   8
#     4  10  22  40  61  87 120 154 203 251 290 356
#     4  11  21  37  61  92 125 155 198 248 297 363
#     4  10  21  38  59  87 124 156 193 246 299 352
#     4  10  21  40  63  88 118 157 195 245 305 354
#     4  11  20  34  58  84 119 147 191 250 297 341
#     4   9  21  38  59  84 114 153 202 246 287 352
#     4  10  19  36  60  84 111 154 200 244 290 344
#     4  11  21  36  63  91 112 159 206 244 299 354
#
# _framework density 19.916481000000001
#
# number of rings (size 3 to 8) (size 9 to 14) (size 15 to 20)
#    0.000    1.750    2.500    2.250    0.000    2.500 
#    2.250    0.000    5.500   11.250    0.000    0.000 
#    0.000    0.000    0.000    0.000    0.000    0.000 
#
# Total GULP energy -396601.240668 kJ/mol
# GULP energy per Si atom -12393.788771 kJ/mol
# Density = 1.987115 g / cm^3
# Si number density = 19.916481 Si / 1000 Ang^3
#
#
#
# Elastic Constant Matrix: (Units=GPa)
#
#
# Indices 1 2 3 4 5 6 
#
# 1 158.8320 35.4947 57.5695 0.0000 9.9626 0.0000
# 2 35.4947 45.8100 38.0537 0.0000 6.3391 0.0000
# 3 57.5695 38.0537 96.1292 0.0000 8.6999 0.0000
# 4 0.0000 0.0000 0.0000 27.3796 0.0000 -0.4477
# 5 9.9626 6.3391 8.6999 0.0000 42.7198 0.0000
# 6 0.0000 0.0000 0.0000 -0.4477 0.0000 32.5749
#
#
#
# Elastic Compliance Matrix: (Units=1/GPa)
#
#
# Indices 1 2 3 4 5 6 
#
# 1 0.008417 -0.003411 -0.003626 0.000000 -0.000719 0.000000
# 2 -0.003411 0.034119 -0.011286 0.000000 -0.001969 0.000000
# 3 -0.003626 -0.011286 0.017129 0.000000 -0.000968 0.000000
# 4 0.000000 0.000000 0.000000 0.036532 0.000000 0.000502
# 5 -0.000719 -0.001969 -0.000968 0.000000 0.024065 0.000000
# 6 0.000000 0.000000 0.000000 0.000502 0.000000 0.030705
#
#
# Mechanical properties :
#
#
# Convention : Reuss Voigt Hill
#
# Bulk Modulus (GPa) = 43.43740 62.55633 52.99687
# Shear Modulus (GPa) = 25.60335 31.84507 28.72421
#
# Velocity S-wave (km/s) = 3.58933 4.00300 3.80179
# Velocity P-wave (km/s) = 6.24778 7.26931 6.77782
#
# Compressibility (1/GPa) = 0.02302164
#
# Stress axis : x y z
#
# Youngs Moduli (GPa) = 118.80118 29.30884 58.37958
#
# Poissons Ratio (x) = 0.09996 0.21167
# Poissons Ratio (y) = 0.40520 0.65886
# Poissons Ratio (z) = 0.43075 0.33077
#
# Static dielectric constant tensor:
#      x y z
#    x 3.956860 0.000000 -0.063320 
#    y 0.000000 3.302410 0.000000 
#    z -0.063320 0.000000 3.898740 
# 
# 
# High freq. dielectric constant tensor:
#      x y z
#    x 1.802500 0.000000 -0.005430 
#    y 0.000000 1.741220 0.000000 
#    z -0.005430 0.000000 1.788190 
# 
# From -- ./inp_files/257514.got.cif
#   From: 2010.06.25/outbox.cif.g09.slc.cpg/sg15_129_cif.got.tgz:257514.got - 2010.06.28 07:06:18.
