data_PCOD8134400
_publ_section_title
;
Structure prediction by ZEFSAII (Michael W. Deem and Ramdas Pophale) SiO2 
 PCOD8134400
Probable space group: C 2/C
;
_chemical_formula_sum "Si O2"
_cell_formula_units_Z 48
_cell_length_a 19.549179
_cell_length_b 17.906383
_cell_length_c 13.862797
_cell_angle_alpha 90.000000
_cell_angle_beta 28.161104
_cell_angle_gamma 90.000000
_cell_volume 2290.263380
_symmetry_space_group_name_H-M "C 2/C"
_symmetry_group_IT_number 15
_symmetry_cell_setting 'monoclinic'
loop_
_space_group_symop_operation_xyz
x,y,z
-x,y,1/2-z
-x,-y,-z
x,-y,1/2+z
1/2+x,1/2+y,z
1/2-x,1/2+y,1/2-z
1/2-x,1/2-y,-z
1/2+x,1/2-y,1/2+z
loop_
_atom_site_type_symbol
_atom_site_label
_atom_site_fract_x
_atom_site_fract_y
_atom_site_fract_z
Si Si1 0.259006 0.994770 0.307760
Si Si2 0.510067 0.954911 0.125618
Si Si3 0.398384 0.364380 0.528118
Si Si4 0.642954 0.648110 0.867867
Si Si5 0.908902 0.309121 0.558085
Si Si6 0.054171 0.295032 0.581605
O O1 0.374856 0.998413 0.248644
O O2 0.180940 0.914174 0.400163
O O3 0.141917 0.059373 0.478285
O O4 0.340838 0.011752 0.104175
O O5 0.500000 0.971043 0.250000
O O6 0.491088 0.866271 0.126436
O O7 0.524229 0.387841 0.445420
O O8 0.254674 0.334483 0.760582
O O9 0.449010 0.294985 0.399523
O O10 0.572350 0.723674 0.002006
O O11 0.784972 0.673823 0.633342
O O12 0.950857 0.316623 0.619798
O O13 0.000000 0.330444 0.750000
#
# Coordination Sequence:
#
# PCOD8134400 Si02
#       6
#     8   8   8   8   8   8
#     4  10  20  39  60  86 118 154 197 242 295 349
#     4  10  21  40  63  86 114 155 204 241 284 351
#     4   9  20  34  55  83 123 157 185 239 297 343
#     4  10  19  35  63  85 120 157 193 242 298 339
#     4   9  19  38  58  85 115 156 199 240 287 345
#     4  10  20  36  59  88 119 158 199 235 290 357
#
# _framework density 20.958286999999999
#
# number of rings (size 3 to 8) (size 9 to 14) (size 15 to 20)
#    0.000    2.333    1.667    0.500    0.000    6.667 
#    6.000    0.833    0.000    0.000    0.000    0.000 
#    0.000    0.000    0.000    0.000    0.000    0.000 
#
# Total GULP energy -297388.067802 kJ/mol
# GULP energy per Si atom -12391.169492 kJ/mol
# Density = 2.091059 g / cm^3
# Si number density = 20.958287 Si / 1000 Ang^3
#
#
#
# Elastic Constant Matrix: (Units=GPa)
#
#
# Indices 1 2 3 4 5 6 
#
# 1 100.6335 29.2848 40.8127 0.0002 -6.6424 0.0003
# 2 29.2848 114.5781 2.6229 0.0004 -6.1031 -0.0003
# 3 40.8127 2.6229 37.9507 0.0003 -10.2081 0.0010
# 4 0.0002 0.0004 0.0003 18.5366 0.0003 -12.8799
# 5 -6.6424 -6.1031 -10.2081 0.0003 39.2522 -0.0009
# 6 0.0003 -0.0003 0.0010 -12.8799 -0.0009 28.5987
#
#
#
# Elastic Compliance Matrix: (Units=1/GPa)
#
#
# Indices 1 2 3 4 5 6 
#
# 1 0.020096 -0.004795 -0.022113 0.000001 -0.003096 0.000001
# 2 -0.004795 0.009947 0.005018 0.000000 0.002040 0.000000
# 3 -0.022113 0.005018 0.052672 -0.000002 0.010736 -0.000002
# 4 0.000001 0.000000 -0.000002 0.078518 0.000000 0.035362
# 5 -0.003096 0.002040 0.010736 0.000000 0.028062 0.000000
# 6 0.000001 0.000000 -0.000002 0.035362 0.000000 0.050892
#
#
# Mechanical properties :
#
#
# Convention : Reuss Voigt Hill
#
# Bulk Modulus (GPa) = 25.68409 44.28925 34.98667
# Shear Modulus (GPa) = 16.83810 29.30697 23.07253
#
# Velocity S-wave (km/s) = 2.83752 3.74351 3.32155
# Velocity P-wave (km/s) = 4.79759 6.31372 5.60714
#
# Compressibility (1/GPa) = 0.03893461
#
# Stress axis : x y z
#
# Youngs Moduli (GPa) = 49.76066 100.53266 18.98557
#
# Poissons Ratio (x) = 0.48206 0.41983
# Poissons Ratio (y) = 0.23860 -0.09527
# Poissons Ratio (z) = 1.10036 -0.50446
#
# Static dielectric constant tensor:
#      x y z
#    x 3.544090 0.000000 -0.413470 
#    y 0.000000 4.309420 0.000000 
#    z -0.413470 0.000000 3.459840 
# 
# 
# High freq. dielectric constant tensor:
#      x y z
#    x 1.803820 0.000000 -0.043720 
#    y 0.000000 1.843800 0.000000 
#    z -0.043720 0.000000 1.778620 
# 
# From -- ./inp_files/169331.got.cif
#   From: 2010.06.25/outbox.cif.g09.slc.cpg/sg15_85_cif.got.tgz:169331.got - 2010.06.28 07:06:18.
