data_PCOD8134820
_publ_section_title
;
Structure prediction by ZEFSAII (Michael W. Deem and Ramdas Pophale) SiO2 
 PCOD8134820
Probable space group: C 2/C
;
_chemical_formula_sum "Si O2"
_cell_formula_units_Z 64
_cell_length_a 11.126948
_cell_length_b 21.271043
_cell_length_c 21.118094
_cell_angle_alpha 90.000000
_cell_angle_beta 144.938080
_cell_angle_gamma 90.000000
_cell_volume 2871.312018
_symmetry_space_group_name_H-M "C 2/C"
_symmetry_group_IT_number 15
_symmetry_cell_setting 'monoclinic'
loop_
_space_group_symop_operation_xyz
x,y,z
-x,y,1/2-z
-x,-y,-z
x,-y,1/2+z
1/2+x,1/2+y,z
1/2-x,1/2+y,1/2-z
1/2-x,1/2-y,-z
1/2+x,1/2-y,1/2+z
loop_
_atom_site_type_symbol
_atom_site_label
_atom_site_fract_x
_atom_site_fract_y
_atom_site_fract_z
Si Si1 0.647672 0.143124 0.061222
Si Si2 0.349058 0.019444 0.076889
Si Si3 0.729078 0.534707 0.291663
Si Si4 0.971473 0.243267 0.542916
Si Si5 0.555662 0.692381 0.842939
Si Si6 0.913212 0.911736 0.572203
Si Si7 0.258248 0.868748 0.628346
Si Si8 0.741334 0.427990 0.396547
O O1 0.733515 0.100945 0.156346
O O2 0.648230 0.217462 0.081016
O O3 0.785871 0.139969 0.057049
O O4 0.416847 0.118787 0.942988
O O5 0.601324 0.018765 0.191053
O O6 0.249731 0.069151 0.081653
O O7 0.332127 0.036598 0.995885
O O8 0.239509 0.951304 0.041014
O O9 0.504972 0.537123 0.160813
O O10 0.690857 0.477645 0.321610
O O11 0.787694 0.294792 0.471769
O O12 0.079761 0.220515 0.656644
O O13 0.861459 0.186436 0.459058
O O14 0.500000 0.723917 0.750000
O O15 0.540869 0.616408 0.828714
O O16 0.115146 0.879813 0.627755
O O17 0.500000 0.851701 0.750000
#
# Coordination Sequence:
#
# PCOD8134820 Si02
#       8
#     8   8   8   8   8   8   8   8
#     4  10  21  38  60  94 126 173 216 279 338 388
#     4  11  21  41  60  97 133 169 222 275 342 394
#     4  11  21  37  64  99 133 167 221 282 337 408
#     4  10  23  41  61  88 133 170 225 284 325 404
#     4  10  21  35  61  94 121 170 219 277 341 386
#     4  12  24  38  68  98 136 181 221 274 346 413
#     4  12  25  43  65  94 135 187 232 274 336 413
#     4  10  19  36  63  90 133 161 210 283 333 395
#
# _framework density 22.289462
#
# number of rings (size 3 to 8) (size 9 to 14) (size 15 to 20)
#    0.000    1.250    5.000    1.875    3.500    1.500 
#    0.000    0.000    0.000    0.000    0.000    0.000 
#    0.000    0.000    0.000    0.000    0.000    0.000 
#
# Total GULP energy -396448.789470 kJ/mol
# GULP energy per Si atom -12389.024671 kJ/mol
# Density = 2.223873 g / cm^3
# Si number density = 22.289462 Si / 1000 Ang^3
#
#
#
# Elastic Constant Matrix: (Units=GPa)
#
#
# Indices 1 2 3 4 5 6 
#
# 1 138.9670 61.7623 28.4784 0.0004 5.2811 0.0002
# 2 61.7623 112.8405 36.8050 0.0005 -8.7836 0.0000
# 3 28.4784 36.8050 71.2949 0.0071 -7.5202 0.0002
# 4 0.0004 0.0005 0.0071 18.8173 0.0021 -3.9550
# 5 5.2811 -8.7836 -7.5202 0.0021 30.2339 -0.0001
# 6 0.0002 0.0000 0.0002 -3.9550 -0.0001 41.8310
#
#
#
# Elastic Compliance Matrix: (Units=1/GPa)
#
#
# Indices 1 2 3 4 5 6 
#
# 1 0.009996 -0.005205 -0.001694 0.000001 -0.003680 0.000000
# 2 -0.005205 0.013460 -0.004479 0.000001 0.003706 0.000000
# 3 -0.001694 -0.004479 0.017364 -0.000007 0.003314 -0.000001
# 4 0.000001 0.000001 -0.000007 0.054220 -0.000005 0.005126
# 5 -0.003680 0.003706 0.003314 -0.000005 0.035619 0.000000
# 6 0.000000 0.000000 -0.000001 0.005126 0.000000 0.024390
#
#
# Mechanical properties :
#
#
# Convention : Reuss Voigt Hill
#
# Bulk Modulus (GPa) = 55.35436 64.13265 59.74350
# Shear Modulus (GPa) = 27.19927 31.24689 29.22308
#
# Velocity S-wave (km/s) = 3.49703 3.74822 3.62480
# Velocity P-wave (km/s) = 6.41825 6.89690 6.66187
#
# Compressibility (1/GPa) = 0.01806543
#
# Stress axis : x y z
#
# Youngs Moduli (GPa) = 100.03602 74.29194 57.58886
#
# Poissons Ratio (x) = 0.38672 0.09755
# Poissons Ratio (y) = 0.52072 0.25792
# Poissons Ratio (z) = 0.16946 0.33272
#
# Static dielectric constant tensor:
#      x y z
#    x 4.128990 0.000000 0.125280 
#    y 0.000000 4.210800 0.000000 
#    z 0.125280 0.000000 4.107090 
# 
# 
# High freq. dielectric constant tensor:
#      x y z
#    x 1.867100 0.000000 -0.000630 
#    y 0.000000 1.874150 0.000000 
#    z -0.000630 0.000000 1.867340 
# 
# From -- ./inp_files/240428.got.cif
#   From: 2010.06.25/outbox.cif.g09.slc.cpg/sg15_121_cif.got.tgz:240428.got - 2010.06.28 07:06:18.
