data_PCOD8134774
_publ_section_title
;
Structure prediction by ZEFSAII (Michael W. Deem and Ramdas Pophale) SiO2 
 PCOD8134774
Probable space group: C 2/C
;
_chemical_formula_sum "Si O2"
_cell_formula_units_Z 56
_cell_length_a 14.171121
_cell_length_b 12.830234
_cell_length_c 23.881711
_cell_angle_alpha 90.000000
_cell_angle_beta 40.144037
_cell_angle_gamma 90.000000
_cell_volume 2799.429524
_symmetry_space_group_name_H-M "C 2/C"
_symmetry_group_IT_number 15
_symmetry_cell_setting 'monoclinic'
loop_
_space_group_symop_operation_xyz
x,y,z
-x,y,1/2-z
-x,-y,-z
x,-y,1/2+z
1/2+x,1/2+y,z
1/2-x,1/2+y,1/2-z
1/2-x,1/2-y,-z
1/2+x,1/2-y,1/2+z
loop_
_atom_site_type_symbol
_atom_site_label
_atom_site_fract_x
_atom_site_fract_y
_atom_site_fract_z
Si Si1 0.739964 0.171275 0.266087
Si Si2 0.039828 0.215220 0.166856
Si Si3 0.335171 0.492172 0.304263
Si Si4 0.921806 0.871270 0.162694
Si Si5 0.304368 0.501135 0.436806
Si Si6 0.109355 0.439567 0.123892
Si Si7 0.297622 0.001304 0.300733
O O1 0.599944 0.247770 0.338431
O O2 0.891222 0.236010 0.198797
O O3 0.753659 0.087221 0.310073
O O4 0.723169 0.117966 0.213021
O O5 0.114920 0.112490 0.106894
O O6 0.144825 0.315827 0.111247
O O7 0.000000 0.204574 0.250000
O O8 0.500000 0.523556 0.250000
O O9 0.344732 0.395414 0.257646
O O10 0.246104 0.465434 0.401597
O O11 0.844969 0.933462 0.147570
O O12 0.089021 0.910450 0.087814
O O13 0.167484 0.511532 0.540016
O O14 0.183955 0.502624 0.140925
O O15 0.935736 0.451716 0.206094
#
# Coordination Sequence:
#
# PCOD8134774 Si02
#       7
#     8   8   8   8   8   8   8
#     4  11  18  35  64  84 110 152 202 227 278 352
#     4  12  17  36  65  87 112 147 197 235 288 344
#     4   9  17  35  59  84 110 146 192 238 281 340
#     4  10  19  36  62  83 114 152 191 238 289 339
#     4  11  21  37  57  91 116 148 191 243 285 340
#     4  11  23  37  57  83 124 153 187 235 296 337
#     4  10  21  39  57  83 114 162 190 233 282 356
#
# _framework density 20.004073999999999
#
# number of rings (size 3 to 8) (size 9 to 14) (size 15 to 20)
#    0.000    1.429    8.571    0.429    0.000    0.571 
#    7.714    3.571    0.000    0.000    0.000    0.000 
#    0.000    0.000    0.000    0.000    0.000    0.000 
#
# Total GULP energy -346930.357729 kJ/mol
# GULP energy per Si atom -12390.369919 kJ/mol
# Density = 1.995854 g / cm^3
# Si number density = 20.004074 Si / 1000 Ang^3
#
#
#
# Elastic Constant Matrix: (Units=GPa)
#
#
# Indices 1 2 3 4 5 6 
#
# 1 70.2572 19.5098 7.8616 0.0000 10.9855 0.0000
# 2 19.5098 74.1323 -7.1021 0.0000 -2.5709 0.0000
# 3 7.8616 -7.1021 69.9334 0.0000 22.5267 0.0000
# 4 0.0000 0.0000 0.0000 17.5732 0.0000 -0.8509
# 5 10.9855 -2.5709 22.5267 0.0000 19.8243 0.0000
# 6 0.0000 0.0000 0.0000 -0.8509 0.0000 20.3945
#
#
#
# Elastic Compliance Matrix: (Units=1/GPa)
#
#
# Indices 1 2 3 4 5 6 
#
# 1 0.017252 -0.004818 0.001344 0.000000 -0.011712 0.000000
# 2 -0.004818 0.014968 0.000909 0.000000 0.003578 0.000000
# 3 0.001344 0.000909 0.022781 0.000000 -0.026513 0.000000
# 4 0.000000 0.000000 0.000000 0.057020 0.000000 0.002379
# 5 -0.011712 0.003578 -0.026513 0.000000 0.087524 0.000000
# 6 0.000000 0.000000 0.000000 0.002379 0.000000 0.049132
#
#
# Mechanical properties :
#
#
# Convention : Reuss Voigt Hill
#
# Bulk Modulus (GPa) = 20.05107 28.31794 24.18451
# Shear Modulus (GPa) = 18.48897 24.49530 21.49214
#
# Velocity S-wave (km/s) = 3.04346 3.50310 3.28134
# Velocity P-wave (km/s) = 4.73239 5.52713 5.14512
#
# Compressibility (1/GPa) = 0.04987264
#
# Stress axis : x y z
#
# Youngs Moduli (GPa) = 57.96359 66.80697 43.89648
#
# Poissons Ratio (x) = 0.32186 -0.05900
# Poissons Ratio (y) = 0.27926 -0.03992
# Poissons Ratio (z) = -0.07790 -0.06075
#
# Static dielectric constant tensor:
#      x y z
#    x 3.955360 0.000000 0.273210 
#    y 0.000000 3.635460 0.000000 
#    z 0.273210 0.000000 3.454720 
# 
# 
# High freq. dielectric constant tensor:
#      x y z
#    x 1.788620 0.000000 0.014090 
#    y 0.000000 1.774400 0.000000 
#    z 0.014090 0.000000 1.737080 
# 
# From -- ./inp_files/274154.got.cif
#   From: 2010.06.25/outbox.cif.g09.slc.cpg/sg15_138_cif.got.tgz:274154.got - 2010.06.28 07:06:18.
