data_PCOD8134835
_publ_section_title
;
Structure prediction by ZEFSAII (Michael W. Deem and Ramdas Pophale) SiO2 
 PCOD8134835
Probable space group: C 2/C
;
_chemical_formula_sum "Si O2"
_cell_formula_units_Z 60
_cell_length_a 16.899080
_cell_length_b 15.063546
_cell_length_c 11.849970
_cell_angle_alpha 90.000000
_cell_angle_beta 73.621657
_cell_angle_gamma 90.000000
_cell_volume 2894.120318
_symmetry_space_group_name_H-M "C 2/C"
_symmetry_group_IT_number 15
_symmetry_cell_setting 'monoclinic'
loop_
_space_group_symop_operation_xyz
x,y,z
-x,y,1/2-z
-x,-y,-z
x,-y,1/2+z
1/2+x,1/2+y,z
1/2-x,1/2+y,1/2-z
1/2-x,1/2-y,-z
1/2+x,1/2-y,1/2+z
loop_
_atom_site_type_symbol
_atom_site_label
_atom_site_fract_x
_atom_site_fract_y
_atom_site_fract_z
Si Si1 0.405541 0.401741 0.471862
Si Si2 0.906137 0.758385 0.825983
Si Si3 0.689052 0.748802 0.364242
Si Si4 0.548952 0.075909 0.618283
Si Si5 0.414602 0.101975 0.488383
Si Si6 0.091625 0.104192 0.979808
Si Si7 0.134219 0.817014 0.242023
Si Si8 0.000000 0.309036 0.750000
O O1 0.337834 0.338238 0.556521
O O2 0.384589 0.504509 0.496584
O O3 0.495527 0.382244 0.487296
O O4 0.399955 0.382054 0.341507
O O5 0.844288 0.766352 0.747352
O O6 0.892476 0.659195 0.879450
O O7 0.000000 0.772119 0.750000
O O8 0.883446 0.832201 0.927156
O O9 0.661429 0.840044 0.437286
O O10 0.787077 0.758365 0.323896
O O11 0.500000 0.041772 0.750000
O O12 0.481786 0.110949 0.557963
O O13 0.605287 0.001026 0.533781
O O14 0.446501 0.135308 0.356742
O O15 0.149361 0.126112 0.849003
O O16 0.061502 0.748938 0.301395
#
# Coordination Sequence:
#
# PCOD8134835 Si02
#       8
#     8   8   8   8   8   8   8   4
#     4  11  23  42  71  99 132 175 229 281 333 400
#     4  11  21  42  69  93 132 174 215 272 335 403
#     4  12  24  43  66  97 138 174 217 277 347 394
#     4  10  19  36  63  94 123 163 217 259 317 394
#     4  11  21  37  62  96 121 167 217 265 322 395
#     4  11  24  43  72  99 129 178 232 274 331 408
#     4  12  25  43  65  97 136 172 223 281 337 405
#     4  12  22  40  68  88 124 172 224 270 332 400
#
# _framework density 20.731687999999998
#
# number of rings (size 3 to 8) (size 9 to 14) (size 15 to 20)
#    0.000    0.800    7.333    1.200    1.867    0.533 
#    2.400    4.000    0.000    0.000    0.000    0.000 
#    0.000    0.000    0.000    0.000    0.000    0.000 
#
# Total GULP energy -371921.917312 kJ/mol
# GULP energy per Si atom -12397.397244 kJ/mol
# Density = 2.068450 g / cm^3
# Si number density = 20.731688 Si / 1000 Ang^3
#
#
#
# Elastic Constant Matrix: (Units=GPa)
#
#
# Indices 1 2 3 4 5 6 
#
# 1 57.9350 28.4814 13.9073 0.0000 -2.0968 0.0000
# 2 28.4814 127.4746 49.8313 0.0000 -4.0236 0.0000
# 3 13.9073 49.8313 97.3735 0.0000 17.4514 0.0000
# 4 0.0000 0.0000 0.0000 22.4475 0.0000 7.8895
# 5 -2.0968 -4.0236 17.4514 0.0000 35.3188 0.0000
# 6 0.0000 0.0000 0.0000 7.8895 0.0000 16.9513
#
#
#
# Elastic Compliance Matrix: (Units=1/GPa)
#
#
# Indices 1 2 3 4 5 6 
#
# 1 0.019471 -0.003928 -0.000985 0.000000 0.001195 0.000000
# 2 -0.003928 0.011127 -0.005836 0.000000 0.003918 0.000000
# 3 -0.000985 -0.005836 0.014841 0.000000 -0.008056 0.000000
# 4 0.000000 0.000000 0.000000 0.053261 0.000000 -0.024789
# 5 0.001195 0.003918 -0.008056 0.000000 0.032811 0.000000
# 6 0.000000 0.000000 0.000000 -0.024789 0.000000 0.070530
#
#
# Mechanical properties :
#
#
# Convention : Reuss Voigt Hill
#
# Bulk Modulus (GPa) = 41.76703 51.91367 46.84035
# Shear Modulus (GPa) = 21.59653 27.64773 24.62213
#
# Velocity S-wave (km/s) = 3.23106 3.65581 3.44998
# Velocity P-wave (km/s) = 5.84037 6.55095 6.20584
#
# Compressibility (1/GPa) = 0.02394233
#
# Stress axis : x y z
#
# Youngs Moduli (GPa) = 51.35761 89.87089 67.38245
#
# Poissons Ratio (x) = 0.35297 0.06639
# Poissons Ratio (y) = 0.20171 0.39321
# Poissons Ratio (z) = 0.05060 0.52444
#
# Static dielectric constant tensor:
#      x y z
#    x 3.490440 0.000000 0.155470 
#    y 0.000000 3.957820 0.000000 
#    z 0.155470 0.000000 3.904760 
# 
# 
# High freq. dielectric constant tensor:
#      x y z
#    x 1.783540 0.000000 0.021180 
#    y 0.000000 1.821150 0.000000 
#    z 0.021180 0.000000 1.825380 
# 
# From -- ./inp_files/105698.got.cif
#   From: 2010.06.25/outbox.cif.g09.slc.cpg/sg15_53_cif.got.tgz:105698.got - 2010.06.28 07:06:18.
