data_PCOD8134606
_publ_section_title
;
Structure prediction by ZEFSAII (Michael W. Deem and Ramdas Pophale) SiO2 
 PCOD8134606
Probable space group: C 2/C
;
_chemical_formula_sum "Si O2"
_cell_formula_units_Z 40
_cell_length_a 23.496906
_cell_length_b 8.932702
_cell_length_c 9.564794
_cell_angle_alpha 90.000000
_cell_angle_beta 101.786283
_cell_angle_gamma 90.000000
_cell_volume 1965.236016
_symmetry_space_group_name_H-M "C 2/C"
_symmetry_group_IT_number 15
_symmetry_cell_setting 'monoclinic'
loop_
_space_group_symop_operation_xyz
x,y,z
-x,y,1/2-z
-x,-y,-z
x,-y,1/2+z
1/2+x,1/2+y,z
1/2-x,1/2+y,1/2-z
1/2-x,1/2-y,-z
1/2+x,1/2-y,1/2+z
loop_
_atom_site_type_symbol
_atom_site_label
_atom_site_fract_x
_atom_site_fract_y
_atom_site_fract_z
Si Si1 0.343292 0.944320 0.151219
Si Si2 0.852859 0.127088 0.263439
Si Si3 0.371312 0.815620 0.884382
Si Si4 0.793568 0.059813 0.949450
Si Si5 0.038745 0.929402 0.139348
O O1 0.359723 0.805152 0.258775
O O2 0.275027 0.947535 0.089912
O O3 0.363964 0.095333 0.236274
O O4 0.376128 0.928197 0.018904
O O5 0.821387 0.087209 0.392933
O O6 0.916098 0.053580 0.284383
O O7 0.813313 0.062626 0.119162
O O8 0.315548 0.708123 0.879228
O O9 0.429309 0.716582 0.906003
O O10 0.000000 0.877662 0.250000
O O11 0.000000 0.000000 0.000000
#
# Coordination Sequence:
#
# PCOD8134606 Si02
#       5
#     8   8   8   8   8
#     4  11  20  37  57  88 125 149 180 238 289 344
#     4  10  21  36  59  86 112 152 197 231 281 345
#     4  10  23  37  58  88 118 155 195 231 286 347
#     4  10  19  36  58  87 121 156 186 225 283 352
#     4  11  23  44  64  81 109 152 201 247 286 336
#
# _framework density 20.353791000000001
#
# number of rings (size 3 to 8) (size 9 to 14) (size 15 to 20)
#    0.000    1.600    0.000    8.400    0.000    4.800 
#    0.000   12.000    0.000    0.000    0.000    0.000 
#    0.000    0.000    0.000    0.000    0.000    0.000 
#
# Total GULP energy -248068.127524 kJ/mol
# GULP energy per Si atom -12403.406376 kJ/mol
# Density = 2.030746 g / cm^3
# Si number density = 20.353791 Si / 1000 Ang^3
#
#
#
# Elastic Constant Matrix: (Units=GPa)
#
#
# Indices 1 2 3 4 5 6 
#
# 1 109.3669 43.7159 35.7542 0.0000 0.8513 0.0000
# 2 43.7159 64.5528 44.4093 0.0000 18.3396 0.0000
# 3 35.7542 44.4093 86.4290 0.0000 2.4340 0.0000
# 4 0.0000 0.0000 0.0000 40.7361 0.0000 -7.7092
# 5 0.8513 18.3396 2.4340 0.0000 31.6870 0.0000
# 6 0.0000 0.0000 0.0000 -7.7092 0.0000 10.4189
#
#
#
# Elastic Compliance Matrix: (Units=1/GPa)
#
#
# Indices 1 2 3 4 5 6 
#
# 1 0.013391 -0.010478 -0.000317 0.000000 0.005729 0.000000
# 2 -0.010478 0.038970 -0.015094 0.000000 -0.021114 0.000000
# 3 -0.000317 -0.015094 0.019253 0.000000 0.007266 0.000000
# 4 0.000000 0.000000 0.000000 0.028545 0.000000 0.021122
# 5 0.005729 -0.021114 0.007266 0.000000 0.043067 0.000000
# 6 0.000000 0.000000 0.000000 0.021122 0.000000 0.111608
#
#
# Mechanical properties :
#
#
# Convention : Reuss Voigt Hill
#
# Bulk Modulus (GPa) = 50.41770 56.45637 53.43704
# Shear Modulus (GPa) = 15.96306 25.66636 20.81471
#
# Velocity S-wave (km/s) = 2.80354 3.55492 3.20135
# Velocity P-wave (km/s) = 5.94173 6.68189 6.32265
#
# Compressibility (1/GPa) = 0.01983430
#
# Stress axis : x y z
#
# Youngs Moduli (GPa) = 74.67822 25.66101 51.94097
#
# Poissons Ratio (x) = 0.26887 0.01647
# Poissons Ratio (y) = 0.78247 0.78402
# Poissons Ratio (z) = 0.02368 0.38734
#
# Static dielectric constant tensor:
#      x y z
#    x 3.522530 0.000000 -0.049640 
#    y 0.000000 3.831120 0.000000 
#    z -0.049640 0.000000 3.821200 
# 
# 
# High freq. dielectric constant tensor:
#      x y z
#    x 1.791270 0.000000 -0.007830 
#    y 0.000000 1.789850 0.000000 
#    z -0.007830 0.000000 1.804660 
# 
# From -- ./inp_files/60081.got.cif
#   From: 2010.06.25/outbox.cif.g09.slc.cpg/sg15_31_cif.got.tgz:60081.got - 2010.06.28 07:06:18.
