data_PCOD8134382
_publ_section_title
;
Structure prediction by ZEFSAII (Michael W. Deem and Ramdas Pophale) SiO2 
 PCOD8134382
Probable space group: C 2/C
;
_chemical_formula_sum "Si O2"
_cell_formula_units_Z 56
_cell_length_a 18.694152
_cell_length_b 8.548361
_cell_length_c 26.732418
_cell_angle_alpha 90.000000
_cell_angle_beta 41.676797
_cell_angle_gamma 90.000000
_cell_volume 2840.543511
_symmetry_space_group_name_H-M "C 2/C"
_symmetry_group_IT_number 15
_symmetry_cell_setting 'monoclinic'
loop_
_space_group_symop_operation_xyz
x,y,z
-x,y,1/2-z
-x,-y,-z
x,-y,1/2+z
1/2+x,1/2+y,z
1/2-x,1/2+y,1/2-z
1/2-x,1/2-y,-z
1/2+x,1/2-y,1/2+z
loop_
_atom_site_type_symbol
_atom_site_label
_atom_site_fract_x
_atom_site_fract_y
_atom_site_fract_z
Si Si1 0.870019 0.129862 0.721245
Si Si2 0.881700 0.444635 0.552181
Si Si3 0.055059 0.373823 0.084359
Si Si4 0.659696 0.058747 0.318968
Si Si5 0.585793 0.467701 0.597620
Si Si6 0.816789 0.857165 0.360564
Si Si7 0.218432 0.601822 0.049577
O O1 0.853092 0.308591 0.715237
O O2 0.882106 0.127706 0.774966
O O3 0.772809 0.026059 0.751291
O O4 0.979347 0.065342 0.639646
O O5 0.883815 0.339706 0.500696
O O6 0.842187 0.361558 0.624222
O O7 0.807168 0.595895 0.582422
O O8 0.000000 0.500000 0.500000
O O9 0.056882 0.215627 0.115637
O O10 0.115829 0.510425 0.082336
O O11 0.933131 0.428547 0.138887
O O12 0.630648 0.521962 0.627776
O O13 0.675224 0.492502 0.507062
O O14 0.815316 0.675003 0.379206
O O15 0.250000 0.750000 0.000000
#
# Coordination Sequence:
#
# PCOD8134382 Si02
#       7
#     8   8   8   8   8   8   8
#     4  11  23  42  59  85 121 161 201 243 298 355
#     4   9  19  34  60  81 114 154 192 235 296 340
#     4  11  20  38  60  91 120 152 196 248 298 354
#     4  10  22  40  62  79 119 163 201 239 293 355
#     4  11  22  35  62  89 122 152 195 248 306 350
#     4  10  21  39  59  86 119 157 197 242 301 354
#     4  10  19  35  62  90 117 151 197 247 297 347
#
# _framework density 19.714535000000001
#
# number of rings (size 3 to 8) (size 9 to 14) (size 15 to 20)
#    0.000    1.714    2.857    3.429    2.000    0.000 
#    2.571    3.571    0.000    0.000    0.000    0.000 
#    0.000    0.000    0.000    0.000    0.000    0.000 
#
# Total GULP energy -347042.284923 kJ/mol
# GULP energy per Si atom -12394.367319 kJ/mol
# Density = 1.966966 g / cm^3
# Si number density = 19.714535 Si / 1000 Ang^3
#
#
#
# Elastic Constant Matrix: (Units=GPa)
#
#
# Indices 1 2 3 4 5 6 
#
# 1 98.8977 46.6017 36.8846 0.0001 -7.2858 -0.0023
# 2 46.6017 92.7668 11.9809 0.0003 9.3267 -0.0047
# 3 36.8846 11.9809 56.4352 -0.0002 -6.6058 -0.0006
# 4 0.0001 0.0003 -0.0002 25.1172 0.0001 -3.9448
# 5 -7.2858 9.3267 -6.6058 0.0001 34.6147 0.0006
# 6 -0.0023 -0.0047 -0.0006 -3.9448 0.0006 33.4524
#
#
#
# Elastic Compliance Matrix: (Units=1/GPa)
#
#
# Indices 1 2 3 4 5 6 
#
# 1 0.017741 -0.008115 -0.009389 0.000000 0.004129 0.000000
# 2 -0.008115 0.015230 0.001422 0.000000 -0.005540 0.000002
# 3 -0.009389 0.001422 0.023810 0.000000 0.002184 0.000000
# 4 0.000000 0.000000 0.000000 0.040565 0.000000 0.004783
# 5 0.004129 -0.005540 0.002184 0.000000 0.031668 -0.000001
# 6 0.000000 0.000002 0.000000 0.004783 -0.000001 0.030457
#
#
# Mechanical properties :
#
#
# Convention : Reuss Voigt Hill
#
# Bulk Modulus (GPa) = 40.62309 48.78159 44.70234
# Shear Modulus (GPa) = 25.02000 28.81236 26.91618
#
# Velocity S-wave (km/s) = 3.56633 3.82708 3.69900
# Velocity P-wave (km/s) = 6.13259 6.65780 6.40059
#
# Compressibility (1/GPa) = 0.02461654
#
# Stress axis : x y z
#
# Youngs Moduli (GPa) = 56.36601 65.66164 41.99957
#
# Poissons Ratio (x) = 0.53283 0.39434
# Poissons Ratio (y) = 0.45740 -0.05972
# Poissons Ratio (z) = 0.52923 -0.09337
#
# Static dielectric constant tensor:
#      x y z
#    x 3.823490 0.000000 0.092250 
#    y 0.000000 3.520160 0.000000 
#    z 0.092250 0.000000 4.025440 
# 
# 
# High freq. dielectric constant tensor:
#      x y z
#    x 1.774700 0.000000 -0.015350 
#    y 0.000000 1.745450 0.000000 
#    z -0.015350 0.000000 1.773990 
# 
# From -- ./inp_files/276507.got.cif
#   From: 2010.06.25/outbox.cif.g09.slc.cpg/sg15_139_cif.got.tgz:276507.got - 2010.06.28 07:06:18.
