data_PCOD8134595
_publ_section_title
;
Structure prediction by ZEFSAII (Michael W. Deem and Ramdas Pophale) SiO2 
 PCOD8134595
Probable space group: C 2/C
;
_chemical_formula_sum "Si O2"
_cell_formula_units_Z 56
_cell_length_a 9.255359
_cell_length_b 28.032793
_cell_length_c 20.370898
_cell_angle_alpha 90.000000
_cell_angle_beta 33.371080
_cell_angle_gamma 90.000000
_cell_volume 2907.229456
_symmetry_space_group_name_H-M "C 2/C"
_symmetry_group_IT_number 15
_symmetry_cell_setting 'monoclinic'
loop_
_space_group_symop_operation_xyz
x,y,z
-x,y,1/2-z
-x,-y,-z
x,-y,1/2+z
1/2+x,1/2+y,z
1/2-x,1/2+y,1/2-z
1/2-x,1/2-y,-z
1/2+x,1/2-y,1/2+z
loop_
_atom_site_type_symbol
_atom_site_label
_atom_site_fract_x
_atom_site_fract_y
_atom_site_fract_z
Si Si1 0.767603 0.211282 0.110521
Si Si2 0.723559 0.647588 0.988679
Si Si3 0.290833 0.821839 0.115489
Si Si4 0.720149 0.518600 0.335830
Si Si5 0.104791 0.092629 0.281810
Si Si6 0.423670 0.425130 0.056175
Si Si7 0.857169 0.360011 0.949227
O O1 0.500000 0.199188 0.250000
O O2 0.812542 0.267168 0.085708
O O3 0.742759 0.188293 0.047754
O O4 0.018852 0.190230 0.053236
O O5 0.615143 0.616424 0.089554
O O6 0.755987 0.616126 0.909303
O O7 0.007664 0.667957 0.901249
O O8 0.000000 0.834864 0.250000
O O9 0.361179 0.853664 0.025909
O O10 0.667532 0.539068 0.283212
O O11 0.722282 0.460507 0.336995
O O12 0.507814 0.541150 0.464622
O O13 0.000000 0.539176 0.250000
O O14 0.356077 0.127029 0.186101
O O15 0.000000 0.084875 0.250000
O O16 0.665450 0.403168 0.003772
#
# Coordination Sequence:
#
# PCOD8134595 Si02
#       7
#     8   8   8   8   8   8   8
#     4  10  20  36  62  90 116 153 200 250 289 337
#     4  10  20  37  61  85 118 153 199 241 290 347
#     4  11  24  38  54  86 128 162 192 234 296 354
#     4  10  19  36  58  85 115 141 189 241 288 350
#     4  11  20  35  62  91 114 144 196 254 294 338
#     4   9  21  35  58  87 108 149 191 237 290 343
#     4  11  20  38  61  87 117 155 198 241 290 350
#
# _framework density 19.262326000000002
#
# number of rings (size 3 to 8) (size 9 to 14) (size 15 to 20)
#    0.000    1.714    4.286    0.857    0.000    1.143 
#    0.000    5.000    0.000    0.000    0.000    0.000 
#    0.000    0.000    0.000    0.000    0.000    0.000 
#
# Total GULP energy -347103.573131 kJ/mol
# GULP energy per Si atom -12396.556183 kJ/mol
# Density = 1.921848 g / cm^3
# Si number density = 19.262326 Si / 1000 Ang^3
#
#
#
# Elastic Constant Matrix: (Units=GPa)
#
#
# Indices 1 2 3 4 5 6 
#
# 1 120.2763 42.7109 32.2538 0.0008 -18.3064 -0.0003
# 2 42.7109 91.7275 31.6779 0.0007 -4.0702 0.0009
# 3 32.2538 31.6779 64.7043 -0.0029 -16.5337 -0.0073
# 4 0.0008 0.0007 -0.0029 12.8269 0.0016 -3.8779
# 5 -18.3064 -4.0702 -16.5337 0.0016 32.9432 0.0031
# 6 -0.0003 0.0009 -0.0073 -3.8779 0.0031 10.8492
#
#
#
# Elastic Compliance Matrix: (Units=1/GPa)
#
#
# Indices 1 2 3 4 5 6 
#
# 1 0.011103 -0.004158 -0.002356 -0.000003 0.004474 -0.000003
# 2 -0.004158 0.014775 -0.006062 -0.000003 -0.003528 -0.000006
# 3 -0.002356 -0.006062 0.021877 0.000009 0.008921 0.000016
# 4 -0.000003 -0.000003 0.000009 0.087406 -0.000005 0.031242
# 5 0.004474 -0.003528 0.008921 -0.000005 0.036883 -0.000006
# 6 -0.000003 -0.000006 0.000016 0.031242 -0.000006 0.103340
#
#
# Mechanical properties :
#
#
# Convention : Reuss Voigt Hill
#
# Bulk Modulus (GPa) = 44.24191 54.44371 49.34281
# Shear Modulus (GPa) = 16.22999 22.66156 19.44578
#
# Velocity S-wave (km/s) = 2.90587 3.43369 3.18075
# Velocity P-wave (km/s) = 5.85463 6.63672 6.25791
#
# Compressibility (1/GPa) = 0.02260300
#
# Stress axis : x y z
#
# Youngs Moduli (GPa) = 90.06221 67.68209 45.71017
#
# Poissons Ratio (x) = 0.28142 0.10769
# Poissons Ratio (y) = 0.37447 0.27711
# Poissons Ratio (z) = 0.21219 0.41031
#
# Static dielectric constant tensor:
#      x y z
#    x 3.527270 0.000000 -0.043890 
#    y 0.000000 3.642060 0.000000 
#    z -0.043890 0.000000 3.387100 
# 
# 
# High freq. dielectric constant tensor:
#      x y z
#    x 1.752220 0.000000 -0.008020 
#    y 0.000000 1.750240 0.000000 
#    z -0.008020 0.000000 1.736880 
# 
# From -- ./inp_files/82126.got.cif
#   From: 2010.06.25/outbox.cif.g09.slc.cpg/sg15_42_cif.got.tgz:82126.got - 2010.06.28 07:06:18.
