data_PCOD8134270
_publ_section_title
;
Structure prediction by ZEFSAII (Michael W. Deem and Ramdas Pophale) SiO2 
 PCOD8134270
Probable space group: C 2/C
;
_chemical_formula_sum "Si O2"
_cell_formula_units_Z 48
_cell_length_a 11.429345
_cell_length_b 10.346294
_cell_length_c 17.280645
_cell_angle_alpha 90.000000
_cell_angle_beta 105.200944
_cell_angle_gamma 90.000000
_cell_volume 1971.963619
_symmetry_space_group_name_H-M "C 2/C"
_symmetry_group_IT_number 15
_symmetry_cell_setting 'monoclinic'
loop_
_space_group_symop_operation_xyz
x,y,z
-x,y,1/2-z
-x,-y,-z
x,-y,1/2+z
1/2+x,1/2+y,z
1/2-x,1/2+y,1/2-z
1/2-x,1/2-y,-z
1/2+x,1/2-y,1/2+z
loop_
_atom_site_type_symbol
_atom_site_label
_atom_site_fract_x
_atom_site_fract_y
_atom_site_fract_z
Si Si1 0.919487 0.496896 0.872865
Si Si2 0.515988 0.341288 0.417651
Si Si3 0.847768 0.614628 0.012355
Si Si4 0.851362 0.080394 0.013340
Si Si5 0.000000 0.910333 0.250000
Si Si6 0.184641 0.127428 0.324665
Si Si7 0.000000 0.666290 0.750000
O O1 0.821756 0.397813 0.818394
O O2 0.992502 0.579279 0.823929
O O3 0.014537 0.408071 0.933885
O O4 0.846815 0.591097 0.919837
O O5 0.647131 0.269167 0.463551
O O6 0.539351 0.493724 0.433278
O O7 0.401499 0.319180 0.456844
O O8 0.477928 0.318368 0.321552
O O9 0.754264 0.516373 0.037923
O O10 0.808153 0.159534 0.081517
O O11 0.883842 0.996768 0.211174
O O12 0.122253 0.248628 0.272392
#
# Coordination Sequence:
#
# PCOD8134270 Si02
#       7
#     8   8   8   8   4   8   4
#     4  10  23  38  57  87 117 155 208 250 299 372
#     4  10  19  35  59  85 117 158 196 250 310 356
#     4  10  21  38  56  83 121 155 200 254 294 357
#     4   9  19  36  61  87 112 156 209 242 298 374
#     4   9  20  35  54  86 120 149 198 251 300 364
#     4   9  20  40  59  83 120 156 199 255 300 356
#     4  11  22  41  66  88 122 167 198 249 320 358
#
# _framework density 24.341218000000001
#
# number of rings (size 3 to 8) (size 9 to 14) (size 15 to 20)
#    0.000    2.333    0.000    1.500    0.000    6.000 
#    0.000    8.333    0.000    0.000    0.000    0.000 
#    0.000    0.000    0.000    0.000    0.000    0.000 
#
# Total GULP energy -297413.141605 kJ/mol
# GULP energy per Si atom -12392.214234 kJ/mol
# Density = 2.428582 g / cm^3
# Si number density = 24.341218 Si / 1000 Ang^3
#
#
#
# Elastic Constant Matrix: (Units=GPa)
#
#
# Indices 1 2 3 4 5 6 
#
# 1 72.5679 5.1674 24.0896 0.0000 11.8250 0.0000
# 2 5.1674 45.7517 15.1342 0.0000 -6.6730 0.0000
# 3 24.0896 15.1342 106.2693 0.0000 -7.1386 0.0000
# 4 0.0000 0.0000 0.0000 21.7878 0.0000 -5.7877
# 5 11.8250 -6.6730 -7.1386 0.0000 33.5122 0.0000
# 6 0.0000 0.0000 0.0000 -5.7877 0.0000 25.0782
#
#
#
# Elastic Compliance Matrix: (Units=1/GPa)
#
#
# Indices 1 2 3 4 5 6 
#
# 1 0.016326 -0.001547 -0.003945 0.000000 -0.006909 0.000000
# 2 -0.001547 0.023605 -0.002697 0.000000 0.004672 0.000000
# 3 -0.003945 -0.002697 0.010902 0.000000 0.003177 0.000000
# 4 0.000000 0.000000 0.000000 0.048895 0.000000 0.011284
# 5 -0.006909 0.004672 0.003177 0.000000 0.033885 0.000000
# 6 0.000000 0.000000 0.000000 0.011284 0.000000 0.042480
#
#
# Mechanical properties :
#
#
# Convention : Reuss Voigt Hill
#
# Bulk Modulus (GPa) = 29.02291 34.81904 31.92098
# Shear Modulus (GPa) = 24.51530 28.08881 26.30205
#
# Velocity S-wave (km/s) = 3.17701 3.40068 3.29075
# Velocity P-wave (km/s) = 5.04054 5.45483 5.25177
#
# Compressibility (1/GPa) = 0.03445554
#
# Stress axis : x y z
#
# Youngs Moduli (GPa) = 61.25360 42.36311 91.72819
#
# Poissons Ratio (x) = 0.06553 0.36183
# Poissons Ratio (y) = 0.09474 0.24742
# Poissons Ratio (z) = 0.24162 0.11427
#
# Static dielectric constant tensor:
#      x y z
#    x 4.552020 0.000000 0.045290 
#    y 0.000000 4.369270 0.000000 
#    z 0.045290 0.000000 4.391820 
# 
# 
# High freq. dielectric constant tensor:
#      x y z
#    x 1.974250 0.000000 0.016330 
#    y 0.000000 1.962420 0.000000 
#    z 0.016330 0.000000 1.951030 
# 
# From -- ./inp_files/196632.got.cif
#   From: 2010.06.25/outbox.cif.g09.slc.cpg/sg15_99_cif.got.tgz:196632.got - 2010.06.28 07:06:18.
