data_PCOD8134357
_publ_section_title
;
Structure prediction by ZEFSAII (Michael W. Deem and Ramdas Pophale) SiO2 
 PCOD8134357
Probable space group: C 2/C
;
_chemical_formula_sum "Si O2"
_cell_formula_units_Z 60
_cell_length_a 15.180347
_cell_length_b 9.978634
_cell_length_c 21.838540
_cell_angle_alpha 90.000000
_cell_angle_beta 66.665380
_cell_angle_gamma 90.000000
_cell_volume 3037.505639
_symmetry_space_group_name_H-M "C 2/C"
_symmetry_group_IT_number 15
_symmetry_cell_setting 'monoclinic'
loop_
_space_group_symop_operation_xyz
x,y,z
-x,y,1/2-z
-x,-y,-z
x,-y,1/2+z
1/2+x,1/2+y,z
1/2-x,1/2+y,1/2-z
1/2-x,1/2-y,-z
1/2+x,1/2-y,1/2+z
loop_
_atom_site_type_symbol
_atom_site_label
_atom_site_fract_x
_atom_site_fract_y
_atom_site_fract_z
Si Si1 0.494077 0.312515 0.373441
Si Si2 0.207322 0.695281 0.450098
Si Si3 0.197750 0.804526 0.924222
Si Si4 0.795298 0.579028 0.278641
Si Si5 0.689809 0.568388 0.549890
Si Si6 0.991030 0.658166 0.494125
Si Si7 0.711556 0.303888 0.319150
Si Si8 0.000000 0.336836 0.750000
O O1 0.424271 0.441012 0.403357
O O2 0.472021 0.193477 0.428302
O O3 0.603177 0.359058 0.349766
O O4 0.471624 0.258128 0.313118
O O5 0.250000 0.750000 0.500000
O O6 0.243256 0.542437 0.437516
O O7 0.093368 0.715629 0.487078
O O8 0.245896 0.770272 0.378758
O O9 0.229277 0.864855 0.851091
O O10 0.278378 0.706262 0.927605
O O11 0.195069 0.926730 0.974243
O O12 0.095348 0.727395 0.943923
O O13 0.771607 0.423837 0.272343
O O14 0.777034 0.669213 0.223817
O O15 0.908049 0.572473 0.261760
O O16 0.000000 0.500000 0.500000
#
# Coordination Sequence:
#
# PCOD8134357 Si02
#       8
#     8   8   8   8   8   8   8   4
#     4   9  20  36  57  88 115 156 197 240 299 360
#     4  11  23  38  59  87 125 158 196 249 301 350
#     4  10  20  34  62  89 118 150 196 250 291 357
#     4  11  23  41  61  88 118 158 203 245 305 352
#     4  10  19  35  61  90 115 151 198 242 293 350
#     4  10  20  35  57  88 118 157 202 242 293 355
#     4  10  25  41  61  86 123 161 197 249 302 363
#     4  10  20  36  62  82 114 150 198 250 286 352
#
# _framework density 19.753049000000001
#
# number of rings (size 3 to 8) (size 9 to 14) (size 15 to 20)
#    0.000    1.867    2.667    0.800    1.867    3.200 
#    0.000    5.333    0.000    0.000    0.000    0.000 
#    0.000    0.000    0.000    0.000    0.000    0.000 
#
# Total GULP energy -371859.667318 kJ/mol
# GULP energy per Si atom -12395.322244 kJ/mol
# Density = 1.970809 g / cm^3
# Si number density = 19.753049 Si / 1000 Ang^3
#
#
#
# Elastic Constant Matrix: (Units=GPa)
#
#
# Indices 1 2 3 4 5 6 
#
# 1 104.5548 42.2414 52.2621 0.0000 -0.5779 0.0000
# 2 42.2414 78.8971 34.3179 0.0000 -1.0685 0.0000
# 3 52.2621 34.3179 106.9449 0.0000 2.8263 0.0000
# 4 0.0000 0.0000 0.0000 27.2213 0.0000 -0.7357
# 5 -0.5779 -1.0685 2.8263 0.0000 35.3895 0.0000
# 6 0.0000 0.0000 0.0000 -0.7357 0.0000 29.5940
#
#
#
# Elastic Compliance Matrix: (Units=1/GPa)
#
#
# Indices 1 2 3 4 5 6 
#
# 1 0.014406 -0.005391 -0.005323 0.000000 0.000498 0.000000
# 2 -0.005391 0.016772 -0.002765 0.000000 0.000639 0.000000
# 3 -0.005323 -0.002765 0.012871 0.000000 -0.001198 0.000000
# 4 0.000000 0.000000 0.000000 0.036761 0.000000 0.000914
# 5 0.000498 0.000639 -0.001198 0.000000 0.028380 0.000000
# 6 0.000000 0.000000 0.000000 0.000914 0.000000 0.033813
#
#
# Mechanical properties :
#
#
# Convention : Reuss Voigt Hill
#
# Bulk Modulus (GPa) = 58.50789 60.89328 59.70058
# Shear Modulus (GPa) = 28.46457 29.21266 28.83861
#
# Velocity S-wave (km/s) = 3.80020 3.84981 3.82508
# Velocity P-wave (km/s) = 6.99566 7.11727 7.05673
#
# Compressibility (1/GPa) = 0.01709171
#
# Stress axis : x y z
#
# Youngs Moduli (GPa) = 69.41639 59.62295 77.69550
#
# Poissons Ratio (x) = 0.32141 0.41359
# Poissons Ratio (y) = 0.37420 0.21480
# Poissons Ratio (z) = 0.36952 0.16483
#
# Static dielectric constant tensor:
#      x y z
#    x 4.086270 0.000000 -0.124640 
#    y 0.000000 3.797130 0.000000 
#    z -0.124640 0.000000 3.691510 
# 
# 
# High freq. dielectric constant tensor:
#      x y z
#    x 1.782640 0.000000 -0.004560 
#    y 0.000000 1.748790 0.000000 
#    z -0.004560 0.000000 1.773690 
# 
# From -- ./inp_files/273125.got.cif
#   From: 2010.06.25/outbox.cif.g09.slc.cpg/sg15_137_cif.got.tgz:273125.got - 2010.06.28 07:06:18.
