data_PCOD8134519
_publ_section_title
;
Structure prediction by ZEFSAII (Michael W. Deem and Ramdas Pophale) SiO2 
 PCOD8134519
Probable space group: C 2/C
;
_chemical_formula_sum "Si O2"
_cell_formula_units_Z 56
_cell_length_a 33.603687
_cell_length_b 14.174418
_cell_length_c 9.071148
_cell_angle_alpha 90.000000
_cell_angle_beta 137.086540
_cell_angle_gamma 90.000000
_cell_volume 2941.936203
_symmetry_space_group_name_H-M "C 2/C"
_symmetry_group_IT_number 15
_symmetry_cell_setting 'monoclinic'
loop_
_space_group_symop_operation_xyz
x,y,z
-x,y,1/2-z
-x,-y,-z
x,-y,1/2+z
1/2+x,1/2+y,z
1/2-x,1/2+y,1/2-z
1/2-x,1/2-y,-z
1/2+x,1/2-y,1/2+z
loop_
_atom_site_type_symbol
_atom_site_label
_atom_site_fract_x
_atom_site_fract_y
_atom_site_fract_z
Si Si1 0.500000 0.241178 0.750000
Si Si2 0.831646 0.162788 0.668786
Si Si3 0.708886 0.210063 0.686227
Si Si4 0.280553 0.065257 0.020940
Si Si5 0.626230 0.829201 0.545134
Si Si6 0.307152 0.147126 0.551358
Si Si7 0.452044 0.604423 0.909656
Si Si8 0.000000 0.949150 0.250000
O O1 0.443759 0.174090 0.622744
O O2 0.487157 0.306679 0.572800
O O3 0.832840 0.237863 0.540100
O O4 0.772060 0.103616 0.518346
O O5 0.845237 0.225314 0.851343
O O6 0.884704 0.095863 0.773232
O O7 0.728836 0.112010 0.664729
O O8 0.762892 0.277586 0.864587
O O9 0.672526 0.184375 0.734049
O O10 0.342484 0.093420 0.264298
O O11 0.275643 0.953765 0.985165
O O12 0.637336 0.859516 0.405881
O O13 0.457453 0.611152 0.743817
O O14 0.470781 0.508600 0.040644
#
# Coordination Sequence:
#
# PCOD8134519 Si02
#       8
#     4   8   8   8   8   8   8   4
#     4   9  20  36  60  78  97 156 202 218 289 338
#     4  10  19  36  57  79 113 154 186 223 288 347
#     4  10  21  35  52  84 116 144 184 233 278 344
#     4  11  20  37  58  80 116 153 180 229 300 343
#     4  10  19  39  57  79 113 149 187 237 278 342
#     4  11  21  34  56  85 115 145 189 237 282 332
#     4   9  19  34  56  79 109 151 188 231 283 338
#     4   9  18  36  50  80 121 140 184 244 273 332
#
# _framework density 19.035083
#
# number of rings (size 3 to 8) (size 9 to 14) (size 15 to 20)
#    0.000    2.000    2.857    1.714    0.000    2.286 
#    0.000    3.571    0.000    0.000    0.000    0.000 
#    0.000    0.000    0.000    0.000    0.000    0.000 
#
# Total GULP energy -346894.248306 kJ/mol
# GULP energy per Si atom -12389.080297 kJ/mol
# Density = 1.899176 g / cm^3
# Si number density = 19.035083 Si / 1000 Ang^3
#
#
#
# Elastic Constant Matrix: (Units=GPa)
#
#
# Indices 1 2 3 4 5 6 
#
# 1 126.8344 45.2902 61.5383 0.0000 -19.8802 0.0000
# 2 45.2902 67.2435 26.7189 0.0000 -4.9635 0.0000
# 3 61.5383 26.7189 74.9887 0.0000 -0.8755 0.0000
# 4 0.0000 0.0000 0.0000 4.5887 0.0000 -2.1933
# 5 -19.8802 -4.9635 -0.8755 0.0000 39.6230 0.0000
# 6 0.0000 0.0000 0.0000 -2.1933 0.0000 22.8732
#
#
#
# Elastic Compliance Matrix: (Units=1/GPa)
#
#
# Indices 1 2 3 4 5 6 
#
# 1 0.016872 -0.006230 -0.011539 0.000000 0.007430 0.000000
# 2 -0.006230 0.019790 -0.001947 0.000000 -0.000690 0.000000
# 3 -0.011539 -0.001947 0.023434 0.000000 -0.005516 0.000000
# 4 0.000000 0.000000 0.000000 0.228395 0.000000 0.021901
# 5 0.007430 -0.000690 -0.005516 0.000000 0.028757 0.000000
# 6 0.000000 0.000000 0.000000 0.021901 0.000000 0.045819
#
#
# Mechanical properties :
#
#
# Convention : Reuss Voigt Hill
#
# Bulk Modulus (GPa) = 48.39322 59.57349 53.98335
# Shear Modulus (GPa) = 12.21332 22.45159 17.33246
#
# Velocity S-wave (km/s) = 2.53577 3.43809 3.02081
# Velocity P-wave (km/s) = 5.83540 6.86478 6.37092
#
# Compressibility (1/GPa) = 0.02066405
#
# Stress axis : x y z
#
# Youngs Moduli (GPa) = 59.26840 50.53014 42.67277
#
# Poissons Ratio (x) = 0.31482 0.49242
# Poissons Ratio (y) = 0.36927 0.08306
# Poissons Ratio (z) = 0.68392 0.09836
#
# Static dielectric constant tensor:
#      x y z
#    x 3.671450 0.000000 -0.292840 
#    y 0.000000 3.415020 0.000000 
#    z -0.292840 0.000000 3.433350 
# 
# 
# High freq. dielectric constant tensor:
#      x y z
#    x 1.741470 0.000000 -0.020640 
#    y 0.000000 1.726580 0.000000 
#    z -0.020640 0.000000 1.726450 
# 
# From -- ./inp_files/69996.got.cif
#   From: 2010.06.25/outbox.cif.g09.slc.cpg/sg15_35_cif.got.tgz:69996.got - 2010.06.28 07:06:18.
