data_PCOD8134186
_publ_section_title
;
Structure prediction by ZEFSAII (Michael W. Deem and Ramdas Pophale) SiO2 
 PCOD8134186
Probable space group: C 2/C
;
_chemical_formula_sum "Si O2"
_cell_formula_units_Z 56
_cell_length_a 15.393918
_cell_length_b 17.651744
_cell_length_c 11.453376
_cell_angle_alpha 90.000000
_cell_angle_beta 58.406019
_cell_angle_gamma 90.000000
_cell_volume 2650.933009
_symmetry_space_group_name_H-M "C 2/C"
_symmetry_group_IT_number 15
_symmetry_cell_setting 'monoclinic'
loop_
_space_group_symop_operation_xyz
x,y,z
-x,y,1/2-z
-x,-y,-z
x,-y,1/2+z
1/2+x,1/2+y,z
1/2-x,1/2+y,1/2-z
1/2-x,1/2-y,-z
1/2+x,1/2-y,1/2+z
loop_
_atom_site_type_symbol
_atom_site_label
_atom_site_fract_x
_atom_site_fract_y
_atom_site_fract_z
Si Si1 0.077584 0.395255 0.442040
Si Si2 0.803470 0.360994 0.919783
Si Si3 0.644454 0.298160 0.429811
Si Si4 0.945243 0.754868 0.672241
Si Si5 0.881501 0.197525 0.815228
Si Si6 0.732907 0.346559 0.595307
Si Si7 0.356505 0.055457 0.156068
O O1 0.135663 0.402364 0.522103
O O2 0.106294 0.317617 0.354486
O O3 0.116238 0.467800 0.342047
O O4 0.957657 0.397734 0.551690
O O5 0.866300 0.286330 0.842549
O O6 0.802378 0.415964 0.810868
O O7 0.686765 0.345712 0.040810
O O8 0.522679 0.298802 0.533105
O O9 0.661455 0.323434 0.284110
O O10 0.703644 0.354072 0.478473
O O11 0.677969 0.213661 0.442005
O O12 0.862280 0.817784 0.761739
O O13 0.000000 0.723978 0.750000
O O14 0.000000 0.175620 0.750000
O O15 0.773968 0.428036 0.610709
#
# Coordination Sequence:
#
# PCOD8134186 Si02
#       7
#     8   8   8   8   8   8   8
#     4  11  23  39  60  90 129 170 205 254 331 384
#     4  11  23  40  58  92 126 161 206 256 314 379
#     4  10  19  35  57  93 125 160 207 259 314 369
#     4  10  20  34  60  93 126 160 211 264 315 375
#     4  11  22  36  66  92 123 159 206 266 314 370
#     4  10  20  36  59  90 128 162 211 262 310 369
#     4  11  23  40  61  90 129 169 210 259 311 392
#
# _framework density 21.124637
#
# number of rings (size 3 to 8) (size 9 to 14) (size 15 to 20)
#    0.000    1.429    2.857    3.000    4.000    2.286 
#    2.571    0.000    0.000    3.429    0.000    0.000 
#    0.000    0.000    0.000    0.000    0.000    0.000 
#
# Total GULP energy -347161.133650 kJ/mol
# GULP energy per Si atom -12398.611916 kJ/mol
# Density = 2.107656 g / cm^3
# Si number density = 21.124637 Si / 1000 Ang^3
#
#
#
# Elastic Constant Matrix: (Units=GPa)
#
#
# Indices 1 2 3 4 5 6 
#
# 1 111.9571 26.6375 41.4377 0.0000 -6.0291 0.0000
# 2 26.6375 36.5798 27.4639 0.0000 -3.7073 0.0000
# 3 41.4377 27.4639 114.1869 0.0000 -0.6890 0.0000
# 4 0.0000 0.0000 0.0000 23.1285 0.0000 -0.3016
# 5 -6.0291 -3.7073 -0.6890 0.0000 33.5288 0.0000
# 6 0.0000 0.0000 0.0000 -0.3016 0.0000 20.1035
#
#
#
# Elastic Compliance Matrix: (Units=1/GPa)
#
#
# Indices 1 2 3 4 5 6 
#
# 1 0.011467 -0.006222 -0.002657 0.000000 0.001319 0.000000
# 2 -0.006222 0.037159 -0.006662 0.000000 0.002853 0.000000
# 3 -0.002657 -0.006662 0.011318 0.000000 -0.000982 0.000000
# 4 0.000000 0.000000 0.000000 0.043245 0.000000 0.000649
# 5 0.001319 0.002853 -0.000982 0.000000 0.030358 0.000000
# 6 0.000000 0.000000 0.000000 0.000649 0.000000 0.049752
#
#
# Mechanical properties :
#
#
# Convention : Reuss Voigt Hill
#
# Bulk Modulus (GPa) = 34.64704 50.42243 42.53473
# Shear Modulus (GPa) = 22.32124 26.49782 24.40953
#
# Velocity S-wave (km/s) = 3.25413 3.54553 3.40295
# Velocity P-wave (km/s) = 5.52775 6.37824 5.96816
#
# Compressibility (1/GPa) = 0.02886250
#
# Stress axis : x y z
#
# Youngs Moduli (GPa) = 87.20930 26.91111 88.35312
#
# Poissons Ratio (x) = 0.16743 0.23474
# Poissons Ratio (y) = 0.54258 0.58865
# Poissons Ratio (z) = 0.23170 0.17929
#
# Static dielectric constant tensor:
#      x y z
#    x 3.976360 0.000000 0.013830 
#    y 0.000000 3.377930 0.000000 
#    z 0.013830 0.000000 4.082640 
# 
# 
# High freq. dielectric constant tensor:
#      x y z
#    x 1.839170 0.000000 -0.000800 
#    y 0.000000 1.776030 0.000000 
#    z -0.000800 0.000000 1.844580 
# 
# From -- ./inp_files/98659.got.cif
#   From: 2010.06.25/outbox.cif.g09.slc.cpg/sg15_50_cif.got.tgz:98659.got - 2010.06.28 07:06:18.
