data_PCOD8134241
_publ_section_title
;
Structure prediction by ZEFSAII (Michael W. Deem and Ramdas Pophale) SiO2 
 PCOD8134241
Probable space group: C 2/C
;
_chemical_formula_sum "Si O2"
_cell_formula_units_Z 64
_cell_length_a 14.963616
_cell_length_b 21.760504
_cell_length_c 8.730057
_cell_angle_alpha 90.000000
_cell_angle_beta 92.723379
_cell_angle_gamma 90.000000
_cell_volume 2839.434153
_symmetry_space_group_name_H-M "C 2/C"
_symmetry_group_IT_number 15
_symmetry_cell_setting 'monoclinic'
loop_
_space_group_symop_operation_xyz
x,y,z
-x,y,1/2-z
-x,-y,-z
x,-y,1/2+z
1/2+x,1/2+y,z
1/2-x,1/2+y,1/2-z
1/2-x,1/2-y,-z
1/2+x,1/2-y,1/2+z
loop_
_atom_site_type_symbol
_atom_site_label
_atom_site_fract_x
_atom_site_fract_y
_atom_site_fract_z
Si Si1 0.695935 0.608996 0.992896
Si Si2 0.134695 0.580213 0.006875
Si Si3 0.102701 0.976542 0.258724
Si Si4 0.183846 0.710962 0.596510
Si Si5 0.358166 0.957449 0.648775
Si Si6 0.976384 0.652275 0.077350
Si Si7 0.166440 0.083133 0.454980
Si Si8 0.395791 0.686744 0.246591
O O1 0.757255 0.558812 0.085833
O O2 0.639421 0.649732 0.107195
O O3 0.622031 0.576624 0.882706
O O4 0.762674 0.646815 0.882550
O O5 0.128362 0.549116 0.171114
O O6 0.234551 0.604339 0.992465
O O7 0.067303 0.638537 0.987803
O O8 0.115607 0.527718 0.881195
O O9 0.000000 0.996710 0.250000
O O10 0.160570 0.037058 0.307333
O O11 0.121465 0.952223 0.091031
O O12 0.250000 0.750000 0.500000
O O13 0.087439 0.702716 0.504665
O O14 0.159746 0.748263 0.751020
O O15 0.427176 0.912990 0.571032
O O16 0.000000 0.675792 0.250000
O O17 0.120764 0.147891 0.408678
O O18 0.500000 0.701747 0.250000
#
# Coordination Sequence:
#
# PCOD8134241 Si02
#       8
#     8   8   8   8   8   8   8   8
#     4  10  20  41  65  89 127 168 214 256 325 389
#     4  11  20  35  59  93 133 165 207 250 317 384
#     4  12  24  40  63  96 129 167 217 264 323 389
#     4   9  21  42  68  88 120 175 216 263 323 383
#     4  10  19  35  58  91 130 171 203 246 312 387
#     4   9  20  37  62  94 125 164 214 259 306 379
#     4  12  23  38  62  95 129 170 204 266 323 380
#     4  11  22  42  65  89 120 164 218 268 322 370
#
# _framework density 22.539702999999999
#
# number of rings (size 3 to 8) (size 9 to 14) (size 15 to 20)
#    0.000    1.500    2.500    3.375    1.750    0.000 
#    2.250    5.625    0.000    0.000    0.000    0.000 
#    0.000    0.000    0.000    0.000    0.000    0.000 
#
# Total GULP energy -396555.743976 kJ/mol
# GULP energy per Si atom -12392.366999 kJ/mol
# Density = 2.248840 g / cm^3
# Si number density = 22.539703 Si / 1000 Ang^3
#
#
#
# Elastic Constant Matrix: (Units=GPa)
#
#
# Indices 1 2 3 4 5 6 
#
# 1 121.7493 30.7660 22.9801 0.0000 -7.7679 0.0000
# 2 30.7660 56.3765 16.3108 0.0000 2.3130 0.0000
# 3 22.9801 16.3108 49.8564 0.0000 -1.4088 0.0000
# 4 0.0000 0.0000 0.0000 70.2462 0.0000 55.0488
# 5 -7.7679 2.3130 -1.4088 0.0000 33.4041 0.0000
# 6 0.0000 0.0000 0.0000 55.0488 0.0000 113.0341
#
#
#
# Elastic Compliance Matrix: (Units=1/GPa)
#
#
# Indices 1 2 3 4 5 6 
#
# 1 0.010157 -0.004766 -0.003050 0.000000 0.002563 0.000000
# 2 -0.004766 0.021917 -0.005054 0.000000 -0.002839 0.000000
# 3 -0.003050 -0.005054 0.023134 0.000000 0.000616 0.000000
# 4 0.000000 0.000000 0.000000 0.023022 0.000000 -0.011212
# 5 0.002563 -0.002839 0.000616 0.000000 0.030755 0.000000
# 6 0.000000 0.000000 0.000000 -0.011212 0.000000 0.014307
#
#
# Mechanical properties :
#
#
# Convention : Reuss Voigt Hill
#
# Bulk Modulus (GPa) = 33.93372 40.89955 37.41664
# Shear Modulus (GPa) = 31.47509 53.86523 42.67016
#
# Velocity S-wave (km/s) = 3.74094 4.89385 4.35571
# Velocity P-wave (km/s) = 5.80924 7.07941 6.47554
#
# Compressibility (1/GPa) = 0.02946921
#
# Stress axis : x y z
#
# Youngs Moduli (GPa) = 98.45294 45.62601 43.22574
#
# Poissons Ratio (x) = 0.21744 0.13184
# Poissons Ratio (y) = 0.46920 0.21846
# Poissons Ratio (z) = 0.30029 0.23059
#
# Static dielectric constant tensor:
#      x y z
#    x 4.626320 0.000000 0.005640 
#    y 0.000000 4.279440 0.000000 
#    z 0.005640 0.000000 3.938840 
# 
# 
# High freq. dielectric constant tensor:
#      x y z
#    x 1.906490 0.000000 -0.009000 
#    y 0.000000 1.876390 0.000000 
#    z -0.009000 0.000000 1.867970 
# 
# From -- ./inp_files/42661.got.cif
#   From: 2010.06.25/outbox.cif.g09.slc.cpg/sg15_22_cif.got.tgz:42661.got - 2010.06.28 07:06:18.
