data_PCOD8134296
_publ_section_title
;
Structure prediction by ZEFSAII (Michael W. Deem and Ramdas Pophale) SiO2 
 PCOD8134296
Probable space group: C 2/C
;
_chemical_formula_sum "Si O2"
_cell_formula_units_Z 60
_cell_length_a 24.420275
_cell_length_b 9.297045
_cell_length_c 22.293090
_cell_angle_alpha 90.000000
_cell_angle_beta 36.684957
_cell_angle_gamma 90.000000
_cell_volume 3023.720187
_symmetry_space_group_name_H-M "C 2/C"
_symmetry_group_IT_number 15
_symmetry_cell_setting 'monoclinic'
loop_
_space_group_symop_operation_xyz
x,y,z
-x,y,1/2-z
-x,-y,-z
x,-y,1/2+z
1/2+x,1/2+y,z
1/2-x,1/2+y,1/2-z
1/2-x,1/2-y,-z
1/2+x,1/2-y,1/2+z
loop_
_atom_site_type_symbol
_atom_site_label
_atom_site_fract_x
_atom_site_fract_y
_atom_site_fract_z
Si Si1 0.340311 0.152759 0.319600
Si Si2 0.000000 0.510310 0.250000
Si Si3 0.246613 0.367116 0.091126
Si Si4 0.398259 0.865362 0.634262
Si Si5 0.765130 0.573509 0.605141
Si Si6 0.216027 0.822273 0.727818
Si Si7 0.642027 0.149199 0.562963
Si Si8 0.905970 0.323390 0.074965
O O1 0.417630 0.111194 0.300008
O O2 0.386242 0.155902 0.214864
O O3 0.301218 0.310511 0.367872
O O4 0.255142 0.039277 0.398721
O O5 0.037572 0.407256 0.162702
O O6 0.204943 0.300468 0.187898
O O7 0.178640 0.321192 0.097438
O O8 0.346822 0.297243 0.986123
O O9 0.314304 0.795687 0.672285
O O10 0.490265 0.782155 0.533072
O O11 0.406008 0.033793 0.614787
O O12 0.709940 0.480562 0.703589
O O13 0.799313 0.472468 0.522002
O O14 0.849083 0.654279 0.563738
O O15 0.137324 0.805312 0.847249
#
# Coordination Sequence:
#
# PCOD8134296 Si02
#       8
#     8   4   8   8   8   8   8   8
#     4  11  20  37  60  86 117 160 195 248 297 359
#     4  10  22  34  62  86 118 146 212 254 286 366
#     4   9  19  35  62  80 114 149 200 240 295 354
#     4  10  20  33  61  88 118 153 201 240 302 349
#     4  10  21  35  63  83 125 161 197 242 304 361
#     4  10  19  37  58  89 120 158 197 252 296 352
#     4   9  19  39  58  87 108 156 201 250 294 345
#     4  10  19  35  59  90 117 156 200 245 288 364
#
# _framework density 19.843107
#
# number of rings (size 3 to 8) (size 9 to 14) (size 15 to 20)
#    0.000    2.133    2.667    0.800    0.000    3.200 
#    0.000    0.667    5.867    7.200    0.000    0.000 
#    0.000    0.000    0.000    0.000    0.000    0.000 
#
# Total GULP energy -371844.417832 kJ/mol
# GULP energy per Si atom -12394.813928 kJ/mol
# Density = 1.979794 g / cm^3
# Si number density = 19.843107 Si / 1000 Ang^3
#
#
#
# Elastic Constant Matrix: (Units=GPa)
#
#
# Indices 1 2 3 4 5 6 
#
# 1 70.6183 34.7828 37.0291 0.0004 3.5526 -0.0004
# 2 34.7828 94.8251 61.2759 -0.0024 -10.3589 0.0006
# 3 37.0291 61.2759 140.2211 -0.0011 -2.7559 0.0006
# 4 0.0004 -0.0024 -0.0011 30.2852 0.0006 1.1740
# 5 3.5526 -10.3589 -2.7559 0.0006 27.8278 -0.0003
# 6 -0.0004 0.0006 0.0006 1.1740 -0.0003 26.2295
#
#
#
# Elastic Compliance Matrix: (Units=1/GPa)
#
#
# Indices 1 2 3 4 5 6 
#
# 1 0.018511 -0.005697 -0.002492 -0.000001 -0.004730 0.000000
# 2 -0.005697 0.017130 -0.005853 0.000001 0.006524 0.000000
# 3 -0.002492 -0.005853 0.010331 0.000000 -0.000838 0.000000
# 4 -0.000001 0.000001 0.000000 0.033077 0.000000 -0.001480
# 5 -0.004730 0.006524 -0.000838 0.000000 0.038885 0.000000
# 6 0.000000 0.000000 0.000000 -0.001480 0.000000 0.038191
#
#
# Mechanical properties :
#
#
# Convention : Reuss Voigt Hill
#
# Bulk Modulus (GPa) = 55.90053 63.53777 59.71915
# Shear Modulus (GPa) = 26.29195 28.37362 27.33279
#
# Velocity S-wave (km/s) = 3.64399 3.78550 3.71542
# Velocity P-wave (km/s) = 6.77771 7.15516 6.96899
#
# Compressibility (1/GPa) = 0.01788892
#
# Stress axis : x y z
#
# Youngs Moduli (GPa) = 54.02172 58.37559 96.79519
#
# Poissons Ratio (x) = 0.33254 0.24121
# Poissons Ratio (y) = 0.30774 0.56658
# Poissons Ratio (z) = 0.13462 0.34169
#
# Static dielectric constant tensor:
#      x y z
#    x 3.579670 0.000000 0.123150 
#    y 0.000000 3.637070 0.000000 
#    z 0.123150 0.000000 3.891190 
# 
# 
# High freq. dielectric constant tensor:
#      x y z
#    x 1.767230 0.000000 0.022250 
#    y 0.000000 1.756260 0.000000 
#    z 0.022250 0.000000 1.773040 
# 
# From -- ./inp_files/304194.got.cif
#   From: 2010.06.25/outbox.cif.g09.slc.cpg/sg15_153_cif.got.tgz:304194.got - 2010.06.28 07:06:18.
