data_PCOD8134839
_publ_section_title
;
Structure prediction by ZEFSAII (Michael W. Deem and Ramdas Pophale) SiO2 
 PCOD8134839
Probable space group: C 2/C
;
_chemical_formula_sum "Si O2"
_cell_formula_units_Z 56
_cell_length_a 26.100739
_cell_length_b 8.842017
_cell_length_c 14.771719
_cell_angle_alpha 90.000000
_cell_angle_beta 132.292275
_cell_angle_gamma 90.000000
_cell_volume 2521.759243
_symmetry_space_group_name_H-M "C 2/C"
_symmetry_group_IT_number 15
_symmetry_cell_setting 'monoclinic'
loop_
_space_group_symop_operation_xyz
x,y,z
-x,y,1/2-z
-x,-y,-z
x,-y,1/2+z
1/2+x,1/2+y,z
1/2-x,1/2+y,1/2-z
1/2-x,1/2-y,-z
1/2+x,1/2-y,1/2+z
loop_
_atom_site_type_symbol
_atom_site_label
_atom_site_fract_x
_atom_site_fract_y
_atom_site_fract_z
Si Si1 0.125576 0.239554 0.627048
Si Si2 0.812297 0.316134 0.474264
Si Si3 0.722478 0.814675 0.258177
Si Si4 0.942938 0.874584 0.113158
Si Si5 0.484378 0.703426 0.137559
Si Si6 0.595404 0.393682 0.628475
Si Si7 0.191779 0.583218 0.345301
O O1 0.199713 0.241609 0.664670
O O2 0.124619 0.362017 0.707951
O O3 0.067293 0.298746 0.487302
O O4 0.103730 0.074437 0.637747
O O5 0.810847 0.391869 0.372585
O O6 0.869933 0.188937 0.558398
O O7 0.822519 0.443432 0.564622
O O8 0.740124 0.229480 0.395867
O O9 0.673132 0.673025 0.223405
O O10 0.724002 0.932541 0.342009
O O11 0.000000 0.803613 0.250000
O O12 0.949846 0.838611 0.013088
O O13 0.942670 0.055139 0.122020
O O14 0.500000 0.794648 0.250000
O O15 0.554953 0.659177 0.169545
#
# Coordination Sequence:
#
# PCOD8134839 Si02
#       7
#     8   8   8   8   8   8   8
#     4  10  19  36  64  84 114 157 208 244 296 348
#     4   9  20  35  58  89 113 153 204 246 276 357
#     4  10  20  40  57  86 126 157 186 249 306 356
#     4   9  17  30  59  82 110 142 199 242 288 332
#     4  10  21  35  55  88 120 152 194 255 297 343
#     4  10  21  37  58  89 122 149 194 256 302 344
#     4  10  20  35  62  84 116 154 200 239 293 352
#
# _framework density 22.206719
#
# number of rings (size 3 to 8) (size 9 to 14) (size 15 to 20)
#    0.000    2.286    0.000    5.143    6.000    0.000 
#    5.143    1.429    0.000    0.000    0.000    0.000 
#    0.000    0.000    0.000    0.000    0.000    0.000 
#
# Total GULP energy -346909.302027 kJ/mol
# GULP energy per Si atom -12389.617930 kJ/mol
# Density = 2.215618 g / cm^3
# Si number density = 22.206719 Si / 1000 Ang^3
#
#
#
# Elastic Constant Matrix: (Units=GPa)
#
#
# Indices 1 2 3 4 5 6 
#
# 1 65.5051 -8.2270 19.0701 0.0000 1.7526 0.0000
# 2 -8.2270 12.3111 -4.7844 0.0000 -4.9205 0.0000
# 3 19.0701 -4.7844 89.4203 0.0000 2.8590 0.0000
# 4 0.0000 0.0000 0.0000 21.0686 0.0000 0.7358
# 5 1.7526 -4.9205 2.8590 0.0000 36.5179 0.0000
# 6 0.0000 0.0000 0.0000 0.7358 0.0000 25.8015
#
#
#
# Elastic Compliance Matrix: (Units=1/GPa)
#
#
# Indices 1 2 3 4 5 6 
#
# 1 0.017530 0.010822 -0.003187 0.000000 0.000866 0.000000
# 2 0.010822 0.094162 0.002347 0.000000 0.011984 0.000000
# 3 -0.003187 0.002347 0.012003 0.000000 -0.000471 0.000000
# 4 0.000000 0.000000 0.000000 0.047511 0.000000 -0.001355
# 5 0.000866 0.011984 -0.000471 0.000000 0.028994 0.000000
# 6 0.000000 0.000000 0.000000 -0.001355 0.000000 0.038796
#
#
# Mechanical properties :
#
#
# Convention : Reuss Voigt Hill
#
# Bulk Modulus (GPa) = 6.96094 19.92821 13.44458
# Shear Modulus (GPa) = 18.73231 27.42278 23.07754
#
# Velocity S-wave (km/s) = 2.90753 3.51791 3.22718
# Velocity P-wave (km/s) = 3.79645 5.04919 4.46696
#
# Compressibility (1/GPa) = 0.14365867
#
# Stress axis : x y z
#
# Youngs Moduli (GPa) = 57.04563 10.62005 83.30928
#
# Poissons Ratio (x) = -0.11493 0.26552
# Poissons Ratio (y) = -0.61735 -0.19552
# Poissons Ratio (z) = 0.18181 -0.02492
#
# Static dielectric constant tensor:
#      x y z
#    x 3.954350 0.000000 -0.277960 
#    y 0.000000 3.405200 0.000000 
#    z -0.277960 0.000000 5.029110 
# 
# 
# High freq. dielectric constant tensor:
#      x y z
#    x 1.865180 0.000000 -0.007640 
#    y 0.000000 1.815520 0.000000 
#    z -0.007640 0.000000 1.899290 
# 
# From -- ./inp_files/180859.got.cif
#   From: 2010.06.25/outbox.cif.g09.slc.cpg/sg15_91_cif.got.tgz:180859.got - 2010.06.28 07:06:18.
