data_PCOD8134432
_publ_section_title
;
Structure prediction by ZEFSAII (Michael W. Deem and Ramdas Pophale) SiO2 
 PCOD8134432
Probable space group: C 2/C
;
_chemical_formula_sum "Si O2"
_cell_formula_units_Z 48
_cell_length_a 14.201906
_cell_length_b 28.441103
_cell_length_c 8.487657
_cell_angle_alpha 90.000000
_cell_angle_beta 38.920995
_cell_angle_gamma 90.000000
_cell_volume 2153.833536
_symmetry_space_group_name_H-M "C 2/C"
_symmetry_group_IT_number 15
_symmetry_cell_setting 'monoclinic'
loop_
_space_group_symop_operation_xyz
x,y,z
-x,y,1/2-z
-x,-y,-z
x,-y,1/2+z
1/2+x,1/2+y,z
1/2-x,1/2+y,1/2-z
1/2-x,1/2-y,-z
1/2+x,1/2-y,1/2+z
loop_
_atom_site_type_symbol
_atom_site_label
_atom_site_fract_x
_atom_site_fract_y
_atom_site_fract_z
Si Si1 0.843436 0.020774 0.145031
Si Si2 0.650074 0.734721 0.984129
Si Si3 0.199327 0.645500 0.833460
Si Si4 0.320547 0.563713 0.486842
Si Si5 0.166879 0.886186 0.016800
Si Si6 0.917503 0.663993 0.021819
O O1 0.758650 0.047596 0.396794
O O2 0.856771 0.058458 0.985563
O O3 0.755568 0.975277 0.193771
O O4 0.000000 0.000000 0.000000
O O5 0.500000 0.711471 0.250000
O O6 0.610570 0.780337 0.932026
O O7 0.750000 0.750000 0.000000
O O8 0.729910 0.697357 0.767504
O O9 0.262048 0.614853 0.606639
O O10 0.240539 0.620852 0.943195
O O11 0.021325 0.649909 0.036161
O O12 0.500000 0.564511 0.250000
O O13 0.000000 0.863464 0.250000
O O14 0.257963 0.862082 0.753836
O O15 0.000000 0.650489 0.750000
#
# Coordination Sequence:
#
# PCOD8134432 Si02
#       6
#     8   8   8   8   8   8
#     4  10  20  38  63 100 140 181 229 294 342 414
#     4  11  23  43  71 102 144 189 241 287 356 429
#     4  12  24  42  68 103 141 186 233 299 353 425
#     4  10  19  35  64  96 135 178 234 278 346 408
#     4  12  26  42  70 104 142 184 240 289 354 417
#     4  11  25  47  69 101 143 188 234 295 358 424
#
# _framework density 22.285844000000001
#
# number of rings (size 3 to 8) (size 9 to 14) (size 15 to 20)
#    0.000    1.000    3.333    6.500    2.333    0.667 
#    0.000    0.833    0.000    2.000    0.000    0.000 
#    0.000    0.000    0.000    0.000    0.000    0.000 
#
# Total GULP energy -297476.363883 kJ/mol
# GULP energy per Si atom -12394.848495 kJ/mol
# Density = 2.223512 g / cm^3
# Si number density = 22.285844 Si / 1000 Ang^3
#
#
#
# Elastic Constant Matrix: (Units=GPa)
#
#
# Indices 1 2 3 4 5 6 
#
# 1 126.9567 43.8184 28.3078 0.0000 6.4991 0.0000
# 2 43.8184 118.0352 40.4403 0.0000 2.0926 0.0000
# 3 28.3078 40.4403 98.4490 0.0000 -11.2007 0.0000
# 4 0.0000 0.0000 0.0000 16.1108 0.0000 4.8287
# 5 6.4991 2.0926 -11.2007 0.0000 34.5368 0.0000
# 6 0.0000 0.0000 0.0000 4.8287 0.0000 38.8124
#
#
#
# Elastic Compliance Matrix: (Units=1/GPa)
#
#
# Indices 1 2 3 4 5 6 
#
# 1 0.009360 -0.002828 -0.001776 0.000000 -0.002166 0.000000
# 2 -0.002828 0.010847 -0.003797 0.000000 -0.001356 0.000000
# 3 -0.001776 -0.003797 0.012763 0.000000 0.004703 0.000000
# 4 0.000000 0.000000 0.000000 0.064474 0.000000 -0.008021
# 5 -0.002166 -0.001356 0.004703 0.000000 0.030970 0.000000
# 6 0.000000 0.000000 0.000000 -0.008021 0.000000 0.026763
#
#
# Mechanical properties :
#
#
# Convention : Reuss Voigt Hill
#
# Bulk Modulus (GPa) = 61.85032 63.17488 62.51260
# Shear Modulus (GPa) = 28.19020 33.28362 30.73691
#
# Velocity S-wave (km/s) = 3.56045 3.86876 3.71780
# Velocity P-wave (km/s) = 6.68699 6.95453 6.82207
#
# Compressibility (1/GPa) = 0.01616806
#
# Stress axis : x y z
#
# Youngs Moduli (GPa) = 106.84269 92.19448 78.35151
#
# Poissons Ratio (x) = 0.26069 0.13916
# Poissons Ratio (y) = 0.30211 0.29748
# Poissons Ratio (z) = 0.18977 0.35004
#
# Static dielectric constant tensor:
#      x y z
#    x 4.139450 0.000000 0.073550 
#    y 0.000000 4.342670 0.000000 
#    z 0.073550 0.000000 4.134940 
# 
# 
# High freq. dielectric constant tensor:
#      x y z
#    x 1.876190 0.000000 0.011430 
#    y 0.000000 1.885280 0.000000 
#    z 0.011430 0.000000 1.860250 
# 
# From -- ./inp_files/43840.got.cif
#   From: 2010.06.25/outbox.cif.g09.slc.cpg/sg15_22_cif.got.tgz:43840.got - 2010.06.28 07:06:18.
