data_PCOD8134505
_publ_section_title
;
Structure prediction by ZEFSAII (Michael W. Deem and Ramdas Pophale) SiO2 
 PCOD8134505
Probable space group: C 2/C
;
_chemical_formula_sum "Si O2"
_cell_formula_units_Z 60
_cell_length_a 23.746341
_cell_length_b 19.792334
_cell_length_c 15.811350
_cell_angle_alpha 90.000000
_cell_angle_beta 26.341532
_cell_angle_gamma 90.000000
_cell_volume 3297.407027
_symmetry_space_group_name_H-M "C 2/C"
_symmetry_group_IT_number 15
_symmetry_cell_setting 'monoclinic'
loop_
_space_group_symop_operation_xyz
x,y,z
-x,y,1/2-z
-x,-y,-z
x,-y,1/2+z
1/2+x,1/2+y,z
1/2-x,1/2+y,1/2-z
1/2-x,1/2-y,-z
1/2+x,1/2-y,1/2+z
loop_
_atom_site_type_symbol
_atom_site_label
_atom_site_fract_x
_atom_site_fract_y
_atom_site_fract_z
Si Si1 0.500000 0.027813 0.250000
Si Si2 0.500572 0.473959 0.348446
Si Si3 0.730068 0.557154 0.650254
Si Si4 0.907143 0.881754 0.015930
Si Si5 0.779914 0.341064 0.375663
Si Si6 0.272208 0.581883 0.249784
Si Si7 0.845844 0.810813 0.780570
Si Si8 0.498549 0.947706 0.425443
O O1 0.373572 0.074465 0.427116
O O2 0.517897 0.982364 0.308912
O O3 0.500000 0.478904 0.250000
O O4 0.629810 0.439594 0.208287
O O5 0.487273 0.548897 0.404888
O O6 0.381380 0.428018 0.533718
O O7 0.693702 0.610939 0.771993
O O8 0.730248 0.480857 0.683323
O O9 0.838479 0.865719 0.020661
O O10 0.004958 0.821621 0.903159
O O11 0.825781 0.267353 0.286804
O O12 0.737596 0.338659 0.529600
O O13 0.891965 0.393378 0.209422
O O14 0.299424 0.651022 0.260506
O O15 0.136640 0.589716 0.387094
O O16 0.500000 0.000000 0.500000
#
# Coordination Sequence:
#
# PCOD8134505 Si02
#       8
#     4   8   8   8   8   8   8   8
#     4  10  22  34  58  84 124 146 176 248 300 328
#     4  11  20  32  60  86 112 145 194 236 281 334
#     4  10  19  36  56  83 114 150 188 234 290 332
#     4  11  21  38  56  83 116 151 192 229 280 343
#     4  11  24  35  58  86 115 158 191 224 284 355
#     4  10  20  37  53  81 117 152 182 238 288 331
#     4  11  22  38  55  84 123 152 187 230 282 354
#     4  11  23  38  58  85 119 150 196 241 296 346
#
# _framework density 18.196116
#
# number of rings (size 3 to 8) (size 9 to 14) (size 15 to 20)
#    0.000    1.333    2.667    6.000    5.600    0.000 
#    0.000    0.000    0.000    0.000    6.933    5.600 
#    0.000    0.000    0.000    0.000    0.000    0.000 
#
# Total GULP energy -372057.784689 kJ/mol
# GULP energy per Si atom -12401.926156 kJ/mol
# Density = 1.815470 g / cm^3
# Si number density = 18.196116 Si / 1000 Ang^3
#
#
#
# Elastic Constant Matrix: (Units=GPa)
#
#
# Indices 1 2 3 4 5 6 
#
# 1 68.8093 14.5520 28.9607 0.0004 -15.4348 -0.0002
# 2 14.5520 71.8614 34.6997 0.0001 -2.2423 -0.0001
# 3 28.9607 34.6997 129.9464 0.0008 -14.4112 -0.0005
# 4 0.0004 0.0001 0.0008 23.1378 -0.0003 5.9135
# 5 -15.4348 -2.2423 -14.4112 -0.0003 34.2059 0.0003
# 6 -0.0002 -0.0001 -0.0005 5.9135 0.0003 19.0980
#
#
#
# Elastic Compliance Matrix: (Units=1/GPa)
#
#
# Indices 1 2 3 4 5 6 
#
# 1 0.017577 -0.002086 -0.002618 0.000000 0.006692 0.000000
# 2 -0.002086 0.016243 -0.004048 0.000000 -0.001582 0.000000
# 3 -0.002618 -0.004048 0.009650 0.000000 0.002619 0.000000
# 4 0.000000 0.000000 0.000000 0.046933 0.000000 -0.014532
# 5 0.006692 -0.001582 0.002619 0.000000 0.033254 0.000000
# 6 0.000000 0.000000 0.000000 -0.014532 0.000000 0.056861
#
#
# Mechanical properties :
#
#
# Convention : Reuss Voigt Hill
#
# Bulk Modulus (GPa) = 38.51199 47.44911 42.98055
# Shear Modulus (GPa) = 24.19204 28.11533 26.15368
#
# Velocity S-wave (km/s) = 3.65021 3.93508 3.79532
# Velocity P-wave (km/s) = 6.24310 6.83956 6.54812
#
# Compressibility (1/GPa) = 0.02596594
#
# Stress axis : x y z
#
# Youngs Moduli (GPa) = 56.89234 61.56330 103.62319
#
# Poissons Ratio (x) = 0.12844 0.27130
# Poissons Ratio (y) = 0.11870 0.41946
# Poissons Ratio (z) = 0.14895 0.24921
#
# Static dielectric constant tensor:
#      x y z
#    x 3.300030 0.000000 -0.127970 
#    y 0.000000 3.088580 0.000000 
#    z -0.127970 0.000000 3.765600 
# 
# 
# High freq. dielectric constant tensor:
#      x y z
#    x 1.713900 0.000000 -0.012460 
#    y 0.000000 1.667420 0.000000 
#    z -0.012460 0.000000 1.720240 
# 
# From -- ./inp_files/98288.got.cif
#   From: 2010.06.25/outbox.cif.g09.slc.cpg/sg15_50_cif.got.tgz:98288.got - 2010.06.28 07:06:18.
