data_PCOD8134558
_publ_section_title
;
Structure prediction by ZEFSAII (Michael W. Deem and Ramdas Pophale) SiO2 
 PCOD8134558
Probable space group: C 2/C
;
_chemical_formula_sum "Si O2"
_cell_formula_units_Z 48
_cell_length_a 8.209470
_cell_length_b 14.607242
_cell_length_c 27.947686
_cell_angle_alpha 90.000000
_cell_angle_beta 43.127900
_cell_angle_gamma 90.000000
_cell_volume 2291.130525
_symmetry_space_group_name_H-M "C 2/C"
_symmetry_group_IT_number 15
_symmetry_cell_setting 'monoclinic'
loop_
_space_group_symop_operation_xyz
x,y,z
-x,y,1/2-z
-x,-y,-z
x,-y,1/2+z
1/2+x,1/2+y,z
1/2-x,1/2+y,1/2-z
1/2-x,1/2-y,-z
1/2+x,1/2-y,1/2+z
loop_
_atom_site_type_symbol
_atom_site_label
_atom_site_fract_x
_atom_site_fract_y
_atom_site_fract_z
Si Si1 0.457612 0.922627 0.841998
Si Si2 0.580094 0.224623 0.579236
Si Si3 0.538209 0.271073 0.187526
Si Si4 0.395547 0.468171 0.219694
Si Si5 0.753046 0.534740 0.961302
Si Si6 0.949670 0.078143 0.398823
O O1 0.539680 0.816259 0.827816
O O2 0.205078 0.930119 0.869703
O O3 0.640037 0.983361 0.771933
O O4 0.441740 0.960791 0.900118
O O5 0.750000 0.250000 0.500000
O O6 0.312658 0.202412 0.618805
O O7 0.685304 0.131182 0.579248
O O8 0.582237 0.315829 0.612004
O O9 0.500000 0.239178 0.250000
O O10 0.375338 0.360019 0.211464
O O11 0.500000 0.481782 0.250000
O O12 0.569884 0.514243 0.143276
O O13 0.500000 0.500000 0.000000
O O14 0.754811 0.547508 0.018691
#
# Coordination Sequence:
#
# PCOD8134558 Si02
#       6
#     8   8   8   8   8   8
#     4  10  19  36  58  79 106 146 189 229 269 334
#     4   9  17  34  58  81 107 148 189 218 267 344
#     4  10  20  35  56  79 108 150 191 225 275 344
#     4  11  22  36  54  82 114 145 183 233 284 328
#     4   9  17  31  56  86 109 136 183 233 272 319
#     4   9  19  36  59  81 107 147 189 224 270 333
#
# _framework density 20.950357
#
# number of rings (size 3 to 8) (size 9 to 14) (size 15 to 20)
#    0.000    2.333    0.000    5.500    0.000    0.000 
#    0.000   13.333    0.000    1.000    0.000    0.000 
#    0.000    0.000    0.000    0.000    0.000    0.000 
#
# Total GULP energy -297321.928666 kJ/mol
# GULP energy per Si atom -12388.413694 kJ/mol
# Density = 2.090267 g / cm^3
# Si number density = 20.950357 Si / 1000 Ang^3
#
#
#
# Elastic Constant Matrix: (Units=GPa)
#
#
# Indices 1 2 3 4 5 6 
#
# 1 27.9448 42.5875 20.4132 -0.0050 7.6038 0.0048
# 2 42.5875 229.1342 76.2456 -0.0005 14.8641 0.0008
# 3 20.4132 76.2456 124.5410 -0.0039 8.6826 0.0044
# 4 -0.0050 -0.0005 -0.0039 43.5588 0.0059 -0.8342
# 5 7.6038 14.8641 8.6826 0.0059 34.8463 -0.0051
# 6 0.0048 0.0008 0.0044 -0.8342 -0.0051 30.5616
#
#
#
# Elastic Compliance Matrix: (Units=1/GPa)
#
#
# Indices 1 2 3 4 5 6 
#
# 1 0.052610 -0.008301 -0.003041 0.000006 -0.007182 -0.000009
# 2 -0.008301 0.006872 -0.002817 -0.000001 -0.000418 0.000001
# 3 -0.003041 -0.002817 0.010302 0.000001 -0.000702 -0.000001
# 4 0.000006 -0.000001 0.000001 0.022969 -0.000005 0.000627
# 5 -0.007182 -0.000418 -0.000702 -0.000005 0.030618 0.000006
# 6 -0.000009 0.000001 -0.000001 0.000627 0.000006 0.032738
#
#
# Mechanical properties :
#
#
# Convention : Reuss Voigt Hill
#
# Bulk Modulus (GPa) = 24.11610 73.34584 48.73097
# Shear Modulus (GPa) = 25.22104 37.95161 31.58633
#
# Velocity S-wave (km/s) = 3.47342 4.26079 3.88709
# Velocity P-wave (km/s) = 5.25568 7.70007 6.59217
#
# Compressibility (1/GPa) = 0.04146608
#
# Stress axis : x y z
#
# Youngs Moduli (GPa) = 19.00779 145.52744 97.07295
#
# Poissons Ratio (x) = 1.20795 0.29518
# Poissons Ratio (y) = 0.15777 0.27347
# Poissons Ratio (z) = 0.05780 0.40998
#
# Static dielectric constant tensor:
#      x y z
#    x 3.079550 0.000010 0.040220 
#    y 0.000010 4.955800 -0.000010 
#    z 0.040220 -0.000010 4.523930 
# 
# 
# High freq. dielectric constant tensor:
#      x y z
#    x 1.743600 0.000000 -0.011400 
#    y 0.000000 1.842420 0.000000 
#    z -0.011400 0.000000 1.849500 
# 
# From -- ./inp_files/287549.got.cif
#   From: 2010.06.25/outbox.cif.g09.slc.cpg/sg15_144_cif.got.tgz:287549.got - 2010.06.28 07:06:18.
