data_PCOD8134768
_publ_section_title
;
Structure prediction by ZEFSAII (Michael W. Deem and Ramdas Pophale) SiO2 
 PCOD8134768
Probable space group: C 2/C
;
_chemical_formula_sum "Si O2"
_cell_formula_units_Z 60
_cell_length_a 19.756888
_cell_length_b 22.929696
_cell_length_c 10.825329
_cell_angle_alpha 90.000000
_cell_angle_beta 32.867910
_cell_angle_gamma 90.000000
_cell_volume 2661.466797
_symmetry_space_group_name_H-M "C 2/C"
_symmetry_group_IT_number 15
_symmetry_cell_setting 'monoclinic'
loop_
_space_group_symop_operation_xyz
x,y,z
-x,y,1/2-z
-x,-y,-z
x,-y,1/2+z
1/2+x,1/2+y,z
1/2-x,1/2+y,1/2-z
1/2-x,1/2-y,-z
1/2+x,1/2-y,1/2+z
loop_
_atom_site_type_symbol
_atom_site_label
_atom_site_fract_x
_atom_site_fract_y
_atom_site_fract_z
Si Si1 0.984863 0.909490 0.527600
Si Si2 0.708952 0.265613 0.337607
Si Si3 0.000000 0.839425 0.750000
Si Si4 0.118027 0.811586 0.216115
Si Si5 0.643195 0.984272 0.807913
Si Si6 0.330266 0.148321 0.212375
Si Si7 0.517353 0.802624 0.596529
Si Si8 0.786066 0.003828 0.828321
O O1 0.000908 0.856201 0.406351
O O2 0.988163 0.883877 0.657663
O O3 0.853925 0.941352 0.702564
O O4 0.105248 0.949594 0.325450
O O5 0.619267 0.296399 0.573993
O O6 0.674092 0.294590 0.261596
O O7 0.691395 0.194812 0.365822
O O8 0.849060 0.282256 0.155598
O O9 0.070049 0.752384 0.229847
O O10 0.224601 0.841943 0.975269
O O11 0.661937 0.919181 0.834424
O O12 0.699971 0.019846 0.839554
O O13 0.712893 0.996129 0.571253
O O14 0.500000 0.000000 0.000000
O O15 0.465722 0.161059 0.062109
O O16 0.500000 0.840449 0.750000
#
# Coordination Sequence:
#
# PCOD8134768 Si02
#       8
#     8   8   4   8   8   8   8   8
#     4  10  22  41  71 100 130 181 231 305 349 410
#     4  10  21  39  60  98 134 177 220 279 345 423
#     4  10  22  42  66  98 152 182 228 286 364 428
#     4  10  19  36  61  98 126 163 228 281 342 407
#     4  12  28  48  69 101 140 190 234 292 353 428
#     4  11  22  40  62  98 134 171 228 282 340 415
#     4  11  19  32  63  96 128 166 215 276 344 412
#     4  11  25  47  72 103 137 179 249 295 354 413
#
# _framework density 22.543959999999998
#
# number of rings (size 3 to 8) (size 9 to 14) (size 15 to 20)
#    0.000    1.333    4.000    2.000    1.867    5.867 
#    2.400    6.000    0.000    0.000    0.000    0.000 
#    0.000    0.000    0.000    0.000    0.000    0.000 
#
# Total GULP energy -371723.817911 kJ/mol
# GULP energy per Si atom -12390.793930 kJ/mol
# Density = 2.249265 g / cm^3
# Si number density = 22.543960 Si / 1000 Ang^3
#
#
#
# Elastic Constant Matrix: (Units=GPa)
#
#
# Indices 1 2 3 4 5 6 
#
# 1 80.9190 -7.4332 32.8151 0.0006 -8.8275 0.0002
# 2 -7.4332 62.8157 20.6742 0.0001 1.8587 0.0004
# 3 32.8151 20.6742 124.2103 0.0015 -7.7380 0.0010
# 4 0.0006 0.0001 0.0015 19.9557 -0.0006 -4.2692
# 5 -8.8275 1.8587 -7.7380 -0.0006 36.0861 -0.0002
# 6 0.0002 0.0004 0.0010 -4.2692 -0.0002 -0.4652
#
#
#
# Elastic Compliance Matrix: (Units=1/GPa)
#
#
# Indices 1 2 3 4 5 6 
#
# 1 0.014620 0.003042 -0.004212 0.000000 0.002517 -0.000001
# 2 0.003042 0.017554 -0.003786 0.000001 -0.000972 0.000002
# 3 -0.004212 -0.003786 0.009874 0.000001 0.001282 0.000007
# 4 0.000000 0.000001 0.000001 0.016912 0.000000 -0.155186
# 5 0.002517 -0.000972 0.001282 0.000000 0.028652 -0.000004
# 6 -0.000001 0.000002 0.000007 -0.155186 -0.000004 -0.725398
#
#
# Mechanical properties :
#
#
# Convention : Reuss Voigt Hill
#
# Bulk Modulus (GPa) = 31.11798 40.00636 35.56217
# Shear Modulus (GPa) = -8.10161 25.90790 8.90315
#
# Velocity S-wave (km/s) = -1.89776 3.39369 1.98943
# Velocity P-wave (km/s) = 3.00520 5.75679 4.59194
#
# Compressibility (1/GPa) = 0.03213577
#
# Stress axis : x y z
#
# Youngs Moduli (GPa) = 68.39904 56.96590 101.27965
#
# Poissons Ratio (x) = -0.17328 0.42659
# Poissons Ratio (y) = -0.20806 0.38345
# Poissons Ratio (z) = 0.28810 0.21567
#
# Static dielectric constant tensor:
#      x y z
#    x 4.293960 -0.000010 -0.347770 
#    y -0.000010 4.377670 0.000000 
#    z -0.347770 0.000000 4.363870 
# 
# 
# High freq. dielectric constant tensor:
#      x y z
#    x 1.886260 0.000000 -0.012930 
#    y 0.000000 1.887620 0.000000 
#    z -0.012930 0.000000 1.894280 
# 
# From -- ./inp_files/114812.got.cif
#   From: 2010.06.25/outbox.cif.g09.slc.cpg/sg15_58_cif.got.tgz:114812.got - 2010.06.28 07:06:18.
