data_PCOD8134145
_publ_section_title
;
Structure prediction by ZEFSAII (Michael W. Deem and Ramdas Pophale) SiO2 
 PCOD8134145
Probable space group: C 2/C
;
_chemical_formula_sum "Si O2"
_cell_formula_units_Z 48
_cell_length_a 15.119855
_cell_length_b 9.917308
_cell_length_c 18.621826
_cell_angle_alpha 90.000000
_cell_angle_beta 58.212679
_cell_angle_gamma 90.000000
_cell_volume 2373.489748
_symmetry_space_group_name_H-M "C 2/C"
_symmetry_group_IT_number 15
_symmetry_cell_setting 'monoclinic'
loop_
_space_group_symop_operation_xyz
x,y,z
-x,y,1/2-z
-x,-y,-z
x,-y,1/2+z
1/2+x,1/2+y,z
1/2-x,1/2+y,1/2-z
1/2-x,1/2-y,-z
1/2+x,1/2-y,1/2+z
loop_
_atom_site_type_symbol
_atom_site_label
_atom_site_fract_x
_atom_site_fract_y
_atom_site_fract_z
Si Si1 0.916392 0.099378 0.502255
Si Si2 0.086921 0.241041 0.857605
Si Si3 0.800907 0.349446 0.420870
Si Si4 0.676437 0.240020 0.744411
Si Si5 0.027489 0.962382 0.820883
Si Si6 0.511047 0.019324 0.829980
O O1 0.920468 0.231994 0.552059
O O2 0.795528 0.048235 0.558065
O O3 0.945301 0.122313 0.405954
O O4 0.000000 0.000000 0.500000
O O5 0.205593 0.229612 0.779257
O O6 0.033505 0.378284 0.857885
O O7 0.027524 0.116967 0.845295
O O8 0.750000 0.250000 0.500000
O O9 0.836203 0.267084 0.335913
O O10 0.900449 0.429160 0.409052
O O11 0.637363 0.387505 0.786278
O O12 0.604222 0.122436 0.809475
O O13 0.000000 0.949659 0.750000
O O14 0.500000 0.995944 0.750000
#
# Coordination Sequence:
#
# PCOD8134145 Si02
#       6
#     8   8   8   8   8   8
#     4   9  20  37  54  76 112 149 178 222 286 335
#     4  10  21  37  56  82 113 144 182 233 282 331
#     4  10  19  35  57  80 110 148 189 229 272 330
#     4  10  20  35  57  81 110 146 183 226 281 334
#     4  11  20  36  58  81 106 143 189 228 272 336
#     4  10  20  36  57  84 112 146 188 234 278 326
#
# _framework density 20.223386999999999
#
# number of rings (size 3 to 8) (size 9 to 14) (size 15 to 20)
#    0.000    2.000    0.000    5.000    0.000    1.333 
#    0.000   14.167    0.000    0.000    0.000    0.000 
#    0.000    0.000    0.000    0.000    0.000    0.000 
#
# Total GULP energy -297370.754062 kJ/mol
# GULP energy per Si atom -12390.448086 kJ/mol
# Density = 2.017736 g / cm^3
# Si number density = 20.223387 Si / 1000 Ang^3
#
#
#
# Elastic Constant Matrix: (Units=GPa)
#
#
# Indices 1 2 3 4 5 6 
#
# 1 100.7039 48.1514 53.9205 0.0000 -24.2048 0.0000
# 2 48.1514 122.4425 51.4579 0.0000 -14.4158 0.0000
# 3 53.9205 51.4579 127.9803 0.0000 -11.3303 0.0000
# 4 0.0000 0.0000 0.0000 23.8512 0.0000 -2.8018
# 5 -24.2048 -14.4158 -11.3303 0.0000 38.9055 0.0000
# 6 0.0000 0.0000 0.0000 -2.8018 0.0000 34.3908
#
#
#
# Elastic Compliance Matrix: (Units=1/GPa)
#
#
# Indices 1 2 3 4 5 6 
#
# 1 0.015773 -0.003406 -0.004639 0.000000 0.007200 0.000000
# 2 -0.003406 0.010817 -0.002820 0.000000 0.001068 0.000000
# 3 -0.004639 -0.002820 0.010833 0.000000 -0.000776 0.000000
# 4 0.000000 0.000000 0.000000 0.042332 0.000000 0.003449
# 5 0.007200 0.001068 -0.000776 0.000000 0.030353 0.000000
# 6 0.000000 0.000000 0.000000 0.003449 0.000000 0.029358
#
#
# Mechanical properties :
#
#
# Convention : Reuss Voigt Hill
#
# Bulk Modulus (GPa) = 63.71511 73.13180 68.42345
# Shear Modulus (GPa) = 30.04337 32.60263 31.32300
#
# Velocity S-wave (km/s) = 3.85850 4.01948 3.93981
# Velocity P-wave (km/s) = 7.17110 7.60146 7.38941
#
# Compressibility (1/GPa) = 0.01569486
#
# Stress axis : x y z
#
# Youngs Moduli (GPa) = 63.40043 92.44480 92.30901
#
# Poissons Ratio (x) = 0.31483 0.42818
# Poissons Ratio (y) = 0.21592 0.26031
# Poissons Ratio (z) = 0.29409 0.26069
#
# Static dielectric constant tensor:
#      x y z
#    x 3.990590 0.000000 -0.276330 
#    y 0.000000 3.430470 0.000000 
#    z -0.276330 0.000000 4.222550 
# 
# 
# High freq. dielectric constant tensor:
#      x y z
#    x 1.794900 0.000000 -0.012320 
#    y 0.000000 1.766960 0.000000 
#    z -0.012320 0.000000 1.800840 
# 
# From -- ./inp_files/247263.got.cif
#   From: 2010.06.25/outbox.cif.g09.slc.cpg/sg15_124_cif.got.tgz:247263.got - 2010.06.28 07:06:18.
