data_PCOD8134615
_publ_section_title
;
Structure prediction by ZEFSAII (Michael W. Deem and Ramdas Pophale) SiO2 
 PCOD8134615
Probable space group: C 2/C
;
_chemical_formula_sum "Si O2"
_cell_formula_units_Z 64
_cell_length_a 19.725624
_cell_length_b 10.945001
_cell_length_c 16.720896
_cell_angle_alpha 90.000000
_cell_angle_beta 65.167074
_cell_angle_gamma 90.000000
_cell_volume 3276.197684
_symmetry_space_group_name_H-M "C 2/C"
_symmetry_group_IT_number 15
_symmetry_cell_setting 'monoclinic'
loop_
_space_group_symop_operation_xyz
x,y,z
-x,y,1/2-z
-x,-y,-z
x,-y,1/2+z
1/2+x,1/2+y,z
1/2-x,1/2+y,1/2-z
1/2-x,1/2-y,-z
1/2+x,1/2-y,1/2+z
loop_
_atom_site_type_symbol
_atom_site_label
_atom_site_fract_x
_atom_site_fract_y
_atom_site_fract_z
Si Si1 0.558469 0.054154 0.407650
Si Si2 0.308617 0.395623 0.931577
Si Si3 0.254019 0.831303 0.375135
Si Si4 0.130895 0.544911 0.213896
Si Si5 0.685869 0.061294 0.927272
Si Si6 0.081358 0.926262 0.181527
Si Si7 0.930594 0.318784 0.902609
Si Si8 0.802982 0.802658 0.268603
O O1 0.579424 0.989645 0.311715
O O2 0.515345 0.176013 0.398054
O O3 0.500000 0.000000 0.500000
O O4 0.638465 0.053480 0.412962
O O5 0.300467 0.292017 0.868061
O O6 0.246765 0.502135 0.954398
O O7 0.389360 0.454139 0.878118
O O8 0.304216 0.344359 0.023028
O O9 0.202406 0.817645 0.323494
O O10 0.311440 0.942999 0.343274
O O11 0.077698 0.585865 0.166929
O O12 0.179231 0.662194 0.219408
O O13 0.724259 0.150256 0.843487
O O14 0.631619 0.151266 0.001382
O O15 0.082284 0.817827 0.117591
O O16 0.131700 0.891587 0.232882
O O17 0.000000 0.959940 0.250000
#
# Coordination Sequence:
#
# PCOD8134615 Si02
#       8
#     8   8   8   8   8   8   8   8
#     4  10  20  34  55  88 127 151 194 257 299 358
#     4  10  23  39  61  84 126 158 203 250 301 371
#     4  11  22  39  61  89 115 162 202 248 309 356
#     4  11  20  36  60  85 118 157 207 246 304 365
#     4  10  19  36  58  96 118 155 199 261 300 348
#     4  10  22  41  62  89 122 160 199 250 304 364
#     4  10  20  34  61  89 123 157 201 248 310 353
#     4  10  22  35  65  88 121 152 206 261 299 356
#
# _framework density 19.534841
#
# number of rings (size 3 to 8) (size 9 to 14) (size 15 to 20)
#    0.000    1.750    2.500    2.625    3.500    1.500 
#    0.000    1.875    0.000    0.000    0.000    0.000 
#    0.000    0.000    0.000    0.000    0.000    0.000 
#
# Total GULP energy -396433.175304 kJ/mol
# GULP energy per Si atom -12388.536728 kJ/mol
# Density = 1.949038 g / cm^3
# Si number density = 19.534841 Si / 1000 Ang^3
#
#
#
# Elastic Constant Matrix: (Units=GPa)
#
#
# Indices 1 2 3 4 5 6 
#
# 1 103.2344 39.0991 55.5653 0.0000 -6.2554 0.0000
# 2 39.0991 86.3125 34.8662 0.0000 -7.9425 0.0000
# 3 55.5653 34.8662 123.8302 0.0000 -0.3295 0.0000
# 4 0.0000 0.0000 0.0000 24.6771 0.0000 -4.3733
# 5 -6.2554 -7.9425 -0.3295 0.0000 33.7828 0.0000
# 6 0.0000 0.0000 0.0000 -4.3733 0.0000 18.4622
#
#
#
# Elastic Compliance Matrix: (Units=1/GPa)
#
#
# Indices 1 2 3 4 5 6 
#
# 1 0.014145 -0.004174 -0.005168 0.000000 0.001587 0.000000
# 2 -0.004174 0.014624 -0.002237 0.000000 0.002643 0.000000
# 3 -0.005168 -0.002237 0.011021 0.000000 -0.001375 0.000000
# 4 0.000000 0.000000 0.000000 0.042299 0.000000 0.010020
# 5 0.001587 0.002643 -0.001375 0.000000 0.030503 0.000000
# 6 0.000000 0.000000 0.000000 0.010020 0.000000 0.056538
#
#
# Mechanical properties :
#
#
# Convention : Reuss Voigt Hill
#
# Bulk Modulus (GPa) = 60.12839 63.60423 61.86631
# Shear Modulus (GPa) = 25.27389 27.64085 26.45737
#
# Velocity S-wave (km/s) = 3.60083 3.76566 3.68417
# Velocity P-wave (km/s) = 6.93793 7.17893 7.05946
#
# Compressibility (1/GPa) = 0.01663108
#
# Stress axis : x y z
#
# Youngs Moduli (GPa) = 70.69464 68.38200 90.73737
#
# Poissons Ratio (x) = 0.28544 0.46891
# Poissons Ratio (y) = 0.29509 0.20302
# Poissons Ratio (z) = 0.36534 0.15300
#
# Static dielectric constant tensor:
#      x y z
#    x 3.770620 0.000000 0.041540 
#    y 0.000000 3.444420 0.000000 
#    z 0.041540 0.000000 3.830330 
# 
# 
# High freq. dielectric constant tensor:
#      x y z
#    x 1.760920 0.000000 0.001220 
#    y 0.000000 1.736960 0.000000 
#    z 0.001220 0.000000 1.778940 
# 
# From -- ./inp_files/214814.got.cif
#   From: 2010.06.25/outbox.cif.g09.slc.cpg/sg15_108_cif.got.tgz:214814.got - 2010.06.28 07:06:18.
