data_PCOD8134359
_publ_section_title
;
Structure prediction by ZEFSAII (Michael W. Deem and Ramdas Pophale) SiO2 
 PCOD8134359
Probable space group: C 2/C
;
_chemical_formula_sum "Si O2"
_cell_formula_units_Z 48
_cell_length_a 10.472156
_cell_length_b 26.776430
_cell_length_c 9.699231
_cell_angle_alpha 90.000000
_cell_angle_beta 61.236106
_cell_angle_gamma 90.000000
_cell_volume 2384.144346
_symmetry_space_group_name_H-M "C 2/C"
_symmetry_group_IT_number 15
_symmetry_cell_setting 'monoclinic'
loop_
_space_group_symop_operation_xyz
x,y,z
-x,y,1/2-z
-x,-y,-z
x,-y,1/2+z
1/2+x,1/2+y,z
1/2-x,1/2+y,1/2-z
1/2-x,1/2-y,-z
1/2+x,1/2-y,1/2+z
loop_
_atom_site_type_symbol
_atom_site_label
_atom_site_fract_x
_atom_site_fract_y
_atom_site_fract_z
Si Si1 0.320096 0.148169 0.485056
Si Si2 0.642723 0.343275 0.582417
Si Si3 0.365739 0.813110 0.678998
Si Si4 0.386212 0.557097 0.932424
Si Si5 0.409140 0.551747 0.428273
Si Si6 0.120071 0.198375 0.790417
O O1 0.495509 0.149776 0.405287
O O2 0.271134 0.169541 0.360914
O O3 0.252716 0.092259 0.529405
O O4 0.270638 0.183827 0.637337
O O5 0.500000 0.338182 0.750000
O O6 0.772925 0.313486 0.587363
O O7 0.696341 0.401281 0.546423
O O8 0.612519 0.322899 0.446970
O O9 0.413485 0.756734 0.681647
O O10 0.500000 0.558939 0.750000
O O11 0.326832 0.500676 0.002674
O O12 0.479306 0.573552 0.015990
O O13 0.500000 0.536477 0.250000
O O14 0.000000 0.173612 0.750000
#
# Coordination Sequence:
#
# PCOD8134359 Si02
#       6
#     8   8   8   8   8   8
#     4  11  22  39  62  83 123 157 201 246 301 355
#     4  11  23  39  63  89 120 156 200 249 302 360
#     4  11  25  40  56  87 121 160 199 249 302 357
#     4  10  19  35  61  91 113 152 196 246 296 349
#     4   9  18  34  58  88 119 145 196 247 291 348
#     4  12  23  40  62  86 116 160 204 246 295 359
#
# _framework density 20.133011
#
# number of rings (size 3 to 8) (size 9 to 14) (size 15 to 20)
#    0.000    1.333    1.667    6.500    2.333    0.667 
#    0.000    0.833    0.000    2.000    0.000    0.000 
#    0.000    0.000    0.000    0.000    0.000    0.000 
#
# Total GULP energy -297354.994028 kJ/mol
# GULP energy per Si atom -12389.791418 kJ/mol
# Density = 2.008719 g / cm^3
# Si number density = 20.133011 Si / 1000 Ang^3
#
#
#
# Elastic Constant Matrix: (Units=GPa)
#
#
# Indices 1 2 3 4 5 6 
#
# 1 102.2448 46.3295 51.4683 0.0000 19.4746 0.0000
# 2 46.3295 119.9650 37.7393 0.0000 -4.3090 0.0000
# 3 51.4683 37.7393 133.1838 0.0000 20.7924 0.0000
# 4 0.0000 0.0000 0.0000 24.3349 0.0000 6.4467
# 5 19.4746 -4.3090 20.7924 0.0000 33.2112 0.0000
# 6 0.0000 0.0000 0.0000 6.4467 0.0000 19.1896
#
#
#
# Elastic Compliance Matrix: (Units=1/GPa)
#
#
# Indices 1 2 3 4 5 6 
#
# 1 0.015156 -0.005105 -0.003236 0.000000 -0.007524 0.000000
# 2 -0.005105 0.011172 -0.002091 0.000000 0.005752 0.000000
# 3 -0.003236 -0.002091 0.010083 0.000000 -0.004687 0.000000
# 4 0.000000 0.000000 0.000000 0.045108 0.000000 -0.015154
# 5 -0.007524 0.005752 -0.004687 0.000000 0.038203 0.000000
# 6 0.000000 0.000000 0.000000 -0.015154 0.000000 0.057202
#
#
# Mechanical properties :
#
#
# Convention : Reuss Voigt Hill
#
# Bulk Modulus (GPa) = 64.32135 69.60756 66.96445
# Shear Modulus (GPa) = 24.63438 30.00423 27.31931
#
# Velocity S-wave (km/s) = 3.50177 3.86463 3.68766
# Velocity P-wave (km/s) = 6.95467 7.38666 7.17391
#
# Compressibility (1/GPa) = 0.01554694
#
# Stress axis : x y z
#
# Youngs Moduli (GPa) = 65.98235 89.51175 99.17814
#
# Poissons Ratio (x) = 0.45699 0.32090
# Poissons Ratio (y) = 0.33686 0.20735
# Poissons Ratio (z) = 0.21349 0.18714
#
# Static dielectric constant tensor:
#      x y z
#    x 3.341010 0.000000 0.236420 
#    y 0.000000 3.937240 0.000000 
#    z 0.236420 0.000000 3.800980 
# 
# 
# High freq. dielectric constant tensor:
#      x y z
#    x 1.755670 0.000000 0.028250 
#    y 0.000000 1.799520 0.000000 
#    z 0.028250 0.000000 1.795870 
# 
# From -- ./inp_files/33384.got.cif
#   From: 2010.06.25/outbox.cif.g09.slc.cpg/sg15_17_cif.got.tgz:33384.got - 2010.06.28 07:06:18.
