data_PCOD8134444
_publ_section_title
;
Structure prediction by ZEFSAII (Michael W. Deem and Ramdas Pophale) SiO2 
 PCOD8134444
Probable space group: C 2/C
;
_chemical_formula_sum "Si O2"
_cell_formula_units_Z 36
_cell_length_a 12.381896
_cell_length_b 8.479965
_cell_length_c 19.645124
_cell_angle_alpha 90.000000
_cell_angle_beta 128.373060
_cell_angle_gamma 90.000000
_cell_volume 1617.126438
_symmetry_space_group_name_H-M "C 2/C"
_symmetry_group_IT_number 15
_symmetry_cell_setting 'monoclinic'
loop_
_space_group_symop_operation_xyz
x,y,z
-x,y,1/2-z
-x,-y,-z
x,-y,1/2+z
1/2+x,1/2+y,z
1/2-x,1/2+y,1/2-z
1/2-x,1/2-y,-z
1/2+x,1/2-y,1/2+z
loop_
_atom_site_type_symbol
_atom_site_label
_atom_site_fract_x
_atom_site_fract_y
_atom_site_fract_z
Si Si1 0.000000 0.898165 0.250000
Si Si2 0.880780 0.630010 0.648063
Si Si3 0.890735 0.664150 0.861363
Si Si4 0.277440 0.628272 0.204808
Si Si5 0.769822 0.706360 0.085130
O O1 0.093386 0.791678 0.334992
O O2 0.092960 0.009932 0.238820
O O3 0.785449 0.772724 0.637494
O O4 0.783608 0.480748 0.598929
O O5 0.000000 0.593409 0.750000
O O6 0.953700 0.683627 0.605611
O O7 0.861103 0.475640 0.848648
O O8 0.779853 0.754354 0.769844
O O9 0.866421 0.734642 0.927057
O O10 0.750000 0.750000 0.000000
#
# Coordination Sequence:
#
# PCOD8134444 Si02
#       5
#     4   8   8   8   8
#     4  10  20  40  64  88 124 162 202 262 302 360
#     4  10  19  39  63  88 120 161 203 255 305 360
#     4  10  20  35  61  89 122 160 204 249 316 354
#     4  10  19  35  66  94 116 160 213 251 305 375
#     4  11  24  40  61  93 127 162 209 253 303 372
#
# _framework density 22.261710000000001
#
# number of rings (size 3 to 8) (size 9 to 14) (size 15 to 20)
#    0.000    1.778    4.444    2.667    3.111    0.889 
#    0.000    5.556    0.000    0.000    0.000    0.000 
#    0.000    0.000    0.000    0.000    0.000    0.000 
#
# Total GULP energy -223185.355325 kJ/mol
# GULP energy per Si atom -12399.186407 kJ/mol
# Density = 2.221104 g / cm^3
# Si number density = 22.261710 Si / 1000 Ang^3
#
#
#
# Elastic Constant Matrix: (Units=GPa)
#
#
# Indices 1 2 3 4 5 6 
#
# 1 105.9836 49.7277 35.1493 0.0000 -45.6826 0.0000
# 2 49.7277 131.8208 32.4375 0.0000 -20.1241 0.0000
# 3 35.1493 32.4375 74.7293 0.0000 -25.8086 0.0000
# 4 0.0000 0.0000 0.0000 3.4915 0.0000 -11.0909
# 5 -45.6826 -20.1241 -25.8086 0.0000 33.2536 0.0000
# 6 0.0000 0.0000 0.0000 -11.0909 0.0000 41.5820
#
#
#
# Elastic Compliance Matrix: (Units=1/GPa)
#
#
# Indices 1 2 3 4 5 6 
#
# 1 0.025688 -0.004976 0.001674 0.000000 0.033576 0.000000
# 2 -0.004976 0.009700 -0.003010 0.000000 -0.003303 0.000000
# 3 0.001674 -0.003010 0.019217 0.000000 0.015392 0.000000
# 4 0.000000 0.000000 0.000000 1.875129 0.000000 0.500143
# 5 0.033576 -0.003303 0.015392 0.000000 0.086145 0.000000
# 6 0.000000 0.000000 0.000000 0.500143 0.000000 0.157449
#
#
# Mechanical properties :
#
#
# Convention : Reuss Voigt Hill
#
# Bulk Modulus (GPa) = 23.82171 60.79584 42.30878
# Shear Modulus (GPa) = 2.27278 28.68006 15.47642
#
# Velocity S-wave (km/s) = 1.01151 3.59320 2.63953
# Velocity P-wave (km/s) = 3.47681 6.67710 5.32315
#
# Compressibility (1/GPa) = 0.04197851
#
# Stress axis : x y z
#
# Youngs Moduli (GPa) = 38.92885 103.09378 52.03763
#
# Poissons Ratio (x) = 0.51304 -0.08709
# Poissons Ratio (y) = 0.19373 0.15665
# Poissons Ratio (z) = -0.06515 0.31035
#
# Static dielectric constant tensor:
#      x y z
#    x 4.514310 0.000000 -0.038660 
#    y 0.000000 4.362710 0.000000 
#    z -0.038660 0.000000 3.599400 
# 
# 
# High freq. dielectric constant tensor:
#      x y z
#    x 1.889270 0.000000 -0.025560 
#    y 0.000000 1.897260 0.000000 
#    z -0.025560 0.000000 1.814630 
# 
# From -- ./inp_files/150342.got.cif
#   From: 2010.06.25/outbox.cif.g09.slc.cpg/sg15_76_cif.got.tgz:150342.got - 2010.06.28 07:06:18.
