data_PCOD8134488
_publ_section_title
;
Structure prediction by ZEFSAII (Michael W. Deem and Ramdas Pophale) SiO2 
 PCOD8134488
Probable space group: C 2/C
;
_chemical_formula_sum "Si O2"
_cell_formula_units_Z 60
_cell_length_a 14.197063
_cell_length_b 21.310117
_cell_length_c 10.624870
_cell_angle_alpha 90.000000
_cell_angle_beta 80.920076
_cell_angle_gamma 90.000000
_cell_volume 3174.179709
_symmetry_space_group_name_H-M "C 2/C"
_symmetry_group_IT_number 15
_symmetry_cell_setting 'monoclinic'
loop_
_space_group_symop_operation_xyz
x,y,z
-x,y,1/2-z
-x,-y,-z
x,-y,1/2+z
1/2+x,1/2+y,z
1/2-x,1/2+y,1/2-z
1/2-x,1/2-y,-z
1/2+x,1/2-y,1/2+z
loop_
_atom_site_type_symbol
_atom_site_label
_atom_site_fract_x
_atom_site_fract_y
_atom_site_fract_z
Si Si1 0.981123 0.378340 0.539046
Si Si2 0.500000 0.979902 0.750000
Si Si3 0.188070 0.351686 0.534739
Si Si4 0.713730 0.518234 0.444451
Si Si5 0.143121 0.422297 0.153533
Si Si6 0.790057 0.844445 0.267299
Si Si7 0.389321 0.528302 0.772814
Si Si8 0.893613 0.277730 0.724786
O O1 0.998016 0.436869 0.627485
O O2 0.941511 0.396377 0.413007
O O3 0.906763 0.327905 0.611159
O O4 0.084968 0.350648 0.489632
O O5 0.405409 0.022940 0.752358
O O6 0.219341 0.420792 0.572238
O O7 0.265557 0.326483 0.417610
O O8 0.178107 0.307074 0.657261
O O9 0.776605 0.455639 0.447391
O O10 0.645914 0.514850 0.579109
O O11 0.657405 0.516623 0.323234
O O12 0.191141 0.366618 0.223863
O O13 0.867028 0.899843 0.243315
O O14 0.839644 0.785004 0.188716
O O15 0.500000 0.514894 0.750000
O O16 0.000000 0.260829 0.750000
#
# Coordination Sequence:
#
# PCOD8134488 Si02
#       8
#     8   4   8   8   8   8   8   8
#     4  11  21  34  58  83 120 148 183 235 291 344
#     4  12  20  36  58  88 124 144 188 230 300 350
#     4  10  19  36  55  86 105 146 190 232 283 332
#     4  10  21  33  57  82 115 139 189 235 292 353
#     4  11  23  32  54  88 118 153 175 235 294 353
#     4  10  22  36  54  80 112 148 194 232 277 337
#     4  10  21  37  55  80 109 147 186 240 291 339
#     4  10  20  37  58  79 107 151 197 233 272 336
#
# _framework density 18.902522000000001
#
# number of rings (size 3 to 8) (size 9 to 14) (size 15 to 20)
#    0.000    1.600    3.333    2.400    7.467    0.533 
#    0.000    0.000    0.000    0.000    1.733    0.000 
#    0.000    0.000    0.000    0.000    0.000    0.000 
#
# Total GULP energy -371853.407776 kJ/mol
# GULP energy per Si atom -12395.113593 kJ/mol
# Density = 1.885950 g / cm^3
# Si number density = 18.902522 Si / 1000 Ang^3
#
#
#
# Elastic Constant Matrix: (Units=GPa)
#
#
# Indices 1 2 3 4 5 6 
#
# 1 58.1705 20.9730 15.0274 0.0000 -8.2439 0.0000
# 2 20.9730 79.2365 26.2784 0.0000 -11.1371 0.0000
# 3 15.0274 26.2784 64.1128 0.0000 -3.9309 0.0000
# 4 0.0000 0.0000 0.0000 13.8604 0.0000 -2.6638
# 5 -8.2439 -11.1371 -3.9309 0.0000 25.4056 0.0000
# 6 0.0000 0.0000 0.0000 -2.6638 0.0000 36.9509
#
#
#
# Elastic Compliance Matrix: (Units=1/GPa)
#
#
# Indices 1 2 3 4 5 6 
#
# 1 0.019888 -0.003692 -0.002879 0.000000 0.004389 0.000000
# 2 -0.003692 0.016103 -0.005427 0.000000 0.005021 0.000000
# 3 -0.002879 -0.005427 0.018469 0.000000 -0.000456 0.000000
# 4 0.000000 0.000000 0.000000 0.073162 0.000000 0.005274
# 5 0.004389 0.005021 -0.000456 0.000000 0.042916 0.000000
# 6 0.000000 0.000000 0.000000 0.005274 0.000000 0.027443
#
#
# Mechanical properties :
#
#
# Convention : Reuss Voigt Hill
#
# Bulk Modulus (GPa) = 32.82643 36.23082 34.52863
# Shear Modulus (GPa) = 21.53938 24.52611 23.03275
#
# Velocity S-wave (km/s) = 3.37931 3.60600 3.49449
# Velocity P-wave (km/s) = 5.71228 6.04536 5.88118
#
# Compressibility (1/GPa) = 0.03046326
#
# Stress axis : x y z
#
# Youngs Moduli (GPa) = 50.28180 62.09855 54.14524
#
# Poissons Ratio (x) = 0.22929 0.15588
# Poissons Ratio (y) = 0.18566 0.29385
# Poissons Ratio (z) = 0.14476 0.33702
#
# Static dielectric constant tensor:
#      x y z
#    x 3.502730 0.000000 -0.085160 
#    y 0.000000 3.418680 0.000000 
#    z -0.085160 0.000000 3.402920 
# 
# 
# High freq. dielectric constant tensor:
#      x y z
#    x 1.735110 0.000000 -0.015860 
#    y 0.000000 1.724240 0.000000 
#    z -0.015860 0.000000 1.729580 
# 
# From -- ./inp_files/98301.got.cif
#   From: 2010.06.25/outbox.cif.g09.slc.cpg/sg15_50_cif.got.tgz:98301.got - 2010.06.28 07:06:18.
