data_PCOD8134872
_publ_section_title
;
Structure prediction by ZEFSAII (Michael W. Deem and Ramdas Pophale) SiO2 
 PCOD8134872
Probable space group: C 2/C
;
_chemical_formula_sum "Si O2"
_cell_formula_units_Z 52
_cell_length_a 15.836575
_cell_length_b 13.495457
_cell_length_c 13.452052
_cell_angle_alpha 90.000000
_cell_angle_beta 58.189287
_cell_angle_gamma 90.000000
_cell_volume 2443.155626
_symmetry_space_group_name_H-M "C 2/C"
_symmetry_group_IT_number 15
_symmetry_cell_setting 'monoclinic'
loop_
_space_group_symop_operation_xyz
x,y,z
-x,y,1/2-z
-x,-y,-z
x,-y,1/2+z
1/2+x,1/2+y,z
1/2-x,1/2+y,1/2-z
1/2-x,1/2-y,-z
1/2+x,1/2-y,1/2+z
loop_
_atom_site_type_symbol
_atom_site_label
_atom_site_fract_x
_atom_site_fract_y
_atom_site_fract_z
Si Si1 0.779678 0.555541 0.670235
Si Si2 0.005504 0.224422 0.948655
Si Si3 0.336599 0.170851 0.444197
Si Si4 0.043975 0.963835 0.321601
Si Si5 0.823197 0.355439 0.728764
Si Si6 0.135483 0.743603 0.792406
Si Si7 0.000000 0.152693 0.250000
O O1 0.811914 0.585985 0.539569
O O2 0.662969 0.534757 0.745927
O O3 0.840413 0.456664 0.658516
O O4 0.812135 0.636794 0.733247
O O5 0.006895 0.103950 0.936328
O O6 0.115293 0.267626 0.861668
O O7 0.938031 0.274626 0.906828
O O8 0.966960 0.254832 0.080890
O O9 0.250000 0.250000 0.500000
O O10 0.349469 0.124327 0.327303
O O11 0.000000 0.910094 0.250000
O O12 0.998524 0.077298 0.347709
O O13 0.708100 0.324636 0.794791
O O14 0.098094 0.776938 0.704570
#
# Coordination Sequence:
#
# PCOD8134872 Si02
#       7
#     8   8   8   8   8   8   4
#     4  11  23  42  64  98 137 171 224 276 333 405
#     4  11  22  39  69  96 126 170 226 278 331 394
#     4  11  21  39  69  94 130 173 221 276 332 393
#     4  10  19  36  66  93 122 165 218 273 317 391
#     4  12  22  42  67  97 133 173 221 284 328 395
#     4  11  24  44  62  93 137 173 220 279 334 399
#     4  10  24  42  62  90 136 174 212 280 342 390
#
# _framework density 21.283947999999999
#
# number of rings (size 3 to 8) (size 9 to 14) (size 15 to 20)
#    0.462    0.615    6.154    2.308    0.000    3.077 
#    8.308    0.769    0.000    0.000    0.000    0.000 
#    0.000    0.000    0.000    0.000    0.000    0.000 
#
# Total GULP energy -322136.639572 kJ/mol
# GULP energy per Si atom -12389.870753 kJ/mol
# Density = 2.123551 g / cm^3
# Si number density = 21.283948 Si / 1000 Ang^3
#
#
#
# Elastic Constant Matrix: (Units=GPa)
#
#
# Indices 1 2 3 4 5 6 
#
# 1 107.8059 40.5732 18.9367 0.0000 -0.6472 0.0000
# 2 40.5732 110.1361 12.8687 0.0000 10.9601 0.0000
# 3 18.9367 12.8687 59.0196 0.0000 -5.6544 0.0000
# 4 0.0000 0.0000 0.0000 16.1299 0.0000 12.6630
# 5 -0.6472 10.9601 -5.6544 0.0000 20.1187 0.0000
# 6 0.0000 0.0000 0.0000 12.6630 0.0000 47.4857
#
#
#
# Elastic Compliance Matrix: (Units=1/GPa)
#
#
# Indices 1 2 3 4 5 6 
#
# 1 0.011252 -0.004030 -0.002556 0.000000 0.001839 0.000000
# 2 -0.004030 0.011470 -0.001869 0.000000 -0.006903 0.000000
# 3 -0.002556 -0.001869 0.018766 0.000000 0.006210 0.000000
# 4 0.000000 0.000000 0.000000 0.078413 0.000000 -0.020910
# 5 0.001839 -0.006903 0.006210 0.000000 0.055270 0.000000
# 6 0.000000 0.000000 0.000000 -0.020910 0.000000 0.026635
#
#
# Mechanical properties :
#
#
# Convention : Reuss Voigt Hill
#
# Bulk Modulus (GPa) = 40.68514 46.85763 43.77138
# Shear Modulus (GPa) = 22.03533 30.38572 26.21053
#
# Velocity S-wave (km/s) = 3.22110 3.78251 3.51304
# Velocity P-wave (km/s) = 5.74377 6.41403 6.08813
#
# Compressibility (1/GPa) = 0.02457900
#
# Stress axis : x y z
#
# Youngs Moduli (GPa) = 88.86935 87.18717 53.28771
#
# Poissons Ratio (x) = 0.35134 0.13618
# Poissons Ratio (y) = 0.35812 0.09961
# Poissons Ratio (z) = 0.22711 0.16298
#
# Static dielectric constant tensor:
#      x y z
#    x 4.250430 0.000000 0.107640 
#    y 0.000000 3.772570 0.000000 
#    z 0.107640 0.000000 3.451320 
# 
# 
# High freq. dielectric constant tensor:
#      x y z
#    x 1.849460 0.000000 -0.001020 
#    y 0.000000 1.836110 0.000000 
#    z -0.001020 0.000000 1.799110 
# 
# From -- ./inp_files/153869.got.cif
#   From: 2010.06.25/outbox.cif.g09.slc.cpg/sg15_77_cif.got.tgz:153869.got - 2010.06.28 07:06:18.
