data_PCOD8134631
_publ_section_title
;
Structure prediction by ZEFSAII (Michael W. Deem and Ramdas Pophale) SiO2 
 PCOD8134631
Probable space group: C 2/C
;
_chemical_formula_sum "Si O2"
_cell_formula_units_Z 64
_cell_length_a 28.008910
_cell_length_b 16.910043
_cell_length_c 23.658035
_cell_angle_alpha 90.000000
_cell_angle_beta 163.816849
_cell_angle_gamma 90.000000
_cell_volume 3122.986562
_symmetry_space_group_name_H-M "C 2/C"
_symmetry_group_IT_number 15
_symmetry_cell_setting 'monoclinic'
loop_
_space_group_symop_operation_xyz
x,y,z
-x,y,1/2-z
-x,-y,-z
x,-y,1/2+z
1/2+x,1/2+y,z
1/2-x,1/2+y,1/2-z
1/2-x,1/2-y,-z
1/2+x,1/2-y,1/2+z
loop_
_atom_site_type_symbol
_atom_site_label
_atom_site_fract_x
_atom_site_fract_y
_atom_site_fract_z
Si Si1 0.999130 0.121805 0.583632
Si Si2 0.522154 0.670679 0.487352
Si Si3 0.135001 0.174257 0.854644
Si Si4 0.124042 0.670026 0.672567
Si Si5 0.314098 0.534396 0.197173
Si Si6 0.884849 0.567689 0.338103
Si Si7 0.822275 0.999991 0.581279
Si Si8 0.431462 0.958429 0.297843
O O1 0.013339 0.177374 0.545365
O O2 0.038002 0.176115 0.683254
O O3 0.817787 0.074488 0.379595
O O4 0.146390 0.056220 0.743205
O O5 0.711665 0.675090 0.679614
O O6 0.414912 0.745697 0.342624
O O7 0.443834 0.589030 0.378171
O O8 0.236924 0.090739 0.973817
O O9 0.000000 0.173066 0.750000
O O10 0.250000 0.250000 0.000000
O O11 0.144278 0.606752 0.745580
O O12 0.967435 0.649940 0.451637
O O13 0.339536 0.547822 0.159285
O O14 0.127338 0.558213 0.006526
O O15 0.903974 0.546178 0.293637
O O16 0.000000 0.500000 0.500000
O O17 0.000000 0.996775 0.750000
O O18 0.675058 0.954509 0.380523
#
# Coordination Sequence:
#
# PCOD8134631 Si02
#       8
#     8   8   8   8   8   8   8   8
#     4  11  23  39  61  89 120 161 205 248 306 369
#     4  12  23  40  60  86 122 155 195 250 305 366
#     4  10  23  40  59  86 122 160 201 247 297 356
#     4  11  24  39  58  87 119 157 196 247 308 363
#     4  11  22  38  61  90 118 154 199 250 302 362
#     4  10  19  36  59  85 116 154 197 247 301 360
#     4  10  21  40  62  86 116 158 204 250 301 363
#     4  11  21  38  61  87 118 155 200 247 300 365
#
# _framework density 20.493203000000001
#
# number of rings (size 3 to 8) (size 9 to 14) (size 15 to 20)
#    0.000    1.250    0.000    9.000    0.000    5.000 
#    0.000    0.625    0.000    0.000    0.000    0.000 
#    0.000    0.000    0.000    0.000    0.000    0.000 
#
# Total GULP energy -396658.618371 kJ/mol
# GULP energy per Si atom -12395.581824 kJ/mol
# Density = 2.044656 g / cm^3
# Si number density = 20.493203 Si / 1000 Ang^3
#
#
#
# Elastic Constant Matrix: (Units=GPa)
#
#
# Indices 1 2 3 4 5 6 
#
# 1 129.0224 36.9183 42.1387 -0.0099 -0.9961 -0.0047
# 2 36.9183 75.0124 26.0958 -0.0060 -5.7712 -0.0077
# 3 42.1387 26.0958 102.7494 0.0277 2.3380 0.0307
# 4 -0.0099 -0.0060 0.0277 27.6385 0.0240 6.2360
# 5 -0.9961 -5.7712 2.3380 0.0240 40.1277 0.0263
# 6 -0.0047 -0.0077 0.0307 6.2360 0.0263 17.2474
#
#
#
# Elastic Compliance Matrix: (Units=1/GPa)
#
#
# Indices 1 2 3 4 5 6 
#
# 1 0.009834 -0.003781 -0.003070 0.000005 -0.000121 0.000005
# 2 -0.003781 0.016297 -0.002643 0.000001 0.002404 0.000007
# 3 -0.003070 -0.002643 0.011689 -0.000008 -0.001137 -0.000018
# 4 0.000005 0.000001 -0.000008 0.039395 -0.000013 -0.014244
# 5 -0.000121 0.002404 -0.001137 -0.000013 0.025329 -0.000031
# 6 0.000005 0.000007 -0.000018 -0.014244 -0.000031 0.063130
#
#
# Mechanical properties :
#
#
# Convention : Reuss Voigt Hill
#
# Bulk Modulus (GPa) = 53.10406 57.45440 55.27923
# Shear Modulus (GPa) = 26.18633 30.44482 28.31558
#
# Velocity S-wave (km/s) = 3.57852 3.85854 3.72116
# Velocity P-wave (km/s) = 6.56077 6.92443 6.74505
#
# Compressibility (1/GPa) = 0.01883095
#
# Stress axis : x y z
#
# Youngs Moduli (GPa) = 101.68461 61.36273 85.55353
#
# Poissons Ratio (x) = 0.23203 0.26265
# Poissons Ratio (y) = 0.38451 0.22610
# Poissons Ratio (z) = 0.31218 0.16217
#
# Static dielectric constant tensor:
#      x y z
#    x 3.874020 0.000070 -0.197980 
#    y 0.000070 5.226030 0.000160 
#    z -0.197980 0.000160 3.650270 
# 
# 
# High freq. dielectric constant tensor:
#      x y z
#    x 1.812770 -0.000010 0.002530 
#    y -0.000010 1.789680 -0.000010 
#    z 0.002530 -0.000010 1.804370 
# 
# From -- ./inp_files/256027.got.cif
#   From: 2010.06.25/outbox.cif.g09.slc.cpg/sg15_129_cif.got.tgz:256027.got - 2010.06.28 07:06:18.
