data_PCOD8134567
_publ_section_title
;
Structure prediction by ZEFSAII (Michael W. Deem and Ramdas Pophale) SiO2 
 PCOD8134567
Probable space group: C 2/C
;
_chemical_formula_sum "Si O2"
_cell_formula_units_Z 56
_cell_length_a 9.101721
_cell_length_b 16.110817
_cell_length_c 19.875235
_cell_angle_alpha 90.000000
_cell_angle_beta 90.182103
_cell_angle_gamma 90.000000
_cell_volume 2914.413448
_symmetry_space_group_name_H-M "C 2/C"
_symmetry_group_IT_number 15
_symmetry_cell_setting 'monoclinic'
loop_
_space_group_symop_operation_xyz
x,y,z
-x,y,1/2-z
-x,-y,-z
x,-y,1/2+z
1/2+x,1/2+y,z
1/2-x,1/2+y,1/2-z
1/2-x,1/2-y,-z
1/2+x,1/2-y,1/2+z
loop_
_atom_site_type_symbol
_atom_site_label
_atom_site_fract_x
_atom_site_fract_y
_atom_site_fract_z
Si Si1 0.105203 0.285404 0.871715
Si Si2 0.323472 0.925103 0.531890
Si Si3 0.555871 0.676612 0.996436
Si Si4 0.218407 0.104306 0.566373
Si Si5 0.358718 0.226434 0.786510
Si Si6 0.975533 0.664849 0.918423
Si Si7 0.390000 0.668930 0.804487
O O1 0.090418 0.374583 0.908559
O O2 0.247619 0.290333 0.823102
O O3 0.122480 0.212208 0.926985
O O4 0.959009 0.258139 0.829854
O O5 0.412218 0.912161 0.462353
O O6 0.156711 0.896611 0.523128
O O7 0.305916 0.020793 0.549573
O O8 0.391213 0.638609 0.991269
O O9 0.573557 0.747569 0.051572
O O10 0.348196 0.169968 0.577738
O O11 0.124907 0.101767 0.635505
O O12 0.500000 0.269722 0.750000
O O13 0.417319 0.159551 0.841686
O O14 0.269577 0.179869 0.728200
O O15 0.500000 0.629104 0.750000
#
# Coordination Sequence:
#
# PCOD8134567 Si02
#       7
#     8   8   8   8   8   8   8
#     4   9  18  36  57  80 103 142 190 224 265 326
#     4  11  20  36  58  83 115 142 174 235 289 322
#     4  10  19  36  58  81 108 144 185 225 267 328
#     4  11  22  34  55  88 116 139 180 232 283 322
#     4  11  18  33  60  79 105 140 199 224 259 322
#     4  11  20  36  58  83 109 144 186 226 274 327
#     4   9  20  35  57  78 104 151 191 221 261 331
#
# _framework density 19.214842999999998
#
# number of rings (size 3 to 8) (size 9 to 14) (size 15 to 20)
#    0.000    1.714    4.286    2.143    0.000    0.000 
#    0.000    0.714    9.429    0.000    0.000    0.000 
#    0.000    0.000    0.000    0.000    0.000    0.000 
#
# Total GULP energy -346945.264471 kJ/mol
# GULP energy per Si atom -12390.902303 kJ/mol
# Density = 1.917111 g / cm^3
# Si number density = 19.214843 Si / 1000 Ang^3
#
#
#
# Elastic Constant Matrix: (Units=GPa)
#
#
# Indices 1 2 3 4 5 6 
#
# 1 116.6874 19.3406 39.0857 0.0000 8.2521 0.0000
# 2 19.3406 48.7719 22.5137 0.0000 0.1076 0.0000
# 3 39.0857 22.5137 90.8117 0.0000 8.3869 0.0000
# 4 0.0000 0.0000 0.0000 14.8260 0.0000 -0.1369
# 5 8.2521 0.1076 8.3869 0.0000 34.8231 0.0000
# 6 0.0000 0.0000 0.0000 -0.1369 0.0000 26.7703
#
#
#
# Elastic Compliance Matrix: (Units=1/GPa)
#
#
# Indices 1 2 3 4 5 6 
#
# 1 0.010315 -0.002375 -0.003708 0.000000 -0.001544 0.000000
# 2 -0.002375 0.023762 -0.005026 0.000000 0.001700 0.000000
# 3 -0.003708 -0.005026 0.014084 0.000000 -0.002498 0.000000
# 4 0.000000 0.000000 0.000000 0.067452 0.000000 0.000345
# 5 -0.001544 0.001700 -0.002498 0.000000 0.029679 0.000000
# 6 0.000000 0.000000 0.000000 0.000345 0.000000 0.037357
#
#
# Mechanical properties :
#
#
# Convention : Reuss Voigt Hill
#
# Bulk Modulus (GPa) = 38.54598 46.46120 42.50359
# Shear Modulus (GPa) = 23.41765 26.97261 25.19513
#
# Velocity S-wave (km/s) = 3.49481 3.75071 3.62502
# Velocity P-wave (km/s) = 6.03233 6.55664 6.29994
#
# Compressibility (1/GPa) = 0.02594305
#
# Stress axis : x y z
#
# Youngs Moduli (GPa) = 96.94761 42.08466 71.00064
#
# Poissons Ratio (x) = 0.09996 0.26328
# Poissons Ratio (y) = 0.23028 0.35682
# Poissons Ratio (z) = 0.35949 0.21150
#
# Static dielectric constant tensor:
#      x y z
#    x 3.759760 0.000000 0.046270 
#    y 0.000000 2.953580 0.000000 
#    z 0.046270 0.000000 3.769120 
# 
# 
# High freq. dielectric constant tensor:
#      x y z
#    x 1.773410 0.000000 0.001930 
#    y 0.000000 1.684430 0.000000 
#    z 0.001930 0.000000 1.756910 
# 
# From -- ./inp_files/231564.got.cif
#   From: 2010.06.25/outbox.cif.g09.slc.cpg/sg15_116_cif.got.tgz:231564.got - 2010.06.28 07:06:18.
