data_PCOD8134486
_publ_section_title
;
Structure prediction by ZEFSAII (Michael W. Deem and Ramdas Pophale) SiO2 
 PCOD8134486
Probable space group: C 2/C
;
_chemical_formula_sum "Si O2"
_cell_formula_units_Z 64
_cell_length_a 21.657873
_cell_length_b 12.616759
_cell_length_c 22.306850
_cell_angle_alpha 90.000000
_cell_angle_beta 148.846599
_cell_angle_gamma 90.000000
_cell_volume 3153.337817
_symmetry_space_group_name_H-M "C 2/C"
_symmetry_group_IT_number 15
_symmetry_cell_setting 'monoclinic'
loop_
_space_group_symop_operation_xyz
x,y,z
-x,y,1/2-z
-x,-y,-z
x,-y,1/2+z
1/2+x,1/2+y,z
1/2-x,1/2+y,1/2-z
1/2-x,1/2-y,-z
1/2+x,1/2-y,1/2+z
loop_
_atom_site_type_symbol
_atom_site_label
_atom_site_fract_x
_atom_site_fract_y
_atom_site_fract_z
Si Si1 0.649424 0.561741 0.988831
Si Si2 0.603551 0.047462 0.375726
Si Si3 0.155881 0.582190 0.111875
Si Si4 0.671014 0.145826 0.999291
Si Si5 0.248963 0.333596 0.812372
Si Si6 0.593491 0.854036 0.057361
Si Si7 0.093915 0.851546 0.881670
Si Si8 0.498691 0.764989 0.642767
O O1 0.587638 0.447724 0.924968
O O2 0.549197 0.646512 0.884851
O O3 0.770193 0.566520 0.051067
O O4 0.682652 0.584312 0.086306
O O5 0.500000 0.992422 0.250000
O O6 0.555079 0.163503 0.350003
O O7 0.609702 0.968859 0.437910
O O8 0.214585 0.647653 0.105239
O O9 0.207708 0.602513 0.220309
O O10 0.175357 0.457524 0.116868
O O11 0.016788 0.615275 0.991835
O O12 0.778574 0.151182 0.042987
O O13 0.580332 0.242687 0.908512
O O14 0.330823 0.241735 0.851693
O O15 0.142500 0.275036 0.760645
O O16 0.551342 0.810359 0.959642
O O17 0.000000 0.863425 0.750000
#
# Coordination Sequence:
#
# PCOD8134486 Si02
#       8
#     8   8   8   8   8   8   8   8
#     4  10  22  37  56  84 124 152 194 241 298 358
#     4  11  19  33  59  87 112 153 196 240 293 351
#     4  10  20  37  61  82 113 159 197 242 297 341
#     4  10  22  39  61  88 117 155 205 248 286 354
#     4  10  21  37  58  89 117 155 197 244 299 354
#     4   9  20  36  55  83 118 146 196 248 283 353
#     4  10  23  42  59  88 124 160 196 249 301 347
#     4  10  19  36  55  84 118 152 187 241 297 350
#
# _framework density 20.295953999999998
#
# number of rings (size 3 to 8) (size 9 to 14) (size 15 to 20)
#    0.000    2.000    2.500    0.750    0.000    3.500 
#    2.250    0.000    0.000    5.250    0.000    0.000 
#    0.000    0.000    0.000    0.000    0.000    0.000 
#
# Total GULP energy -396526.370400 kJ/mol
# GULP energy per Si atom -12391.449075 kJ/mol
# Density = 2.024976 g / cm^3
# Si number density = 20.295954 Si / 1000 Ang^3
#
#
#
# Elastic Constant Matrix: (Units=GPa)
#
#
# Indices 1 2 3 4 5 6 
#
# 1 45.6737 35.6933 0.4853 -0.0002 -20.1356 -0.0001
# 2 35.6933 143.2049 45.1320 -0.0001 -13.0909 -0.0001
# 3 0.4853 45.1320 73.1652 -0.0003 -12.0146 -0.0002
# 4 -0.0002 -0.0001 -0.0003 22.1661 -0.0002 5.0245
# 5 -20.1356 -13.0909 -12.0146 -0.0002 20.1997 -0.0001
# 6 -0.0001 -0.0001 -0.0002 5.0245 -0.0001 30.1223
#
#
#
# Elastic Compliance Matrix: (Units=1/GPa)
#
#
# Indices 1 2 3 4 5 6 
#
# 1 0.062017 -0.015911 0.019795 0.000001 0.063283 0.000000
# 2 -0.015911 0.012885 -0.010058 0.000000 -0.013493 0.000000
# 3 0.019795 -0.010058 0.024283 0.000001 0.027657 0.000000
# 4 0.000001 0.000000 0.000001 0.046887 0.000002 -0.007821
# 5 0.063283 -0.013493 0.027657 0.000002 0.120294 0.000001
# 6 0.000000 0.000000 0.000000 -0.007821 0.000001 0.034503
#
#
# Mechanical properties :
#
#
# Convention : Reuss Voigt Hill
#
# Bulk Modulus (GPa) = 11.51592 47.18499 29.35045
# Shear Modulus (GPa) = 14.61295 26.54652 20.57973
#
# Velocity S-wave (km/s) = 2.68618 3.62051 3.18776
# Velocity P-wave (km/s) = 3.91242 6.38564 5.29545
#
# Compressibility (1/GPa) = 0.08683631
#
# Stress axis : x y z
#
# Youngs Moduli (GPa) = 16.12455 77.60732 41.18187
#
# Poissons Ratio (x) = 1.23483 -0.81521
# Poissons Ratio (y) = 0.25656 0.41423
# Poissons Ratio (z) = -0.31919 0.78061
#
# Static dielectric constant tensor:
#      x y z
#    x 3.655880 0.000000 0.055250 
#    y 0.000000 4.059500 0.000000 
#    z 0.055250 0.000000 3.883480 
# 
# 
# High freq. dielectric constant tensor:
#      x y z
#    x 1.780430 0.000000 -0.008320 
#    y 0.000000 1.798890 0.000000 
#    z -0.008320 0.000000 1.789620 
# 
# From -- ./inp_files/281976.got.cif
#   From: 2010.06.25/outbox.cif.g09.slc.cpg/sg15_141_cif.got.tgz:281976.got - 2010.06.28 07:06:18.
