data_PCOD8134212
_publ_section_title
;
Structure prediction by ZEFSAII (Michael W. Deem and Ramdas Pophale) SiO2 
 PCOD8134212
Probable space group: C 2/C
;
_chemical_formula_sum "Si O2"
_cell_formula_units_Z 64
_cell_length_a 8.750429
_cell_length_b 21.499651
_cell_length_c 17.011567
_cell_angle_alpha 90.000000
_cell_angle_beta 86.359571
_cell_angle_gamma 90.000000
_cell_volume 3193.948133
_symmetry_space_group_name_H-M "C 2/C"
_symmetry_group_IT_number 15
_symmetry_cell_setting 'monoclinic'
loop_
_space_group_symop_operation_xyz
x,y,z
-x,y,1/2-z
-x,-y,-z
x,-y,1/2+z
1/2+x,1/2+y,z
1/2-x,1/2+y,1/2-z
1/2-x,1/2-y,-z
1/2+x,1/2-y,1/2+z
loop_
_atom_site_type_symbol
_atom_site_label
_atom_site_fract_x
_atom_site_fract_y
_atom_site_fract_z
Si Si1 0.164792 0.491415 0.729429
Si Si2 0.831263 0.289653 0.219454
Si Si3 0.637662 0.488653 0.053980
Si Si4 0.292490 0.219279 0.416380
Si Si5 0.854893 0.906630 0.298317
Si Si6 0.904923 0.717984 0.177632
Si Si7 0.318338 0.908418 0.625009
Si Si8 0.151933 0.423955 0.570470
O O1 0.295620 0.540798 0.741327
O O2 0.166810 0.433487 0.787825
O O3 0.199508 0.466014 0.642390
O O4 0.000000 0.524263 0.750000
O O5 0.826507 0.240201 0.148111
O O6 0.776281 0.355134 0.184304
O O7 0.712683 0.271694 0.293101
O O8 0.000000 0.294643 0.250000
O O9 0.593542 0.439389 0.122642
O O10 0.678281 0.557291 0.086282
O O11 0.500000 0.500000 0.000000
O O12 0.784471 0.458203 0.007968
O O13 0.250000 0.250000 0.500000
O O14 0.464856 0.242233 0.387378
O O15 0.279105 0.145055 0.423093
O O16 0.000000 0.875381 0.250000
O O17 0.801042 0.665541 0.137851
O O18 0.000000 0.691208 0.250000
O O19 0.469419 0.921156 0.568378
#
# Coordination Sequence:
#
# PCOD8134212 Si02
#       8
#     8   8   8   8   8   8   8   8
#     4   9  17  32  55  81 106 139 184 229 274 333
#     4  11  23  39  60  86 113 152 200 243 287 344
#     4  11  23  36  54  84 118 148 185 233 288 339
#     4  10  20  37  61  86 117 154 191 236 291 345
#     4  11  22  38  56  77 112 151 188 234 287 339
#     4   9  18  37  62  85 111 148 192 237 286 343
#     4   9  18  34  57  82 110 145 185 227 276 341
#     4  10  19  35  58  83 111 147 184 225 282 344
#
# _framework density 20.037894999999999
#
# number of rings (size 3 to 8) (size 9 to 14) (size 15 to 20)
#    0.000    2.000    0.000    6.000    0.000    1.000 
#    0.000   10.000    0.000    0.000    0.000    0.000 
#    0.000    0.000    0.000    0.000    0.000    0.000 
#
# Total GULP energy -396678.274384 kJ/mol
# GULP energy per Si atom -12396.196075 kJ/mol
# Density = 1.999229 g / cm^3
# Si number density = 20.037895 Si / 1000 Ang^3
#
#
#
# Elastic Constant Matrix: (Units=GPa)
#
#
# Indices 1 2 3 4 5 6 
#
# 1 89.4436 34.1566 41.9647 0.0000 10.0454 0.0000
# 2 34.1566 82.6297 29.2179 0.0000 7.4045 0.0000
# 3 41.9647 29.2179 96.6003 0.0000 -5.5118 0.0000
# 4 0.0000 0.0000 0.0000 -18.2267 0.0000 10.1569
# 5 10.0454 7.4045 -5.5118 0.0000 36.5227 0.0000
# 6 0.0000 0.0000 0.0000 10.1569 0.0000 23.7886
#
#
#
# Elastic Compliance Matrix: (Units=1/GPa)
#
#
# Indices 1 2 3 4 5 6 
#
# 1 0.016069 -0.004122 -0.005990 0.000000 -0.004488 0.000000
# 2 -0.004122 0.015040 -0.002892 0.000000 -0.002352 0.000000
# 3 -0.005990 -0.002892 0.014077 0.000000 0.004358 0.000000
# 4 0.000000 0.000000 0.000000 -0.044320 0.000000 0.018923
# 5 -0.004488 -0.002352 0.004358 0.000000 0.029749 0.000000
# 6 0.000000 0.000000 0.000000 0.018923 0.000000 0.033957
#
#
# Mechanical properties :
#
#
# Convention : Reuss Voigt Hill
#
# Bulk Modulus (GPa) = 52.14519 53.26133 52.70326
# Shear Modulus (GPa) = 51.56033 19.30588 35.43311
#
# Velocity S-wave (km/s) = 5.07812 3.10735 4.20968
# Velocity P-wave (km/s) = 7.77578 6.28587 7.07018
#
# Compressibility (1/GPa) = 0.01917722
#
# Stress axis : x y z
#
# Youngs Moduli (GPa) = 62.23292 66.49088 71.03538
#
# Poissons Ratio (x) = 0.27409 0.42548
# Poissons Ratio (y) = 0.25653 0.20546
# Poissons Ratio (z) = 0.37276 0.19232
#
# Static dielectric constant tensor:
#      x y z
#    x 3.426960 0.000000 -0.247040 
#    y 0.000000 3.586560 0.000000 
#    z -0.247040 0.000000 3.547270 
# 
# 
# High freq. dielectric constant tensor:
#      x y z
#    x 1.770290 0.000000 -0.012230 
#    y 0.000000 1.782740 0.000000 
#    z -0.012230 0.000000 1.779540 
# 
# From -- ./inp_files/137828.got.cif
#   From: 2010.06.25/outbox.cif.g09.slc.cpg/sg15_69_cif.got.tgz:137828.got - 2010.06.28 07:06:18.
