data_PCOD8134695
_publ_section_title
;
Structure prediction by ZEFSAII (Michael W. Deem and Ramdas Pophale) SiO2 
 PCOD8134695
Probable space group: C 2/C
;
_chemical_formula_sum "Si O2"
_cell_formula_units_Z 48
_cell_length_a 10.983768
_cell_length_b 9.145395
_cell_length_c 23.253502
_cell_angle_alpha 90.000000
_cell_angle_beta 62.827610
_cell_angle_gamma 90.000000
_cell_volume 2078.044283
_symmetry_space_group_name_H-M "C 2/C"
_symmetry_group_IT_number 15
_symmetry_cell_setting 'monoclinic'
loop_
_space_group_symop_operation_xyz
x,y,z
-x,y,1/2-z
-x,-y,-z
x,-y,1/2+z
1/2+x,1/2+y,z
1/2-x,1/2+y,1/2-z
1/2-x,1/2-y,-z
1/2+x,1/2-y,1/2+z
loop_
_atom_site_type_symbol
_atom_site_label
_atom_site_fract_x
_atom_site_fract_y
_atom_site_fract_z
Si Si1 0.962938 0.916910 0.596867
Si Si2 0.143074 0.643418 0.844373
Si Si3 0.119311 0.843711 0.008900
Si Si4 0.091971 0.671265 0.386835
Si Si5 0.731456 0.907043 0.195656
Si Si6 0.597120 0.175678 0.179225
O O1 0.987098 0.755399 0.619897
O O2 0.869632 0.898413 0.558920
O O3 0.876166 0.007300 0.663085
O O4 0.100349 0.009240 0.552847
O O5 0.118068 0.500269 0.888359
O O6 0.171757 0.602344 0.772582
O O7 0.266748 0.729419 0.847011
O O8 0.978656 0.745477 0.042250
O O9 0.250000 0.750000 0.000000
O O10 0.237101 0.746855 0.337983
O O11 0.975034 0.700606 0.365089
O O12 0.623314 0.000884 0.181905
O O13 0.500000 0.235990 0.250000
#
# Coordination Sequence:
#
# PCOD8134695 Si02
#       6
#     8   8   8   8   8   8
#     4   9  21  37  59  87 120 159 196 247 302 351
#     4  11  20  36  60  92 121 153 197 249 303 363
#     4  10  20  40  63  84 115 162 209 245 293 356
#     4  11  22  38  62  88 119 162 201 250 304 355
#     4  10  19  36  60  87 123 158 192 241 308 364
#     4  11  20  37  59  85 124 162 192 241 305 363
#
# _framework density 23.098641000000001
#
# number of rings (size 3 to 8) (size 9 to 14) (size 15 to 20)
#    0.000    1.667    3.333    3.000    0.000    0.667 
#    0.000    8.333    0.000    0.000    0.000    0.000 
#    0.000    0.000    0.000    0.000    0.000    0.000 
#
# Total GULP energy -297360.208231 kJ/mol
# GULP energy per Si atom -12390.008676 kJ/mol
# Density = 2.304607 g / cm^3
# Si number density = 23.098641 Si / 1000 Ang^3
#
#
#
# Elastic Constant Matrix: (Units=GPa)
#
#
# Indices 1 2 3 4 5 6 
#
# 1 50.4453 19.2715 12.9110 0.0000 -5.4336 0.0000
# 2 19.2715 185.9969 47.2816 0.0000 -17.0203 0.0000
# 3 12.9110 47.2816 93.7644 0.0000 -12.1892 0.0000
# 4 0.0000 0.0000 0.0000 32.2430 0.0000 -19.2216
# 5 -5.4336 -17.0203 -12.1892 0.0000 24.3904 0.0000
# 6 0.0000 0.0000 0.0000 -19.2216 0.0000 18.1473
#
#
#
# Elastic Compliance Matrix: (Units=1/GPa)
#
#
# Indices 1 2 3 4 5 6 
#
# 1 0.021150 -0.001478 -0.001806 0.000000 0.002778 0.000000
# 2 -0.001478 0.006474 -0.002691 0.000000 0.002843 0.000000
# 3 -0.001806 -0.002691 0.012806 0.000000 0.004120 0.000000
# 4 0.000000 0.000000 0.000000 0.084149 0.000000 0.089130
# 5 0.002778 0.002843 0.004120 0.000000 0.045662 0.000000
# 6 0.000000 0.000000 0.000000 0.089130 0.000000 0.149511
#
#
# Mechanical properties :
#
#
# Convention : Reuss Voigt Hill
#
# Bulk Modulus (GPa) = 35.11323 54.34832 44.73077
# Shear Modulus (GPa) = 14.65437 31.67232 23.16334
#
# Velocity S-wave (km/s) = 2.52151 3.70696 3.17014
# Velocity P-wave (km/s) = 4.86948 6.47317 5.72773
#
# Compressibility (1/GPa) = 0.02847930
#
# Stress axis : x y z
#
# Youngs Moduli (GPa) = 47.28244 154.46528 78.08616
#
# Poissons Ratio (x) = 0.22832 0.14100
# Poissons Ratio (y) = 0.06989 0.21016
# Poissons Ratio (z) = 0.08538 0.41573
#
# Static dielectric constant tensor:
#      x y z
#    x 3.727250 0.000000 -0.365850 
#    y 0.000000 4.782260 0.000000 
#    z -0.365850 0.000000 4.474460 
# 
# 
# High freq. dielectric constant tensor:
#      x y z
#    x 1.862100 0.000000 -0.024240 
#    y 0.000000 1.929040 0.000000 
#    z -0.024240 0.000000 1.926670 
# 
# From -- ./inp_files/268006.got.cif
#   From: 2010.06.25/outbox.cif.g09.slc.cpg/sg15_135_cif.got.tgz:268006.got - 2010.06.28 07:06:18.
