data_PCOD8134089
_publ_section_title
;
Structure prediction by ZEFSAII (Michael W. Deem and Ramdas Pophale) SiO2 
 PCOD8134089
Probable space group: C 2/C
;
_chemical_formula_sum "Si O2"
_cell_formula_units_Z 64
_cell_length_a 25.393475
_cell_length_b 20.908969
_cell_length_c 11.717674
_cell_angle_alpha 90.000000
_cell_angle_beta 34.620617
_cell_angle_gamma 90.000000
_cell_volume 3534.691030
_symmetry_space_group_name_H-M "C 2/C"
_symmetry_group_IT_number 15
_symmetry_cell_setting 'monoclinic'
loop_
_space_group_symop_operation_xyz
x,y,z
-x,y,1/2-z
-x,-y,-z
x,-y,1/2+z
1/2+x,1/2+y,z
1/2-x,1/2+y,1/2-z
1/2-x,1/2-y,-z
1/2+x,1/2-y,1/2+z
loop_
_atom_site_type_symbol
_atom_site_label
_atom_site_fract_x
_atom_site_fract_y
_atom_site_fract_z
Si Si1 0.608350 0.200557 0.564193
Si Si2 0.507667 0.574571 0.109083
Si Si3 0.765233 0.890259 0.846688
Si Si4 0.675133 0.616924 0.510426
Si Si5 0.967697 0.229285 0.685243
Si Si6 0.324086 0.793003 0.804112
Si Si7 0.353173 0.492679 0.276798
Si Si8 0.900700 0.191395 0.238980
O O1 0.500000 0.183316 0.750000
O O2 0.661800 0.135261 0.505257
O O3 0.646654 0.228973 0.376002
O O4 0.629856 0.253957 0.619547
O O5 0.500000 0.546930 0.250000
O O6 0.435222 0.542830 0.151613
O O7 0.482796 0.649807 0.152094
O O8 0.611823 0.559507 0.879181
O O9 0.828409 0.884363 0.620199
O O10 0.808959 0.848426 0.871044
O O11 0.766038 0.965248 0.885360
O O12 0.593400 0.664036 0.699702
O O13 0.776459 0.637920 0.376845
O O14 0.666441 0.544875 0.571507
O O15 0.914023 0.289413 0.724025
O O16 0.000000 0.253156 0.750000
O O17 0.059885 0.219361 0.448377
O O18 0.250000 0.750000 0.000000
#
# Coordination Sequence:
#
# PCOD8134089 Si02
#       8
#     8   8   8   8   8   8   8   8
#     4  11  21  37  60  80 118 151 190 240 285 342
#     4  10  20  29  48  80 111 142 175 224 283 343
#     4  10  22  36  53  82 112 153 190 231 284 340
#     4  10  19  35  56  74 110 150 189 228 274 339
#     4  11  19  32  56  82 113 147 176 223 284 347
#     4   9  21  36  54  83 108 150 192 224 281 340
#     4  10  20  34  51  75 109 145 193 229 275 336
#     4  11  20  33  54  87 117 145 181 228 292 346
#
# _framework density 18.106249999999999
#
# number of rings (size 3 to 8) (size 9 to 14) (size 15 to 20)
#    0.000    1.750    3.750    1.500    0.000    0.500 
#    0.000    0.000    0.000    3.750    0.000    0.000 
#    0.000    0.000    0.000    0.000    0.000    0.000 
#
# Total GULP energy -396578.236972 kJ/mol
# GULP energy per Si atom -12393.069905 kJ/mol
# Density = 1.806504 g / cm^3
# Si number density = 18.106250 Si / 1000 Ang^3
#
#
#
# Elastic Constant Matrix: (Units=GPa)
#
#
# Indices 1 2 3 4 5 6 
#
# 1 101.1575 36.8062 33.0750 0.0000 7.7298 0.0000
# 2 36.8062 64.5849 25.7752 0.0000 1.6058 0.0000
# 3 33.0750 25.7752 86.3918 0.0000 12.5628 0.0000
# 4 0.0000 0.0000 0.0000 18.5830 0.0000 -0.7064
# 5 7.7298 1.6058 12.5628 0.0000 28.7085 0.0000
# 6 0.0000 0.0000 0.0000 -0.7064 0.0000 31.2490
#
#
#
# Elastic Compliance Matrix: (Units=1/GPa)
#
#
# Indices 1 2 3 4 5 6 
#
# 1 0.013304 -0.006373 -0.002908 0.000000 -0.001953 0.000000
# 2 -0.006373 0.020682 -0.004071 0.000000 0.002340 0.000000
# 3 -0.002908 -0.004071 0.014691 0.000000 -0.005418 0.000000
# 4 0.000000 0.000000 0.000000 0.053859 0.000000 0.001217
# 5 -0.001953 0.002340 -0.005418 0.000000 0.037599 0.000000
# 6 0.000000 0.000000 0.000000 0.001217 0.000000 0.032028
#
#
# Mechanical properties :
#
#
# Convention : Reuss Voigt Hill
#
# Bulk Modulus (GPa) = 45.51000 49.27190 47.39095
# Shear Modulus (GPa) = 24.24925 26.13997 25.19461
#
# Velocity S-wave (km/s) = 3.66358 3.80373 3.73431
# Velocity P-wave (km/s) = 6.56394 6.82370 6.69508
#
# Compressibility (1/GPa) = 0.02197319
#
# Stress axis : x y z
#
# Youngs Moduli (GPa) = 75.16272 48.35169 68.06873
#
# Poissons Ratio (x) = 0.30814 0.19796
# Poissons Ratio (y) = 0.47900 0.27711
# Poissons Ratio (z) = 0.21859 0.19684
#
# Static dielectric constant tensor:
#      x y z
#    x 3.508470 0.000000 0.020160 
#    y 0.000000 3.297340 0.000000 
#    z 0.020160 0.000000 3.329580 
# 
# 
# High freq. dielectric constant tensor:
#      x y z
#    x 1.704980 0.000000 0.018410 
#    y 0.000000 1.673950 0.000000 
#    z 0.018410 0.000000 1.691820 
# 
# From -- ./inp_files/124258.got.cif
#   From: 2010.06.25/outbox.cif.g09.slc.cpg/sg15_63_cif.got.tgz:124258.got - 2010.06.28 07:06:18.
