data_PCOD8134016
_publ_section_title
;
Structure prediction by ZEFSAII (Michael W. Deem and Ramdas Pophale) SiO2 
 PCOD8134016
Probable space group: C 2/C
;
_chemical_formula_sum "Si O2"
_cell_formula_units_Z 52
_cell_length_a 26.029711
_cell_length_b 13.377384
_cell_length_c 8.719947
_cell_angle_alpha 90.000000
_cell_angle_beta 118.663050
_cell_angle_gamma 90.000000
_cell_volume 2664.278214
_symmetry_space_group_name_H-M "C 2/C"
_symmetry_group_IT_number 15
_symmetry_cell_setting 'monoclinic'
loop_
_space_group_symop_operation_xyz
x,y,z
-x,y,1/2-z
-x,-y,-z
x,-y,1/2+z
1/2+x,1/2+y,z
1/2-x,1/2+y,1/2-z
1/2-x,1/2-y,-z
1/2+x,1/2-y,1/2+z
loop_
_atom_site_type_symbol
_atom_site_label
_atom_site_fract_x
_atom_site_fract_y
_atom_site_fract_z
Si Si1 0.049845 0.921592 0.129366
Si Si2 0.431138 0.599627 0.161823
Si Si3 0.000000 0.745635 0.250000
Si Si4 0.220638 0.620281 0.079149
Si Si5 0.836920 0.217948 0.201728
Si Si6 0.839299 0.466002 0.718957
Si Si7 0.390093 0.869652 0.498426
O O1 0.028174 0.816288 0.162050
O O2 0.081857 0.984436 0.307532
O O3 0.092343 0.894894 0.047066
O O4 0.000000 0.000000 0.000000
O O5 0.500000 0.629533 0.250000
O O6 0.398224 0.672832 0.230925
O O7 0.044709 0.673434 0.402746
O O8 0.290868 0.632526 0.183738
O O9 0.198053 0.599920 0.217535
O O10 0.189487 0.720964 0.978222
O O11 0.206488 0.531244 0.942621
O O12 0.847456 0.285455 0.366917
O O13 0.872886 0.394433 0.648697
O O14 0.886220 0.533315 0.881543
#
# Coordination Sequence:
#
# PCOD8134016 Si02
#       7
#     8   8   4   8   8   8   8
#     4  10  19  35  52  77 119 154 189 229 284 342
#     4  10  20  34  54  80 120 153 185 232 288 354
#     4  12  22  36  60  88 118 162 196 242 282 356
#     4   9  20  39  60  82 119 147 201 245 296 338
#     4  10  21  37  59  90 114 155 195 247 288 354
#     4   9  20  42  60  83 113 157 189 256 292 340
#     4  10  22  38  63  84 120 151 199 241 296 349
#
# _framework density 19.517482000000001
#
# number of rings (size 3 to 8) (size 9 to 14) (size 15 to 20)
#    0.000    2.154    2.308    1.846    2.154    2.462 
#    0.000    0.000    3.385    0.000    0.000    0.000 
#    0.000    0.000    0.000    0.000    0.000    0.000 
#
# Total GULP energy -322236.686503 kJ/mol
# GULP energy per Si atom -12393.718712 kJ/mol
# Density = 1.947306 g / cm^3
# Si number density = 19.517482 Si / 1000 Ang^3
#
#
#
# Elastic Constant Matrix: (Units=GPa)
#
#
# Indices 1 2 3 4 5 6 
#
# 1 103.8184 65.1752 58.1015 0.0000 -16.7637 0.0000
# 2 65.1752 92.0432 42.5163 0.0000 -12.6259 0.0000
# 3 58.1015 42.5163 101.5999 0.0000 -26.4329 0.0000
# 4 0.0000 0.0000 0.0000 27.0672 0.0000 -4.2757
# 5 -16.7637 -12.6259 -26.4329 0.0000 41.7222 0.0000
# 6 0.0000 0.0000 0.0000 -4.2757 0.0000 31.4807
#
#
#
# Elastic Compliance Matrix: (Units=1/GPa)
#
#
# Indices 1 2 3 4 5 6 
#
# 1 0.020795 -0.011434 -0.006985 0.000000 0.000470 0.000000
# 2 -0.011434 0.019767 -0.001643 0.000000 0.000347 0.000000
# 3 -0.006985 -0.001643 0.016362 0.000000 0.007062 0.000000
# 4 0.000000 0.000000 0.000000 0.037755 0.000000 0.005128
# 5 0.000470 0.000347 0.007062 0.000000 0.028736 0.000000
# 6 0.000000 0.000000 0.000000 0.005128 0.000000 0.032462
#
#
# Mechanical properties :
#
#
# Convention : Reuss Voigt Hill
#
# Bulk Modulus (GPa) = 59.52252 69.89417 64.70835
# Shear Modulus (GPa) = 24.80128 28.83191 26.81659
#
# Velocity S-wave (km/s) = 3.56859 3.84765 3.71074
# Velocity P-wave (km/s) = 6.89514 7.45842 7.18230
#
# Compressibility (1/GPa) = 0.01680036
#
# Stress axis : x y z
#
# Youngs Moduli (GPa) = 48.08763 50.58835 61.11720
#
# Poissons Ratio (x) = 0.57843 0.42691
# Poissons Ratio (y) = 0.54984 0.10042
# Poissons Ratio (z) = 0.33590 0.08312
#
# Static dielectric constant tensor:
#      x y z
#    x 3.528750 0.000000 -0.390990 
#    y 0.000000 3.607700 0.000000 
#    z -0.390990 0.000000 4.048600 
# 
# 
# High freq. dielectric constant tensor:
#      x y z
#    x 1.738550 0.000000 -0.022590 
#    y 0.000000 1.758330 0.000000 
#    z -0.022590 0.000000 1.769420 
# 
# From -- ./inp_files/69203.got.cif
#   From: 2010.06.25/outbox.cif.g09.slc.cpg/sg15_35_cif.got.tgz:69203.got - 2010.06.28 07:06:18.
