data_PCOD8134354
_publ_section_title
;
Structure prediction by ZEFSAII (Michael W. Deem and Ramdas Pophale) SiO2 
 PCOD8134354
Probable space group: C 2/C
;
_chemical_formula_sum "Si O2"
_cell_formula_units_Z 60
_cell_length_a 14.776386
_cell_length_b 13.360303
_cell_length_c 28.831820
_cell_angle_alpha 90.000000
_cell_angle_beta 33.005611
_cell_angle_gamma 90.000000
_cell_volume 3100.493621
_symmetry_space_group_name_H-M "C 2/C"
_symmetry_group_IT_number 15
_symmetry_cell_setting 'monoclinic'
loop_
_space_group_symop_operation_xyz
x,y,z
-x,y,1/2-z
-x,-y,-z
x,-y,1/2+z
1/2+x,1/2+y,z
1/2-x,1/2+y,1/2-z
1/2-x,1/2-y,-z
1/2+x,1/2-y,1/2+z
loop_
_atom_site_type_symbol
_atom_site_label
_atom_site_fract_x
_atom_site_fract_y
_atom_site_fract_z
Si Si1 0.500000 0.093389 0.750000
Si Si2 0.602202 0.741888 0.270992
Si Si3 0.760493 0.004668 0.078952
Si Si4 0.009869 0.168039 0.491821
Si Si5 0.816618 0.498441 0.994222
Si Si6 0.405396 0.847280 0.599545
Si Si7 0.871358 0.062439 0.341530
Si Si8 0.432062 0.787102 0.436120
O O1 0.378083 0.166752 0.773677
O O2 0.418147 0.020399 0.823087
O O3 0.777115 0.682882 0.195797
O O4 0.450390 0.668922 0.321924
O O5 0.562181 0.785145 0.338360
O O6 0.764628 0.000410 0.021526
O O7 0.814476 0.114520 0.073066
O O8 0.873164 0.918005 0.052094
O O9 0.977292 0.248451 0.545337
O O10 0.013547 0.218986 0.440227
O O11 0.919088 0.599784 0.959701
O O12 0.940003 0.405480 0.945151
O O13 0.667092 0.493409 0.096895
O O14 0.306218 0.916233 0.605768
O O15 0.000000 0.008675 0.250000
O O16 0.250000 0.750000 0.500000
#
# Coordination Sequence:
#
# PCOD8134354 Si02
#       8
#     4   8   8   8   8   8   8   8
#     4  12  18  38  64  90 116 158 212 260 304 356
#     4  11  19  36  64  91 120 157 210 264 304 357
#     4  11  24  38  64  89 121 165 206 258 305 377
#     4  11  22  41  61  88 122 164 205 246 317 369
#     4  12  23  37  62  97 124 162 210 258 320 377
#     4  11  22  37  62  91 128 161 201 260 323 370
#     4  10  19  35  61  89 118 158 209 258 310 364
#     4  12  20  37  65  92 118 157 210 257 298 367
#
# _framework density 19.351756000000002
#
# number of rings (size 3 to 8) (size 9 to 14) (size 15 to 20)
#    0.000    0.800    8.667    0.400    0.000    1.600 
#    0.000    4.000    1.467    0.000    0.000    0.000 
#    0.000    0.000    0.000    0.000    0.000    0.000 
#
# Total GULP energy -371940.381708 kJ/mol
# GULP energy per Si atom -12398.012724 kJ/mol
# Density = 1.930771 g / cm^3
# Si number density = 19.351756 Si / 1000 Ang^3
#
#
#
# Elastic Constant Matrix: (Units=GPa)
#
#
# Indices 1 2 3 4 5 6 
#
# 1 56.0211 42.9505 41.6053 -0.0001 11.5732 0.0000
# 2 42.9505 87.3617 45.8028 -0.0005 -1.6922 0.0000
# 3 41.6053 45.8028 122.0245 -0.0021 25.4086 -0.0004
# 4 -0.0001 -0.0005 -0.0021 23.1893 -0.0001 0.0783
# 5 11.5732 -1.6922 25.4086 -0.0001 32.9654 0.0000
# 6 0.0000 0.0000 -0.0004 0.0783 0.0000 31.2055
#
#
#
# Elastic Compliance Matrix: (Units=1/GPa)
#
#
# Indices 1 2 3 4 5 6 
#
# 1 0.034320 -0.014915 -0.004092 -0.000001 -0.009661 0.000000
# 2 -0.014915 0.021723 -0.005230 0.000000 0.010383 0.000000
# 3 -0.004092 -0.005230 0.013472 0.000001 -0.009216 0.000000
# 4 -0.000001 0.000000 0.000001 0.043124 0.000000 -0.000108
# 5 -0.009661 0.010383 -0.009216 0.000000 0.041363 0.000000
# 6 0.000000 0.000000 0.000000 -0.000108 0.000000 0.032046
#
#
# Mechanical properties :
#
#
# Convention : Reuss Voigt Hill
#
# Bulk Modulus (GPa) = 47.52573 58.45829 52.99201
# Shear Modulus (GPa) = 20.70088 26.47529 23.58808
#
# Velocity S-wave (km/s) = 3.27420 3.70281 3.49508
# Velocity P-wave (km/s) = 6.23747 6.96813 6.61290
#
# Compressibility (1/GPa) = 0.02104123
#
# Stress axis : x y z
#
# Youngs Moduli (GPa) = 29.13750 46.03457 74.22552
#
# Poissons Ratio (x) = 0.68661 0.30371
# Poissons Ratio (y) = 0.43459 0.38823
# Poissons Ratio (z) = 0.11922 0.24078
#
# Static dielectric constant tensor:
#      x y z
#    x 3.394910 0.000000 0.227470 
#    y 0.000000 3.547900 0.000000 
#    z 0.227470 0.000000 3.684620 
# 
# 
# High freq. dielectric constant tensor:
#      x y z
#    x 1.736870 0.000000 0.023460 
#    y 0.000000 1.738340 0.000000 
#    z 0.023460 0.000000 1.754830 
# 
# From -- ./inp_files/313963.got.cif
#   From: 2010.06.25/outbox.cif.g09.slc.cpg/sg15_157_cif.got.tgz:313963.got - 2010.06.28 07:06:18.
