data_PCOD8134936
_publ_section_title
;
Structure prediction by ZEFSAII (Michael W. Deem and Ramdas Pophale) SiO2 
 PCOD8134936
Probable space group: C 2/C
;
_chemical_formula_sum "Si O2"
_cell_formula_units_Z 48
_cell_length_a 22.069576
_cell_length_b 11.934288
_cell_length_c 13.857251
_cell_angle_alpha 90.000000
_cell_angle_beta 41.585498
_cell_angle_gamma 90.000000
_cell_volume 2422.498750
_symmetry_space_group_name_H-M "C 2/C"
_symmetry_group_IT_number 15
_symmetry_cell_setting 'monoclinic'
loop_
_space_group_symop_operation_xyz
x,y,z
-x,y,1/2-z
-x,-y,-z
x,-y,1/2+z
1/2+x,1/2+y,z
1/2-x,1/2+y,1/2-z
1/2-x,1/2-y,-z
1/2+x,1/2-y,1/2+z
loop_
_atom_site_type_symbol
_atom_site_label
_atom_site_fract_x
_atom_site_fract_y
_atom_site_fract_z
Si Si1 0.113987 0.515609 0.947064
Si Si2 0.009884 0.317077 0.443124
Si Si3 0.269713 0.493393 0.398421
Si Si4 0.267512 0.541468 0.626798
Si Si5 0.082825 0.084366 0.908924
Si Si6 0.304634 0.261993 0.837730
O O1 0.054136 0.623196 0.985265
O O2 0.170032 0.545773 0.978453
O O3 0.186600 0.475584 0.778119
O O4 0.048824 0.409278 0.044963
O O5 0.088676 0.270760 0.277749
O O6 0.948304 0.212369 0.546074
O O7 0.270736 0.500403 0.512654
O O8 0.350438 0.413259 0.264312
O O9 0.293197 0.611156 0.316785
O O10 0.365999 0.533026 0.558171
O O11 0.241856 0.672190 0.677132
O O12 0.000000 0.000000 0.000000
O O13 0.250000 0.250000 0.000000
#
# Coordination Sequence:
#
# PCOD8134936 Si02
#       6
#     8   8   8   8   8   8
#     4   9  20  37  62  79 114 158 189 235 276 348
#     4  10  19  37  57  86 115 148 196 231 286 341
#     4  10  19  37  57  84 116 149 190 234 295 342
#     4   9  20  36  56  84 114 147 191 234 287 340
#     4  11  21  35  58  83 114 150 183 243 290 341
#     4   9  17  33  56  85 113 140 184 241 294 331
#
# _framework density 19.814250000000001
#
# number of rings (size 3 to 8) (size 9 to 14) (size 15 to 20)
#    0.000    2.333    1.667    1.000    0.000    0.667 
#    0.000   22.500    3.667    0.000    0.000    0.000 
#    0.000    0.000    0.000    0.000    0.000    0.000 
#
# Total GULP energy -297336.664827 kJ/mol
# GULP energy per Si atom -12389.027701 kJ/mol
# Density = 1.976915 g / cm^3
# Si number density = 19.814250 Si / 1000 Ang^3
#
#
#
# Elastic Constant Matrix: (Units=GPa)
#
#
# Indices 1 2 3 4 5 6 
#
# 1 131.5398 13.8100 47.4708 0.0000 -4.9888 0.0000
# 2 13.8100 54.7269 26.9464 0.0000 -5.5101 0.0000
# 3 47.4708 26.9464 92.0765 0.0000 -6.1035 0.0000
# 4 0.0000 0.0000 0.0000 30.4403 0.0000 -10.7152
# 5 -4.9888 -5.5101 -6.1035 0.0000 36.3366 0.0000
# 6 0.0000 0.0000 0.0000 -10.7152 0.0000 20.5804
#
#
#
# Elastic Compliance Matrix: (Units=1/GPa)
#
#
# Indices 1 2 3 4 5 6 
#
# 1 0.009348 0.000055 -0.004804 0.000000 0.000485 0.000000
# 2 0.000055 0.021526 -0.006180 0.000000 0.002234 0.000000
# 3 -0.004804 -0.006180 0.015209 0.000000 0.000958 0.000000
# 4 0.000000 0.000000 0.000000 0.040223 0.000000 0.020942
# 5 0.000485 0.002234 0.000958 0.000000 0.028087 0.000000
# 6 0.000000 0.000000 0.000000 0.020942 0.000000 0.059494
#
#
# Mechanical properties :
#
#
# Convention : Reuss Voigt Hill
#
# Bulk Modulus (GPa) = 41.27663 50.53306 45.90484
# Shear Modulus (GPa) = 24.53143 30.14587 27.33865
#
# Velocity S-wave (km/s) = 3.52244 3.90477 3.71852
# Velocity P-wave (km/s) = 6.11723 6.77410 6.45403
#
# Compressibility (1/GPa) = 0.02422678
#
# Stress axis : x y z
#
# Youngs Moduli (GPa) = 106.96988 46.45439 65.74975
#
# Poissons Ratio (x) = -0.00256 0.31584
# Poissons Ratio (y) = -0.00588 0.40634
# Poissons Ratio (z) = 0.51384 0.28709
#
# Static dielectric constant tensor:
#      x y z
#    x 3.524670 0.000000 -0.234840 
#    y 0.000000 4.816290 0.000000 
#    z -0.234840 0.000000 3.762930 
# 
# 
# High freq. dielectric constant tensor:
#      x y z
#    x 1.762120 0.000000 -0.026610 
#    y 0.000000 1.765890 0.000000 
#    z -0.026610 0.000000 1.775010 
# 
# From -- ./inp_files/167131.got.cif
#   From: 2010.06.25/outbox.cif.g09.slc.cpg/sg15_84_cif.got.tgz:167131.got - 2010.06.28 07:06:18.
