data_PCOD8134050
_publ_section_title
;
Structure prediction by ZEFSAII (Michael W. Deem and Ramdas Pophale) SiO2 
 PCOD8134050
Probable space group: C 2/C
;
_chemical_formula_sum "Si O2"
_cell_formula_units_Z 48
_cell_length_a 26.682328
_cell_length_b 17.119270
_cell_length_c 8.785283
_cell_angle_alpha 90.000000
_cell_angle_beta 145.838206
_cell_angle_gamma 90.000000
_cell_volume 2253.403810
_symmetry_space_group_name_H-M "C 2/C"
_symmetry_group_IT_number 15
_symmetry_cell_setting 'monoclinic'
loop_
_space_group_symop_operation_xyz
x,y,z
-x,y,1/2-z
-x,-y,-z
x,-y,1/2+z
1/2+x,1/2+y,z
1/2-x,1/2+y,1/2-z
1/2-x,1/2-y,-z
1/2+x,1/2-y,1/2+z
loop_
_atom_site_type_symbol
_atom_site_label
_atom_site_fract_x
_atom_site_fract_y
_atom_site_fract_z
Si Si1 0.127661 0.962990 0.817927
Si Si2 0.214049 0.866853 0.522860
Si Si3 0.644064 0.931916 0.414910
Si Si4 0.318008 0.088867 0.830037
Si Si5 0.142451 0.296507 0.831821
Si Si6 0.500000 0.508052 0.750000
Si Si7 0.500000 0.857262 0.250000
O O1 0.067188 0.955613 0.816996
O O2 0.063251 0.938481 0.515782
O O3 0.161178 0.052047 0.868108
O O4 0.210720 0.903323 0.033463
O O5 0.147704 0.795047 0.383102
O O6 0.270655 0.841280 0.516697
O O7 0.279188 0.873553 0.832352
O O8 0.633159 0.926910 0.206637
O O9 0.551352 0.912788 0.262294
O O10 0.670126 0.019419 0.520785
O O11 0.366818 0.163682 0.025562
O O12 0.061735 0.303573 0.510548
#
# Coordination Sequence:
#
# PCOD8134050 Si02
#       7
#     8   8   8   8   8   4   4
#     4  10  19  35  54  80 110 139 182 226 274 329
#     4   9  19  38  57  78 111 151 188 224 279 350
#     4  10  21  36  59  84 111 146 189 235 282 334
#     4  11  21  37  60  82 109 152 192 229 278 347
#     4  10  21  36  58  82 111 151 191 232 284 335
#     4  10  20  31  54  83 108 138 176 232 280 317
#     4  10  22  39  54  83 116 142 188 244 286 327
#
# _framework density 21.301110000000001
#
# number of rings (size 3 to 8) (size 9 to 14) (size 15 to 20)
#    0.000    2.000    0.000    6.000    0.000    4.667 
#    0.000    6.667    0.000    0.000    0.000    0.000 
#    0.000    0.000    0.000    0.000    0.000    0.000 
#
# Total GULP energy -297474.134156 kJ/mol
# GULP energy per Si atom -12394.755590 kJ/mol
# Density = 2.125263 g / cm^3
# Si number density = 21.301110 Si / 1000 Ang^3
#
#
#
# Elastic Constant Matrix: (Units=GPa)
#
#
# Indices 1 2 3 4 5 6 
#
# 1 101.4051 5.3817 42.4812 0.0000 -9.7608 0.0000
# 2 5.3817 69.4959 39.8533 0.0000 -1.6324 0.0000
# 3 42.4812 39.8533 117.0973 0.0000 -10.6166 0.0000
# 4 0.0000 0.0000 0.0000 8.4897 0.0000 -2.7317
# 5 -9.7608 -1.6324 -10.6166 0.0000 42.0368 0.0000
# 6 0.0000 0.0000 0.0000 -2.7317 0.0000 14.9126
#
#
#
# Elastic Compliance Matrix: (Units=1/GPa)
#
#
# Indices 1 2 3 4 5 6 
#
# 1 0.011939 0.001880 -0.004824 0.000000 0.001627 0.000000
# 2 0.001880 0.018205 -0.006933 0.000000 -0.000608 0.000000
# 3 -0.004824 -0.006933 0.012817 0.000000 0.001848 0.000000
# 4 0.000000 0.000000 0.000000 0.125167 0.000000 0.022928
# 5 0.001627 -0.000608 0.001848 0.000000 0.024610 0.000000
# 6 0.000000 0.000000 0.000000 0.022928 0.000000 0.071257
#
#
# Mechanical properties :
#
#
# Convention : Reuss Voigt Hill
#
# Bulk Modulus (GPa) = 43.08936 51.49231 47.29083
# Shear Modulus (GPa) = 17.15359 26.43999 21.79679
#
# Velocity S-wave (km/s) = 2.84084 3.52696 3.20233
# Velocity P-wave (km/s) = 5.57074 6.38842 5.99354
#
# Compressibility (1/GPa) = 0.02320759
#
# Stress axis : x y z
#
# Youngs Moduli (GPa) = 83.75919 54.92883 78.02143
#
# Poissons Ratio (x) = -0.10326 0.37634
# Poissons Ratio (y) = -0.15745 0.54093
# Poissons Ratio (z) = 0.40402 0.38083
#
# Static dielectric constant tensor:
#      x y z
#    x 3.922680 0.000000 -0.010920 
#    y 0.000000 3.474270 0.000000 
#    z -0.010920 0.000000 4.157780 
# 
# 
# High freq. dielectric constant tensor:
#      x y z
#    x 1.838340 0.000000 -0.007350 
#    y 0.000000 1.791980 0.000000 
#    z -0.007350 0.000000 1.850850 
# 
# From -- ./inp_files/40695.got.cif
#   From: 2010.06.25/outbox.cif.g09.slc.cpg/sg15_21_cif.got.tgz:40695.got - 2010.06.28 07:06:18.
