data_PCOD8134263
_publ_section_title
;
Structure prediction by ZEFSAII (Michael W. Deem and Ramdas Pophale) SiO2 
 PCOD8134263
Probable space group: C 2/C
;
_chemical_formula_sum "Si O2"
_cell_formula_units_Z 48
_cell_length_a 14.737916
_cell_length_b 31.205624
_cell_length_c 13.731603
_cell_angle_alpha 90.000000
_cell_angle_beta 158.942131
_cell_angle_gamma 90.000000
_cell_volume 2269.134934
_symmetry_space_group_name_H-M "C 2/C"
_symmetry_group_IT_number 15
_symmetry_cell_setting 'monoclinic'
loop_
_space_group_symop_operation_xyz
x,y,z
-x,y,1/2-z
-x,-y,-z
x,-y,1/2+z
1/2+x,1/2+y,z
1/2-x,1/2+y,1/2-z
1/2-x,1/2-y,-z
1/2+x,1/2-y,1/2+z
loop_
_atom_site_type_symbol
_atom_site_label
_atom_site_fract_x
_atom_site_fract_y
_atom_site_fract_z
Si Si1 0.985893 0.878920 0.940416
Si Si2 0.998132 0.064074 0.633498
Si Si3 0.958218 0.288782 0.815768
Si Si4 0.485316 0.082902 0.850841
Si Si5 0.001860 0.487285 0.865749
Si Si6 0.457934 0.303153 0.388469
O O1 0.719284 0.889760 0.624898
O O2 0.999456 0.894262 0.066741
O O3 0.216157 0.896865 0.108165
O O4 0.009356 0.826912 0.974165
O O5 0.000000 0.076629 0.750000
O O6 0.749631 0.037564 0.354807
O O7 0.243980 0.036963 0.849195
O O8 0.000000 0.269521 0.750000
O O9 0.701130 0.315957 0.565849
O O10 0.938774 0.248792 0.872324
O O11 0.193052 0.319680 0.077022
O O12 0.500000 0.082001 0.750000
O O13 0.500901 0.034865 0.912429
O O14 0.000000 0.494274 0.750000
#
# Coordination Sequence:
#
# PCOD8134263 Si02
#       6
#     8   8   8   8   8   8
#     4  12  24  37  58  89 115 147 187 235 299 336
#     4  10  21  35  53  83 121 152 180 225 286 351
#     4  10  19  35  59  84 115 160 195 213 254 326
#     4  11  24  42  61  80 106 146 202 254 288 325
#     4   9  19  37  56  76 108 152 197 235 276 338
#     4  10  20  34  52  84 117 145 185 226 261 327
#
# _framework density 21.153435999999999
#
# number of rings (size 3 to 8) (size 9 to 14) (size 15 to 20)
#    0.000    1.667    0.000    6.000    0.000    8.667 
#    0.000    1.667    0.000    0.000    0.000   46.667 
#    0.000    0.000    0.000    0.000    0.000    0.000 
#
# Total GULP energy -297369.146927 kJ/mol
# GULP energy per Si atom -12390.381122 kJ/mol
# Density = 2.110529 g / cm^3
# Si number density = 21.153436 Si / 1000 Ang^3
#
#
#
# Elastic Constant Matrix: (Units=GPa)
#
#
# Indices 1 2 3 4 5 6 
#
# 1 63.1947 20.3502 20.0899 0.0039 1.9447 0.0016
# 2 20.3502 63.5124 7.2781 0.0013 -4.9097 0.0019
# 3 20.0899 7.2781 144.0298 -0.0140 27.4040 0.0002
# 4 0.0039 0.0013 -0.0140 22.6203 0.0047 4.5284
# 5 1.9447 -4.9097 27.4040 0.0047 31.3862 0.0019
# 6 0.0016 0.0019 0.0002 4.5284 0.0019 17.1321
#
#
#
# Elastic Compliance Matrix: (Units=1/GPa)
#
#
# Indices 1 2 3 4 5 6 
#
# 1 0.018358 -0.005625 -0.002270 -0.000004 -0.000036 0.000000
# 2 -0.005625 0.017949 -0.000867 -0.000001 0.003913 -0.000002
# 3 -0.002270 -0.000867 0.008757 0.000008 -0.007641 -0.000001
# 4 -0.000004 -0.000001 0.000008 0.046678 -0.000013 -0.012338
# 5 -0.000036 0.003913 -0.007641 -0.000013 0.039147 -0.000001
# 6 0.000000 -0.000002 -0.000001 -0.012338 -0.000001 0.061631
#
#
# Mechanical properties :
#
#
# Convention : Reuss Voigt Hill
#
# Bulk Modulus (GPa) = 36.30886 40.68591 38.49738
# Shear Modulus (GPa) = 22.80771 29.09564 25.95168
#
# Velocity S-wave (km/s) = 3.28716 3.71274 3.50641
# Velocity P-wave (km/s) = 5.62219 6.13634 5.88489
#
# Compressibility (1/GPa) = 0.02754149
#
# Stress axis : x y z
#
# Youngs Moduli (GPa) = 54.47198 55.71312 114.19116
#
# Poissons Ratio (x) = 0.31338 0.25917
# Poissons Ratio (y) = 0.30640 0.09900
# Poissons Ratio (z) = 0.12363 0.04830
#
# Static dielectric constant tensor:
#      x y z
#    x 3.567650 0.000000 0.015020 
#    y 0.000000 3.625550 -0.000010 
#    z 0.015020 -0.000010 3.868980 
# 
# 
# High freq. dielectric constant tensor:
#      x y z
#    x 1.805100 0.000000 0.018940 
#    y 0.000000 1.808690 0.000000 
#    z 0.018940 0.000000 1.864460 
# 
# From -- ./inp_files/157720.got.cif
#   From: 2010.06.25/outbox.cif.g09.slc.cpg/sg15_79_cif.got.tgz:157720.got - 2010.06.28 07:06:18.
