data_PCOD8134944
_publ_section_title
;
Structure prediction by ZEFSAII (Michael W. Deem and Ramdas Pophale) SiO2 
 PCOD8134944
Probable space group: C 2/C
;
_chemical_formula_sum "Si O2"
_cell_formula_units_Z 40
_cell_length_a 11.768470
_cell_length_b 10.235505
_cell_length_c 21.764672
_cell_angle_alpha 90.000000
_cell_angle_beta 52.584781
_cell_angle_gamma 90.000000
_cell_volume 2082.286158
_symmetry_space_group_name_H-M "C 2/C"
_symmetry_group_IT_number 15
_symmetry_cell_setting 'monoclinic'
loop_
_space_group_symop_operation_xyz
x,y,z
-x,y,1/2-z
-x,-y,-z
x,-y,1/2+z
1/2+x,1/2+y,z
1/2-x,1/2+y,1/2-z
1/2-x,1/2-y,-z
1/2+x,1/2-y,1/2+z
loop_
_atom_site_type_symbol
_atom_site_label
_atom_site_fract_x
_atom_site_fract_y
_atom_site_fract_z
Si Si1 0.831976 0.818099 0.794763
Si Si2 0.422552 0.510991 0.440771
Si Si3 0.802933 0.922011 0.099299
Si Si4 0.650161 0.591055 0.667246
Si Si5 0.684881 0.673140 0.338108
O O1 0.771530 0.713929 0.862324
O O2 0.777254 0.787586 0.744150
O O3 0.000000 0.818405 0.750000
O O4 0.776684 0.963761 0.826887
O O5 0.527591 0.408204 0.440948
O O6 0.291285 0.546252 0.529908
O O7 0.368534 0.438417 0.398274
O O8 0.513372 0.644173 0.396082
O O9 0.736389 0.040521 0.162724
O O10 0.500000 0.626997 0.750000
O O11 0.763439 0.708194 0.636349
#
# Coordination Sequence:
#
# PCOD8134944 Si02
#       5
#     8   8   8   8   8
#     4  11  19  35  57  83 114 145 188 243 287 337
#     4   9  19  40  56  79 115 152 187 238 294 333
#     4   9  20  37  58  78 117 147 189 242 284 343
#     4  11  20  35  60  82 116 153 190 238 289 336
#     4  10  19  37  58  81 109 153 193 229 285 352
#
# _framework density 19.209655000000001
#
# number of rings (size 3 to 8) (size 9 to 14) (size 15 to 20)
#    1.200    0.800    4.000    2.400    0.000    2.400 
#    0.000    3.000    0.000    0.000    0.000    0.000 
#    0.000    0.000    0.000    0.000    0.000    0.000 
#
# Total GULP energy -247768.244669 kJ/mol
# GULP energy per Si atom -12388.412233 kJ/mol
# Density = 1.916593 g / cm^3
# Si number density = 19.209655 Si / 1000 Ang^3
#
#
#
# Elastic Constant Matrix: (Units=GPa)
#
#
# Indices 1 2 3 4 5 6 
#
# 1 53.1436 34.9502 19.2327 0.0000 22.1574 0.0000
# 2 34.9502 107.4290 8.4424 0.0000 -5.2880 0.0000
# 3 19.2327 8.4424 78.0147 0.0000 25.6597 0.0000
# 4 0.0000 0.0000 0.0000 17.8487 0.0000 -2.7602
# 5 22.1574 -5.2880 25.6597 0.0000 27.6064 0.0000
# 6 0.0000 0.0000 0.0000 -2.7602 0.0000 20.7688
#
#
#
# Elastic Compliance Matrix: (Units=1/GPa)
#
#
# Indices 1 2 3 4 5 6 
#
# 1 0.049573 -0.019003 0.005933 0.000000 -0.048943 0.000000
# 2 -0.019003 0.016982 -0.004666 0.000000 0.022842 0.000000
# 3 0.005933 -0.004666 0.019762 0.000000 -0.024024 0.000000
# 4 0.000000 0.000000 0.000000 0.057202 0.000000 0.007602
# 5 -0.048943 0.022842 -0.024024 0.000000 0.102212 0.000000
# 6 0.000000 0.000000 0.000000 0.007602 0.000000 0.049160
#
#
# Mechanical properties :
#
#
# Convention : Reuss Voigt Hill
#
# Bulk Modulus (GPa) = 19.66739 40.42645 30.04692
# Shear Modulus (GPa) = 14.39630 24.97558 19.68594
#
# Velocity S-wave (km/s) = 2.74054 3.60968 3.20471
# Velocity P-wave (km/s) = 4.50273 6.20190 5.41933
#
# Compressibility (1/GPa) = 0.05084560
#
# Stress axis : x y z
#
# Youngs Moduli (GPa) = 20.17209 58.88629 50.60170
#
# Poissons Ratio (x) = 1.11903 -0.30023
# Poissons Ratio (y) = 0.38334 0.23610
# Poissons Ratio (z) = -0.11968 0.27475
#
# Static dielectric constant tensor:
#      x y z
#    x 3.152160 0.000000 0.254790 
#    y 0.000000 3.511740 0.000000 
#    z 0.254790 0.000000 3.584840 
# 
# 
# High freq. dielectric constant tensor:
#      x y z
#    x 1.715080 0.000000 0.032030 
#    y 0.000000 1.739530 0.000000 
#    z 0.032030 0.000000 1.748380 
# 
# From -- ./inp_files/241893.got.cif
#   From: 2010.06.25/outbox.cif.g09.slc.cpg/sg15_121_cif.got.tgz:241893.got - 2010.06.28 07:06:18.
