data_PCOD8134198
_publ_section_title
;
Structure prediction by ZEFSAII (Michael W. Deem and Ramdas Pophale) SiO2 
 PCOD8134198
Probable space group: C 2/C
;
_chemical_formula_sum "Si O2"
_cell_formula_units_Z 56
_cell_length_a 15.102226
_cell_length_b 11.541912
_cell_length_c 17.970702
_cell_angle_alpha 90.000000
_cell_angle_beta 73.804332
_cell_angle_gamma 90.000000
_cell_volume 3008.135382
_symmetry_space_group_name_H-M "C 2/C"
_symmetry_group_IT_number 15
_symmetry_cell_setting 'monoclinic'
loop_
_space_group_symop_operation_xyz
x,y,z
-x,y,1/2-z
-x,-y,-z
x,-y,1/2+z
1/2+x,1/2+y,z
1/2-x,1/2+y,1/2-z
1/2-x,1/2-y,-z
1/2+x,1/2-y,1/2+z
loop_
_atom_site_type_symbol
_atom_site_label
_atom_site_fract_x
_atom_site_fract_y
_atom_site_fract_z
Si Si1 0.922868 0.577287 0.437111
Si Si2 0.301560 0.880820 0.405558
Si Si3 0.605029 0.475523 0.210005
Si Si4 0.298435 0.379196 0.925771
Si Si5 0.897925 0.294724 0.801398
Si Si6 0.872979 0.508490 0.097666
Si Si7 0.774616 0.491145 0.763774
O O1 0.889425 0.456375 0.409144
O O2 0.890207 0.682333 0.392206
O O3 0.881857 0.589614 0.530585
O O4 0.032579 0.576723 0.413903
O O5 0.335733 0.748511 0.398203
O O6 0.215054 0.897458 0.482440
O O7 0.268065 0.917492 0.331900
O O8 0.500000 0.508488 0.250000
O O9 0.630195 0.525975 0.122695
O O10 0.622653 0.338690 0.207999
O O11 0.671253 0.532484 0.257184
O O12 0.199250 0.392820 0.909643
O O13 0.820787 0.369739 0.776995
O O14 0.000000 0.331007 0.750000
O O15 0.836825 0.451795 0.182968
#
# Coordination Sequence:
#
# PCOD8134198 Si02
#       7
#     8   8   8   8   8   8   8
#     4   9  17  32  53  88 106 140 180 229 270 327
#     4   9  19  34  59  78 109 143 183 221 277 327
#     4  10  23  38  56  79 114 149 185 226 274 326
#     4   9  19  38  53  77 110 152 176 219 274 338
#     4  10  19  35  58  81 110 148 184 222 276 336
#     4   9  17  31  55  79 114 135 180 225 272 318
#     4  10  20  34  56  83 106 144 189 228 271 330
#
# _framework density 18.616182999999999
#
# number of rings (size 3 to 8) (size 9 to 14) (size 15 to 20)
#    0.000    2.571    1.429    0.000    4.000    0.000 
#    2.571   12.143    0.000    0.000    0.000    0.000 
#    0.000    0.000    0.000    0.000    0.000    0.000 
#
# Total GULP energy -347080.280318 kJ/mol
# GULP energy per Si atom -12395.724297 kJ/mol
# Density = 1.857381 g / cm^3
# Si number density = 18.616183 Si / 1000 Ang^3
#
#
#
# Elastic Constant Matrix: (Units=GPa)
#
#
# Indices 1 2 3 4 5 6 
#
# 1 102.8899 34.1289 48.2579 0.0000 -9.0814 0.0000
# 2 34.1289 71.4220 40.5967 0.0000 -7.2609 0.0000
# 3 48.2579 40.5967 153.1989 0.0000 6.2430 0.0000
# 4 0.0000 0.0000 0.0000 24.7693 0.0000 -5.4771
# 5 -9.0814 -7.2609 6.2430 0.0000 25.0307 0.0000
# 6 0.0000 0.0000 0.0000 -5.4771 0.0000 19.2505
#
#
#
# Elastic Compliance Matrix: (Units=1/GPa)
#
#
# Indices 1 2 3 4 5 6 
#
# 1 0.012901 -0.003899 -0.003208 0.000000 0.004350 0.000000
# 2 -0.003899 0.018583 -0.003898 0.000000 0.004948 0.000000
# 3 -0.003208 -0.003898 0.008753 0.000000 -0.004478 0.000000
# 4 0.000000 0.000000 0.000000 0.043083 0.000000 0.012258
# 5 0.004350 0.004948 -0.004478 0.000000 0.044081 0.000000
# 6 0.000000 0.000000 0.000000 0.012258 0.000000 0.055434
#
#
# Mechanical properties :
#
#
# Convention : Reuss Voigt Hill
#
# Bulk Modulus (GPa) = 54.86140 63.71977 59.29059
# Shear Modulus (GPa) = 23.70553 27.44525 25.57539
#
# Velocity S-wave (km/s) = 3.57232 3.84379 3.71054
# Velocity P-wave (km/s) = 6.82268 7.34861 7.09052
#
# Compressibility (1/GPa) = 0.01822775
#
# Stress axis : x y z
#
# Youngs Moduli (GPa) = 77.51365 53.81249 114.24287
#
# Poissons Ratio (x) = 0.20982 0.36647
# Poissons Ratio (y) = 0.30224 0.44529
# Poissons Ratio (z) = 0.24865 0.20975
#
# Static dielectric constant tensor:
#      x y z
#    x 3.362480 0.000000 0.064850 
#    y 0.000000 3.124020 0.000000 
#    z 0.064850 0.000000 3.869340 
# 
# 
# High freq. dielectric constant tensor:
#      x y z
#    x 1.715030 0.000000 0.005400 
#    y 0.000000 1.693140 0.000000 
#    z 0.005400 0.000000 1.738790 
# 
# From -- ./inp_files/203938.got.cif
#   From: 2010.06.25/outbox.cif.g09.slc.cpg/sg15_102_cif.got.tgz:203938.got - 2010.06.28 07:06:18.
