data_PCOD8134441
_publ_section_title
;
Structure prediction by ZEFSAII (Michael W. Deem and Ramdas Pophale) SiO2 
 PCOD8134441
Probable space group: C 2/C
;
_chemical_formula_sum "Si O2"
_cell_formula_units_Z 44
_cell_length_a 10.948399
_cell_length_b 14.357475
_cell_length_c 14.887614
_cell_angle_alpha 90.000000
_cell_angle_beta 64.022434
_cell_angle_gamma 90.000000
_cell_volume 2103.763269
_symmetry_space_group_name_H-M "C 2/C"
_symmetry_group_IT_number 15
_symmetry_cell_setting 'monoclinic'
loop_
_space_group_symop_operation_xyz
x,y,z
-x,y,1/2-z
-x,-y,-z
x,-y,1/2+z
1/2+x,1/2+y,z
1/2-x,1/2+y,1/2-z
1/2-x,1/2-y,-z
1/2+x,1/2-y,1/2+z
loop_
_atom_site_type_symbol
_atom_site_label
_atom_site_fract_x
_atom_site_fract_y
_atom_site_fract_z
Si Si1 0.072132 0.741402 0.134414
Si Si2 0.684558 0.879542 0.449660
Si Si3 0.606918 0.860270 0.286223
Si Si4 0.117651 0.043305 0.078001
Si Si5 0.391449 0.397021 0.115332
Si Si6 0.000000 0.181671 0.250000
O O1 0.207170 0.800006 0.113315
O O2 0.000000 0.711005 0.250000
O O3 0.974086 0.802874 0.104229
O O4 0.107634 0.649057 0.065998
O O5 0.579857 0.888159 0.399165
O O6 0.754521 0.978335 0.443133
O O7 0.500000 0.906870 0.250000
O O8 0.756013 0.897809 0.216906
O O9 0.594875 0.747588 0.281969
O O10 0.103890 0.119703 0.159590
O O11 0.145218 0.097647 0.977185
O O12 0.977605 0.985908 0.119346
#
# Coordination Sequence:
#
# PCOD8134441 Si02
#       6
#     8   8   8   8   8   4
#     4  10  19  35  66  91 122 165 205 258 304 372
#     4  10  20  38  61  97 123 156 216 253 309 367
#     4  10  22  38  60  88 129 166 203 254 298 387
#     4  10  21  38  67  92 117 160 205 272 301 367
#     4  10  20  39  62  89 122 160 207 253 314 360
#     4  10  22  36  60  90 116 164 210 240 318 350
#
# _framework density 20.914901
#
# number of rings (size 3 to 8) (size 9 to 14) (size 15 to 20)
#    0.545    1.455    1.818    2.182    2.545    2.182 
#    0.000    1.818    0.000    0.000    0.000    0.000 
#    0.000    0.000    0.000    0.000    0.000    0.000 
#
# Total GULP energy -272788.930827 kJ/mol
# GULP energy per Si atom -12399.496856 kJ/mol
# Density = 2.086730 g / cm^3
# Si number density = 20.914901 Si / 1000 Ang^3
#
#
#
# Elastic Constant Matrix: (Units=GPa)
#
#
# Indices 1 2 3 4 5 6 
#
# 1 79.3836 26.0704 41.2225 0.0000 23.3610 0.0000
# 2 26.0704 71.0309 53.1154 0.0000 11.4298 0.0000
# 3 41.2225 53.1154 154.6083 0.0000 18.8449 0.0000
# 4 0.0000 0.0000 0.0000 33.6229 0.0000 -6.4115
# 5 23.3610 11.4298 18.8449 0.0000 41.1255 0.0000
# 6 0.0000 0.0000 0.0000 -6.4115 0.0000 16.9575
#
#
#
# Elastic Compliance Matrix: (Units=1/GPa)
#
#
# Indices 1 2 3 4 5 6 
#
# 1 0.017248 -0.003165 -0.002568 0.000000 -0.007741 0.000000
# 2 -0.003165 0.019756 -0.005818 0.000000 -0.001027 0.000000
# 3 -0.002568 -0.005818 0.009296 0.000000 -0.001184 0.000000
# 4 0.000000 0.000000 0.000000 0.032053 0.000000 0.012119
# 5 -0.007741 -0.001027 -0.001184 0.000000 0.029541 0.000000
# 6 0.000000 0.000000 0.000000 0.012119 0.000000 0.063553
#
#
# Mechanical properties :
#
#
# Convention : Reuss Voigt Hill
#
# Bulk Modulus (GPa) = 43.10689 60.64881 51.87785
# Shear Modulus (GPa) = 24.71817 30.64881 27.68349
#
# Velocity S-wave (km/s) = 3.44153 3.83221 3.64211
# Velocity P-wave (km/s) = 6.03718 6.97438 6.52263
#
# Compressibility (1/GPa) = 0.02319815
#
# Stress axis : x y z
#
# Youngs Moduli (GPa) = 57.97787 50.61811 107.57598
#
# Poissons Ratio (x) = 0.16018 0.27625
# Poissons Ratio (y) = 0.18347 0.62589
# Poissons Ratio (z) = 0.14889 0.29450
#
# Static dielectric constant tensor:
#      x y z
#    x 3.679060 0.000000 0.141630 
#    y 0.000000 3.518190 0.000000 
#    z 0.141630 0.000000 3.855270 
# 
# 
# High freq. dielectric constant tensor:
#      x y z
#    x 1.809010 0.000000 0.011510 
#    y 0.000000 1.798110 0.000000 
#    z 0.011510 0.000000 1.829080 
# 
# From -- ./inp_files/143434.got.cif
#   From: 2010.06.25/outbox.cif.g09.slc.cpg/sg15_72_cif.got.tgz:143434.got - 2010.06.28 07:06:18.
