data_PCOD8134543
_publ_section_title
;
Structure prediction by ZEFSAII (Michael W. Deem and Ramdas Pophale) SiO2 
 PCOD8134543
Probable space group: C 2/C
;
_chemical_formula_sum "Si O2"
_cell_formula_units_Z 48
_cell_length_a 29.268458
_cell_length_b 12.536243
_cell_length_c 13.965474
_cell_angle_alpha 90.000000
_cell_angle_beta 26.723201
_cell_angle_gamma 90.000000
_cell_volume 2304.237237
_symmetry_space_group_name_H-M "C 2/C"
_symmetry_group_IT_number 15
_symmetry_cell_setting 'monoclinic'
loop_
_space_group_symop_operation_xyz
x,y,z
-x,y,1/2-z
-x,-y,-z
x,-y,1/2+z
1/2+x,1/2+y,z
1/2-x,1/2+y,1/2-z
1/2-x,1/2-y,-z
1/2+x,1/2-y,1/2+z
loop_
_atom_site_type_symbol
_atom_site_label
_atom_site_fract_x
_atom_site_fract_y
_atom_site_fract_z
Si Si1 0.384264 0.539300 0.225893
Si Si2 0.923248 0.618815 0.469409
Si Si3 0.343077 0.696263 0.993181
Si Si4 0.842026 0.158516 0.693931
Si Si5 0.795798 0.036438 0.599507
Si Si6 0.499678 0.723424 0.541139
O O1 0.314797 0.452220 0.301378
O O2 0.340899 0.558789 0.411809
O O3 0.500000 0.500000 0.000000
O O4 0.393290 0.657741 0.161739
O O5 0.894844 0.732581 0.476664
O O6 0.826464 0.547112 0.671288
O O7 0.978500 0.654187 0.465819
O O8 0.000000 0.560501 0.250000
O O9 0.248110 0.757278 0.123673
O O10 0.314176 0.585083 0.097518
O O11 0.419520 0.667941 0.763748
O O12 0.945051 0.216515 0.538530
O O13 0.850357 0.121430 0.567586
#
# Coordination Sequence:
#
# PCOD8134543 Si02
#       6
#     8   8   8   8   8   8
#     4  10  20  34  57  91 114 143 193 249 283 339
#     4   9  21  38  60  82 116 158 197 238 289 355
#     4  10  19  37  62  82 113 157 195 233 289 354
#     4  10  21  35  60  87 116 150 201 237 282 352
#     4  11  21  36  61  86 119 154 192 246 299 335
#     4  10  19  36  57  87 112 148 196 239 282 344
#
# _framework density 20.831188999999998
#
# number of rings (size 3 to 8) (size 9 to 14) (size 15 to 20)
#    0.000    2.000    3.333    1.500    0.000    3.333 
#    0.000    0.833   14.667    0.000    0.000    0.000 
#    0.000    0.000    0.000    0.000    0.000    0.000 
#
# Total GULP energy -297367.026518 kJ/mol
# GULP energy per Si atom -12390.292772 kJ/mol
# Density = 2.078378 g / cm^3
# Si number density = 20.831189 Si / 1000 Ang^3
#
#
#
# Elastic Constant Matrix: (Units=GPa)
#
#
# Indices 1 2 3 4 5 6 
#
# 1 61.3333 2.8576 19.2027 0.0000 -0.3805 0.0000
# 2 2.8576 41.8917 29.9203 0.0000 -1.4518 0.0000
# 3 19.2027 29.9203 120.2550 0.0000 10.6290 0.0000
# 4 0.0000 0.0000 0.0000 32.7535 0.0000 -10.6790
# 5 -0.3805 -1.4518 10.6290 0.0000 31.3556 0.0000
# 6 0.0000 0.0000 0.0000 -10.6790 0.0000 32.2246
#
#
#
# Elastic Compliance Matrix: (Units=1/GPa)
#
#
# Indices 1 2 3 4 5 6 
#
# 1 0.017247 0.001119 -0.003150 0.000000 0.001329 0.000000
# 2 0.001119 0.029575 -0.007896 0.000000 0.004060 0.000000
# 3 -0.003150 -0.007896 0.011153 0.000000 -0.004185 0.000000
# 4 0.000000 0.000000 0.000000 0.034230 0.000000 0.011343
# 5 0.001329 0.004060 -0.004185 0.000000 0.033515 0.000000
# 6 0.000000 0.000000 0.000000 0.011343 0.000000 0.034791
#
#
# Mechanical properties :
#
#
# Convention : Reuss Voigt Hill
#
# Bulk Modulus (GPa) = 26.23185 36.38233 31.30709
# Shear Modulus (GPa) = 25.89725 30.70004 28.29864
#
# Velocity S-wave (km/s) = 3.52972 3.84311 3.68975
# Velocity P-wave (km/s) = 5.40665 6.09885 5.76315
#
# Compressibility (1/GPa) = 0.03812159
#
# Stress axis : x y z
#
# Youngs Moduli (GPa) = 57.98220 33.81235 89.66111
#
# Poissons Ratio (x) = -0.03785 0.28243
# Poissons Ratio (y) = -0.06491 0.70797
# Poissons Ratio (z) = 0.18264 0.26698
#
# Static dielectric constant tensor:
#      x y z
#    x 3.856740 0.000000 -0.032280 
#    y 0.000000 3.858300 0.000000 
#    z -0.032280 0.000000 3.830300 
# 
# 
# High freq. dielectric constant tensor:
#      x y z
#    x 1.815320 0.000000 0.004550 
#    y 0.000000 1.797030 0.000000 
#    z 0.004550 0.000000 1.802150 
# 
# From -- ./inp_files/123456.got.cif
#   From: 2010.06.25/outbox.cif.g09.slc.cpg/sg15_62_cif.got.tgz:123456.got - 2010.06.28 07:06:18.
