data_PCOD8134686
_publ_section_title
;
Structure prediction by ZEFSAII (Michael W. Deem and Ramdas Pophale) SiO2 
 PCOD8134686
Probable space group: C 2/C
;
_chemical_formula_sum "Si O2"
_cell_formula_units_Z 56
_cell_length_a 10.467421
_cell_length_b 16.856057
_cell_length_c 17.345490
_cell_angle_alpha 90.000000
_cell_angle_beta 56.657394
_cell_angle_gamma 90.000000
_cell_volume 2556.678615
_symmetry_space_group_name_H-M "C 2/C"
_symmetry_group_IT_number 15
_symmetry_cell_setting 'monoclinic'
loop_
_space_group_symop_operation_xyz
x,y,z
-x,y,1/2-z
-x,-y,-z
x,-y,1/2+z
1/2+x,1/2+y,z
1/2-x,1/2+y,1/2-z
1/2-x,1/2-y,-z
1/2+x,1/2-y,1/2+z
loop_
_atom_site_type_symbol
_atom_site_label
_atom_site_fract_x
_atom_site_fract_y
_atom_site_fract_z
Si Si1 0.187816 0.908182 0.515410
Si Si2 0.193724 0.570073 0.040513
Si Si3 0.089767 0.132603 0.293709
Si Si4 0.921853 0.137795 0.849988
Si Si5 0.642598 0.111317 0.388722
Si Si6 0.417659 0.713967 0.571129
Si Si7 0.720358 0.284111 0.886735
O O1 0.323482 0.901066 0.532541
O O2 0.181435 0.831409 0.461539
O O3 0.023993 0.918079 0.613276
O O4 0.236346 0.986725 0.451687
O O5 0.283335 0.586709 0.930549
O O6 0.221816 0.632230 0.098827
O O7 0.014309 0.568325 0.080970
O O8 0.226245 0.077571 0.212990
O O9 0.162118 0.204254 0.319059
O O10 0.000000 0.169645 0.250000
O O11 0.857677 0.222421 0.842470
O O12 0.000000 0.095127 0.750000
O O13 0.052382 0.151005 0.870892
O O14 0.658125 0.206700 0.371141
O O15 0.581171 0.746123 0.485680
#
# Coordination Sequence:
#
# PCOD8134686 Si02
#       7
#     8   8   8   8   8   8   8
#     4  10  23  38  58  87 122 162 194 243 310 369
#     4  11  22  38  59  89 120 156 201 250 305 362
#     4   9  21  36  58  88 113 153 199 244 304 367
#     4  11  21  35  60  87 117 154 199 259 294 348
#     4  11  19  38  62  86 116 156 203 249 292 366
#     4  10  19  37  60  88 115 153 209 242 302 359
#     4  10  19  36  60  86 118 152 201 252 298 355
#
# _framework density 21.903419
#
# number of rings (size 3 to 8) (size 9 to 14) (size 15 to 20)
#    0.000    1.714    2.857    2.571    0.000    6.857 
#    0.000    0.000    0.000    1.714    0.000    0.000 
#    0.000    0.000    0.000    0.000    0.000    0.000 
#
# Total GULP energy -347055.548227 kJ/mol
# GULP energy per Si atom -12394.841008 kJ/mol
# Density = 2.185357 g / cm^3
# Si number density = 21.903419 Si / 1000 Ang^3
#
#
#
# Elastic Constant Matrix: (Units=GPa)
#
#
# Indices 1 2 3 4 5 6 
#
# 1 105.9073 16.0089 26.8420 0.0000 -2.2556 0.0000
# 2 16.0089 57.3352 1.3269 0.0000 -16.6449 0.0000
# 3 26.8420 1.3269 79.8827 0.0000 -0.5385 0.0000
# 4 0.0000 0.0000 0.0000 18.1191 0.0000 -3.9996
# 5 -2.2556 -16.6449 -0.5385 0.0000 27.6495 0.0000
# 6 0.0000 0.0000 0.0000 -3.9996 0.0000 25.1820
#
#
#
# Elastic Compliance Matrix: (Units=1/GPa)
#
#
# Indices 1 2 3 4 5 6 
#
# 1 0.010822 -0.003275 -0.003590 0.000000 -0.001159 0.000000
# 2 -0.003275 0.022132 0.000821 0.000000 0.013072 0.000000
# 3 -0.003590 0.000821 0.013714 0.000000 0.000468 0.000000
# 4 0.000000 0.000000 0.000000 0.057196 0.000000 0.009084
# 5 -0.001159 0.013072 0.000468 0.000000 0.043951 0.000000
# 6 0.000000 0.000000 0.000000 0.009084 0.000000 0.041154
#
#
# Mechanical properties :
#
#
# Convention : Reuss Voigt Hill
#
# Bulk Modulus (GPa) = 28.91827 36.83119 32.87473
# Shear Modulus (GPa) = 23.52018 27.45328 25.48673
#
# Velocity S-wave (km/s) = 3.28046 3.54415 3.41485
# Velocity P-wave (km/s) = 5.25166 5.79653 5.53081
#
# Compressibility (1/GPa) = 0.03458021
#
# Stress axis : x y z
#
# Youngs Moduli (GPa) = 92.40035 45.18412 72.91732
#
# Poissons Ratio (x) = 0.14798 0.26177
# Poissons Ratio (y) = 0.30262 -0.05986
# Poissons Ratio (z) = 0.33171 -0.03710
#
# Static dielectric constant tensor:
#      x y z
#    x 4.100920 0.000000 0.021090 
#    y 0.000000 3.640030 0.000000 
#    z 0.021090 0.000000 4.001170 
# 
# 
# High freq. dielectric constant tensor:
#      x y z
#    x 1.872250 0.000000 0.001530 
#    y 0.000000 1.826390 0.000000 
#    z 0.001530 0.000000 1.858970 
# 
# From -- ./inp_files/192016.got.cif
#   From: 2010.06.25/outbox.cif.g09.slc.cpg/sg15_97_cif.got.tgz:192016.got - 2010.06.28 07:06:18.
