data_PCOD8134586
_publ_section_title
;
Structure prediction by ZEFSAII (Michael W. Deem and Ramdas Pophale) SiO2 
 PCOD8134586
Probable space group: C 2/C
;
_chemical_formula_sum "Si O2"
_cell_formula_units_Z 44
_cell_length_a 11.389617
_cell_length_b 28.346878
_cell_length_c 8.603493
_cell_angle_alpha 90.000000
_cell_angle_beta 53.593735
_cell_angle_gamma 90.000000
_cell_volume 2235.592943
_symmetry_space_group_name_H-M "C 2/C"
_symmetry_group_IT_number 15
_symmetry_cell_setting 'monoclinic'
loop_
_space_group_symop_operation_xyz
x,y,z
-x,y,1/2-z
-x,-y,-z
x,-y,1/2+z
1/2+x,1/2+y,z
1/2-x,1/2+y,1/2-z
1/2-x,1/2-y,-z
1/2+x,1/2-y,1/2+z
loop_
_atom_site_type_symbol
_atom_site_label
_atom_site_fract_x
_atom_site_fract_y
_atom_site_fract_z
Si Si1 0.911708 0.431987 0.081651
Si Si2 0.236943 0.150391 0.781613
Si Si3 0.558534 0.316498 0.870504
Si Si4 0.500000 0.002795 0.250000
Si Si5 0.057371 0.281065 0.529309
Si Si6 0.145531 0.352153 0.968345
O O1 0.767532 0.400259 0.181030
O O2 0.893634 0.468435 0.237555
O O3 0.907578 0.463079 0.931149
O O4 0.057384 0.398918 0.983991
O O5 0.290772 0.190748 0.618863
O O6 0.336001 0.150650 0.860424
O O7 0.066333 0.153632 0.945896
O O8 0.500000 0.298271 0.750000
O O9 0.696780 0.350954 0.740461
O O10 0.593963 0.271918 0.950077
O O11 0.000000 0.283929 0.750000
O O12 0.934603 0.304069 0.517277
#
# Coordination Sequence:
#
# PCOD8134586 Si02
#       6
#     8   8   8   4   8   8
#     4  10  19  36  58  85 103 134 175 225 265 319
#     4  10  20  36  56  79 110 143 184 219 261 316
#     4  10  21  36  55  76 109 153 183 215 259 315
#     4  10  20  34  62  82 104 130 176 224 272 318
#     4  11  22  34  52  80 111 146 187 224 257 304
#     4  10  20  36  56  79 110 143 184 219 261 316
#
# _framework density 19.681581000000001
#
# number of rings (size 3 to 8) (size 9 to 14) (size 15 to 20)
#    0.000    1.818    1.818    3.818    5.091    5.818 
#    0.000    0.000    0.000    6.545    0.000    0.000 
#    0.000    0.000    0.000    0.000    0.000    0.000 
#
# Total GULP energy -272704.216051 kJ/mol
# GULP energy per Si atom -12395.646184 kJ/mol
# Density = 1.963679 g / cm^3
# Si number density = 19.681581 Si / 1000 Ang^3
#
#
#
# Elastic Constant Matrix: (Units=GPa)
#
#
# Indices 1 2 3 4 5 6 
#
# 1 27.1956 26.9859 28.6544 0.0000 -6.1154 0.0000
# 2 26.9859 135.6213 66.3651 0.0000 0.0574 0.0000
# 3 28.6544 66.3651 134.9502 0.0000 -7.5943 0.0000
# 4 0.0000 0.0000 0.0000 64.0173 0.0000 24.4990
# 5 -6.1154 0.0574 -7.5943 0.0000 31.8245 0.0000
# 6 0.0000 0.0000 0.0000 24.4990 0.0000 10.0487
#
#
#
# Elastic Compliance Matrix: (Units=1/GPa)
#
#
# Indices 1 2 3 4 5 6 
#
# 1 0.053464 -0.007008 -0.007427 0.000000 0.008514 0.000000
# 2 -0.007008 0.010672 -0.003889 0.000000 -0.002294 0.000000
# 3 -0.007427 -0.003889 0.010967 0.000000 0.001197 0.000000
# 4 0.000000 0.000000 0.000000 0.233191 0.000000 -0.568525
# 5 0.008514 -0.002294 0.001197 0.000000 0.033348 0.000000
# 6 0.000000 0.000000 0.000000 -0.568525 0.000000 1.485589
#
#
# Mechanical properties :
#
#
# Convention : Reuss Voigt Hill
#
# Bulk Modulus (GPa) = 26.00406 60.19754 43.10080
# Shear Modulus (GPa) = 2.66425 32.89556 17.77991
#
# Velocity S-wave (km/s) = 1.16474 4.09270 3.00889
# Velocity P-wave (km/s) = 3.87942 7.27913 5.83248
#
# Compressibility (1/GPa) = 0.03845553
#
# Stress axis : x y z
#
# Youngs Moduli (GPa) = 18.70414 93.70265 91.18105
#
# Poissons Ratio (x) = 0.65663 0.67719
# Poissons Ratio (y) = 0.13107 0.35464
# Poissons Ratio (z) = 0.13891 0.36445
#
# Static dielectric constant tensor:
#      x y z
#    x 3.353200 0.000000 0.071930 
#    y 0.000000 3.633850 0.000000 
#    z 0.071930 0.000000 3.902520 
# 
# 
# High freq. dielectric constant tensor:
#      x y z
#    x 1.737730 0.000000 0.010490 
#    y 0.000000 1.760670 0.000000 
#    z 0.010490 0.000000 1.785620 
# 
# From -- ./inp_files/32766.got.cif
#   From: 2010.06.25/outbox.cif.g09.slc.cpg/sg15_17_cif.got.tgz:32766.got - 2010.06.28 07:06:18.
