data_PCOD8134678
_publ_section_title
;
Structure prediction by ZEFSAII (Michael W. Deem and Ramdas Pophale) SiO2 
 PCOD8134678
Probable space group: C 2/C
;
_chemical_formula_sum "Si O2"
_cell_formula_units_Z 60
_cell_length_a 15.705557
_cell_length_b 14.814690
_cell_length_c 13.005922
_cell_angle_alpha 90.000000
_cell_angle_beta 107.163459
_cell_angle_gamma 90.000000
_cell_volume 2891.363132
_symmetry_space_group_name_H-M "C 2/C"
_symmetry_group_IT_number 15
_symmetry_cell_setting 'monoclinic'
loop_
_space_group_symop_operation_xyz
x,y,z
-x,y,1/2-z
-x,-y,-z
x,-y,1/2+z
1/2+x,1/2+y,z
1/2-x,1/2+y,1/2-z
1/2-x,1/2-y,-z
1/2+x,1/2-y,1/2+z
loop_
_atom_site_type_symbol
_atom_site_label
_atom_site_fract_x
_atom_site_fract_y
_atom_site_fract_z
Si Si1 0.973372 0.162330 0.484903
Si Si2 0.759280 0.369595 0.091417
Si Si3 0.808393 0.563037 0.161136
Si Si4 0.866599 0.930633 0.785198
Si Si5 0.500000 0.102014 0.250000
Si Si6 0.886006 0.130340 0.790719
Si Si7 0.112334 0.272015 0.893892
Si Si8 0.623768 0.293626 0.887188
O O1 0.924983 0.078496 0.411376
O O2 0.892010 0.226869 0.495137
O O3 0.025590 0.135492 0.607244
O O4 0.037946 0.214077 0.429213
O O5 0.784504 0.474546 0.087089
O O6 0.701276 0.352781 0.172176
O O7 0.847391 0.307782 0.132428
O O8 0.705170 0.344970 0.970401
O O9 0.738618 0.578268 0.228189
O O10 0.807284 0.654274 0.089277
O O11 0.909081 0.546746 0.243397
O O12 0.899271 0.851803 0.721568
O O13 0.885316 0.028916 0.744069
O O14 0.479163 0.169140 0.146938
O O15 0.883568 0.199536 0.696721
#
# Coordination Sequence:
#
# PCOD8134678 Si02
#       8
#     8   8   8   8   4   8   8   8
#     4  11  21  36  53  85 118 155 185 231 281 338
#     4   9  20  38  63  80 109 155 191 232 277 345
#     4   9  19  39  60  86 106 146 193 237 288 332
#     4  11  23  35  56  85 118 148 189 234 279 339
#     4   8  18  36  62  82 112 144 180 246 282 338
#     4  10  19  36  60  84 111 150 193 227 286 337
#     4  10  19  37  62  83 113 150 190 235 286 338
#     4  10  22  39  56  81 120 155 188 225 283 339
#
# _framework density 20.751456999999998
#
# number of rings (size 3 to 8) (size 9 to 14) (size 15 to 20)
#    0.800    1.333    1.333    1.600    0.000    6.933 
#    2.400    3.333    0.000    0.000    0.000    0.000 
#    0.000    0.000    0.000    0.000    0.000    0.000 
#
# Total GULP energy -371651.104987 kJ/mol
# GULP energy per Si atom -12388.370166 kJ/mol
# Density = 2.070423 g / cm^3
# Si number density = 20.751457 Si / 1000 Ang^3
#
#
#
# Elastic Constant Matrix: (Units=GPa)
#
#
# Indices 1 2 3 4 5 6 
#
# 1 106.7634 44.4835 27.3799 0.0000 -10.1330 0.0000
# 2 44.4835 141.3510 45.3137 0.0000 -16.2333 0.0000
# 3 27.3799 45.3137 57.7418 0.0000 -9.2550 0.0000
# 4 0.0000 0.0000 0.0000 22.2784 0.0000 5.1322
# 5 -10.1330 -16.2333 -9.2550 0.0000 24.6278 0.0000
# 6 0.0000 0.0000 0.0000 5.1322 0.0000 20.1203
#
#
#
# Elastic Compliance Matrix: (Units=1/GPa)
#
#
# Indices 1 2 3 4 5 6 
#
# 1 0.011346 -0.002303 -0.003264 0.000000 0.001923 0.000000
# 2 -0.002303 0.010241 -0.006400 0.000000 0.003398 0.000000
# 3 -0.003264 -0.006400 0.024472 0.000000 0.003634 0.000000
# 4 0.000000 0.000000 0.000000 0.047689 0.000000 -0.012164
# 5 0.001923 0.003398 0.003634 0.000000 0.045001 0.000000
# 6 0.000000 0.000000 0.000000 -0.012164 0.000000 0.052804
#
#
# Mechanical properties :
#
#
# Convention : Reuss Voigt Hill
#
# Bulk Modulus (GPa) = 45.20124 60.02339 52.61231
# Shear Modulus (GPa) = 22.43535 25.98392 24.20963
#
# Velocity S-wave (km/s) = 3.29165 3.54241 3.41933
# Velocity P-wave (km/s) = 6.02296 6.76160 6.40294
#
# Compressibility (1/GPa) = 0.02212329
#
# Stress axis : x y z
#
# Youngs Moduli (GPa) = 88.13822 97.64256 40.86375
#
# Poissons Ratio (x) = 0.22490 0.13339
# Poissons Ratio (y) = 0.20301 0.26154
# Poissons Ratio (z) = 0.28770 0.62495
#
# Static dielectric constant tensor:
#      x y z
#    x 3.905290 0.000000 0.001470 
#    y 0.000000 3.790130 0.000000 
#    z 0.001470 0.000000 3.424330 
# 
# 
# High freq. dielectric constant tensor:
#      x y z
#    x 1.822630 0.000000 -0.002780 
#    y 0.000000 1.810710 0.000000 
#    z -0.002780 0.000000 1.781200 
# 
# From -- ./inp_files/105748.got.cif
#   From: 2010.06.25/outbox.cif.g09.slc.cpg/sg15_53_cif.got.tgz:105748.got - 2010.06.28 07:06:18.
