data_PCOD8134128
_publ_section_title
;
Structure prediction by ZEFSAII (Michael W. Deem and Ramdas Pophale) SiO2 
 PCOD8134128
Probable space group: C 2/C
;
_chemical_formula_sum "Si O2"
_cell_formula_units_Z 60
_cell_length_a 14.601900
_cell_length_b 13.243188
_cell_length_c 16.380553
_cell_angle_alpha 90.000000
_cell_angle_beta 90.695845
_cell_angle_gamma 90.000000
_cell_volume 3167.367414
_symmetry_space_group_name_H-M "C 2/C"
_symmetry_group_IT_number 15
_symmetry_cell_setting 'monoclinic'
loop_
_space_group_symop_operation_xyz
x,y,z
-x,y,1/2-z
-x,-y,-z
x,-y,1/2+z
1/2+x,1/2+y,z
1/2-x,1/2+y,1/2-z
1/2-x,1/2-y,-z
1/2+x,1/2-y,1/2+z
loop_
_atom_site_type_symbol
_atom_site_label
_atom_site_fract_x
_atom_site_fract_y
_atom_site_fract_z
Si Si1 0.192839 0.834237 0.180522
Si Si2 0.777133 0.516107 0.272848
Si Si3 0.500000 0.787345 0.250000
Si Si4 0.982720 0.636283 0.052151
Si Si5 0.347137 0.671819 0.161090
Si Si6 0.433382 0.936661 0.384702
Si Si7 0.645547 0.719416 0.513875
Si Si8 0.594626 0.811397 0.790265
O O1 0.259388 0.743065 0.159128
O O2 0.138795 0.853559 0.094000
O O3 0.125391 0.795591 0.251579
O O4 0.248655 0.932108 0.207153
O O5 0.684916 0.560774 0.311719
O O6 0.835902 0.467287 0.346376
O O7 0.831438 0.601163 0.223795
O O8 0.416444 0.713776 0.229161
O O9 0.483856 0.858088 0.327023
O O10 0.001070 0.532451 0.101182
O O11 0.080847 0.683866 0.029732
O O12 0.922396 0.705208 0.112999
O O13 0.920023 0.617531 0.972042
O O14 0.389656 0.665035 0.069761
O O15 0.750000 0.750000 0.500000
O O16 0.500000 0.848604 0.750000
#
# Coordination Sequence:
#
# PCOD8134128 Si02
#       8
#     8   8   4   8   8   8   8   8
#     4  10  21  36  62  84 118 160 196 243 303 356
#     4  11  22  39  58  89 118 158 202 243 296 364
#     4  12  20  38  60  86 118 160 198 244 306 354
#     4  11  21  34  57  95 119 149 201 260 298 348
#     4  10  22  37  60  85 125 155 196 249 297 363
#     4  11  21  32  60  88 117 149 198 252 301 346
#     4  10  19  35  56  89 124 156 194 247 310 354
#     4  11  20  37  59  86 117 152 192 247 295 349
#
# _framework density 18.943176000000001
#
# number of rings (size 3 to 8) (size 9 to 14) (size 15 to 20)
#    0.000    1.333    5.333    2.400    0.000    2.133 
#    1.200    0.667    2.933    1.600    0.000    0.000 
#    0.000    0.000    0.000    0.000    0.000    0.000 
#
# Total GULP energy -371897.958447 kJ/mol
# GULP energy per Si atom -12396.598615 kJ/mol
# Density = 1.890006 g / cm^3
# Si number density = 18.943176 Si / 1000 Ang^3
#
#
#
# Elastic Constant Matrix: (Units=GPa)
#
#
# Indices 1 2 3 4 5 6 
#
# 1 64.7536 27.9896 37.8306 0.0000 -4.9785 0.0000
# 2 27.9896 59.1586 32.9924 0.0000 0.0827 0.0000
# 3 37.8306 32.9924 124.8744 0.0000 -3.8564 0.0000
# 4 0.0000 0.0000 0.0000 15.3183 0.0000 -0.3035
# 5 -4.9785 0.0827 -3.8564 0.0000 31.0860 0.0000
# 6 0.0000 0.0000 0.0000 -0.3035 0.0000 22.4441
#
#
#
# Elastic Compliance Matrix: (Units=1/GPa)
#
#
# Indices 1 2 3 4 5 6 
#
# 1 0.021597 -0.007769 -0.004400 0.000000 0.002934 0.000000
# 2 -0.007769 0.022635 -0.003681 0.000000 -0.001761 0.000000
# 3 -0.004400 -0.003681 0.010332 0.000000 0.000587 0.000000
# 4 0.000000 0.000000 0.000000 0.065299 0.000000 0.000883
# 5 0.002934 -0.001761 0.000587 0.000000 0.032716 0.000000
# 6 0.000000 0.000000 0.000000 0.000883 0.000000 0.044567
#
#
# Mechanical properties :
#
#
# Convention : Reuss Voigt Hill
#
# Bulk Modulus (GPa) = 43.73583 49.60132 46.66857
# Shear Modulus (GPa) = 21.14472 23.76794 22.45633
#
# Velocity S-wave (km/s) = 3.34461 3.54601 3.44678
# Velocity P-wave (km/s) = 6.16873 6.55795 6.36632
#
# Compressibility (1/GPa) = 0.02286455
#
# Stress axis : x y z
#
# Youngs Moduli (GPa) = 46.30256 44.18005 96.79025
#
# Poissons Ratio (x) = 0.34322 0.42585
# Poissons Ratio (y) = 0.35971 0.35629
# Poissons Ratio (z) = 0.20372 0.16263
#
# Static dielectric constant tensor:
#      x y z
#    x 3.360850 0.000000 -0.037970 
#    y 0.000000 3.252330 0.000000 
#    z -0.037970 0.000000 4.180410 
# 
# 
# High freq. dielectric constant tensor:
#      x y z
#    x 1.717260 0.000000 0.000450 
#    y 0.000000 1.705110 0.000000 
#    z 0.000450 0.000000 1.759400 
# 
# From -- ./inp_files/153977.got.cif
#   From: 2010.06.25/outbox.cif.g09.slc.cpg/sg15_77_cif.got.tgz:153977.got - 2010.06.28 07:06:18.
