data_PCOD8134540
_publ_section_title
;
Structure prediction by ZEFSAII (Michael W. Deem and Ramdas Pophale) SiO2 
 PCOD8134540
Probable space group: C 2/C
;
_chemical_formula_sum "Si O2"
_cell_formula_units_Z 52
_cell_length_a 22.830504
_cell_length_b 9.648006
_cell_length_c 21.857269
_cell_angle_alpha 90.000000
_cell_angle_beta 147.858193
_cell_angle_gamma 90.000000
_cell_volume 2561.380563
_symmetry_space_group_name_H-M "C 2/C"
_symmetry_group_IT_number 15
_symmetry_cell_setting 'monoclinic'
loop_
_space_group_symop_operation_xyz
x,y,z
-x,y,1/2-z
-x,-y,-z
x,-y,1/2+z
1/2+x,1/2+y,z
1/2-x,1/2+y,1/2-z
1/2-x,1/2-y,-z
1/2+x,1/2-y,1/2+z
loop_
_atom_site_type_symbol
_atom_site_label
_atom_site_fract_x
_atom_site_fract_y
_atom_site_fract_z
Si Si1 0.108601 0.248381 0.663045
Si Si2 0.500000 0.630332 0.750000
Si Si3 0.781745 0.230252 0.207628
Si Si4 0.423186 0.631454 0.431976
Si Si5 0.328246 0.266331 0.013633
Si Si6 0.228865 0.535448 0.334718
Si Si7 0.191693 0.044649 0.833824
O O1 0.177544 0.261575 0.660930
O O2 0.118858 0.376842 0.719986
O O3 0.142860 0.106799 0.727701
O O4 0.978953 0.239110 0.529555
O O5 0.547869 0.723459 0.849035
O O6 0.599536 0.542017 0.807091
O O7 0.899219 0.207705 0.346390
O O8 0.793505 0.372932 0.180151
O O9 0.767205 0.110459 0.143998
O O10 0.500000 0.500000 0.500000
O O11 0.304330 0.576478 0.344506
O O12 0.250000 0.250000 0.000000
O O13 0.292165 0.411704 0.950761
O O14 0.301643 0.134446 0.946883
#
# Coordination Sequence:
#
# PCOD8134540 Si02
#       7
#     8   4   8   8   8   8   8
#     4  10  19  36  57  86 121 159 195 229 284 351
#     4  10  20  38  66  84 102 152 212 242 290 350
#     4  11  21  34  57  92 124 151 191 241 297 350
#     4  11  19  34  58  82 121 161 191 221 287 351
#     4   9  20  38  60  80 106 150 204 246 289 344
#     4  10  21  35  58  85 118 152 193 245 287 348
#     4  10  20  37  61  86 116 155 193 242 294 346
#
# _framework density 20.301551
#
# number of rings (size 3 to 8) (size 9 to 14) (size 15 to 20)
#    0.000    1.846    3.077    1.846    0.000    0.615 
#    0.000    7.692    0.000   11.077    0.000    0.000 
#    0.000    0.000    0.000    0.000    0.000    0.000 
#
# Total GULP energy -322096.221672 kJ/mol
# GULP energy per Si atom -12388.316218 kJ/mol
# Density = 2.025534 g / cm^3
# Si number density = 20.301551 Si / 1000 Ang^3
#
#
#
# Elastic Constant Matrix: (Units=GPa)
#
#
# Indices 1 2 3 4 5 6 
#
# 1 52.1744 28.8173 2.2106 0.0000 -3.2835 0.0000
# 2 28.8173 162.9780 62.8927 0.0000 -11.1911 0.0000
# 3 2.2106 62.8927 137.5537 0.0000 -16.5613 0.0000
# 4 0.0000 0.0000 0.0000 22.1118 0.0000 1.2784
# 5 -3.2835 -11.1911 -16.5613 0.0000 27.2770 0.0000
# 6 0.0000 0.0000 0.0000 1.2784 0.0000 24.2821
#
#
#
# Elastic Compliance Matrix: (Units=1/GPa)
#
#
# Indices 1 2 3 4 5 6 
#
# 1 0.021657 -0.004434 0.001914 0.000000 0.001950 0.000000
# 2 -0.004434 0.008387 -0.003683 0.000000 0.000671 0.000000
# 3 0.001914 -0.003683 0.009460 0.000000 0.004463 0.000000
# 4 0.000000 0.000000 0.000000 0.045363 0.000000 -0.002388
# 5 0.001950 0.000671 0.004463 0.000000 0.039881 0.000000
# 6 0.000000 0.000000 0.000000 -0.002388 0.000000 0.041308
#
#
# Mechanical properties :
#
#
# Convention : Reuss Voigt Hill
#
# Bulk Modulus (GPa) = 36.90149 60.06082 48.48116
# Shear Modulus (GPa) = 26.66736 31.98654 29.32695
#
# Velocity S-wave (km/s) = 3.62824 3.97365 3.80487
# Velocity P-wave (km/s) = 5.98066 7.12052 6.57534
#
# Compressibility (1/GPa) = 0.02709918
#
# Stress axis : x y z
#
# Youngs Moduli (GPa) = 46.17409 119.23143 105.70478
#
# Poissons Ratio (x) = 0.52869 -0.20233
# Poissons Ratio (y) = 0.20474 0.38928
# Poissons Ratio (z) = -0.08838 0.43909
#
# Static dielectric constant tensor:
#      x y z
#    x 3.414930 0.000000 -0.490030 
#    y 0.000000 3.325420 0.000000 
#    z -0.490030 0.000000 4.059950 
# 
# 
# High freq. dielectric constant tensor:
#      x y z
#    x 1.777160 0.000000 -0.007840 
#    y 0.000000 1.771210 0.000000 
#    z -0.007840 0.000000 1.803900 
# 
# From -- ./inp_files/121801.got.cif
#   From: 2010.06.25/outbox.cif.g09.slc.cpg/sg15_61_cif.got.tgz:121801.got - 2010.06.28 07:06:18.
