data_PCOD8134938
_publ_section_title
;
Structure prediction by ZEFSAII (Michael W. Deem and Ramdas Pophale) SiO2 
 PCOD8134938
Probable space group: C 2/C
;
_chemical_formula_sum "Si O2"
_cell_formula_units_Z 48
_cell_length_a 20.162868
_cell_length_b 8.757512
_cell_length_c 26.157610
_cell_angle_alpha 90.000000
_cell_angle_beta 32.009613
_cell_angle_gamma 90.000000
_cell_volume 2448.259245
_symmetry_space_group_name_H-M "C 2/C"
_symmetry_group_IT_number 15
_symmetry_cell_setting 'monoclinic'
loop_
_space_group_symop_operation_xyz
x,y,z
-x,y,1/2-z
-x,-y,-z
x,-y,1/2+z
1/2+x,1/2+y,z
1/2-x,1/2+y,1/2-z
1/2-x,1/2-y,-z
1/2+x,1/2-y,1/2+z
loop_
_atom_site_type_symbol
_atom_site_label
_atom_site_fract_x
_atom_site_fract_y
_atom_site_fract_z
Si Si1 0.944032 0.388763 0.177051
Si Si2 0.329839 0.384423 0.121308
Si Si3 0.871609 0.184677 0.972588
Si Si4 0.985882 0.914619 0.588330
Si Si5 0.972704 0.605328 0.066267
Si Si6 0.599898 0.896435 0.640842
O O1 0.817815 0.391393 0.292857
O O2 0.922018 0.500475 0.144343
O O3 0.962334 0.220357 0.143304
O O4 0.057457 0.447288 0.139433
O O5 0.371219 0.536926 0.125891
O O6 0.363546 0.227913 0.128503
O O7 0.396220 0.372042 0.023570
O O8 0.886340 0.257578 0.907520
O O9 0.899596 0.307542 0.999614
O O10 0.980754 0.060055 0.899462
O O11 0.740909 0.097035 0.070832
O O12 0.000000 0.500000 0.000000
O O13 0.500000 0.854980 0.750000
#
# Coordination Sequence:
#
# PCOD8134938 Si02
#       6
#     8   8   8   8   8   8
#     4  11  21  35  58  85 114 150 194 238 285 352
#     4  10  20  35  55  83 122 149 182 232 301 354
#     4   9  21  39  58  81 113 152 192 239 287 344
#     4  10  20  36  55  84 116 147 185 241 295 343
#     4  10  19  37  57  86 118 151 186 235 301 354
#     4  10  21  41  59  78 110 156 202 232 283 343
#
# _framework density 19.605767
#
# number of rings (size 3 to 8) (size 9 to 14) (size 15 to 20)
#    0.000    2.000    1.667    2.000    0.000    0.667 
#   12.000    0.833    0.000    0.000    0.000    0.000 
#    0.000    0.000    0.000    0.000    0.000    0.000 
#
# Total GULP energy -297428.313980 kJ/mol
# GULP energy per Si atom -12392.846416 kJ/mol
# Density = 1.956114 g / cm^3
# Si number density = 19.605767 Si / 1000 Ang^3
#
#
#
# Elastic Constant Matrix: (Units=GPa)
#
#
# Indices 1 2 3 4 5 6 
#
# 1 58.4511 23.5687 30.8655 -0.0117 -5.6212 0.0339
# 2 23.5687 97.5079 34.2156 -0.0146 0.2769 0.0391
# 3 30.8655 34.2156 104.2539 -0.0038 -5.1897 0.0142
# 4 -0.0117 -0.0146 -0.0038 23.9007 0.0015 2.8091
# 5 -5.6212 0.2769 -5.1897 0.0015 26.7196 -0.0093
# 6 0.0339 0.0391 0.0142 2.8091 -0.0093 30.4775
#
#
#
# Elastic Compliance Matrix: (Units=1/GPa)
#
#
# Indices 1 2 3 4 5 6 
#
# 1 0.021510 -0.003433 -0.005064 0.000009 0.003577 -0.000017
# 2 -0.003433 0.012158 -0.003046 0.000007 -0.001440 -0.000011
# 3 -0.005064 -0.003046 0.012157 -0.000003 0.001327 0.000005
# 4 0.000009 0.000007 -0.000003 0.042298 -0.000002 -0.003899
# 5 0.003577 -0.001440 0.001327 -0.000002 0.038451 0.000009
# 6 -0.000017 -0.000011 0.000005 -0.003899 0.000009 0.033170
#
#
# Mechanical properties :
#
#
# Convention : Reuss Voigt Hill
#
# Bulk Modulus (GPa) = 43.97277 48.61249 46.29263
# Shear Modulus (GPa) = 26.25926 27.65711 26.95819
#
# Velocity S-wave (km/s) = 3.66370 3.75995 3.71214
# Velocity P-wave (km/s) = 6.35406 6.61048 6.48354
#
# Compressibility (1/GPa) = 0.02274134
#
# Stress axis : x y z
#
# Youngs Moduli (GPa) = 46.48921 82.24987 82.25859
#
# Poissons Ratio (x) = 0.28233 0.41654
# Poissons Ratio (y) = 0.15958 0.25053
# Poissons Ratio (z) = 0.23541 0.25050
#
# Static dielectric constant tensor:
#      x y z
#    x 3.736340 0.000000 -0.117390 
#    y 0.000000 3.751020 0.000010 
#    z -0.117390 0.000010 3.475490 
# 
# 
# High freq. dielectric constant tensor:
#      x y z
#    x 1.765000 0.000000 0.000590 
#    y 0.000000 1.767150 0.000000 
#    z 0.000590 0.000000 1.753000 
# 
# From -- ./inp_files/116432.got.cif
#   From: 2010.06.25/outbox.cif.g09.slc.cpg/sg15_59_cif.got.tgz:116432.got - 2010.06.28 07:06:18.
