data_PCOD8134864
_publ_section_title
;
Structure prediction by ZEFSAII (Michael W. Deem and Ramdas Pophale) SiO2 
 PCOD8134864
Probable space group: C 2/C
;
_chemical_formula_sum "Si O2"
_cell_formula_units_Z 52
_cell_length_a 20.516809
_cell_length_b 7.910708
_cell_length_c 24.026328
_cell_angle_alpha 90.000000
_cell_angle_beta 141.006546
_cell_angle_gamma 90.000000
_cell_volume 2453.709221
_symmetry_space_group_name_H-M "C 2/C"
_symmetry_group_IT_number 15
_symmetry_cell_setting 'monoclinic'
loop_
_space_group_symop_operation_xyz
x,y,z
-x,y,1/2-z
-x,-y,-z
x,-y,1/2+z
1/2+x,1/2+y,z
1/2-x,1/2+y,1/2-z
1/2-x,1/2-y,-z
1/2+x,1/2-y,1/2+z
loop_
_atom_site_type_symbol
_atom_site_label
_atom_site_fract_x
_atom_site_fract_y
_atom_site_fract_z
Si Si1 0.119243 0.910323 0.938140
Si Si2 0.086417 0.212605 0.596354
Si Si3 0.000000 0.621171 0.250000
Si Si4 0.186297 0.195996 0.275644
Si Si5 0.053445 0.175392 0.090216
Si Si6 0.942740 0.144722 0.803319
Si Si7 0.837833 0.635559 0.624800
O O1 0.142128 0.797305 0.899760
O O2 0.044761 0.826895 0.934012
O O3 0.226336 0.948850 0.040390
O O4 0.061428 0.078105 0.878170
O O5 0.189529 0.304554 0.642790
O O6 0.067851 0.259419 0.648232
O O7 0.987953 0.272503 0.492520
O O8 0.095022 0.008430 0.598503
O O9 0.926649 0.732447 0.241026
O O10 0.921626 0.504264 0.163388
O O11 0.143880 0.265944 0.187090
O O12 0.147775 0.311759 0.301011
O O13 0.141492 0.006284 0.253874
#
# Coordination Sequence:
#
# PCOD8134864 Si02
#       7
#     8   8   4   8   8   8   8
#     4   9  19  39  62  88 112 162 201 248 298 356
#     4   9  18  36  58  88 113 158 193 244 299 357
#     4  12  24  38  56  92 124 160 194 252 304 352
#     4  10  19  36  65  90 112 159 206 246 295 363
#     4   9  18  34  61  86 119 145 199 252 296 348
#     4  10  23  39  58  86 129 157 195 250 305 357
#     4  11  21  35  66  88 116 156 210 247 293 363
#
# _framework density 21.192404
#
# number of rings (size 3 to 8) (size 9 to 14) (size 15 to 20)
#    0.000    2.462    1.538    2.769    0.000    3.077 
#    0.000    0.000    6.769    5.538    0.000    0.000 
#    0.000    0.000    0.000    0.000    0.000    0.000 
#
# Total GULP energy -322139.812781 kJ/mol
# GULP energy per Si atom -12389.992799 kJ/mol
# Density = 2.114417 g / cm^3
# Si number density = 21.192404 Si / 1000 Ang^3
#
#
#
# Elastic Constant Matrix: (Units=GPa)
#
#
# Indices 1 2 3 4 5 6 
#
# 1 72.3889 25.3264 34.8355 0.0000 -10.4693 0.0001
# 2 25.3264 40.3569 38.5186 0.0000 -3.8196 0.0001
# 3 34.8355 38.5186 140.4328 0.0000 -1.4276 0.0000
# 4 0.0000 0.0000 0.0000 8.9502 0.0000 3.2350
# 5 -10.4693 -3.8196 -1.4276 0.0000 35.8290 0.0000
# 6 0.0001 0.0001 0.0000 3.2350 0.0000 22.4121
#
#
#
# Elastic Compliance Matrix: (Units=1/GPa)
#
#
# Indices 1 2 3 4 5 6 
#
# 1 0.018708 -0.009399 -0.002018 0.000000 0.004384 0.000000
# 2 -0.009399 0.038663 -0.008262 0.000000 0.001046 0.000000
# 3 -0.002018 -0.008262 0.009877 0.000000 -0.001077 0.000000
# 4 0.000000 0.000000 0.000000 0.117879 0.000000 -0.017015
# 5 0.004384 0.001046 -0.001077 0.000000 0.029260 0.000000
# 6 0.000000 0.000000 0.000000 -0.017015 0.000000 0.047075
#
#
# Mechanical properties :
#
#
# Convention : Reuss Voigt Hill
#
# Bulk Modulus (GPa) = 35.85795 50.05994 42.95894
# Shear Modulus (GPa) = 16.12298 23.73814 19.93056
#
# Velocity S-wave (km/s) = 2.76124 3.35046 3.07002
# Velocity P-wave (km/s) = 5.20796 6.21614 5.73425
#
# Compressibility (1/GPa) = 0.02788782
#
# Stress axis : x y z
#
# Youngs Moduli (GPa) = 53.45325 25.86485 101.24837
#
# Poissons Ratio (x) = 0.24311 0.20432
# Poissons Ratio (y) = 0.50243 0.83655
# Poissons Ratio (z) = 0.10787 0.21370
#
# Static dielectric constant tensor:
#      x y z
#    x 3.841410 0.000000 -0.159340 
#    y 0.000000 3.399980 0.000000 
#    z -0.159340 0.000000 4.317850 
# 
# 
# High freq. dielectric constant tensor:
#      x y z
#    x 1.833020 0.000000 -0.009010 
#    y 0.000000 1.783340 0.000000 
#    z -0.009010 0.000000 1.848610 
# 
# From -- ./inp_files/279619.got.cif
#   From: 2010.06.25/outbox.cif.g09.slc.cpg/sg15_140_cif.got.tgz:279619.got - 2010.06.28 07:06:18.
