data_PCOD8134320
_publ_section_title
;
Structure prediction by ZEFSAII (Michael W. Deem and Ramdas Pophale) SiO2 
 PCOD8134320
Probable space group: C 2/C
;
_chemical_formula_sum "Si O2"
_cell_formula_units_Z 44
_cell_length_a 9.112854
_cell_length_b 10.704740
_cell_length_c 22.278652
_cell_angle_alpha 90.000000
_cell_angle_beta 80.326933
_cell_angle_gamma 90.000000
_cell_volume 2142.400085
_symmetry_space_group_name_H-M "C 2/C"
_symmetry_group_IT_number 15
_symmetry_cell_setting 'monoclinic'
loop_
_space_group_symop_operation_xyz
x,y,z
-x,y,1/2-z
-x,-y,-z
x,-y,1/2+z
1/2+x,1/2+y,z
1/2-x,1/2+y,1/2-z
1/2-x,1/2-y,-z
1/2+x,1/2-y,1/2+z
loop_
_atom_site_type_symbol
_atom_site_label
_atom_site_fract_x
_atom_site_fract_y
_atom_site_fract_z
Si Si1 0.500000 0.495239 0.750000
Si Si2 0.539190 0.750627 0.057043
Si Si3 0.425172 0.645343 0.639616
Si Si4 0.738477 0.609048 0.569513
Si Si5 0.791303 0.868621 0.851651
Si Si6 0.202451 0.938150 0.468882
O O1 0.427246 0.579245 0.703435
O O2 0.365474 0.411400 0.784454
O O3 0.368665 0.791114 0.067496
O O4 0.580118 0.703205 0.120610
O O5 0.643145 0.865951 0.030969
O O6 0.565492 0.637335 0.008844
O O7 0.590391 0.674368 0.604659
O O8 0.345678 0.777980 0.652438
O O9 0.339116 0.552557 0.598777
O O10 0.772574 0.484386 0.605731
O O11 0.720644 0.571831 0.500262
#
# Coordination Sequence:
#
# PCOD8134320 Si02
#       6
#     4   8   8   8   8   8
#     4  10  22  40  60  74 106 152 188 232 276 310
#     4   9  18  34  58  84 114 147 177 217 275 336
#     4  10  21  38  57  81 111 143 187 231 268 321
#     4  10  19  35  60  86 114 145 173 219 282 333
#     4   9  21  40  57  79 110 144 185 229 273 325
#     4   9  18  34  55  84 116 144 178 220 270 332
#
# _framework density 20.537713
#
# number of rings (size 3 to 8) (size 9 to 14) (size 15 to 20)
#    0.000    2.545    0.000    2.182    0.000    3.636 
#    0.000   16.364    0.000    0.000    0.000    0.000 
#    0.000    0.000    0.000    0.000    0.000    0.000 
#
# Total GULP energy -272814.505788 kJ/mol
# GULP energy per Si atom -12400.659354 kJ/mol
# Density = 2.049097 g / cm^3
# Si number density = 20.537713 Si / 1000 Ang^3
#
#
#
# Elastic Constant Matrix: (Units=GPa)
#
#
# Indices 1 2 3 4 5 6 
#
# 1 118.2162 56.0778 42.8588 0.0000 0.7579 0.0000
# 2 56.0778 74.5917 36.8386 0.0000 3.5582 0.0000
# 3 42.8588 36.8386 120.3783 0.0000 10.3253 0.0000
# 4 0.0000 0.0000 0.0000 18.0224 0.0000 0.2418
# 5 0.7579 3.5582 10.3253 0.0000 26.5525 0.0000
# 6 0.0000 0.0000 0.0000 0.2418 0.0000 40.2612
#
#
#
# Elastic Compliance Matrix: (Units=1/GPa)
#
#
# Indices 1 2 3 4 5 6 
#
# 1 0.013622 -0.009253 -0.002163 0.000000 0.001692 0.000000
# 2 -0.009253 0.022080 -0.003343 0.000000 -0.001395 0.000000
# 3 -0.002163 -0.003343 0.010404 0.000000 -0.003536 0.000000
# 4 0.000000 0.000000 0.000000 0.055491 0.000000 -0.000333
# 5 0.001692 -0.001395 -0.003536 0.000000 0.039175 0.000000
# 6 0.000000 0.000000 0.000000 -0.000333 0.000000 0.024840
#
#
# Mechanical properties :
#
#
# Convention : Reuss Voigt Hill
#
# Bulk Modulus (GPa) = 60.28868 64.97073 62.62971
# Shear Modulus (GPa) = 24.91776 28.79461 26.85619
#
# Velocity S-wave (km/s) = 3.48698 3.74844 3.62007
# Velocity P-wave (km/s) = 6.75506 7.10197 6.93068
#
# Compressibility (1/GPa) = 0.01658686
#
# Stress axis : x y z
#
# Youngs Moduli (GPa) = 73.41073 45.28890 96.11964
#
# Poissons Ratio (x) = 0.41907 0.20794
# Poissons Ratio (y) = 0.67929 0.32133
# Poissons Ratio (z) = 0.15881 0.15140
#
# Static dielectric constant tensor:
#      x y z
#    x 3.624600 0.000000 0.026620 
#    y 0.000000 3.616020 0.000000 
#    z 0.026620 0.000000 3.763490 
# 
# 
# High freq. dielectric constant tensor:
#      x y z
#    x 1.804120 0.000000 0.002150 
#    y 0.000000 1.796780 0.000000 
#    z 0.002150 0.000000 1.796470 
# 
# From -- ./inp_files/230119.got.cif
#   From: 2010.06.25/outbox.cif.g09.slc.cpg/sg15_116_cif.got.tgz:230119.got - 2010.06.28 07:06:18.
