data_PCOD8134887
_publ_section_title
;
Structure prediction by ZEFSAII (Michael W. Deem and Ramdas Pophale) SiO2 
 PCOD8134887
Probable space group: C 2/C
;
_chemical_formula_sum "Si O2"
_cell_formula_units_Z 52
_cell_length_a 13.272359
_cell_length_b 8.728273
_cell_length_c 27.560410
_cell_angle_alpha 90.000000
_cell_angle_beta 51.977715
_cell_angle_gamma 90.000000
_cell_volume 2515.140406
_symmetry_space_group_name_H-M "C 2/C"
_symmetry_group_IT_number 15
_symmetry_cell_setting 'monoclinic'
loop_
_space_group_symop_operation_xyz
x,y,z
-x,y,1/2-z
-x,-y,-z
x,-y,1/2+z
1/2+x,1/2+y,z
1/2-x,1/2+y,1/2-z
1/2-x,1/2-y,-z
1/2+x,1/2-y,1/2+z
loop_
_atom_site_type_symbol
_atom_site_label
_atom_site_fract_x
_atom_site_fract_y
_atom_site_fract_z
Si Si1 0.949253 0.688969 0.924972
Si Si2 0.262554 0.885542 0.564425
Si Si3 0.462936 0.912202 0.661881
Si Si4 0.046916 0.991135 0.931177
Si Si5 0.770040 0.225746 0.657830
Si Si6 0.500000 0.084042 0.750000
Si Si7 0.345647 0.315618 0.432815
O O1 0.847623 0.766270 0.918716
O O2 0.032562 0.559976 0.874115
O O3 0.048797 0.816028 0.913776
O O4 0.878447 0.618198 0.992259
O O5 0.307658 0.844207 0.604551
O O6 0.220600 0.061464 0.582385
O O7 0.341739 0.799866 0.684101
O O8 0.595387 0.819789 0.616784
O O9 0.460604 0.972272 0.717539
O O10 0.184427 0.059965 0.876273
O O11 0.952783 0.096202 0.929602
O O12 0.000000 0.000000 0.000000
O O13 0.618546 0.202445 0.709282
O O14 0.250000 0.250000 0.500000
#
# Coordination Sequence:
#
# PCOD8134887 Si02
#       7
#     8   8   8   8   8   4   8
#     4  10  19  36  68  99 137 174 210 278 353 407
#     4  10  19  37  65 101 136 174 210 272 356 409
#     4  11  25  46  69  99 130 186 238 278 345 417
#     4  10  21  35  64 102 136 169 217 278 350 420
#     4  11  25  46  69  97 131 183 236 281 347 419
#     4  12  28  52  72  86 148 190 234 298 338 398
#     4  10  21  36  63 102 139 166 214 280 347 415
#
# _framework density 20.674790000000002
#
# number of rings (size 3 to 8) (size 9 to 14) (size 15 to 20)
#    0.000    1.538    4.615    0.000    2.154    3.077 
#    5.538    0.000    0.000    0.000    0.000    0.000 
#    0.000    0.000    0.000    0.000    0.000    0.000 
#
# Total GULP energy -322240.786074 kJ/mol
# GULP energy per Si atom -12393.876387 kJ/mol
# Density = 2.062773 g / cm^3
# Si number density = 20.674790 Si / 1000 Ang^3
#
#
#
# Elastic Constant Matrix: (Units=GPa)
#
#
# Indices 1 2 3 4 5 6 
#
# 1 70.8511 33.6625 44.4174 0.0000 3.8187 0.0000
# 2 33.6625 111.7429 45.9516 0.0000 3.3617 0.0000
# 3 44.4174 45.9516 94.0010 0.0000 4.7943 0.0000
# 4 0.0000 0.0000 0.0000 27.8360 0.0000 0.7351
# 5 3.8187 3.3617 4.7943 0.0000 39.3792 0.0000
# 6 0.0000 0.0000 0.0000 0.7351 0.0000 37.8917
#
#
#
# Elastic Compliance Matrix: (Units=1/GPa)
#
#
# Indices 1 2 3 4 5 6 
#
# 1 0.020742 -0.002768 -0.008410 0.000000 -0.000751 0.000000
# 2 -0.002768 0.011573 -0.004340 0.000000 -0.000191 0.000000
# 3 -0.008410 -0.004340 0.016777 0.000000 -0.000857 0.000000
# 4 0.000000 0.000000 0.000000 0.035943 0.000000 -0.000697
# 5 -0.000751 -0.000191 -0.000857 0.000000 0.025588 0.000000
# 6 0.000000 0.000000 0.000000 -0.000697 0.000000 0.026405
#
#
# Mechanical properties :
#
#
# Convention : Reuss Voigt Hill
#
# Bulk Modulus (GPa) = 55.37810 58.29535 56.83673
# Shear Modulus (GPa) = 28.72225 31.19227 29.95726
#
# Velocity S-wave (km/s) = 3.73129 3.88843 3.81067
# Velocity P-wave (km/s) = 6.73846 6.95826 6.84924
#
# Compressibility (1/GPa) = 0.01805768
#
# Stress axis : x y z
#
# Youngs Moduli (GPa) = 48.21225 86.40547 59.60469
#
# Poissons Ratio (x) = 0.23913 0.50125
# Poissons Ratio (y) = 0.13343 0.25869
# Poissons Ratio (z) = 0.40545 0.37500
#
# Static dielectric constant tensor:
#      x y z
#    x 4.213040 0.000000 -0.144090 
#    y 0.000000 4.498510 0.000000 
#    z -0.144090 0.000000 3.542580 
# 
# 
# High freq. dielectric constant tensor:
#      x y z
#    x 1.807240 0.000000 0.001430 
#    y 0.000000 1.823870 0.000000 
#    z 0.001430 0.000000 1.791440 
# 
# From -- ./inp_files/295034.got.cif
#   From: 2010.06.25/outbox.cif.g09.slc.cpg/sg15_148_cif.got.tgz:295034.got - 2010.06.28 07:06:18.
