data_PCOD8134133
_publ_section_title
;
Structure prediction by ZEFSAII (Michael W. Deem and Ramdas Pophale) SiO2 
 PCOD8134133
Probable space group: C 2/C
;
_chemical_formula_sum "Si O2"
_cell_formula_units_Z 52
_cell_length_a 28.794783
_cell_length_b 10.643134
_cell_length_c 8.919741
_cell_angle_alpha 90.000000
_cell_angle_beta 85.228236
_cell_angle_gamma 90.000000
_cell_volume 2724.129154
_symmetry_space_group_name_H-M "C 2/C"
_symmetry_group_IT_number 15
_symmetry_cell_setting 'monoclinic'
loop_
_space_group_symop_operation_xyz
x,y,z
-x,y,1/2-z
-x,-y,-z
x,-y,1/2+z
1/2+x,1/2+y,z
1/2-x,1/2+y,1/2-z
1/2-x,1/2-y,-z
1/2+x,1/2-y,1/2+z
loop_
_atom_site_type_symbol
_atom_site_label
_atom_site_fract_x
_atom_site_fract_y
_atom_site_fract_z
Si Si1 0.500000 0.512619 0.250000
Si Si2 0.541437 0.659308 0.497008
Si Si3 0.273083 0.863894 0.079785
Si Si4 0.116872 0.416704 0.141602
Si Si5 0.223377 0.630937 0.579369
Si Si6 0.981757 0.377026 0.423852
Si Si7 0.121618 0.657892 0.966947
O O1 0.536357 0.593966 0.336650
O O2 0.466008 0.434834 0.365274
O O3 0.502033 0.765330 0.518506
O O4 0.593196 0.714640 0.501666
O O5 0.257337 0.878245 0.256497
O O6 0.324986 0.811603 0.067311
O O7 0.250000 0.750000 0.000000
O O8 0.264330 0.999351 0.005415
O O9 0.166775 0.352615 0.086455
O O10 0.074318 0.357804 0.057875
O O11 0.103670 0.407724 0.319596
O O12 0.116579 0.565178 0.108931
O O13 0.250000 0.750000 0.500000
O O14 0.000000 0.373734 0.250000
O O15 0.000000 0.500000 0.500000
#
# Coordination Sequence:
#
# PCOD8134133 Si02
#       7
#     4   8   8   8   8   8   8
#     4  10  24  38  56  72 114 166 198 240 278 364
#     4  11  21  40  55  79 114 155 203 235 300 340
#     4  10  21  39  61  89 118 155 203 251 309 367
#     4  10  19  35  56  92 118 151 188 246 311 353
#     4  10  21  38  63  87 123 161 198 254 316 367
#     4  12  21  33  59  90 122 147 192 252 301 352
#     4  10  20  36  60  82 119 148 190 250 297 362
#
# _framework density 19.088668999999999
#
# number of rings (size 3 to 8) (size 9 to 14) (size 15 to 20)
#    0.000    1.538    3.846    0.923    1.077    2.462 
#    0.000    7.692    0.000    0.000    0.000    0.000 
#    0.000    0.000    0.000    0.000    0.000    0.000 
#
# Total GULP energy -322240.999381 kJ/mol
# GULP energy per Si atom -12393.884592 kJ/mol
# Density = 1.904522 g / cm^3
# Si number density = 19.088669 Si / 1000 Ang^3
#
#
#
# Elastic Constant Matrix: (Units=GPa)
#
#
# Indices 1 2 3 4 5 6 
#
# 1 89.4621 54.8382 34.7697 0.0000 11.3905 0.0000
# 2 54.8382 132.4686 54.5906 0.0000 4.0545 0.0000
# 3 34.7697 54.5906 96.6339 0.0000 5.7313 0.0000
# 4 0.0000 0.0000 0.0000 -26.2392 0.0000 20.7937
# 5 11.3905 4.0545 5.7313 0.0000 24.6673 0.0000
# 6 0.0000 0.0000 0.0000 20.7937 0.0000 33.1113
#
#
#
# Elastic Compliance Matrix: (Units=1/GPa)
#
#
# Indices 1 2 3 4 5 6 
#
# 1 0.016287 -0.005592 -0.002342 0.000000 -0.006058 0.000000
# 2 -0.005592 0.011762 -0.004736 0.000000 0.001749 0.000000
# 3 -0.002342 -0.004736 0.013949 0.000000 -0.001381 0.000000
# 4 0.000000 0.000000 0.000000 -0.025447 0.000000 0.015981
# 5 -0.006058 0.001749 -0.001381 0.000000 0.043370 0.000000
# 6 0.000000 0.000000 0.000000 0.015981 0.000000 0.020166
#
#
# Mechanical properties :
#
#
# Convention : Reuss Voigt Hill
#
# Bulk Modulus (GPa) = 60.03384 67.44017 63.73700
# Shear Modulus (GPa) = 45.05331 17.93227 31.49279
#
# Velocity S-wave (km/s) = 4.86347 3.06832 4.06620
# Velocity P-wave (km/s) = 7.94079 6.92527 7.45035
#
# Compressibility (1/GPa) = 0.01665727
#
# Stress axis : x y z
#
# Youngs Moduli (GPa) = 61.39838 85.01821 71.69153
#
# Poissons Ratio (x) = 0.47541 0.16790
# Poissons Ratio (y) = 0.34333 0.33957
# Poissons Ratio (z) = 0.14380 0.40269
#
# Static dielectric constant tensor:
#      x y z
#    x 4.350870 0.000000 0.427190 
#    y 0.000000 4.844060 0.000000 
#    z 0.427190 0.000000 4.115750 
# 
# 
# High freq. dielectric constant tensor:
#      x y z
#    x 1.741440 0.000000 0.008260 
#    y 0.000000 1.736030 0.000000 
#    z 0.008260 0.000000 1.753160 
# 
# From -- ./inp_files/65125.got.cif
#   From: 2010.06.25/outbox.cif.g09.slc.cpg/sg15_33_cif.got.tgz:65125.got - 2010.06.28 07:06:18.
