data_PCOD8134661
_publ_section_title
;
Structure prediction by ZEFSAII (Michael W. Deem and Ramdas Pophale) SiO2 
 PCOD8134661
Probable space group: C 2/C
;
_chemical_formula_sum "Si O2"
_cell_formula_units_Z 64
_cell_length_a 21.346910
_cell_length_b 20.617860
_cell_length_c 8.081620
_cell_angle_alpha 90.000000
_cell_angle_beta 58.983228
_cell_angle_gamma 90.000000
_cell_volume 3048.359718
_symmetry_space_group_name_H-M "C 2/C"
_symmetry_group_IT_number 15
_symmetry_cell_setting 'monoclinic'
loop_
_space_group_symop_operation_xyz
x,y,z
-x,y,1/2-z
-x,-y,-z
x,-y,1/2+z
1/2+x,1/2+y,z
1/2-x,1/2+y,1/2-z
1/2-x,1/2-y,-z
1/2+x,1/2-y,1/2+z
loop_
_atom_site_type_symbol
_atom_site_label
_atom_site_fract_x
_atom_site_fract_y
_atom_site_fract_z
Si Si1 0.137566 0.538306 0.078316
Si Si2 0.199318 0.066815 0.685646
Si Si3 0.306695 0.334235 0.035659
Si Si4 0.434955 0.583800 0.235351
Si Si5 0.852922 0.304468 0.373568
Si Si6 0.955999 0.358099 0.973574
Si Si7 0.912226 0.414449 0.513436
Si Si8 0.391388 0.534090 0.978885
O O1 0.222050 0.532697 0.919296
O O2 0.092374 0.471053 0.118655
O O3 0.103383 0.591462 0.005862
O O4 0.135560 0.560075 0.270090
O O5 0.166293 0.077431 0.546899
O O6 0.150365 0.015335 0.845830
O O7 0.199047 0.138477 0.769354
O O8 0.355206 0.385364 0.868687
O O9 0.347747 0.265820 0.964586
O O10 0.225656 0.330270 0.074609
O O11 0.500000 0.621182 0.250000
O O12 0.443494 0.580448 0.023193
O O13 0.439471 0.509749 0.292479
O O14 0.879242 0.349112 0.486284
O O15 0.911147 0.303639 0.139729
O O16 0.000000 0.330575 0.750000
O O17 0.006561 0.397370 0.034268
#
# Coordination Sequence:
#
# PCOD8134661 Si02
#       8
#     8   8   8   8   8   8   8   8
#     4  11  21  35  60  94 131 164 204 259 313 381
#     4  10  19  36  59  93 127 165 210 257 313 373
#     4  10  24  41  64  86 119 170 217 260 311 369
#     4  10  20  37  61  91 122 159 204 255 322 384
#     4  11  23  44  61  87 125 168 218 260 311 369
#     4  10  22  41  62  92 129 167 209 257 313 375
#     4  11  24  35  62  92 127 167 205 255 321 374
#     4   9  20  33  59  92 128 157 198 262 324 376
#
# _framework density 20.994897000000002
#
# number of rings (size 3 to 8) (size 9 to 14) (size 15 to 20)
#    0.000    1.750    1.250    2.625    7.000    3.000 
#    0.000    3.125    0.000    2.250    0.000    0.000 
#    0.000    0.000    0.000    0.000    0.000    0.000 
#
# Total GULP energy -396502.642236 kJ/mol
# GULP energy per Si atom -12390.707570 kJ/mol
# Density = 2.094711 g / cm^3
# Si number density = 20.994897 Si / 1000 Ang^3
#
#
#
# Elastic Constant Matrix: (Units=GPa)
#
#
# Indices 1 2 3 4 5 6 
#
# 1 124.6798 32.2438 50.1284 0.0000 22.7380 0.0000
# 2 32.2438 68.2293 34.1641 0.0000 16.3625 0.0000
# 3 50.1284 34.1641 67.3095 0.0000 12.8446 0.0000
# 4 0.0000 0.0000 0.0000 22.3049 0.0000 -0.1724
# 5 22.7380 16.3625 12.8446 0.0000 37.9576 0.0000
# 6 0.0000 0.0000 0.0000 -0.1724 0.0000 19.5669
#
#
#
# Elastic Compliance Matrix: (Units=1/GPa)
#
#
# Indices 1 2 3 4 5 6 
#
# 1 0.012157 -0.000795 -0.007832 0.000000 -0.004290 0.000000
# 2 -0.000795 0.020816 -0.008929 0.000000 -0.005476 0.000000
# 3 -0.007832 -0.008929 0.025220 0.000000 0.000006 0.000000
# 4 0.000000 0.000000 0.000000 0.044836 0.000000 0.000395
# 5 -0.004290 -0.005476 0.000006 0.000000 0.031273 0.000000
# 6 0.000000 0.000000 0.000000 0.000395 0.000000 0.051110
#
#
# Mechanical properties :
#
#
# Convention : Reuss Voigt Hill
#
# Bulk Modulus (GPa) = 43.32273 54.81013 49.06643
# Shear Modulus (GPa) = 21.90879 25.54471 23.72675
#
# Velocity S-wave (km/s) = 3.23388 3.49192 3.36537
# Velocity P-wave (km/s) = 5.88418 6.51315 6.20664
#
# Compressibility (1/GPa) = 0.02308257
#
# Stress axis : x y z
#
# Youngs Moduli (GPa) = 82.25451 48.03981 39.65042
#
# Poissons Ratio (x) = 0.03818 0.31055
# Poissons Ratio (y) = 0.06538 0.35403
# Poissons Ratio (z) = 0.64423 0.42893
#
# Static dielectric constant tensor:
#      x y z
#    x 4.274580 0.000000 0.236420 
#    y 0.000000 3.608410 0.000000 
#    z 0.236420 0.000000 4.000950 
# 
# 
# High freq. dielectric constant tensor:
#      x y z
#    x 1.847590 0.000000 0.002230 
#    y 0.000000 1.782950 0.000000 
#    z 0.002230 0.000000 1.827790 
# 
# From -- ./inp_files/57847.got.cif
#   From: 2010.06.25/outbox.cif.g09.slc.cpg/sg15_29_cif.got.tgz:57847.got - 2010.06.28 07:06:18.
