data_PCOD8134640
_publ_section_title
;
Structure prediction by ZEFSAII (Michael W. Deem and Ramdas Pophale) SiO2 
 PCOD8134640
Probable space group: C 2/C
;
_chemical_formula_sum "Si O2"
_cell_formula_units_Z 52
_cell_length_a 10.062636
_cell_length_b 13.709114
_cell_length_c 33.058149
_cell_angle_alpha 90.000000
_cell_angle_beta 38.047414
_cell_angle_gamma 90.000000
_cell_volume 2810.614426
_symmetry_space_group_name_H-M "C 2/C"
_symmetry_group_IT_number 15
_symmetry_cell_setting 'monoclinic'
loop_
_space_group_symop_operation_xyz
x,y,z
-x,y,1/2-z
-x,-y,-z
x,-y,1/2+z
1/2+x,1/2+y,z
1/2-x,1/2+y,1/2-z
1/2-x,1/2-y,-z
1/2+x,1/2-y,1/2+z
loop_
_atom_site_type_symbol
_atom_site_label
_atom_site_fract_x
_atom_site_fract_y
_atom_site_fract_z
Si Si1 0.887276 0.969645 0.816637
Si Si2 0.643970 0.280555 0.567291
Si Si3 0.631167 0.659952 0.578096
Si Si4 0.561072 0.179065 0.430619
Si Si5 0.800810 0.809979 0.345879
Si Si6 0.075873 0.037547 0.355461
Si Si7 0.000000 0.655462 0.250000
O O1 0.676414 0.910281 0.880553
O O2 0.000000 0.923640 0.750000
O O3 0.056375 0.960937 0.812004
O O4 0.833961 0.082104 0.820577
O O5 0.750000 0.250000 0.500000
O O6 0.797140 0.261928 0.569700
O O7 0.416407 0.224984 0.625099
O O8 0.600106 0.396599 0.578868
O O9 0.499350 0.747041 0.590202
O O10 0.718440 0.688607 0.601304
O O11 0.462353 0.570754 0.618809
O O12 0.845413 0.633629 0.501713
O O13 0.995549 0.733697 0.288483
O O14 0.310514 0.080698 0.305171
#
# Coordination Sequence:
#
# PCOD8134640 Si02
#       7
#     8   8   8   8   8   8   4
#     4  10  21  38  57  89 109 153 189 237 276 357
#     4  10  19  36  59  87 107 150 186 240 277 346
#     4  10  21  40  57  88 113 156 182 245 284 341
#     4  10  22  38  60  83 122 144 197 232 296 332
#     4  10  20  36  63  79 116 147 195 230 290 332
#     4   9  22  37  58  79 119 150 192 225 301 335
#     4  10  20  40  54  86 112 154 186 242 278 350
#
# _framework density 18.501293
#
# number of rings (size 3 to 8) (size 9 to 14) (size 15 to 20)
#    0.000    2.154    2.308    0.000    4.308    1.846 
#    4.154    0.769    0.000    0.000    0.000    0.000 
#    0.000    0.000    0.000    0.000    0.000    0.000 
#
# Total GULP energy -322130.855086 kJ/mol
# GULP energy per Si atom -12389.648273 kJ/mol
# Density = 1.845918 g / cm^3
# Si number density = 18.501293 Si / 1000 Ang^3
#
#
#
# Elastic Constant Matrix: (Units=GPa)
#
#
# Indices 1 2 3 4 5 6 
#
# 1 68.7916 45.0223 29.5768 -0.0001 0.5489 -0.0002
# 2 45.0223 109.2656 60.7118 0.0007 3.5950 -0.0004
# 3 29.5768 60.7118 105.7892 0.0000 13.2852 -0.0015
# 4 -0.0001 0.0007 0.0000 27.6000 -0.0002 1.9048
# 5 0.5489 3.5950 13.2852 -0.0002 25.3790 0.0007
# 6 -0.0002 -0.0004 -0.0015 1.9048 0.0007 27.3877
#
#
#
# Elastic Compliance Matrix: (Units=1/GPa)
#
#
# Indices 1 2 3 4 5 6 
#
# 1 0.020066 -0.007486 -0.001490 0.000000 0.001407 0.000000
# 2 -0.007486 0.016354 -0.007516 0.000000 0.001780 0.000000
# 3 -0.001490 -0.007516 0.015033 0.000000 -0.006773 0.000001
# 4 0.000000 0.000000 0.000000 0.036407 0.000000 -0.002532
# 5 0.001407 0.001780 -0.006773 0.000000 0.042665 -0.000001
# 6 0.000000 0.000000 0.000001 -0.002532 -0.000001 0.036689
#
#
# Mechanical properties :
#
#
# Convention : Reuss Voigt Hill
#
# Bulk Modulus (GPa) = 54.14755 61.60760 57.87757
# Shear Modulus (GPa) = 24.22999 25.97570 25.10285
#
# Velocity S-wave (km/s) = 3.62282 3.75106 3.68749
# Velocity P-wave (km/s) = 6.84326 7.22024 7.03428
#
# Compressibility (1/GPa) = 0.01846806
#
# Stress axis : x y z
#
# Youngs Moduli (GPa) = 49.83624 61.14597 66.51827
#
# Poissons Ratio (x) = 0.45775 0.09914
# Poissons Ratio (y) = 0.37308 0.49996
# Poissons Ratio (z) = 0.07428 0.45958
#
# Static dielectric constant tensor:
#      x y z
#    x 3.378120 0.000000 -0.027580 
#    y 0.000000 3.482360 0.000000 
#    z -0.027580 0.000000 3.613640 
# 
# 
# High freq. dielectric constant tensor:
#      x y z
#    x 1.704600 0.000000 0.004200 
#    y 0.000000 1.719590 0.000000 
#    z 0.004200 0.000000 1.731530 
# 
# From -- ./inp_files/231164.got.cif
#   From: 2010.06.25/outbox.cif.g09.slc.cpg/sg15_116_cif.got.tgz:231164.got - 2010.06.28 07:06:18.
