data_PCOD8134433
_publ_section_title
;
Structure prediction by ZEFSAII (Michael W. Deem and Ramdas Pophale) SiO2 
 PCOD8134433
Probable space group: C 2/C
;
_chemical_formula_sum "Si O2"
_cell_formula_units_Z 48
_cell_length_a 25.523222
_cell_length_b 9.258651
_cell_length_c 13.811512
_cell_angle_alpha 90.000000
_cell_angle_beta 130.587207
_cell_angle_gamma 90.000000
_cell_volume 2478.589007
_symmetry_space_group_name_H-M "C 2/C"
_symmetry_group_IT_number 15
_symmetry_cell_setting 'monoclinic'
loop_
_space_group_symop_operation_xyz
x,y,z
-x,y,1/2-z
-x,-y,-z
x,-y,1/2+z
1/2+x,1/2+y,z
1/2-x,1/2+y,1/2-z
1/2-x,1/2-y,-z
1/2+x,1/2-y,1/2+z
loop_
_atom_site_type_symbol
_atom_site_label
_atom_site_fract_x
_atom_site_fract_y
_atom_site_fract_z
Si Si1 0.841849 0.189156 0.360753
Si Si2 0.689254 0.093543 0.999565
Si Si3 0.709383 0.980734 0.727068
Si Si4 0.580926 0.379352 0.354855
Si Si5 0.678499 0.175632 0.384114
Si Si6 0.651090 0.637771 0.344587
O O1 0.790386 0.057999 0.327265
O O2 0.803832 0.346639 0.302047
O O3 0.897450 0.183244 0.513730
O O4 0.877001 0.149514 0.299721
O O5 0.645088 0.207133 0.887275
O O6 0.659133 0.935520 0.945024
O O7 0.680204 0.115241 0.103219
O O8 0.769092 0.089268 0.060197
O O9 0.676078 0.915414 0.782800
O O10 0.500000 0.363238 0.250000
O O11 0.617433 0.291635 0.311282
O O12 0.604148 0.541714 0.358819
O O13 0.750000 0.250000 0.500000
#
# Coordination Sequence:
#
# PCOD8134433 Si02
#       6
#     8   8   8   8   8   8
#     4  11  23  39  65  98 129 167 214 268 333 378
#     4  10  19  35  64  99 124 154 209 275 321 365
#     4  11  21  35  67 103 127 159 214 278 320 371
#     4  12  27  44  62  92 137 178 214 262 326 400
#     4  12  20  39  65  96 125 162 219 270 315 369
#     4  10  22  38  63  93 129 163 211 271 322 378
#
# _framework density 19.365856999999998
#
# number of rings (size 3 to 8) (size 9 to 14) (size 15 to 20)
#    0.000    1.000    6.667    0.000    7.000    0.667 
#    0.000    1.667    0.000    0.000    0.000    0.000 
#    0.000    0.000    0.000    0.000    0.000    0.000 
#
# Total GULP energy -297334.179944 kJ/mol
# GULP energy per Si atom -12388.924164 kJ/mol
# Density = 1.932178 g / cm^3
# Si number density = 19.365857 Si / 1000 Ang^3
#
#
#
# Elastic Constant Matrix: (Units=GPa)
#
#
# Indices 1 2 3 4 5 6 
#
# 1 79.3396 40.6738 57.7779 0.0000 -2.7188 0.0000
# 2 40.6738 112.2383 50.4060 0.0000 7.9667 0.0000
# 3 57.7779 50.4060 110.4850 0.0000 -8.3338 0.0000
# 4 0.0000 0.0000 0.0000 23.0797 0.0000 -9.9504
# 5 -2.7188 7.9667 -8.3338 0.0000 33.9683 0.0000
# 6 0.0000 0.0000 0.0000 -9.9504 0.0000 31.0304
#
#
#
# Elastic Compliance Matrix: (Units=1/GPa)
#
#
# Indices 1 2 3 4 5 6 
#
# 1 0.021355 -0.003447 -0.009582 0.000000 0.000167 0.000000
# 2 -0.003447 0.012309 -0.004128 0.000000 -0.004176 0.000000
# 3 -0.009582 -0.004128 0.016261 0.000000 0.004191 0.000000
# 4 0.000000 0.000000 0.000000 0.050279 0.000000 0.016123
# 5 0.000167 -0.004176 0.004191 0.000000 0.031460 0.000000
# 6 0.000000 0.000000 0.000000 0.016123 0.000000 0.037397
#
#
# Mechanical properties :
#
#
# Convention : Reuss Voigt Hill
#
# Bulk Modulus (GPa) = 64.05890 66.64203 65.35046
# Shear Modulus (GPa) = 23.97160 27.82936 25.90048
#
# Velocity S-wave (km/s) = 3.52209 3.79493 3.66106
# Velocity P-wave (km/s) = 7.04913 7.32727 7.18955
#
# Compressibility (1/GPa) = 0.01561063
#
# Stress axis : x y z
#
# Youngs Moduli (GPa) = 46.82695 81.24081 61.49524
#
# Poissons Ratio (x) = 0.28006 0.58927
# Poissons Ratio (y) = 0.16143 0.25385
# Poissons Ratio (z) = 0.44871 0.33535
#
# Static dielectric constant tensor:
#      x y z
#    x 3.572890 0.000000 -0.523770 
#    y 0.000000 3.775670 0.000000 
#    z -0.523770 0.000000 3.496030 
# 
# 
# High freq. dielectric constant tensor:
#      x y z
#    x 1.729270 0.000000 -0.048090 
#    y 0.000000 1.774530 0.000000 
#    z -0.048090 0.000000 1.732560 
# 
# From -- ./inp_files/176996.got.cif
#   From: 2010.06.25/outbox.cif.g09.slc.cpg/sg15_89_cif.got.tgz:176996.got - 2010.06.28 07:06:18.
