data_PCOD8134334
_publ_section_title
;
Structure prediction by ZEFSAII (Michael W. Deem and Ramdas Pophale) SiO2 
 PCOD8134334
Probable space group: C 2/C
;
_chemical_formula_sum "Si O2"
_cell_formula_units_Z 64
_cell_length_a 28.170500
_cell_length_b 12.032757
_cell_length_c 14.635024
_cell_angle_alpha 90.000000
_cell_angle_beta 142.889745
_cell_angle_gamma 90.000000
_cell_volume 2993.112116
_symmetry_space_group_name_H-M "C 2/C"
_symmetry_group_IT_number 15
_symmetry_cell_setting 'monoclinic'
loop_
_space_group_symop_operation_xyz
x,y,z
-x,y,1/2-z
-x,-y,-z
x,-y,1/2+z
1/2+x,1/2+y,z
1/2-x,1/2+y,1/2-z
1/2-x,1/2-y,-z
1/2+x,1/2-y,1/2+z
loop_
_atom_site_type_symbol
_atom_site_label
_atom_site_fract_x
_atom_site_fract_y
_atom_site_fract_z
Si Si1 0.327000 0.323945 0.120304
Si Si2 0.371729 0.086617 0.402510
Si Si3 0.380920 0.079261 0.612629
Si Si4 0.836216 0.241219 0.168671
Si Si5 0.871727 0.341256 0.409982
Si Si6 0.701293 0.360771 0.617582
Si Si7 0.555299 0.127417 0.175651
Si Si8 0.302730 0.528740 0.200292
O O1 0.401309 0.242952 0.238675
O O2 0.327143 0.404532 0.209051
O O3 0.250000 0.250000 0.000000
O O4 0.325365 0.400435 0.024896
O O5 0.416121 0.113804 0.566617
O O6 0.295717 0.162122 0.264437
O O7 0.431357 0.088093 0.408932
O O8 0.337353 0.963757 0.371494
O O9 0.396108 0.190707 0.695764
O O10 0.288240 0.053719 0.460667
O O11 0.421018 0.970767 0.718311
O O12 0.832406 0.302739 0.257887
O O13 0.856733 0.112080 0.220487
O O14 0.750000 0.250000 0.000000
O O15 0.841248 0.259110 0.441593
O O16 0.965396 0.344533 0.552482
O O17 0.677006 0.446624 0.661233
#
# Coordination Sequence:
#
# PCOD8134334 Si02
#       8
#     8   8   8   8   8   8   8   8
#     4  12  22  40  64  96 137 173 234 272 325 405
#     4  11  22  37  63  98 132 170 221 272 331 401
#     4  10  19  35  60  95 129 169 219 263 342 388
#     4   9  19  38  62  85 130 174 218 264 325 400
#     4  11  24  42  64  98 137 168 221 279 343 396
#     4  10  23  40  64  93 130 177 227 265 324 400
#     4  12  24  41  64 100 139 177 208 294 341 388
#     4   9  20  39  59  94 124 174 223 274 314 391
#
# _framework density 21.382425999999999
#
# number of rings (size 3 to 8) (size 9 to 14) (size 15 to 20)
#    0.000    1.500    3.750    1.875    3.500    2.000 
#    2.250    2.500    0.000    0.000    0.000    0.000 
#    0.000    0.000    0.000    0.000    0.000    0.000 
#
# Total GULP energy -396493.115730 kJ/mol
# GULP energy per Si atom -12390.409867 kJ/mol
# Density = 2.133376 g / cm^3
# Si number density = 21.382426 Si / 1000 Ang^3
#
#
#
# Elastic Constant Matrix: (Units=GPa)
#
#
# Indices 1 2 3 4 5 6 
#
# 1 85.2026 35.1536 29.2113 0.0000 -10.0561 0.0000
# 2 35.1536 86.7556 17.4896 0.0000 2.0408 0.0000
# 3 29.2113 17.4896 56.3388 0.0000 -9.4935 0.0000
# 4 0.0000 0.0000 0.0000 27.0722 0.0000 -4.2125
# 5 -10.0561 2.0408 -9.4935 0.0000 42.4762 0.0000
# 6 0.0000 0.0000 0.0000 -4.2125 0.0000 30.6540
#
#
#
# Elastic Compliance Matrix: (Units=1/GPa)
#
#
# Indices 1 2 3 4 5 6 
#
# 1 0.016509 -0.005463 -0.006402 0.000000 0.002740 0.000000
# 2 -0.005463 0.014197 -0.001982 0.000000 -0.002419 0.000000
# 3 -0.006402 -0.001982 0.022284 0.000000 0.003560 0.000000
# 4 0.000000 0.000000 0.000000 0.037745 0.000000 0.005187
# 5 0.002740 -0.002419 0.003560 0.000000 0.025103 0.000000
# 6 0.000000 0.000000 0.000000 0.005187 0.000000 0.033335
#
#
# Mechanical properties :
#
#
# Convention : Reuss Voigt Hill
#
# Bulk Modulus (GPa) = 39.53294 43.55623 41.54458
# Shear Modulus (GPa) = 26.98312 29.80331 28.39322
#
# Velocity S-wave (km/s) = 3.55622 3.73744 3.64796
# Velocity P-wave (km/s) = 5.94903 6.24812 6.10041
#
# Compressibility (1/GPa) = 0.02529536
#
# Stress axis : x y z
#
# Youngs Moduli (GPa) = 60.57225 70.43805 44.87437
#
# Poissons Ratio (x) = 0.38483 0.28729
# Poissons Ratio (y) = 0.33093 0.08894
# Poissons Ratio (z) = 0.38779 0.13961
#
# Static dielectric constant tensor:
#      x y z
#    x 4.843530 0.000000 -0.899630 
#    y 0.000000 4.496900 0.000000 
#    z -0.899630 0.000000 4.222000 
# 
# 
# High freq. dielectric constant tensor:
#      x y z
#    x 1.839420 0.000000 -0.031250 
#    y 0.000000 1.830450 0.000000 
#    z -0.031250 0.000000 1.832010 
# 
# From -- ./inp_files/181791.got.cif
#   From: 2010.06.25/outbox.cif.g09.slc.cpg/sg15_91_cif.got.tgz:181791.got - 2010.06.28 07:06:18.
