data_PCOD8134178
_publ_section_title
;
Structure prediction by ZEFSAII (Michael W. Deem and Ramdas Pophale) SiO2 
 PCOD8134178
Probable space group: C 2/C
;
_chemical_formula_sum "Si O2"
_cell_formula_units_Z 56
_cell_length_a 9.400908
_cell_length_b 13.480122
_cell_length_c 27.188876
_cell_angle_alpha 90.000000
_cell_angle_beta 54.667659
_cell_angle_gamma 90.000000
_cell_volume 2810.894771
_symmetry_space_group_name_H-M "C 2/C"
_symmetry_group_IT_number 15
_symmetry_cell_setting 'monoclinic'
loop_
_space_group_symop_operation_xyz
x,y,z
-x,y,1/2-z
-x,-y,-z
x,-y,1/2+z
1/2+x,1/2+y,z
1/2-x,1/2+y,1/2-z
1/2-x,1/2-y,-z
1/2+x,1/2-y,1/2+z
loop_
_atom_site_type_symbol
_atom_site_label
_atom_site_fract_x
_atom_site_fract_y
_atom_site_fract_z
Si Si1 0.295727 0.161871 0.922775
Si Si2 0.691874 0.633367 0.230554
Si Si3 0.296951 0.223223 0.435579
Si Si4 0.855412 0.822791 0.154254
Si Si5 0.477050 0.667400 0.440937
Si Si6 0.789138 0.957233 0.670118
Si Si7 0.466743 0.964483 0.863897
O O1 0.195628 0.180588 0.892452
O O2 0.385685 0.264830 0.918440
O O3 0.439032 0.075680 0.888641
O O4 0.159512 0.127969 0.991654
O O5 0.500000 0.606146 0.250000
O O6 0.737459 0.747277 0.209290
O O7 0.707660 0.620231 0.285978
O O8 0.827761 0.559207 0.176865
O O9 0.250000 0.250000 0.500000
O O10 0.441090 0.295496 0.382861
O O11 0.367718 0.110490 0.420331
O O12 0.124871 0.234368 0.437066
O O13 0.823971 0.931787 0.183003
O O14 0.557222 0.570817 0.398802
O O15 0.605734 0.951866 0.677531
#
# Coordination Sequence:
#
# PCOD8134178 Si02
#       7
#     8   8   8   8   8   8   8
#     4  10  20  38  59  89 120 153 199 235 297 346
#     4  11  23  40  59  85 118 149 194 251 297 342
#     4  10  19  35  57  86 121 151 193 238 294 348
#     4  10  22  38  62  86 113 158 197 243 292 348
#     4  10  21  35  59  89 122 157 189 246 286 354
#     4  10  22  39  61  86 116 158 203 233 290 357
#     4   9  22  38  61  83 113 158 198 240 286 358
#
# _framework density 19.922481999999999
#
# number of rings (size 3 to 8) (size 9 to 14) (size 15 to 20)
#    0.000    2.000    1.429    1.286    2.000    6.286 
#    0.000    3.571    0.000    0.000    0.000    0.000 
#    0.000    0.000    0.000    0.000    0.000    0.000 
#
# Total GULP energy -347283.893173 kJ/mol
# GULP energy per Si atom -12402.996185 kJ/mol
# Density = 1.987714 g / cm^3
# Si number density = 19.922482 Si / 1000 Ang^3
#
#
#
# Elastic Constant Matrix: (Units=GPa)
#
#
# Indices 1 2 3 4 5 6 
#
# 1 81.9981 35.1210 30.1256 0.0000 -17.8941 0.0000
# 2 35.1210 108.8233 49.0615 0.0000 0.5495 0.0000
# 3 30.1256 49.0615 88.0386 0.0000 0.2394 0.0000
# 4 0.0000 0.0000 0.0000 28.1028 0.0000 -0.4856
# 5 -17.8941 0.5495 0.2394 0.0000 34.5597 0.0000
# 6 0.0000 0.0000 0.0000 -0.4856 0.0000 23.9610
#
#
#
# Elastic Compliance Matrix: (Units=1/GPa)
#
#
# Indices 1 2 3 4 5 6 
#
# 1 0.017207 -0.003917 -0.003729 0.000000 0.008997 0.000000
# 2 -0.003917 0.013165 -0.005990 0.000000 -0.002196 0.000000
# 3 -0.003729 -0.005990 0.015978 0.000000 -0.001946 0.000000
# 4 0.000000 0.000000 0.000000 0.035596 0.000000 0.000721
# 5 0.008997 -0.002196 -0.001946 0.000000 0.033642 0.000000
# 6 0.000000 0.000000 0.000000 0.000721 0.000000 0.041749
#
#
# Mechanical properties :
#
#
# Convention : Reuss Voigt Hill
#
# Bulk Modulus (GPa) = 52.42052 56.38625 54.40339
# Shear Modulus (GPa) = 26.18205 28.29482 27.23843
#
# Velocity S-wave (km/s) = 3.62912 3.77270 3.70161
# Velocity P-wave (km/s) = 6.62797 6.88055 6.75544
#
# Compressibility (1/GPa) = 0.01907650
#
# Stress axis : x y z
#
# Youngs Moduli (GPa) = 58.11633 75.95827 62.58507
#
# Poissons Ratio (x) = 0.29755 0.23341
# Poissons Ratio (y) = 0.22766 0.37489
# Poissons Ratio (z) = 0.21674 0.45500
#
# Static dielectric constant tensor:
#      x y z
#    x 3.682170 0.000000 -0.108010 
#    y 0.000000 3.569030 0.000000 
#    z -0.108010 0.000000 3.621830 
# 
# 
# High freq. dielectric constant tensor:
#      x y z
#    x 1.776730 0.000000 -0.009380 
#    y 0.000000 1.770330 0.000000 
#    z -0.009380 0.000000 1.783530 
# 
# From -- ./inp_files/264602.got.cif
#   From: 2010.06.25/outbox.cif.g09.slc.cpg/sg15_133_cif.got.tgz:264602.got - 2010.06.28 07:06:18.
