data_PCOD8134524
_publ_section_title
;
Structure prediction by ZEFSAII (Michael W. Deem and Ramdas Pophale) SiO2 
 PCOD8134524
Probable space group: C 2/C
;
_chemical_formula_sum "Si O2"
_cell_formula_units_Z 48
_cell_length_a 26.932393
_cell_length_b 9.386789
_cell_length_c 18.806178
_cell_angle_alpha 90.000000
_cell_angle_beta 148.882643
_cell_angle_gamma 90.000000
_cell_volume 2457.021244
_symmetry_space_group_name_H-M "C 2/C"
_symmetry_group_IT_number 15
_symmetry_cell_setting 'monoclinic'
loop_
_space_group_symop_operation_xyz
x,y,z
-x,y,1/2-z
-x,-y,-z
x,-y,1/2+z
1/2+x,1/2+y,z
1/2-x,1/2+y,1/2-z
1/2-x,1/2-y,-z
1/2+x,1/2-y,1/2+z
loop_
_atom_site_type_symbol
_atom_site_label
_atom_site_fract_x
_atom_site_fract_y
_atom_site_fract_z
Si Si1 0.782185 0.507578 0.527013
Si Si2 0.097252 0.535561 0.537134
Si Si3 0.884888 0.588324 0.289676
Si Si4 0.908119 0.309987 0.089361
Si Si5 0.713709 0.226176 0.581519
Si Si6 0.394300 0.493564 0.100470
O O1 0.841591 0.506150 0.672983
O O2 0.813355 0.640266 0.516489
O O3 0.804996 0.360276 0.513857
O O4 0.668765 0.519664 0.405284
O O5 0.127486 0.503181 0.654160
O O6 0.085545 0.389816 0.478143
O O7 0.180666 0.635314 0.608476
O O8 0.996528 0.621401 0.411770
O O9 0.826820 0.736860 0.226822
O O10 0.901490 0.141789 0.065866
O O11 0.000000 0.349451 0.250000
O O12 0.654861 0.373808 0.508234
O O13 0.500000 0.439195 0.250000
#
# Coordination Sequence:
#
# PCOD8134524 Si02
#       6
#     8   8   8   8   8   8
#     4  10  20  37  59  85 112 154 190 242 279 351
#     4  10  22  37  62  82 112 162 185 238 284 354
#     4  10  20  37  58  85 115 145 201 225 294 340
#     4  10  19  36  57  82 114 150 193 230 286 348
#     4  10  23  36  61  87 113 151 191 245 283 338
#     4  10  21  32  55  87 116 141 187 247 289 323
#
# _framework density 19.535851000000001
#
# number of rings (size 3 to 8) (size 9 to 14) (size 15 to 20)
#    0.000    2.000    1.667    2.500    4.667    2.667 
#    0.000    0.000    0.000    7.000    0.000    0.000 
#    0.000    0.000    0.000    0.000    0.000    0.000 
#
# Total GULP energy -297601.424753 kJ/mol
# GULP energy per Si atom -12400.059365 kJ/mol
# Density = 1.949139 g / cm^3
# Si number density = 19.535851 Si / 1000 Ang^3
#
#
#
# Elastic Constant Matrix: (Units=GPa)
#
#
# Indices 1 2 3 4 5 6 
#
# 1 98.9604 23.5960 37.7713 0.0000 -3.0291 0.0000
# 2 23.5960 90.7693 24.3676 0.0000 -4.3041 0.0000
# 3 37.7713 24.3676 82.5951 0.0000 -5.3555 0.0000
# 4 0.0000 0.0000 0.0000 19.6325 0.0000 7.2164
# 5 -3.0291 -4.3041 -5.3555 0.0000 29.2674 0.0000
# 6 0.0000 0.0000 0.0000 7.2164 0.0000 26.6170
#
#
#
# Elastic Compliance Matrix: (Units=1/GPa)
#
#
# Indices 1 2 3 4 5 6 
#
# 1 0.012526 -0.001864 -0.005174 0.000000 0.000076 0.000000
# 2 -0.001864 0.012279 -0.002698 0.000000 0.001119 0.000000
# 3 -0.005174 -0.002698 0.015391 0.000000 0.001884 0.000000
# 4 0.000000 0.000000 0.000000 0.056574 0.000000 -0.015338
# 5 0.000076 0.001119 0.001884 0.000000 0.034685 0.000000
# 6 0.000000 0.000000 0.000000 -0.015338 0.000000 0.041728
#
#
# Mechanical properties :
#
#
# Convention : Reuss Voigt Hill
#
# Bulk Modulus (GPa) = 48.24808 49.31052 48.77930
# Shear Modulus (GPa) = 25.05479 27.54269 26.29874
#
# Velocity S-wave (km/s) = 3.58509 3.75888 3.67301
# Velocity P-wave (km/s) = 6.47209 6.64339 6.55830
#
# Compressibility (1/GPa) = 0.02072621
#
# Stress axis : x y z
#
# Youngs Moduli (GPa) = 79.83093 81.44169 64.97197
#
# Poissons Ratio (x) = 0.15179 0.33614
# Poissons Ratio (y) = 0.14879 0.17527
# Poissons Ratio (z) = 0.41302 0.21970
#
# Static dielectric constant tensor:
#      x y z
#    x 3.784410 0.000000 0.261110 
#    y 0.000000 3.440330 0.000000 
#    z 0.261110 0.000000 3.451370 
# 
# 
# High freq. dielectric constant tensor:
#      x y z
#    x 1.773530 0.000000 0.014350 
#    y 0.000000 1.752470 0.000000 
#    z 0.014350 0.000000 1.743800 
# 
# From -- ./inp_files/166401.got.cif
#   From: 2010.06.25/outbox.cif.g09.slc.cpg/sg15_84_cif.got.tgz:166401.got - 2010.06.28 07:06:18.
