data_PCOD8134503
_publ_section_title
;
Structure prediction by ZEFSAII (Michael W. Deem and Ramdas Pophale) SiO2 
 PCOD8134503
Probable space group: C 2/C
;
_chemical_formula_sum "Si O2"
_cell_formula_units_Z 56
_cell_length_a 8.698508
_cell_length_b 26.882840
_cell_length_c 14.469469
_cell_angle_alpha 90.000000
_cell_angle_beta 58.832132
_cell_angle_gamma 90.000000
_cell_volume 2895.149654
_symmetry_space_group_name_H-M "C 2/C"
_symmetry_group_IT_number 15
_symmetry_cell_setting 'monoclinic'
loop_
_space_group_symop_operation_xyz
x,y,z
-x,y,1/2-z
-x,-y,-z
x,-y,1/2+z
1/2+x,1/2+y,z
1/2-x,1/2+y,1/2-z
1/2-x,1/2-y,-z
1/2+x,1/2-y,1/2+z
loop_
_atom_site_type_symbol
_atom_site_label
_atom_site_fract_x
_atom_site_fract_y
_atom_site_fract_z
Si Si1 0.136287 0.550156 0.829365
Si Si2 0.926463 0.686307 0.941394
Si Si3 0.094529 0.116937 0.424570
Si Si4 0.119487 0.388099 0.505052
Si Si5 0.853764 0.440030 0.717191
Si Si6 0.450849 0.708717 0.367678
Si Si7 0.281459 0.906350 0.385362
O O1 0.204510 0.493725 0.802897
O O2 0.227186 0.584675 0.722019
O O3 0.917907 0.553055 0.887356
O O4 0.194292 0.570174 0.911517
O O5 0.014644 0.734700 0.866630
O O6 0.859863 0.648463 0.882472
O O7 0.762759 0.704028 0.056368
O O8 0.075026 0.661466 0.961279
O O9 0.228359 0.122870 0.468262
O O10 0.179412 0.086724 0.313092
O O11 0.051951 0.172845 0.407556
O O12 0.915611 0.087162 0.509945
O O13 0.935031 0.406639 0.610020
O O14 0.000000 0.448963 0.750000
O O15 0.500000 0.692198 0.250000
#
# Coordination Sequence:
#
# PCOD8134503 Si02
#       7
#     8   8   8   8   8   8   8
#     4  10  19  36  59  80 112 156 198 227 281 343
#     4   9  20  36  58  86 110 150 194 237 283 344
#     4  10  22  37  57  85 121 145 187 247 287 339
#     4  10  21  35  58  82 121 152 183 234 300 340
#     4  10  19  36  56  82 115 157 190 232 283 342
#     4  10  20  36  61  84 108 147 201 238 279 340
#     4   9  19  36  59  83 111 150 197 237 273 333
#
# _framework density 19.342697000000001
#
# number of rings (size 3 to 8) (size 9 to 14) (size 15 to 20)
#    0.000    2.286    1.429    1.286    4.000    1.714 
#    0.000    0.000    9.429    0.000    0.000    0.000 
#    0.000    0.000    0.000    0.000    0.000    0.000 
#
# Total GULP energy -347225.997889 kJ/mol
# GULP energy per Si atom -12400.928496 kJ/mol
# Density = 1.929867 g / cm^3
# Si number density = 19.342697 Si / 1000 Ang^3
#
#
#
# Elastic Constant Matrix: (Units=GPa)
#
#
# Indices 1 2 3 4 5 6 
#
# 1 68.8587 41.6083 40.7579 0.0000 2.4065 0.0000
# 2 41.6083 104.5529 29.2122 0.0000 -3.5629 0.0000
# 3 40.7579 29.2122 99.8632 0.0000 -1.0412 0.0000
# 4 0.0000 0.0000 0.0000 32.2233 0.0000 0.3437
# 5 2.4065 -3.5629 -1.0412 0.0000 31.4391 0.0000
# 6 0.0000 0.0000 0.0000 0.3437 0.0000 21.0866
#
#
#
# Elastic Compliance Matrix: (Units=1/GPa)
#
#
# Indices 1 2 3 4 5 6 
#
# 1 0.023488 -0.007360 -0.007463 0.000000 -0.002879 0.000000
# 2 -0.007360 0.012759 -0.000708 0.000000 0.001986 0.000000
# 3 -0.007463 -0.000708 0.013276 0.000000 0.000931 0.000000
# 4 0.000000 0.000000 0.000000 0.031039 0.000000 -0.000506
# 5 -0.002879 0.001986 0.000931 0.000000 0.032284 0.000000
# 6 0.000000 0.000000 0.000000 -0.000506 0.000000 0.047432
#
#
# Mechanical properties :
#
#
# Convention : Reuss Voigt Hill
#
# Bulk Modulus (GPa) = 54.16767 55.15908 54.66338
# Shear Modulus (GPa) = 25.31716 27.72957 26.52336
#
# Velocity S-wave (km/s) = 3.62176 3.79039 3.70703
# Velocity P-wave (km/s) = 6.74941 6.90903 6.82969
#
# Compressibility (1/GPa) = 0.01846120
#
# Stress axis : x y z
#
# Youngs Moduli (GPa) = 42.57440 78.37571 75.32121
#
# Poissons Ratio (x) = 0.57687 0.56215
# Poissons Ratio (y) = 0.31336 0.05330
# Poissons Ratio (z) = 0.31775 0.05546
#
# Static dielectric constant tensor:
#      x y z
#    x 3.248730 0.000000 -0.004670 
#    y 0.000000 3.569710 0.000000 
#    z -0.004670 0.000000 3.773450 
# 
# 
# High freq. dielectric constant tensor:
#      x y z
#    x 1.726210 0.000000 0.006520 
#    y 0.000000 1.752550 0.000000 
#    z 0.006520 0.000000 1.767410 
# 
# From -- ./inp_files/138522.got.cif
#   From: 2010.06.25/outbox.cif.g09.slc.cpg/sg15_70_cif.got.tgz:138522.got - 2010.06.28 07:06:18.
