data_PCOD8134688
_publ_section_title
;
Structure prediction by ZEFSAII (Michael W. Deem and Ramdas Pophale) SiO2 
 PCOD8134688
Probable space group: C 2/C
;
_chemical_formula_sum "Si O2"
_cell_formula_units_Z 56
_cell_length_a 28.716891
_cell_length_b 11.682846
_cell_length_c 22.898478
_cell_angle_alpha 90.000000
_cell_angle_beta 19.992403
_cell_angle_gamma 90.000000
_cell_volume 2626.552761
_symmetry_space_group_name_H-M "C 2/C"
_symmetry_group_IT_number 15
_symmetry_cell_setting 'monoclinic'
loop_
_space_group_symop_operation_xyz
x,y,z
-x,y,1/2-z
-x,-y,-z
x,-y,1/2+z
1/2+x,1/2+y,z
1/2-x,1/2+y,1/2-z
1/2-x,1/2-y,-z
1/2+x,1/2-y,1/2+z
loop_
_atom_site_type_symbol
_atom_site_label
_atom_site_fract_x
_atom_site_fract_y
_atom_site_fract_z
Si Si1 0.604773 0.096148 0.854523
Si Si2 0.189418 0.505506 0.136643
Si Si3 0.432272 0.876106 0.890704
Si Si4 0.907452 0.875554 0.448859
Si Si5 0.329108 0.500929 0.655825
Si Si6 0.590094 0.353183 0.845157
Si Si7 0.184128 0.988379 0.631270
O O1 0.551360 0.224619 0.909303
O O2 0.677609 0.076909 0.706064
O O3 0.711734 0.093307 0.781532
O O4 0.500000 0.000000 0.000000
O O5 0.037369 0.550926 0.305260
O O6 0.305069 0.599592 0.015363
O O7 0.242113 0.444297 0.014841
O O8 0.500000 0.841884 0.750000
O O9 0.412034 0.760319 0.950394
O O10 0.289851 0.941545 0.047562
O O11 0.841437 0.921150 0.585222
O O12 0.056753 0.931215 0.264355
O O13 0.294705 0.413440 0.749591
O O14 0.457399 0.577691 0.518619
O O15 0.633789 0.374927 0.726118
#
# Coordination Sequence:
#
# PCOD8134688 Si02
#       7
#     8   8   8   8   8   8   8
#     4  11  26  41  65  91 121 163 206 259 304 368
#     4  10  22  38  55  92 121 153 215 247 308 369
#     4  10  20  33  56  90 125 158 198 252 309 364
#     4  10  19  36  60  86 123 163 202 254 304 365
#     4   9  23  42  61  93 119 161 208 247 309 370
#     4  10  23  43  65  88 123 162 206 252 311 367
#     4  10  21  37  61  86 123 165 200 257 309 369
#
# _framework density 21.320723000000001
#
# number of rings (size 3 to 8) (size 9 to 14) (size 15 to 20)
#    0.000    2.000    0.000    2.143    6.000    2.857 
#    5.143    0.000    0.000    3.429    0.000    0.000 
#    0.000    0.000    0.000    0.000    0.000    0.000 
#
# Total GULP energy -346879.036288 kJ/mol
# GULP energy per Si atom -12388.537010 kJ/mol
# Density = 2.127220 g / cm^3
# Si number density = 21.320723 Si / 1000 Ang^3
#
#
#
# Elastic Constant Matrix: (Units=GPa)
#
#
# Indices 1 2 3 4 5 6 
#
# 1 93.5869 35.7986 29.1358 -0.0002 -8.4473 -0.0001
# 2 35.7986 106.1039 23.9833 -0.0003 12.2010 0.0001
# 3 29.1358 23.9833 75.6989 -0.0007 -7.2269 0.0004
# 4 -0.0002 -0.0003 -0.0007 14.8772 0.0004 -1.1831
# 5 -8.4473 12.2010 -7.2269 0.0004 44.3370 0.0000
# 6 -0.0001 0.0001 0.0004 -1.1831 0.0000 20.5058
#
#
#
# Elastic Compliance Matrix: (Units=1/GPa)
#
#
# Indices 1 2 3 4 5 6 
#
# 1 0.013699 -0.004159 -0.003653 0.000000 0.003159 0.000000
# 2 -0.004159 0.011936 -0.002611 0.000000 -0.004503 0.000000
# 3 -0.003653 -0.002611 0.015690 0.000001 0.002580 0.000000
# 4 0.000000 0.000000 0.000001 0.067527 -0.000001 0.003896
# 5 0.003159 -0.004503 0.002580 -0.000001 0.024816 0.000000
# 6 0.000000 0.000000 0.000000 0.003896 0.000000 0.048992
#
#
# Mechanical properties :
#
#
# Convention : Reuss Voigt Hill
#
# Bulk Modulus (GPa) = 48.83238 50.35833 49.59536
# Shear Modulus (GPa) = 23.77209 28.37547 26.07378
#
# Velocity S-wave (km/s) = 3.34275 3.65209 3.50084
# Velocity P-wave (km/s) = 6.15240 6.43851 6.29708
#
# Compressibility (1/GPa) = 0.02047821
#
# Stress axis : x y z
#
# Youngs Moduli (GPa) = 72.99947 83.78092 63.73627
#
# Poissons Ratio (x) = 0.34848 0.23284
# Poissons Ratio (y) = 0.30363 0.16639
# Poissons Ratio (z) = 0.26668 0.21871
#
# Static dielectric constant tensor:
#      x y z
#    x 4.274430 0.000000 -0.227420 
#    y 0.000000 3.632390 0.000000 
#    z -0.227420 0.000000 3.901880 
# 
# 
# High freq. dielectric constant tensor:
#      x y z
#    x 1.859960 0.000000 -0.004210 
#    y 0.000000 1.808250 0.000000 
#    z -0.004210 0.000000 1.836830 
# 
# From -- ./inp_files/284610.got.cif
#   From: 2010.06.25/outbox.cif.g09.slc.cpg/sg15_143_cif.got.tgz:284610.got - 2010.06.28 07:06:18.
