data_PCOD8134584
_publ_section_title
;
Structure prediction by ZEFSAII (Michael W. Deem and Ramdas Pophale) SiO2 
 PCOD8134584
Probable space group: C 2/C
;
_chemical_formula_sum "Si O2"
_cell_formula_units_Z 56
_cell_length_a 25.570147
_cell_length_b 7.345112
_cell_length_c 15.442711
_cell_angle_alpha 90.000000
_cell_angle_beta 111.299193
_cell_angle_gamma 90.000000
_cell_volume 2702.275242
_symmetry_space_group_name_H-M "C 2/C"
_symmetry_group_IT_number 15
_symmetry_cell_setting 'monoclinic'
loop_
_space_group_symop_operation_xyz
x,y,z
-x,y,1/2-z
-x,-y,-z
x,-y,1/2+z
1/2+x,1/2+y,z
1/2-x,1/2+y,1/2-z
1/2-x,1/2-y,-z
1/2+x,1/2-y,1/2+z
loop_
_atom_site_type_symbol
_atom_site_label
_atom_site_fract_x
_atom_site_fract_y
_atom_site_fract_z
Si Si1 0.899499 0.252751 0.489088
Si Si2 0.617690 0.064968 0.145821
Si Si3 0.789657 0.912224 0.996038
Si Si4 0.727336 0.887858 0.794039
Si Si5 0.095182 0.039655 0.650745
Si Si6 0.300047 0.520830 0.182846
Si Si7 0.489120 0.192672 0.341530
O O1 0.874095 0.434835 0.431035
O O2 0.852583 0.164208 0.521465
O O3 0.952406 0.319216 0.574705
O O4 0.919903 0.108874 0.429760
O O5 0.667322 0.012360 0.243859
O O6 0.624645 0.280328 0.124641
O O7 0.555370 0.040765 0.149909
O O8 0.765070 0.992942 0.889886
O O9 0.750000 0.750000 0.000000
O O10 0.793010 0.065004 0.075315
O O11 0.717132 0.687965 0.821755
O O12 0.759623 0.865183 0.721682
O O13 0.135934 0.950667 0.747225
O O14 0.037860 0.105187 0.663380
O O15 0.500000 0.144550 0.250000
#
# Coordination Sequence:
#
# PCOD8134584 Si02
#       7
#     8   8   8   8   8   8   8
#     4  12  20  40  69  82 115 168 198 240 304 355
#     4   9  22  37  61  87 117 153 201 245 297 352
#     4  10  21  33  63  89 115 162 200 237 304 359
#     4  10  19  36  58  83 122 153 193 245 296 355
#     4   9  21  37  60  89 118 152 201 247 296 353
#     4  10  19  37  57  85 122 155 198 244 297 356
#     4  10  22  40  62  86 121 156 197 256 297 347
#
# _framework density 20.723278000000001
#
# number of rings (size 3 to 8) (size 9 to 14) (size 15 to 20)
#    0.857    1.143    1.429    3.429    2.000    0.000 
#    0.000    1.429    9.429    0.000    0.000    0.000 
#    0.000    0.000    0.000    0.000    0.000    0.000 
#
# Total GULP energy -346912.115821 kJ/mol
# GULP energy per Si atom -12389.718422 kJ/mol
# Density = 2.067611 g / cm^3
# Si number density = 20.723278 Si / 1000 Ang^3
#
#
#
# Elastic Constant Matrix: (Units=GPa)
#
#
# Indices 1 2 3 4 5 6 
#
# 1 107.4805 -7.5974 49.6652 0.0000 14.1456 0.0000
# 2 -7.5974 19.9570 16.6163 0.0000 -0.7485 0.0000
# 3 49.6652 16.6163 146.1781 0.0000 6.2151 0.0000
# 4 0.0000 0.0000 0.0000 21.2142 0.0000 -4.4139
# 5 14.1456 -0.7485 6.2151 0.0000 31.3146 0.0000
# 6 0.0000 0.0000 0.0000 -4.4139 0.0000 9.4043
#
#
#
# Elastic Compliance Matrix: (Units=1/GPa)
#
#
# Indices 1 2 3 4 5 6 
#
# 1 0.012985 0.009147 -0.005256 0.000000 -0.004604 0.000000
# 2 0.009147 0.061998 -0.010128 0.000000 -0.000640 0.000000
# 3 -0.005256 -0.010128 0.009770 0.000000 0.000193 0.000000
# 4 0.000000 0.000000 0.000000 0.052240 0.000000 0.024518
# 5 -0.004604 -0.000640 0.000193 0.000000 0.033960 0.000000
# 6 0.000000 0.000000 0.000000 0.024518 0.000000 0.117841
#
#
# Mechanical properties :
#
#
# Convention : Reuss Voigt Hill
#
# Bulk Modulus (GPa) = 13.83529 43.44265 28.63897
# Shear Modulus (GPa) = 15.36754 26.71539 21.04146
#
# Velocity S-wave (km/s) = 2.72611 3.59437 3.18992
# Velocity P-wave (km/s) = 4.07426 6.18342 5.23614
#
# Compressibility (1/GPa) = 0.07227894
#
# Stress axis : x y z
#
# Youngs Moduli (GPa) = 77.01148 16.12949 102.35736
#
# Poissons Ratio (x) = -0.14753 0.53796
# Poissons Ratio (y) = -0.70439 1.03666
# Poissons Ratio (z) = 0.40475 0.16336
#
# Static dielectric constant tensor:
#      x y z
#    x 3.797790 0.000000 0.077020 
#    y 0.000000 3.336850 0.000000 
#    z 0.077020 0.000000 4.251150 
# 
# 
# High freq. dielectric constant tensor:
#      x y z
#    x 1.811910 0.000000 0.016270 
#    y 0.000000 1.771180 0.000000 
#    z 0.016270 0.000000 1.818910 
# 
# From -- ./inp_files/176233.got.cif
#   From: 2010.06.25/outbox.cif.g09.slc.cpg/sg15_89_cif.got.tgz:176233.got - 2010.06.28 07:06:18.
