data_PCOD8134066
_publ_section_title
;
Structure prediction by ZEFSAII (Michael W. Deem and Ramdas Pophale) SiO2 
 PCOD8134066
Probable space group: C 2/C
;
_chemical_formula_sum "Si O2"
_cell_formula_units_Z 40
_cell_length_a 4.905160
_cell_length_b 34.006215
_cell_length_c 12.002941
_cell_angle_alpha 90.000000
_cell_angle_beta 78.854163
_cell_angle_gamma 90.000000
_cell_volume 1964.397572
_symmetry_space_group_name_H-M "C 2/C"
_symmetry_group_IT_number 15
_symmetry_cell_setting 'monoclinic'
loop_
_space_group_symop_operation_xyz
x,y,z
-x,y,1/2-z
-x,-y,-z
x,-y,1/2+z
1/2+x,1/2+y,z
1/2-x,1/2+y,1/2-z
1/2-x,1/2-y,-z
1/2+x,1/2-y,1/2+z
loop_
_atom_site_type_symbol
_atom_site_label
_atom_site_fract_x
_atom_site_fract_y
_atom_site_fract_z
Si Si1 0.558635 0.278925 0.375275
Si Si2 0.695493 0.004098 0.639080
Si Si3 0.011014 0.697950 0.490550
Si Si4 0.212219 0.044576 0.083454
Si Si5 0.276983 0.128584 0.173606
O O1 0.500000 0.285693 0.250000
O O2 0.839902 0.298751 0.400113
O O3 0.591324 0.232725 0.398781
O O4 0.316837 0.299838 0.464460
O O5 0.500000 0.023125 0.750000
O O6 0.514324 0.970419 0.594399
O O7 0.966975 0.980800 0.661599
O O8 0.800326 0.038872 0.549701
O O9 0.086787 0.657359 0.426478
O O10 0.176938 0.089820 0.116773
O O11 0.500000 0.117786 0.250000
O O12 0.000000 0.147758 0.250000
#
# Coordination Sequence:
#
# PCOD8134066 Si02
#       5
#     8   8   8   8   8
#     4  10  20  38  59  81 112 150 188 231 277 333
#     4  10  19  35  55  78 109 145 183 227 274 330
#     4  10  22  36  57  86 112 144 192 231 277 343
#     4  10  21  34  55  82 107 141 187 226 275 340
#     4  12  23  37  58  84 116 147 184 242 297 337
#
# _framework density 20.362477999999999
#
# number of rings (size 3 to 8) (size 9 to 14) (size 15 to 20)
#    0.000    1.600    0.000    6.000    0.000    3.200 
#    0.000    2.000    0.000    0.000    0.000    0.000 
#    0.000    0.000    0.000    0.000    0.000    0.000 
#
# Total GULP energy -247947.301545 kJ/mol
# GULP energy per Si atom -12397.365077 kJ/mol
# Density = 2.031613 g / cm^3
# Si number density = 20.362478 Si / 1000 Ang^3
#
#
#
# Elastic Constant Matrix: (Units=GPa)
#
#
# Indices 1 2 3 4 5 6 
#
# 1 84.7620 26.4426 24.2339 0.0000 -4.0005 0.0000
# 2 26.4426 75.6684 43.2035 0.0000 9.0278 0.0000
# 3 24.2339 43.2035 104.9811 0.0000 6.3744 0.0000
# 4 0.0000 0.0000 0.0000 18.5287 0.0000 -2.4053
# 5 -4.0005 9.0278 6.3744 0.0000 33.3065 0.0000
# 6 0.0000 0.0000 0.0000 -2.4053 0.0000 23.2247
#
#
#
# Elastic Compliance Matrix: (Units=1/GPa)
#
#
# Indices 1 2 3 4 5 6 
#
# 1 0.013731 -0.004250 -0.001609 0.000000 0.003109 0.000000
# 2 -0.004250 0.018970 -0.006559 0.000000 -0.004397 0.000000
# 3 -0.001609 -0.006559 0.012647 0.000000 -0.000836 0.000000
# 4 0.000000 0.000000 0.000000 0.054706 0.000000 0.005666
# 5 0.003109 -0.004397 -0.000836 0.000000 0.031749 0.000000
# 6 0.000000 0.000000 0.000000 0.005666 0.000000 0.043644
#
#
# Mechanical properties :
#
#
# Convention : Reuss Voigt Hill
#
# Bulk Modulus (GPa) = 48.75420 50.35238 49.55329
# Shear Modulus (GPa) = 24.14047 26.44741 25.29394
#
# Velocity S-wave (km/s) = 3.44690 3.60784 3.52829
# Velocity P-wave (km/s) = 6.31162 6.49131 6.40210
#
# Compressibility (1/GPa) = 0.02051105
#
# Stress axis : x y z
#
# Youngs Moduli (GPa) = 72.83047 52.71402 79.07061
#
# Poissons Ratio (x) = 0.22405 0.12724
# Poissons Ratio (y) = 0.30956 0.51861
# Poissons Ratio (z) = 0.11720 0.34574
#
# Static dielectric constant tensor:
#      x y z
#    x 3.940150 0.000000 0.000570 
#    y 0.000000 3.288750 0.000000 
#    z 0.000570 0.000000 3.776620 
# 
# 
# High freq. dielectric constant tensor:
#      x y z
#    x 1.821800 0.000000 -0.000610 
#    y 0.000000 1.756600 0.000000 
#    z -0.000610 0.000000 1.800610 
# 
# From -- ./inp_files/73789.got.cif
#   From: 2010.06.25/outbox.cif.g09.slc.cpg/sg15_37_cif.got.tgz:73789.got - 2010.06.28 07:06:18.
