data_PCOD8134061
_publ_section_title
;
Structure prediction by ZEFSAII (Michael W. Deem and Ramdas Pophale) SiO2 
 PCOD8134061
Probable space group: C 2/C
;
_chemical_formula_sum "Si O2"
_cell_formula_units_Z 44
_cell_length_a 12.689907
_cell_length_b 20.040276
_cell_length_c 8.589185
_cell_angle_alpha 90.000000
_cell_angle_beta 96.155407
_cell_angle_gamma 90.000000
_cell_volume 2171.715941
_symmetry_space_group_name_H-M "C 2/C"
_symmetry_group_IT_number 15
_symmetry_cell_setting 'monoclinic'
loop_
_space_group_symop_operation_xyz
x,y,z
-x,y,1/2-z
-x,-y,-z
x,-y,1/2+z
1/2+x,1/2+y,z
1/2-x,1/2+y,1/2-z
1/2-x,1/2-y,-z
1/2+x,1/2-y,1/2+z
loop_
_atom_site_type_symbol
_atom_site_label
_atom_site_fract_x
_atom_site_fract_y
_atom_site_fract_z
Si Si1 0.656678 0.751952 0.183258
Si Si2 0.141183 0.456086 0.905584
Si Si3 0.700476 0.644721 0.945954
Si Si4 0.930352 0.731196 0.509855
Si Si5 0.000000 0.178255 0.750000
Si Si6 0.407632 0.082928 0.439884
O O1 0.739863 0.811380 0.173932
O O2 0.640880 0.736329 0.364130
O O3 0.549667 0.778073 0.086830
O O4 0.696859 0.684393 0.108837
O O5 0.149548 0.442560 0.724636
O O6 0.034508 0.422986 0.954890
O O7 0.241725 0.425118 0.012504
O O8 0.138439 0.536065 0.930089
O O9 0.581414 0.632160 0.860949
O O10 0.930042 0.775565 0.354441
O O11 0.878744 0.659559 0.464079
#
# Coordination Sequence:
#
# PCOD8134061 Si02
#       6
#     8   8   8   8   4   8
#     4   9  20  32  58  80 120 154 183 235 298 339
#     4  10  21  36  54  80 120 147 193 223 292 346
#     4  10  20  38  53  83 117 160 192 238 280 345
#     4  10  19  35  54  89 117 146 190 238 292 355
#     4  10  22  36  60  82 120 158 192 240 286 326
#     4  10  21  33  56  83 113 153 177 242 284 350
#
# _framework density 20.260477000000002
#
# number of rings (size 3 to 8) (size 9 to 14) (size 15 to 20)
#    0.000    2.182    1.818    1.091    7.636    2.182 
#    0.000    0.000    0.000    1.091    0.000    0.000 
#    0.000    0.000    0.000    0.000    0.000    0.000 
#
# Total GULP energy -272788.483086 kJ/mol
# GULP energy per Si atom -12399.476504 kJ/mol
# Density = 2.021436 g / cm^3
# Si number density = 20.260477 Si / 1000 Ang^3
#
#
#
# Elastic Constant Matrix: (Units=GPa)
#
#
# Indices 1 2 3 4 5 6 
#
# 1 60.5056 25.1493 30.6314 0.0000 1.7851 0.0000
# 2 25.1493 58.4286 29.0424 0.0000 8.1674 0.0000
# 3 30.6314 29.0424 101.9190 0.0000 -8.3857 0.0000
# 4 0.0000 0.0000 0.0000 19.9446 0.0000 5.3454
# 5 1.7851 8.1674 -8.3857 0.0000 40.4144 0.0000
# 6 0.0000 0.0000 0.0000 5.3454 0.0000 25.8040
#
#
#
# Elastic Compliance Matrix: (Units=1/GPa)
#
#
# Indices 1 2 3 4 5 6 
#
# 1 0.021785 -0.007029 -0.004585 0.000000 -0.000493 0.000000
# 2 -0.007029 0.023388 -0.005001 0.000000 -0.005454 0.000000
# 3 -0.004585 -0.005001 0.012935 0.000000 0.003897 0.000000
# 4 0.000000 0.000000 0.000000 0.053086 0.000000 -0.010997
# 5 -0.000493 -0.005454 0.003897 0.000000 0.026676 0.000000
# 6 0.000000 0.000000 0.000000 -0.010997 0.000000 0.041032
#
#
# Mechanical properties :
#
#
# Convention : Reuss Voigt Hill
#
# Bulk Modulus (GPa) = 40.19438 43.38881 41.79160
# Shear Modulus (GPa) = 22.68343 26.30127 24.49235
#
# Velocity S-wave (km/s) = 3.34966 3.60690 3.48066
# Velocity P-wave (km/s) = 5.90272 6.22963 6.06838
#
# Compressibility (1/GPa) = 0.02487910
#
# Stress axis : x y z
#
# Youngs Moduli (GPa) = 45.90383 42.75626 77.30733
#
# Poissons Ratio (x) = 0.30053 0.35445
# Poissons Ratio (y) = 0.32265 0.38661
# Poissons Ratio (z) = 0.21047 0.21382
#
# Static dielectric constant tensor:
#      x y z
#    x 3.599560 0.000000 -0.081040 
#    y 0.000000 3.330440 0.000000 
#    z -0.081040 0.000000 3.793770 
# 
# 
# High freq. dielectric constant tensor:
#      x y z
#    x 1.777380 0.000000 0.002470 
#    y 0.000000 1.753490 0.000000 
#    z 0.002470 0.000000 1.802280 
# 
# From -- ./inp_files/30962.got.cif
#   From: 2010.06.25/outbox.cif.g09.slc.cpg/sg15_16_cif.got.tgz:30962.got - 2010.06.28 07:06:18.
