data_PCOD8134014
_publ_section_title
;
Structure prediction by ZEFSAII (Michael W. Deem and Ramdas Pophale) SiO2 
 PCOD8134014
Probable space group: C 2/C
;
_chemical_formula_sum "Si O2"
_cell_formula_units_Z 56
_cell_length_a 31.297512
_cell_length_b 8.472516
_cell_length_c 13.716056
_cell_angle_alpha 90.000000
_cell_angle_beta 129.345937
_cell_angle_gamma 90.000000
_cell_volume 2812.661870
_symmetry_space_group_name_H-M "C 2/C"
_symmetry_group_IT_number 15
_symmetry_cell_setting 'monoclinic'
loop_
_space_group_symop_operation_xyz
x,y,z
-x,y,1/2-z
-x,-y,-z
x,-y,1/2+z
1/2+x,1/2+y,z
1/2-x,1/2+y,1/2-z
1/2-x,1/2-y,-z
1/2+x,1/2-y,1/2+z
loop_
_atom_site_type_symbol
_atom_site_label
_atom_site_fract_x
_atom_site_fract_y
_atom_site_fract_z
Si Si1 0.839521 0.501368 0.535829
Si Si2 0.562827 0.237056 0.849056
Si Si3 0.272696 0.215945 0.293729
Si Si4 0.794356 0.680154 0.634915
Si Si5 0.124474 0.943280 0.793764
Si Si6 0.379090 0.411253 0.406204
Si Si7 0.328106 0.645148 0.472632
O O1 0.898404 0.586730 0.611164
O O2 0.795529 0.577530 0.396830
O O3 0.817882 0.521327 0.616824
O O4 0.849279 0.319531 0.527795
O O5 0.500000 0.180870 0.750000
O O6 0.574785 0.373009 0.786331
O O7 0.573948 0.309291 0.972305
O O8 0.233357 0.338099 0.298652
O O9 0.321898 0.314977 0.318589
O O10 0.235972 0.144416 0.153293
O O11 0.750000 0.750000 0.500000
O O12 0.844100 0.804268 0.716569
O O13 0.100377 0.056753 0.674334
O O14 0.167860 0.035293 0.925927
O O15 0.367933 0.574829 0.446935
#
# Coordination Sequence:
#
# PCOD8134014 Si02
#       7
#     8   8   8   8   8   8   8
#     4   9  20  35  53  82 108 144 190 233 275 336
#     4   9  20  41  63  77 106 148 185 239 298 336
#     4  10  19  35  52  76 121 157 182 216 280 333
#     4   9  17  34  49  71 112 156 182 215 274 326
#     4  10  21  37  55  84 116 145 193 234 271 344
#     4  10  21  38  54  84 115 146 193 230 275 340
#     4  11  20  34  55  82 116 148 188 229 271 330
#
# _framework density 19.909965
#
# number of rings (size 3 to 8) (size 9 to 14) (size 15 to 20)
#    0.000    2.286    1.429    3.429    2.000    1.143 
#    7.714    2.857    0.000    1.714    0.000    0.000 
#    0.000    0.000    0.000    0.000    0.000    0.000 
#
# Total GULP energy -347062.452190 kJ/mol
# GULP energy per Si atom -12395.087578 kJ/mol
# Density = 1.986465 g / cm^3
# Si number density = 19.909965 Si / 1000 Ang^3
#
#
#
# Elastic Constant Matrix: (Units=GPa)
#
#
# Indices 1 2 3 4 5 6 
#
# 1 49.4709 6.8899 33.8484 0.0000 4.3824 0.0000
# 2 6.8899 79.3211 14.4755 0.0000 3.7012 0.0000
# 3 33.8484 14.4755 84.5881 0.0000 8.6605 0.0000
# 4 0.0000 0.0000 0.0000 23.2879 0.0000 -5.7495
# 5 4.3824 3.7012 8.6605 0.0000 34.3698 0.0000
# 6 0.0000 0.0000 0.0000 -5.7495 0.0000 12.8571
#
#
#
# Elastic Compliance Matrix: (Units=1/GPa)
#
#
# Indices 1 2 3 4 5 6 
#
# 1 0.027865 -0.000377 -0.011010 0.000000 -0.000738 0.000000
# 2 -0.000377 0.013043 -0.001994 0.000000 -0.000854 0.000000
# 3 -0.011010 -0.001994 0.016838 0.000000 -0.002624 0.000000
# 4 0.000000 0.000000 0.000000 0.048270 0.000000 0.021586
# 5 -0.000738 -0.000854 -0.002624 0.000000 0.029943 0.000000
# 6 0.000000 0.000000 0.000000 0.021586 0.000000 0.087431
#
#
# Mechanical properties :
#
#
# Convention : Reuss Voigt Hill
#
# Bulk Modulus (GPa) = 32.27430 35.97862 34.12646
# Shear Modulus (GPa) = 19.19536 24.64738 21.92137
#
# Velocity S-wave (km/s) = 3.10838 3.52226 3.32177
# Velocity P-wave (km/s) = 5.39704 5.88656 5.64711
#
# Compressibility (1/GPa) = 0.03098441
#
# Stress axis : x y z
#
# Youngs Moduli (GPa) = 35.88716 76.66690 59.39034
#
# Poissons Ratio (x) = 0.02887 0.65391
# Poissons Ratio (y) = 0.01352 0.11842
# Poissons Ratio (z) = 0.39513 0.15287
#
# Static dielectric constant tensor:
#      x y z
#    x 4.584350 0.000000 -0.722990 
#    y 0.000000 3.528580 0.000000 
#    z -0.722990 0.000000 3.699010 
# 
# 
# High freq. dielectric constant tensor:
#      x y z
#    x 1.752020 0.000000 -0.024770 
#    y 0.000000 1.771410 0.000000 
#    z -0.024770 0.000000 1.764730 
# 
# From -- ./inp_files/180851.got.cif
#   From: 2010.06.25/outbox.cif.g09.slc.cpg/sg15_91_cif.got.tgz:180851.got - 2010.06.28 07:06:18.
