data_PCOD8134591
_publ_section_title
;
Structure prediction by ZEFSAII (Michael W. Deem and Ramdas Pophale) SiO2 
 PCOD8134591
Probable space group: C 2/C
;
_chemical_formula_sum "Si O2"
_cell_formula_units_Z 52
_cell_length_a 5.569492
_cell_length_b 22.413946
_cell_length_c 26.510862
_cell_angle_alpha 90.000000
_cell_angle_beta 54.639010
_cell_angle_gamma 90.000000
_cell_volume 2698.941321
_symmetry_space_group_name_H-M "C 2/C"
_symmetry_group_IT_number 15
_symmetry_cell_setting 'monoclinic'
loop_
_space_group_symop_operation_xyz
x,y,z
-x,y,1/2-z
-x,-y,-z
x,-y,1/2+z
1/2+x,1/2+y,z
1/2-x,1/2+y,1/2-z
1/2-x,1/2-y,-z
1/2+x,1/2-y,1/2+z
loop_
_atom_site_type_symbol
_atom_site_label
_atom_site_fract_x
_atom_site_fract_y
_atom_site_fract_z
Si Si1 0.677519 0.678718 0.562330
Si Si2 0.883373 0.387371 0.417821
Si Si3 0.584920 0.813916 0.574537
Si Si4 0.995222 0.505450 0.145779
Si Si5 0.495037 0.414721 0.553123
Si Si6 0.000000 0.561946 0.250000
Si Si7 0.099518 0.901544 0.652416
O O1 0.366840 0.648364 0.583522
O O2 0.598721 0.745415 0.588883
O O3 0.906269 0.679033 0.487599
O O4 0.849095 0.650568 0.589660
O O5 0.733236 0.425360 0.480771
O O6 0.029230 0.435068 0.362039
O O7 0.865086 0.847889 0.563482
O O8 0.293634 0.841990 0.636026
O O9 0.052764 0.516985 0.197453
O O10 0.694900 0.539814 0.171271
O O11 0.243716 0.535051 0.079589
O O12 0.642367 0.419572 0.589277
O O13 0.727751 0.608758 0.285797
#
# Coordination Sequence:
#
# PCOD8134591 Si02
#       7
#     8   8   8   8   8   4   8
#     4  10  22  34  58  88 128 164 193 221 296 361
#     4  11  22  36  55  92 124 162 189 229 291 377
#     4   9  19  35  55  86 125 159 190 239 283 363
#     4  10  22  36  57  83 115 151 197 249 301 347
#     4   9  19  33  55  87 121 154 186 237 299 349
#     4  10  22  38  58  86 100 152 204 260 304 342
#     4  10  19  36  58  85 111 152 197 252 300 341
#
# _framework density 19.266815000000001
#
# number of rings (size 3 to 8) (size 9 to 14) (size 15 to 20)
#    0.000    2.154    1.538    0.923    6.462    2.462 
#    0.000    0.000    0.000    0.000   16.000    0.000 
#    0.000    0.000    0.000    0.000    0.000    0.000 
#
# Total GULP energy -322156.878784 kJ/mol
# GULP energy per Si atom -12390.649184 kJ/mol
# Density = 1.922296 g / cm^3
# Si number density = 19.266815 Si / 1000 Ang^3
#
#
#
# Elastic Constant Matrix: (Units=GPa)
#
#
# Indices 1 2 3 4 5 6 
#
# 1 110.8111 51.6336 27.5537 0.0000 -7.5580 0.0000
# 2 51.6336 131.4172 45.1340 0.0000 -4.6060 0.0000
# 3 27.5537 45.1340 73.5653 0.0000 -12.1584 0.0000
# 4 0.0000 0.0000 0.0000 14.5217 0.0000 8.1083
# 5 -7.5580 -4.6060 -12.1584 0.0000 23.8475 0.0000
# 6 0.0000 0.0000 0.0000 8.1083 0.0000 15.2819
#
#
#
# Elastic Compliance Matrix: (Units=1/GPa)
#
#
# Indices 1 2 3 4 5 6 
#
# 1 0.011345 -0.003855 -0.001543 0.000000 0.002064 0.000000
# 2 -0.003855 0.010986 -0.005621 0.000000 -0.001966 0.000000
# 3 -0.001543 -0.005621 0.018957 0.000000 0.008090 0.000000
# 4 0.000000 0.000000 0.000000 0.097851 0.000000 -0.051918
# 5 0.002064 -0.001966 0.008090 0.000000 0.046333 0.000000
# 6 0.000000 0.000000 0.000000 -0.051918 0.000000 0.092983
#
#
# Mechanical properties :
#
#
# Convention : Reuss Voigt Hill
#
# Bulk Modulus (GPa) = 51.94856 62.71512 57.33184
# Shear Modulus (GPa) = 16.29148 23.49505 19.89327
#
# Velocity S-wave (km/s) = 2.91103 3.49586 3.21676
# Velocity P-wave (km/s) = 6.19032 6.99401 6.60440
#
# Compressibility (1/GPa) = 0.01924981
#
# Stress axis : x y z
#
# Youngs Moduli (GPa) = 88.14284 91.02815 52.75141
#
# Poissons Ratio (x) = 0.35094 0.08139
# Poissons Ratio (y) = 0.33982 0.29651
# Poissons Ratio (z) = 0.13599 0.51165
#
# Static dielectric constant tensor:
#      x y z
#    x 3.688760 0.000000 -0.053510 
#    y 0.000000 3.362960 0.000000 
#    z -0.053510 0.000000 3.378240 
# 
# 
# High freq. dielectric constant tensor:
#      x y z
#    x 1.762250 0.000000 -0.001750 
#    y 0.000000 1.730710 0.000000 
#    z -0.001750 0.000000 1.723150 
# 
# From -- ./inp_files/227541.got.cif
#   From: 2010.06.25/outbox.cif.g09.slc.cpg/sg15_114_cif.got.tgz:227541.got - 2010.06.28 07:06:18.
