data_PCOD8134122
_publ_section_title
;
Structure prediction by ZEFSAII (Michael W. Deem and Ramdas Pophale) SiO2 
 PCOD8134122
Probable space group: C 2/C
;
_chemical_formula_sum "Si O2"
_cell_formula_units_Z 52
_cell_length_a 20.764793
_cell_length_b 25.232669
_cell_length_c 5.345508
_cell_angle_alpha 90.000000
_cell_angle_beta 65.930243
_cell_angle_gamma 90.000000
_cell_volume 2557.255628
_symmetry_space_group_name_H-M "C 2/C"
_symmetry_group_IT_number 15
_symmetry_cell_setting 'monoclinic'
loop_
_space_group_symop_operation_xyz
x,y,z
-x,y,1/2-z
-x,-y,-z
x,-y,1/2+z
1/2+x,1/2+y,z
1/2-x,1/2+y,1/2-z
1/2-x,1/2-y,-z
1/2+x,1/2-y,1/2+z
loop_
_atom_site_type_symbol
_atom_site_label
_atom_site_fract_x
_atom_site_fract_y
_atom_site_fract_z
Si Si1 0.767019 0.362282 0.439310
Si Si2 0.651666 0.524960 0.570499
Si Si3 0.120936 0.868819 0.878403
Si Si4 0.801362 0.700889 0.387987
Si Si5 0.000000 0.155865 0.250000
Si Si6 0.691085 0.018794 0.644741
Si Si7 0.573345 0.273241 0.256755
O O1 0.682495 0.370507 0.572970
O O2 0.790567 0.336912 0.141963
O O3 0.803356 0.418898 0.400488
O O4 0.788528 0.328396 0.647028
O O5 0.617113 0.495218 0.384259
O O6 0.636737 0.587526 0.566647
O O7 0.734888 0.512966 0.442318
O O8 0.044238 0.880255 0.874208
O O9 0.119318 0.810567 0.001396
O O10 0.750000 0.750000 0.500000
O O11 0.882001 0.721035 0.252499
O O12 0.941970 0.193310 0.470648
O O13 0.650073 0.994617 0.468634
O O14 0.500000 0.254879 0.250000
#
# Coordination Sequence:
#
# PCOD8134122 Si02
#       7
#     8   8   8   8   4   8   8
#     4  12  24  36  63  90 128 151 203 256 304 359
#     4  10  21  33  57  80 113 157 199 244 305 343
#     4  11  22  38  60  85 114 165 206 251 298 359
#     4  12  25  38  60  95 123 156 203 259 306 359
#     4  10  24  40  62  76 114 164 220 242 296 362
#     4  10  19  35  56  85 119 165 186 238 314 360
#     4  10  24  42  63  82 121 167 205 245 306 363
#
# _framework density 20.334299999999999
#
# number of rings (size 3 to 8) (size 9 to 14) (size 15 to 20)
#    0.000    1.231    4.615    2.308    8.615    0.000 
#    0.000    0.769    0.000    0.000    0.000    0.000 
#    0.000   12.308    0.000    0.000    0.000    0.000 
#
# Total GULP energy -322312.697535 kJ/mol
# GULP energy per Si atom -12396.642213 kJ/mol
# Density = 2.028802 g / cm^3
# Si number density = 20.334300 Si / 1000 Ang^3
#
#
#
# Elastic Constant Matrix: (Units=GPa)
#
#
# Indices 1 2 3 4 5 6 
#
# 1 55.6335 27.3012 16.4879 0.0000 12.2710 0.0000
# 2 27.3012 70.8036 -0.5712 0.0000 3.2493 0.0000
# 3 16.4879 -0.5712 73.4306 0.0000 23.8805 0.0000
# 4 0.0000 0.0000 0.0000 28.9218 0.0000 10.4831
# 5 12.2710 3.2493 23.8805 0.0000 35.8257 0.0000
# 6 0.0000 0.0000 0.0000 10.4831 0.0000 25.8286
#
#
#
# Elastic Compliance Matrix: (Units=1/GPa)
#
#
# Indices 1 2 3 4 5 6 
#
# 1 0.024882 -0.009399 -0.004042 0.000000 -0.004976 0.000000
# 2 -0.009399 0.017759 0.002203 0.000000 0.000140 0.000000
# 3 -0.004042 0.002203 0.018076 0.000000 -0.010865 0.000000
# 4 0.000000 0.000000 0.000000 0.040540 0.000000 -0.016454
# 5 -0.004976 0.000140 -0.010865 0.000000 0.036847 0.000000
# 6 0.000000 0.000000 0.000000 -0.016454 0.000000 0.045395
#
#
# Mechanical properties :
#
#
# Convention : Reuss Voigt Hill
#
# Bulk Modulus (GPa) = 26.14897 31.81150 28.98024
# Shear Modulus (GPa) = 22.86008 28.55856 25.70932
#
# Velocity S-wave (km/s) = 3.35657 3.75167 3.55960
# Velocity P-wave (km/s) = 5.28294 5.86898 5.58365
#
# Compressibility (1/GPa) = 0.03824242
#
# Stress axis : x y z
#
# Youngs Moduli (GPa) = 40.18897 56.30963 55.32118
#
# Poissons Ratio (x) = 0.52924 0.22360
# Poissons Ratio (y) = 0.37772 -0.12187
# Poissons Ratio (z) = 0.16244 -0.12404
#
# Static dielectric constant tensor:
#      x y z
#    x 3.763040 0.000000 0.474530 
#    y 0.000000 3.701300 0.000000 
#    z 0.474530 0.000000 4.268140 
# 
# 
# High freq. dielectric constant tensor:
#      x y z
#    x 1.762910 0.000000 0.038810 
#    y 0.000000 1.789890 0.000000 
#    z 0.038810 0.000000 1.800130 
# 
# From -- ./inp_files/11228.got.cif
#   From: 2010.06.25/outbox.cif.g09.slc.cpg/sg15_6_cif.got.tgz:11228.got - 2010.06.28 07:06:18.
