data_PCOD8134269
_publ_section_title
;
Structure prediction by ZEFSAII (Michael W. Deem and Ramdas Pophale) SiO2 
 PCOD8134269
Probable space group: C 2/C
;
_chemical_formula_sum "Si O2"
_cell_formula_units_Z 48
_cell_length_a 8.565935
_cell_length_b 15.747112
_cell_length_c 20.075981
_cell_angle_alpha 90.000000
_cell_angle_beta 115.090624
_cell_angle_gamma 90.000000
_cell_volume 2452.489754
_symmetry_space_group_name_H-M "C 2/C"
_symmetry_group_IT_number 15
_symmetry_cell_setting 'monoclinic'
loop_
_space_group_symop_operation_xyz
x,y,z
-x,y,1/2-z
-x,-y,-z
x,-y,1/2+z
1/2+x,1/2+y,z
1/2-x,1/2+y,1/2-z
1/2-x,1/2-y,-z
1/2+x,1/2-y,1/2+z
loop_
_atom_site_type_symbol
_atom_site_label
_atom_site_fract_x
_atom_site_fract_y
_atom_site_fract_z
Si Si1 0.521191 0.573947 0.329300
Si Si2 0.450221 0.879401 0.165746
Si Si3 0.754991 0.222959 0.076306
Si Si4 0.049596 0.613403 0.445038
Si Si5 0.189118 0.551251 0.602102
Si Si6 0.156028 0.559894 0.329731
O O1 0.500000 0.605574 0.250000
O O2 0.621560 0.642440 0.391415
O O3 0.615956 0.481502 0.348765
O O4 0.330980 0.570016 0.322752
O O5 0.500000 0.864838 0.250000
O O6 0.322404 0.803158 0.128222
O O7 0.618446 0.885528 0.147492
O O8 0.345102 0.966186 0.139174
O O9 0.562243 0.198539 0.064608
O O10 0.750000 0.250000 0.000000
O O11 0.182590 0.601043 0.530436
O O12 0.146038 0.623607 0.391328
O O13 0.925791 0.532621 0.419841
O O14 0.000000 0.575793 0.250000
#
# Coordination Sequence:
#
# PCOD8134269 Si02
#       6
#     8   8   8   8   8   8
#     4  11  22  38  61  88 114 151 201 246 297 359
#     4  10  19  35  59  85 117 155 195 241 294 348
#     4  11  21  37  59  87 118 159 197 231 296 364
#     4   9  18  35  57  82 117 153 191 236 284 350
#     4   9  18  34  58  83 113 151 194 238 284 346
#     4  10  21  38  60  86 114 153 197 251 301 347
#
# _framework density 19.571946000000001
#
# number of rings (size 3 to 8) (size 9 to 14) (size 15 to 20)
#    0.000    2.000    1.667    4.500    2.333    0.667 
#    0.000    2.500    0.000    4.000    0.000    0.000 
#    0.000    0.000    0.000    0.000    0.000    0.000 
#
# Total GULP energy -297495.565871 kJ/mol
# GULP energy per Si atom -12395.648578 kJ/mol
# Density = 1.952740 g / cm^3
# Si number density = 19.571946 Si / 1000 Ang^3
#
#
#
# Elastic Constant Matrix: (Units=GPa)
#
#
# Indices 1 2 3 4 5 6 
#
# 1 143.0430 39.0822 73.9875 0.0000 -19.2743 0.0000
# 2 39.0822 76.1420 49.3856 0.0000 -6.0774 0.0000
# 3 73.9875 49.3856 126.0243 0.0000 -19.1914 0.0000
# 4 0.0000 0.0000 0.0000 6.3706 0.0000 9.7757
# 5 -19.2743 -6.0774 -19.1914 0.0000 35.1277 0.0000
# 6 0.0000 0.0000 0.0000 9.7757 0.0000 30.8424
#
#
#
# Elastic Compliance Matrix: (Units=1/GPa)
#
#
# Indices 1 2 3 4 5 6 
#
# 1 0.010450 -0.001925 -0.004972 0.000000 0.002685 0.000000
# 2 -0.001925 0.017984 -0.006113 0.000000 -0.001284 0.000000
# 3 -0.004972 -0.006113 0.013823 0.000000 0.003766 0.000000
# 4 0.000000 0.000000 0.000000 0.305612 0.000000 -0.096866
# 5 0.002685 -0.001284 0.003766 0.000000 0.031776 0.000000
# 6 0.000000 0.000000 0.000000 -0.096866 0.000000 0.063126
#
#
# Mechanical properties :
#
#
# Convention : Reuss Voigt Hill
#
# Bulk Modulus (GPa) = 61.58633 74.45775 68.02204
# Shear Modulus (GPa) = 10.54401 26.65175 18.59788
#
# Velocity S-wave (km/s) = 2.32358 3.69417 3.08593
# Velocity P-wave (km/s) = 6.22363 7.50477 6.89402
#
# Compressibility (1/GPa) = 0.01623737
#
# Stress axis : x y z
#
# Youngs Moduli (GPa) = 95.69082 55.60629 72.34248
#
# Poissons Ratio (x) = 0.10703 0.35970
# Poissons Ratio (y) = 0.18418 0.44222
# Poissons Ratio (z) = 0.47580 0.33992
#
# Static dielectric constant tensor:
#      x y z
#    x 3.596090 0.000000 -0.133270 
#    y 0.000000 3.230880 0.000000 
#    z -0.133270 0.000000 3.730840 
# 
# 
# High freq. dielectric constant tensor:
#      x y z
#    x 1.751090 0.000000 -0.012650 
#    y 0.000000 1.740410 0.000000 
#    z -0.012650 0.000000 1.780140 
# 
# From -- ./inp_files/190625.got.cif
#   From: 2010.06.25/outbox.cif.g09.slc.cpg/sg15_96_cif.got.tgz:190625.got - 2010.06.28 07:06:18.
