data_PCOD8134314
_publ_section_title
;
Structure prediction by ZEFSAII (Michael W. Deem and Ramdas Pophale) SiO2 
 PCOD8134314
Probable space group: C 2/C
;
_chemical_formula_sum "Si O2"
_cell_formula_units_Z 48
_cell_length_a 25.363967
_cell_length_b 11.435972
_cell_length_c 18.710351
_cell_angle_alpha 90.000000
_cell_angle_beta 28.478645
_cell_angle_gamma 90.000000
_cell_volume 2587.836551
_symmetry_space_group_name_H-M "C 2/C"
_symmetry_group_IT_number 15
_symmetry_cell_setting 'monoclinic'
loop_
_space_group_symop_operation_xyz
x,y,z
-x,y,1/2-z
-x,-y,-z
x,-y,1/2+z
1/2+x,1/2+y,z
1/2-x,1/2+y,1/2-z
1/2-x,1/2-y,-z
1/2+x,1/2-y,1/2+z
loop_
_atom_site_type_symbol
_atom_site_label
_atom_site_fract_x
_atom_site_fract_y
_atom_site_fract_z
Si Si1 0.408918 0.099930 0.112387
Si Si2 0.487737 0.335038 0.490597
Si Si3 0.242066 0.313856 0.829919
Si Si4 0.995073 0.955535 0.887150
Si Si5 0.263973 0.448138 0.103412
Si Si6 0.279920 0.375808 0.935764
O O1 0.364286 0.149491 0.089728
O O2 0.305733 0.050528 0.278184
O O3 0.468004 0.206963 0.082582
O O4 0.500000 0.000000 0.000000
O O5 0.354292 0.344799 0.653793
O O6 0.539058 0.371864 0.505961
O O7 0.533583 0.420171 0.374194
O O8 0.255323 0.178151 0.836664
O O9 0.227541 0.392810 0.919355
O O10 0.088742 0.893984 0.728319
O O11 0.892494 0.977470 0.957719
O O12 0.234161 0.457485 0.054206
O O13 0.250000 0.250000 0.000000
#
# Coordination Sequence:
#
# PCOD8134314 Si02
#       6
#     8   8   8   8   8   8
#     4  12  23  36  61  94 123 152 206 252 300 362
#     4  10  20  35  56  88 116 158 200 245 297 354
#     4  10  20  37  56  86 122 155 194 250 302 350
#     4  10  19  35  60  83 118 158 200 242 302 357
#     4  11  20  36  61  88 116 159 200 247 301 361
#     4   9  21  36  57  88 120 153 201 249 302 354
#
# _framework density 18.548311000000002
#
# number of rings (size 3 to 8) (size 9 to 14) (size 15 to 20)
#    0.000    1.667    5.000    0.500    0.000    0.000 
#    0.000    1.667    0.000    2.000    0.000    0.000 
#    0.000    0.000    0.000    0.000    0.000    0.000 
#
# Total GULP energy -297358.863369 kJ/mol
# GULP energy per Si atom -12389.952640 kJ/mol
# Density = 1.850609 g / cm^3
# Si number density = 18.548311 Si / 1000 Ang^3
#
#
#
# Elastic Constant Matrix: (Units=GPa)
#
#
# Indices 1 2 3 4 5 6 
#
# 1 76.9219 34.3606 39.2141 0.0000 1.3064 0.0000
# 2 34.3606 112.3396 46.6329 0.0000 0.8046 0.0000
# 3 39.2141 46.6329 86.0968 0.0000 1.6977 0.0000
# 4 0.0000 0.0000 0.0000 34.9985 0.0000 -1.4334
# 5 1.3064 0.8046 1.6977 0.0000 27.4512 0.0000
# 6 0.0000 0.0000 0.0000 -1.4334 0.0000 21.9179
#
#
#
# Elastic Compliance Matrix: (Units=1/GPa)
#
#
# Indices 1 2 3 4 5 6 
#
# 1 0.017521 -0.002640 -0.006543 0.000000 -0.000352 0.000000
# 2 -0.002640 0.011881 -0.005235 0.000000 0.000101 0.000000
# 3 -0.006543 -0.005235 0.017442 0.000000 -0.000614 0.000000
# 4 0.000000 0.000000 0.000000 0.028649 0.000000 0.001874
# 5 -0.000352 0.000101 -0.000614 0.000000 0.036480 0.000000
# 6 0.000000 0.000000 0.000000 0.001874 0.000000 0.045747
#
#
# Mechanical properties :
#
#
# Convention : Reuss Voigt Hill
#
# Bulk Modulus (GPa) = 55.52986 57.30817 56.41902
# Shear Modulus (GPa) = 25.96568 27.21690 26.59129
#
# Velocity S-wave (km/s) = 3.74558 3.83476 3.79043
# Velocity P-wave (km/s) = 6.97916 7.11132 7.04555
#
# Compressibility (1/GPa) = 0.01800833
#
# Stress axis : x y z
#
# Youngs Moduli (GPa) = 57.07317 84.16478 57.33128
#
# Poissons Ratio (x) = 0.22223 0.37513
# Poissons Ratio (y) = 0.15070 0.30011
# Poissons Ratio (z) = 0.37345 0.44058
#
# Static dielectric constant tensor:
#      x y z
#    x 3.665820 0.000000 0.124000 
#    y 0.000000 3.734810 0.000000 
#    z 0.124000 0.000000 3.599430 
# 
# 
# High freq. dielectric constant tensor:
#      x y z
#    x 1.718230 0.000000 -0.004040 
#    y 0.000000 1.709200 0.000000 
#    z -0.004040 0.000000 1.710790 
# 
# From -- ./inp_files/103827.got.cif
#   From: 2010.06.25/outbox.cif.g09.slc.cpg/sg15_52_cif.got.tgz:103827.got - 2010.06.28 07:06:18.
