data_PCOD8134857
_publ_section_title
;
Structure prediction by ZEFSAII (Michael W. Deem and Ramdas Pophale) SiO2 
 PCOD8134857
Probable space group: C 2/C
;
_chemical_formula_sum "Si O2"
_cell_formula_units_Z 60
_cell_length_a 10.163239
_cell_length_b 22.833135
_cell_length_c 20.406465
_cell_angle_alpha 90.000000
_cell_angle_beta 36.373305
_cell_angle_gamma 90.000000
_cell_volume 2808.356508
_symmetry_space_group_name_H-M "C 2/C"
_symmetry_group_IT_number 15
_symmetry_cell_setting 'monoclinic'
loop_
_space_group_symop_operation_xyz
x,y,z
-x,y,1/2-z
-x,-y,-z
x,-y,1/2+z
1/2+x,1/2+y,z
1/2-x,1/2+y,1/2-z
1/2-x,1/2-y,-z
1/2+x,1/2-y,1/2+z
loop_
_atom_site_type_symbol
_atom_site_label
_atom_site_fract_x
_atom_site_fract_y
_atom_site_fract_z
Si Si1 0.035481 0.691992 0.112553
Si Si2 0.500000 0.274922 0.250000
Si Si3 0.191423 0.857640 0.485751
Si Si4 0.522140 0.694346 0.931939
Si Si5 0.334815 0.012108 0.712246
Si Si6 0.689895 0.145465 0.799196
Si Si7 0.239410 0.024585 0.900940
Si Si8 0.378447 0.392741 0.731269
O O1 0.980240 0.735369 0.075244
O O2 0.849176 0.642144 0.190006
O O3 0.050925 0.732861 0.169805
O O4 0.283944 0.665048 0.006744
O O5 0.700913 0.318984 0.185357
O O6 0.063560 0.809578 0.493609
O O7 0.433168 0.835654 0.409897
O O8 0.228039 0.906744 0.416495
O O9 0.046827 0.878958 0.605206
O O10 0.711220 0.664867 0.810780
O O11 0.185789 0.961566 0.739533
O O12 0.277645 0.075161 0.703229
O O13 0.316093 0.013029 0.797353
O O14 0.601755 0.998743 0.603777
O O15 0.000000 0.000000 0.000000
O O16 0.500000 0.375394 0.750000
#
# Coordination Sequence:
#
# PCOD8134857 Si02
#       8
#     8   4   8   8   8   8   8   8
#     4  10  24  43  63  99 128 177 227 274 335 400
#     4  10  22  42  68  94 134 178 232 270 334 400
#     4  11  22  40  66  98 132 169 219 277 336 391
#     4  10  21  41  72  95 128 165 227 286 329 388
#     4  10  22  38  63  98 136 170 215 267 330 408
#     4  10  22  40  66 103 131 169 223 276 330 403
#     4  10  19  36  64  98 124 164 220 265 319 385
#     4  12  28  44  62  94 143 183 220 273 343 409
#
# _framework density 21.364808
#
# number of rings (size 3 to 8) (size 9 to 14) (size 15 to 20)
#    0.000    1.600    2.667    1.200    2.800    6.400 
#    0.000    6.667    0.000    0.000    0.000    0.000 
#    0.000    0.000    0.000    0.000    0.000    0.000 
#
# Total GULP energy -371682.216149 kJ/mol
# GULP energy per Si atom -12389.407205 kJ/mol
# Density = 2.131618 g / cm^3
# Si number density = 21.364808 Si / 1000 Ang^3
#
#
#
# Elastic Constant Matrix: (Units=GPa)
#
#
# Indices 1 2 3 4 5 6 
#
# 1 101.5346 49.4894 29.7250 -0.0229 -3.8816 0.0291
# 2 49.4894 85.0516 33.2798 -0.0006 -6.2211 0.0019
# 3 29.7250 33.2798 100.7791 -0.0001 -21.7083 0.0217
# 4 -0.0229 -0.0006 -0.0001 27.5258 0.0157 -3.1854
# 5 -3.8816 -6.2211 -21.7083 0.0157 29.4595 -0.0208
# 6 0.0291 0.0019 0.0217 -3.1854 -0.0208 39.7573
#
#
#
# Elastic Compliance Matrix: (Units=1/GPa)
#
#
# Indices 1 2 3 4 5 6 
#
# 1 0.014015 -0.007493 -0.001905 0.000011 -0.001139 -0.000009
# 2 -0.007493 0.017515 -0.003554 -0.000005 0.000093 0.000006
# 3 -0.001905 -0.003554 0.013601 -0.000007 0.009021 -0.000002
# 4 0.000011 -0.000005 -0.000007 0.036670 -0.000022 0.002938
# 5 -0.001139 0.000093 0.009021 -0.000022 0.040462 0.000015
# 6 -0.000009 0.000006 -0.000002 0.002938 0.000015 0.025388
#
#
# Mechanical properties :
#
#
# Convention : Reuss Voigt Hill
#
# Bulk Modulus (GPa) = 52.00758 56.92818 54.46788
# Shear Modulus (GPa) = 27.78338 31.00660 29.39499
#
# Velocity S-wave (km/s) = 3.61006 3.81372 3.71328
# Velocity P-wave (km/s) = 6.46314 6.78942 6.62829
#
# Compressibility (1/GPa) = 0.01922797
#
# Stress axis : x y z
#
# Youngs Moduli (GPa) = 71.35112 57.09409 73.52255
#
# Poissons Ratio (x) = 0.42781 0.14005
# Poissons Ratio (y) = 0.53464 0.26128
# Poissons Ratio (z) = 0.13591 0.20290
#
# Static dielectric constant tensor:
#      x y z
#    x 3.719230 -0.000050 0.149420 
#    y -0.000050 3.638330 0.000050 
#    z 0.149420 0.000050 3.481790 
# 
# 
# High freq. dielectric constant tensor:
#      x y z
#    x 1.838030 0.000000 -0.017650 
#    y 0.000000 1.829450 0.000000 
#    z -0.017650 0.000000 1.847980 
# 
# From -- ./inp_files/234529.got.cif
#   From: 2010.06.25/outbox.cif.g09.slc.cpg/sg15_118_cif.got.tgz:234529.got - 2010.06.28 07:06:18.
