data_PCOD8134532
_publ_section_title
;
Structure prediction by ZEFSAII (Michael W. Deem and Ramdas Pophale) SiO2 
 PCOD8134532
Probable space group: C 2/C
;
_chemical_formula_sum "Si O2"
_cell_formula_units_Z 64
_cell_length_a 24.981132
_cell_length_b 11.930646
_cell_length_c 13.413712
_cell_angle_alpha 90.000000
_cell_angle_beta 54.037730
_cell_angle_gamma 90.000000
_cell_volume 3235.864556
_symmetry_space_group_name_H-M "C 2/C"
_symmetry_group_IT_number 15
_symmetry_cell_setting 'monoclinic'
loop_
_space_group_symop_operation_xyz
x,y,z
-x,y,1/2-z
-x,-y,-z
x,-y,1/2+z
1/2+x,1/2+y,z
1/2-x,1/2+y,1/2-z
1/2-x,1/2-y,-z
1/2+x,1/2-y,1/2+z
loop_
_atom_site_type_symbol
_atom_site_label
_atom_site_fract_x
_atom_site_fract_y
_atom_site_fract_z
Si Si1 0.448014 0.885107 0.430635
Si Si2 0.344555 0.889784 0.712231
Si Si3 0.875482 0.996909 0.902732
Si Si4 0.093023 0.426147 0.237417
Si Si5 0.529897 0.366064 0.567496
Si Si6 0.127809 0.137108 0.784484
Si Si7 0.878697 0.177902 0.243127
Si Si8 0.700207 0.450693 0.820992
O O1 0.404773 0.912991 0.572545
O O2 0.521188 0.934706 0.368380
O O3 0.414074 0.940127 0.372552
O O4 0.451673 0.752578 0.402876
O O5 0.344427 0.762884 0.751583
O O6 0.277131 0.921283 0.730901
O O7 0.357678 0.974036 0.788496
O O8 0.941795 0.963462 0.891537
O O9 0.848446 0.888562 0.871259
O O10 0.888912 0.097137 0.809399
O O11 0.819739 0.035450 0.041658
O O12 0.125875 0.309090 0.233184
O O13 0.560821 0.372850 0.422931
O O14 0.451303 0.376030 0.645769
O O15 0.184858 0.062938 0.774546
O O16 0.838286 0.153398 0.186669
#
# Coordination Sequence:
#
# PCOD8134532 Si02
#       8
#     8   8   8   8   8   8   8   8
#     4   9  19  39  63  88 112 140 196 244 289 342
#     4  11  23  40  60  81 121 159 185 241 290 339
#     4  10  19  36  57  84 118 152 187 234 285 341
#     4  10  20  37  66  91 108 147 193 242 295 343
#     4   9  17  35  63  87 113 147 187 246 292 332
#     4   9  22  39  57  84 119 151 197 238 289 347
#     4  10  20  36  60  91 115 146 196 241 284 345
#     4  10  24  38  56  85 119 155 198 229 281 348
#
# _framework density 19.778331000000001
#
# number of rings (size 3 to 8) (size 9 to 14) (size 15 to 20)
#    0.000    2.250    1.250    0.750    1.750    8.000 
#    2.250    1.250   11.000    0.000    0.000    0.000 
#    0.000    0.000    0.000    0.000    0.000    0.000 
#
# Total GULP energy -396792.494504 kJ/mol
# GULP energy per Si atom -12399.765453 kJ/mol
# Density = 1.973331 g / cm^3
# Si number density = 19.778331 Si / 1000 Ang^3
#
#
#
# Elastic Constant Matrix: (Units=GPa)
#
#
# Indices 1 2 3 4 5 6 
#
# 1 88.7149 34.9102 21.7446 0.0000 13.0553 0.0000
# 2 34.9102 98.7090 23.2588 0.0000 13.4484 0.0000
# 3 21.7446 23.2588 60.4461 0.0000 22.8410 0.0000
# 4 0.0000 0.0000 0.0000 22.4241 0.0000 5.2777
# 5 13.0553 13.4484 22.8410 0.0000 17.1935 0.0000
# 6 0.0000 0.0000 0.0000 5.2777 0.0000 31.2980
#
#
#
# Elastic Compliance Matrix: (Units=1/GPa)
#
#
# Indices 1 2 3 4 5 6 
#
# 1 0.013966 -0.003828 -0.001356 0.000000 -0.005809 0.000000
# 2 -0.003828 0.012514 -0.001682 0.000000 -0.004647 0.000000
# 3 -0.001356 -0.001682 0.033719 0.000000 -0.042450 0.000000
# 4 0.000000 0.000000 0.000000 0.046438 0.000000 -0.007831
# 5 -0.005809 -0.004647 -0.042450 0.000000 0.122599 0.000000
# 6 0.000000 0.000000 0.000000 -0.007831 0.000000 0.033271
#
#
# Mechanical properties :
#
#
# Convention : Reuss Voigt Hill
#
# Bulk Modulus (GPa) = 21.52107 45.29969 33.41038
# Shear Modulus (GPa) = 17.13917 25.38023 21.25970
#
# Velocity S-wave (km/s) = 2.94694 3.58611 3.28212
# Velocity P-wave (km/s) = 4.74173 6.33248 5.59394
#
# Compressibility (1/GPa) = 0.04646609
#
# Stress axis : x y z
#
# Youngs Moduli (GPa) = 71.60405 79.90922 29.65657
#
# Poissons Ratio (x) = 0.30592 0.04021
# Poissons Ratio (y) = 0.27412 0.04989
# Poissons Ratio (z) = 0.09709 0.13443
#
# Static dielectric constant tensor:
#      x y z
#    x 3.408550 0.000000 0.031630 
#    y 0.000000 3.555260 0.000000 
#    z 0.031630 0.000000 3.601930 
# 
# 
# High freq. dielectric constant tensor:
#      x y z
#    x 1.761140 0.000000 0.008950 
#    y 0.000000 1.765050 0.000000 
#    z 0.008950 0.000000 1.770440 
# 
# From -- ./inp_files/117985.got.cif
#   From: 2010.06.25/outbox.cif.g09.slc.cpg/sg15_59_cif.got.tgz:117985.got - 2010.06.28 07:06:18.
