data_PCOD8134423
_publ_section_title
;
Structure prediction by ZEFSAII (Michael W. Deem and Ramdas Pophale) SiO2 
 PCOD8134423
Probable space group: C 2/C
;
_chemical_formula_sum "Si O2"
_cell_formula_units_Z 48
_cell_length_a 14.943653
_cell_length_b 12.803539
_cell_length_c 20.908587
_cell_angle_alpha 90.000000
_cell_angle_beta 38.041559
_cell_angle_gamma 90.000000
_cell_volume 2465.223855
_symmetry_space_group_name_H-M "C 2/C"
_symmetry_group_IT_number 15
_symmetry_cell_setting 'monoclinic'
loop_
_space_group_symop_operation_xyz
x,y,z
-x,y,1/2-z
-x,-y,-z
x,-y,1/2+z
1/2+x,1/2+y,z
1/2-x,1/2+y,1/2-z
1/2-x,1/2-y,-z
1/2+x,1/2-y,1/2+z
loop_
_atom_site_type_symbol
_atom_site_label
_atom_site_fract_x
_atom_site_fract_y
_atom_site_fract_z
Si Si1 0.005665 0.614190 0.641292
Si Si2 0.415664 0.624689 0.895915
Si Si3 0.000000 0.213144 0.250000
Si Si4 0.763001 0.289772 0.892687
Si Si5 0.742979 0.888347 0.313776
Si Si6 0.500000 0.948674 0.750000
Si Si7 0.242231 0.053725 0.088943
O O1 0.012443 0.719365 0.678596
O O2 0.845668 0.601187 0.701676
O O3 0.041919 0.516100 0.665146
O O4 0.123865 0.614481 0.518499
O O5 0.368790 0.716878 0.875072
O O6 0.587281 0.609761 0.798039
O O7 0.343094 0.515981 0.915260
O O8 0.367527 0.658087 0.993978
O O9 0.141189 0.141711 0.176305
O O10 0.696749 0.221438 0.872593
O O11 0.860868 0.381069 0.808451
O O12 0.700523 0.981951 0.385494
#
# Coordination Sequence:
#
# PCOD8134423 Si02
#       7
#     8   8   4   8   8   4   8
#     4  11  26  38  59  89 121 155 202 241 293 346
#     4  10  19  36  63  92 116 151 197 238 294 356
#     4  11  24  43  62  78 120 169 196 237 288 362
#     4  10  19  35  64  87 117 155 190 239 296 351
#     4  11  22  38  61  96 117 146 199 255 288 338
#     4  11  20  41  58  84 122 163 188 237 296 358
#     4  11  20  42  64  83 117 164 197 234 297 358
#
# _framework density 19.470849000000001
#
# number of rings (size 3 to 8) (size 9 to 14) (size 15 to 20)
#    0.000    1.333    5.000    2.000    0.000    2.667 
#    0.000    0.833    0.000    0.000    0.000    0.000 
#    0.000    0.000    0.000    0.000    0.000    0.000 
#
# Total GULP energy -297683.686045 kJ/mol
# GULP energy per Si atom -12403.486919 kJ/mol
# Density = 1.942653 g / cm^3
# Si number density = 19.470849 Si / 1000 Ang^3
#
#
#
# Elastic Constant Matrix: (Units=GPa)
#
#
# Indices 1 2 3 4 5 6 
#
# 1 73.7921 24.0327 13.4984 0.0001 -2.4192 0.0000
# 2 24.0327 109.2424 33.0922 0.0002 6.8510 0.0000
# 3 13.4984 33.0922 101.7957 0.0004 -3.7006 0.0002
# 4 0.0001 0.0002 0.0004 27.1017 0.0001 -9.8305
# 5 -2.4192 6.8510 -3.7006 0.0001 21.3430 -0.0001
# 6 0.0000 0.0000 0.0002 -9.8305 -0.0001 -2.2618
#
#
#
# Elastic Compliance Matrix: (Units=1/GPa)
#
#
# Indices 1 2 3 4 5 6 
#
# 1 0.014820 -0.003165 -0.000844 0.000000 0.002549 0.000000
# 2 -0.003165 0.011155 -0.003371 0.000000 -0.004524 0.000000
# 3 -0.000844 -0.003371 0.011137 0.000000 0.002918 0.000001
# 4 0.000000 0.000000 0.000000 0.014321 0.000000 -0.062243
# 5 0.002549 -0.004524 0.002918 0.000000 0.049101 0.000000
# 6 0.000000 0.000000 0.000001 -0.062243 0.000000 -0.171597
#
#
# Mechanical properties :
#
#
# Convention : Reuss Voigt Hill
#
# Bulk Modulus (GPa) = 44.73551 47.34186 46.03868
# Shear Modulus (GPa) = -102.34919 23.51705 -39.41607
#
# Velocity S-wave (km/s) = -7.25806 3.47912 -4.50417
# Velocity P-wave (km/s) = 6.87123 6.36444 1.83135
#
# Compressibility (1/GPa) = 0.02235361
#
# Stress axis : x y z
#
# Youngs Moduli (GPa) = 67.47563 89.64523 89.78713
#
# Poissons Ratio (x) = 0.28369 0.07576
# Poissons Ratio (y) = 0.21354 0.30269
# Poissons Ratio (z) = 0.05693 0.30221
#
# Static dielectric constant tensor:
#      x y z
#    x 3.249590 0.000000 0.108780 
#    y 0.000000 3.688410 0.000000 
#    z 0.108780 0.000000 3.646970 
# 
# 
# High freq. dielectric constant tensor:
#      x y z
#    x 1.727890 0.000000 0.001440 
#    y 0.000000 1.767020 0.000000 
#    z 0.001440 0.000000 1.773530 
# 
# From -- ./inp_files/151898.got.cif
#   From: 2010.06.25/outbox.cif.g09.slc.cpg/sg15_76_cif.got.tgz:151898.got - 2010.06.28 07:06:18.
