data_PCOD8134719
_publ_section_title
;
Structure prediction by ZEFSAII (Michael W. Deem and Ramdas Pophale) SiO2 
 PCOD8134719
Probable space group: C 2/C
;
_chemical_formula_sum "Si O2"
_cell_formula_units_Z 60
_cell_length_a 22.888404
_cell_length_b 17.024595
_cell_length_c 7.933495
_cell_angle_alpha 90.000000
_cell_angle_beta 116.798443
_cell_angle_gamma 90.000000
_cell_volume 2759.388156
_symmetry_space_group_name_H-M "C 2/C"
_symmetry_group_IT_number 15
_symmetry_cell_setting 'monoclinic'
loop_
_space_group_symop_operation_xyz
x,y,z
-x,y,1/2-z
-x,-y,-z
x,-y,1/2+z
1/2+x,1/2+y,z
1/2-x,1/2+y,1/2-z
1/2-x,1/2-y,-z
1/2+x,1/2-y,1/2+z
loop_
_atom_site_type_symbol
_atom_site_label
_atom_site_fract_x
_atom_site_fract_y
_atom_site_fract_z
Si Si1 0.761301 0.833961 0.592577
Si Si2 0.042535 0.733858 0.647484
Si Si3 0.385840 0.932703 0.762641
Si Si4 0.266384 0.414921 0.923013
Si Si5 0.000000 0.336660 0.750000
Si Si6 0.103896 0.893596 0.813672
Si Si7 0.374328 0.899800 0.126674
Si Si8 0.149548 0.034020 0.675667
O O1 0.750000 0.750000 0.500000
O O2 0.774369 0.837314 0.813178
O O3 0.822488 0.864485 0.572832
O O4 0.703942 0.896939 0.484711
O O5 0.009763 0.719432 0.424244
O O6 0.056107 0.826653 0.682894
O O7 0.106542 0.679828 0.750223
O O8 0.000000 0.705471 0.750000
O O9 0.309448 0.919614 0.616305
O O10 0.434813 0.888559 0.697500
O O11 0.399545 0.025861 0.765747
O O12 0.402789 0.904808 0.973523
O O13 0.292210 0.491489 0.854243
O O14 0.314073 0.407385 0.146334
O O15 0.101057 0.970083 0.694488
O O16 0.094852 0.917743 0.997411
#
# Coordination Sequence:
#
# PCOD8134719 Si02
#       8
#     8   8   8   8   4   8   8   8
#     4  10  19  36  60  97 130 170 201 261 330 389
#     4  12  26  48  63  91 130 176 212 278 316 382
#     4  11  22  38  61  95 125 179 218 268 295 384
#     4   9  18  34  62  94 131 158 209 256 323 384
#     4  12  28  44  66  90 130 176 232 254 320 366
#     4  10  21  41  69  93 132 160 211 269 330 387
#     4  11  22  39  65  90 133 166 223 264 327 373
#     4   9  18  39  67  98 120 161 205 267 329 391
#
# _framework density 21.743949000000001
#
# number of rings (size 3 to 8) (size 9 to 14) (size 15 to 20)
#    0.000    1.600    2.667    4.000    0.933    2.133 
#    7.200    1.333    0.000    0.000    0.000    0.000 
#    0.000    0.000    0.000    0.000    0.000    0.000 
#
# Total GULP energy -371718.073639 kJ/mol
# GULP energy per Si atom -12390.602455 kJ/mol
# Density = 2.169446 g / cm^3
# Si number density = 21.743949 Si / 1000 Ang^3
#
#
#
# Elastic Constant Matrix: (Units=GPa)
#
#
# Indices 1 2 3 4 5 6 
#
# 1 53.6984 19.4587 21.9793 0.0000 -8.7683 0.0000
# 2 19.4587 112.5601 61.0893 0.0000 -7.9094 0.0000
# 3 21.9793 61.0893 119.7175 0.0000 -19.7451 0.0000
# 4 0.0000 0.0000 0.0000 43.8793 0.0000 1.7869
# 5 -8.7683 -7.9094 -19.7451 0.0000 24.0874 0.0000
# 6 0.0000 0.0000 0.0000 1.7869 0.0000 21.2794
#
#
#
# Elastic Compliance Matrix: (Units=1/GPa)
#
#
# Indices 1 2 3 4 5 6 
#
# 1 0.021077 -0.002280 -0.001809 0.000000 0.005441 0.000000
# 2 -0.002280 0.012568 -0.006303 0.000000 -0.001870 0.000000
# 3 -0.001809 -0.006303 0.013242 0.000000 0.008126 0.000000
# 4 0.000000 0.000000 0.000000 0.022868 0.000000 -0.001920
# 5 0.005441 -0.001870 0.008126 0.000000 0.049544 0.000000
# 6 0.000000 0.000000 0.000000 -0.001920 0.000000 0.047155
#
#
# Mechanical properties :
#
#
# Convention : Reuss Voigt Hill
#
# Bulk Modulus (GPa) = 38.30866 54.55898 46.43382
# Shear Modulus (GPa) = 25.51836 30.07914 27.79875
#
# Velocity S-wave (km/s) = 3.42948 3.72335 3.57943
# Velocity P-wave (km/s) = 5.77391 6.60534 6.20357
#
# Compressibility (1/GPa) = 0.02610376
#
# Stress axis : x y z
#
# Youngs Moduli (GPa) = 47.44396 79.57006 75.51956
#
# Poissons Ratio (x) = 0.18139 0.13662
# Poissons Ratio (y) = 0.10815 0.47599
# Poissons Ratio (z) = 0.08583 0.50151
#
# Static dielectric constant tensor:
#      x y z
#    x 3.924420 0.000000 -0.193050 
#    y 0.000000 1.892520 0.000000 
#    z -0.193050 0.000000 3.816550 
# 
# 
# High freq. dielectric constant tensor:
#      x y z
#    x 1.848440 0.000000 -0.010270 
#    y 0.000000 1.840450 0.000000 
#    z -0.010270 0.000000 1.853850 
# 
# From -- ./inp_files/57045.got.cif
#   From: 2010.06.25/outbox.cif.g09.slc.cpg/sg15_29_cif.got.tgz:57045.got - 2010.06.28 07:06:18.
