data_PCOD8134165
_publ_section_title
;
Structure prediction by ZEFSAII (Michael W. Deem and Ramdas Pophale) SiO2 
 PCOD8134165
Probable space group: C 2/C
;
_chemical_formula_sum "Si O2"
_cell_formula_units_Z 40
_cell_length_a 11.485512
_cell_length_b 25.253397
_cell_length_c 9.237551
_cell_angle_alpha 90.000000
_cell_angle_beta 130.320355
_cell_angle_gamma 90.000000
_cell_volume 2042.828154
_symmetry_space_group_name_H-M "C 2/C"
_symmetry_group_IT_number 15
_symmetry_cell_setting 'monoclinic'
loop_
_space_group_symop_operation_xyz
x,y,z
-x,y,1/2-z
-x,-y,-z
x,-y,1/2+z
1/2+x,1/2+y,z
1/2-x,1/2+y,1/2-z
1/2-x,1/2-y,-z
1/2+x,1/2-y,1/2+z
loop_
_atom_site_type_symbol
_atom_site_label
_atom_site_fract_x
_atom_site_fract_y
_atom_site_fract_z
Si Si1 0.783038 0.676870 0.935283
Si Si2 0.849566 0.412151 0.713176
Si Si3 0.295310 0.479359 0.339547
Si Si4 0.447691 0.106218 0.864119
Si Si5 0.000000 0.993269 0.750000
Si Si6 0.500000 0.256137 0.250000
O O1 0.818191 0.645891 0.816607
O O2 0.624784 0.706064 0.776890
O O3 0.773855 0.636885 0.065577
O O4 0.918133 0.719467 0.065599
O O5 0.727976 0.458660 0.639521
O O6 0.000000 0.432973 0.750000
O O7 0.903869 0.392923 0.914756
O O8 0.131078 0.451669 0.203257
O O9 0.400286 0.457613 0.557389
O O10 0.383541 0.471988 0.257173
O O11 0.500000 0.125053 0.750000
#
# Coordination Sequence:
#
# PCOD8134165 Si02
#       6
#     8   8   8   8   4   4
#     4  10  21  39  65  88 112 147 204 241 289 341
#     4  10  19  35  57  84 108 151 197 236 274 352
#     4  11  21  35  54  77 122 156 190 229 285 337
#     4  11  21  35  55  87 117 150 186 238 288 354
#     4  10  22  33  46  76 110 162 194 225 268 342
#     4  10  20  41  68  84 108 150 198 261 288 318
#
# _framework density 19.580697000000001
#
# number of rings (size 3 to 8) (size 9 to 14) (size 15 to 20)
#    0.000    1.600    3.000    4.800    0.000    4.800 
#    0.000    1.000    0.000    0.000    0.000    0.000 
#    0.000    0.000    0.000    0.000    0.000    0.000 
#
# Total GULP energy -247918.434596 kJ/mol
# GULP energy per Si atom -12395.921730 kJ/mol
# Density = 1.953613 g / cm^3
# Si number density = 19.580697 Si / 1000 Ang^3
#
#
#
# Elastic Constant Matrix: (Units=GPa)
#
#
# Indices 1 2 3 4 5 6 
#
# 1 96.5770 43.8838 53.5296 0.0000 -16.9782 0.0000
# 2 43.8838 101.1223 33.5173 0.0000 1.3781 0.0000
# 3 53.5296 33.5173 94.8657 0.0000 -19.2793 0.0000
# 4 0.0000 0.0000 0.0000 2.2706 0.0000 5.2313
# 5 -16.9782 1.3781 -19.2793 0.0000 42.8770 0.0000
# 6 0.0000 0.0000 0.0000 5.2313 0.0000 27.5347
#
#
#
# Elastic Compliance Matrix: (Units=1/GPa)
#
#
# Indices 1 2 3 4 5 6 
#
# 1 0.017378 -0.005210 -0.007189 0.000000 0.003816 0.000000
# 2 -0.005210 0.012983 -0.002368 0.000000 -0.003545 0.000000
# 3 -0.007189 -0.002368 0.016367 0.000000 0.004589 0.000000
# 4 0.000000 0.000000 0.000000 0.783302 0.000000 -0.148820
# 5 0.003816 -0.003545 0.004589 0.000000 0.027011 0.000000
# 6 0.000000 0.000000 0.000000 -0.148820 0.000000 0.064592
#
#
# Mechanical properties :
#
#
# Convention : Reuss Voigt Hill
#
# Bulk Modulus (GPa) = 58.16188 61.60294 59.88241
# Shear Modulus (GPa) = 5.22522 25.31208 15.26865
#
# Velocity S-wave (km/s) = 1.63534 3.59932 2.79549
# Velocity P-wave (km/s) = 5.77356 6.98590 6.40846
#
# Compressibility (1/GPa) = 0.01719339
#
# Stress axis : x y z
#
# Youngs Moduli (GPa) = 57.54536 77.02250 61.09922
#
# Poissons Ratio (x) = 0.40132 0.43925
# Poissons Ratio (y) = 0.29984 0.14465
# Poissons Ratio (z) = 0.41370 0.18235
#
# Static dielectric constant tensor:
#      x y z
#    x 3.566730 0.000000 0.017920 
#    y 0.000000 3.442920 0.000000 
#    z 0.017920 0.000000 3.722850 
# 
# 
# High freq. dielectric constant tensor:
#      x y z
#    x 1.759160 0.000000 0.007780 
#    y 0.000000 1.734450 0.000000 
#    z 0.007780 0.000000 1.772100 
# 
# From -- ./inp_files/33354.got.cif
#   From: 2010.06.25/outbox.cif.g09.slc.cpg/sg15_17_cif.got.tgz:33354.got - 2010.06.28 07:06:18.
