data_PCOD8134522
_publ_section_title
;
Structure prediction by ZEFSAII (Michael W. Deem and Ramdas Pophale) SiO2 
 PCOD8134522
Probable space group: C 2/C
;
_chemical_formula_sum "Si O2"
_cell_formula_units_Z 48
_cell_length_a 8.661748
_cell_length_b 15.210540
_cell_length_c 17.631713
_cell_angle_alpha 90.000000
_cell_angle_beta 90.206689
_cell_angle_gamma 90.000000
_cell_volume 2322.960682
_symmetry_space_group_name_H-M "C 2/C"
_symmetry_group_IT_number 15
_symmetry_cell_setting 'monoclinic'
loop_
_space_group_symop_operation_xyz
x,y,z
-x,y,1/2-z
-x,-y,-z
x,-y,1/2+z
1/2+x,1/2+y,z
1/2-x,1/2+y,1/2-z
1/2-x,1/2-y,-z
1/2+x,1/2-y,1/2+z
loop_
_atom_site_type_symbol
_atom_site_label
_atom_site_fract_x
_atom_site_fract_y
_atom_site_fract_z
Si Si1 0.280035 0.491594 0.069215
Si Si2 0.319794 0.725877 0.380414
Si Si3 0.443462 0.691886 0.539139
Si Si4 0.040020 0.395757 0.166510
Si Si5 0.263884 0.403213 0.420223
Si Si6 0.054712 0.953384 0.666022
O O1 0.357953 0.402233 0.039859
O O2 0.137272 0.471708 0.124521
O O3 0.405845 0.552668 0.111239
O O4 0.220838 0.544996 0.996734
O O5 0.428918 0.730633 0.454881
O O6 0.140072 0.739263 0.404013
O O7 0.362558 0.806068 0.324817
O O8 0.343808 0.635202 0.336150
O O9 0.622091 0.679223 0.562748
O O10 0.000000 0.431362 0.250000
O O11 0.891857 0.368533 0.117015
O O12 0.339797 0.466107 0.358184
O O13 0.000000 0.973297 0.750000
#
# Coordination Sequence:
#
# PCOD8134522 Si02
#       6
#     8   8   8   8   8   8
#     4  10  19  38  58  83 110 151 196 230 277 340
#     4  10  19  36  57  81 114 147 182 231 285 340
#     4   9  18  35  61  84 107 145 194 230 275 344
#     4  11  24  37  53  82 121 150 182 238 298 334
#     4  11  20  38  59  85 108 151 197 235 276 337
#     4  11  20  35  61  85 113 150 191 233 280 342
#
# _framework density 20.663285999999999
#
# number of rings (size 3 to 8) (size 9 to 14) (size 15 to 20)
#    0.000    1.667    3.333    3.000    0.000    0.667 
#    0.000    0.000    0.000    2.000    0.000    0.000 
#    0.000    0.000    0.000    0.000    0.000    0.000 
#
# Total GULP energy -297644.859898 kJ/mol
# GULP energy per Si atom -12401.869162 kJ/mol
# Density = 2.061626 g / cm^3
# Si number density = 20.663286 Si / 1000 Ang^3
#
#
#
# Elastic Constant Matrix: (Units=GPa)
#
#
# Indices 1 2 3 4 5 6 
#
# 1 81.0887 17.7144 11.2014 0.0000 -6.9377 0.0000
# 2 17.7144 59.5966 16.2817 0.0000 -13.2368 0.0000
# 3 11.2014 16.2817 96.8703 0.0000 -23.8566 0.0000
# 4 0.0000 0.0000 0.0000 6.8915 0.0000 4.7677
# 5 -6.9377 -13.2368 -23.8566 0.0000 35.6587 0.0000
# 6 0.0000 0.0000 0.0000 4.7677 0.0000 23.8510
#
#
#
# Elastic Compliance Matrix: (Units=1/GPa)
#
#
# Indices 1 2 3 4 5 6 
#
# 1 0.013281 -0.003575 -0.000749 0.000000 0.000756 0.000000
# 2 -0.003575 0.019480 -0.001498 0.000000 0.005533 0.000000
# 3 -0.000749 -0.001498 0.012558 0.000000 0.007700 0.000000
# 4 0.000000 0.000000 0.000000 0.168393 0.000000 -0.033661
# 5 0.000756 0.005533 0.007700 0.000000 0.035396 0.000000
# 6 0.000000 0.000000 0.000000 -0.033661 0.000000 0.048656
#
#
# Mechanical properties :
#
#
# Convention : Reuss Voigt Hill
#
# Bulk Modulus (GPa) = 29.69524 36.43895 33.06709
# Shear Modulus (GPa) = 15.59412 26.10412 20.84912
#
# Velocity S-wave (km/s) = 2.75012 3.55816 3.17991
# Velocity P-wave (km/s) = 4.94838 5.87823 5.43323
#
# Compressibility (1/GPa) = 0.03367544
#
# Stress axis : x y z
#
# Youngs Moduli (GPa) = 75.29378 51.33348 79.63273
#
# Poissons Ratio (x) = 0.18353 0.05962
# Poissons Ratio (y) = 0.26920 0.11929
# Poissons Ratio (z) = 0.05637 0.07690
#
# Static dielectric constant tensor:
#      x y z
#    x 3.806600 0.000000 -0.191190 
#    y 0.000000 3.555120 0.000000 
#    z -0.191190 0.000000 3.655420 
# 
# 
# High freq. dielectric constant tensor:
#      x y z
#    x 1.802890 0.000000 -0.019110 
#    y 0.000000 1.792880 0.000000 
#    z -0.019110 0.000000 1.806230 
# 
# From -- ./inp_files/189274.got.cif
#   From: 2010.06.25/outbox.cif.g09.slc.cpg/sg15_95_cif.got.tgz:189274.got - 2010.06.28 07:06:18.
