data_PCOD8134385
_publ_section_title
;
Structure prediction by ZEFSAII (Michael W. Deem and Ramdas Pophale) SiO2 
 PCOD8134385
Probable space group: C 2/C
;
_chemical_formula_sum "Si O2"
_cell_formula_units_Z 60
_cell_length_a 8.459222
_cell_length_b 21.086991
_cell_length_c 25.822180
_cell_angle_alpha 90.000000
_cell_angle_beta 140.829660
_cell_angle_gamma 90.000000
_cell_volume 2909.372653
_symmetry_space_group_name_H-M "C 2/C"
_symmetry_group_IT_number 15
_symmetry_cell_setting 'monoclinic'
loop_
_space_group_symop_operation_xyz
x,y,z
-x,y,1/2-z
-x,-y,-z
x,-y,1/2+z
1/2+x,1/2+y,z
1/2-x,1/2+y,1/2-z
1/2-x,1/2-y,-z
1/2+x,1/2-y,1/2+z
loop_
_atom_site_type_symbol
_atom_site_label
_atom_site_fract_x
_atom_site_fract_y
_atom_site_fract_z
Si Si1 0.255409 0.418415 0.565808
Si Si2 0.500000 0.401426 0.250000
Si Si3 0.660510 0.977258 0.339937
Si Si4 0.557666 0.881075 0.403253
Si Si5 0.143623 0.664393 0.509243
Si Si6 0.091980 0.050484 0.878813
Si Si7 0.226551 0.382651 0.840962
Si Si8 0.038102 0.197097 0.009505
O O1 0.131513 0.406646 0.478145
O O2 0.217565 0.490950 0.574855
O O3 0.547061 0.399823 0.640303
O O4 0.111753 0.373165 0.570933
O O5 0.550688 0.446365 0.212646
O O6 0.761241 0.361283 0.323791
O O7 0.500000 0.954808 0.250000
O O8 0.599578 0.940194 0.376128
O O9 0.940068 0.961316 0.392895
O O10 0.632157 0.052353 0.344274
O O11 0.744894 0.823451 0.434747
O O12 0.279881 0.618889 0.584709
O O13 0.057973 0.727206 0.518441
O O14 0.325922 0.676317 0.508199
O O15 0.311652 0.331844 0.904556
O O16 0.000000 0.352931 0.750000
#
# Coordination Sequence:
#
# PCOD8134385 Si02
#       8
#     8   4   8   8   8   8   8   8
#     4  10  23  39  64  91 125 161 201 259 310 354
#     4  12  24  36  60 100 120 156 202 252 320 352
#     4  10  19  35  62  90 129 157 196 255 307 362
#     4  11  22  38  62  94 122 164 203 248 311 362
#     4  11  22  42  62  90 121 163 209 250 302 371
#     4  11  22  39  60  95 124 158 200 257 306 364
#     4   9  21  40  61  92 122 165 207 249 309 362
#     4  10  24  41  65  85 122 171 206 248 306 363
#
# _framework density 20.623002
#
# number of rings (size 3 to 8) (size 9 to 14) (size 15 to 20)
#    0.000    1.600    4.000    0.400    1.867    3.733 
#    1.200    0.000    0.000    3.200    0.000    0.000 
#    0.000    0.000    0.000    0.000    0.000    0.000 
#
# Total GULP energy -371668.976826 kJ/mol
# GULP energy per Si atom -12388.965894 kJ/mol
# Density = 2.057606 g / cm^3
# Si number density = 20.623002 Si / 1000 Ang^3
#
#
#
# Elastic Constant Matrix: (Units=GPa)
#
#
# Indices 1 2 3 4 5 6 
#
# 1 85.0193 34.4116 39.7557 -0.0040 15.4489 0.0018
# 2 34.4116 140.2010 47.4799 0.0002 8.0389 -0.0013
# 3 39.7557 47.4799 110.8984 0.0171 31.2034 -0.0101
# 4 -0.0040 0.0002 0.0171 -9.3722 -0.0039 35.7818
# 5 15.4489 8.0389 31.2034 -0.0039 28.9486 0.0037
# 6 0.0018 -0.0013 -0.0101 35.7818 0.0037 -10.6693
#
#
#
# Elastic Compliance Matrix: (Units=1/GPa)
#
#
# Indices 1 2 3 4 5 6 
#
# 1 0.014931 -0.002334 -0.003292 -0.000001 -0.003771 0.000003
# 2 -0.002334 0.008806 -0.003726 0.000000 0.002816 0.000002
# 3 -0.003292 -0.003726 0.015799 0.000003 -0.014238 -0.000009
# 4 -0.000001 0.000000 0.000003 0.009039 -0.000006 0.030315
# 5 -0.003771 0.002816 -0.014238 -0.000006 0.051121 0.000010
# 6 0.000003 0.000002 -0.000009 0.030315 0.000010 0.007940
#
#
# Mechanical properties :
#
#
# Convention : Reuss Voigt Hill
#
# Bulk Modulus (GPa) = 48.00288 64.37924 56.19106
# Shear Modulus (GPa) = 37.51371 16.07951 26.79661
#
# Velocity S-wave (km/s) = 4.26963 2.79532 3.60857
# Velocity P-wave (km/s) = 6.90168 6.45782 6.68343
#
# Compressibility (1/GPa) = 0.02083208
#
# Stress axis : x y z
#
# Youngs Moduli (GPa) = 66.97268 113.56275 63.29587
#
# Poissons Ratio (x) = 0.26501 0.20840
# Poissons Ratio (y) = 0.15629 0.23583
# Poissons Ratio (z) = 0.22051 0.42312
#
# Static dielectric constant tensor:
#      x y z
#    x 4.205680 0.000000 0.287210 
#    y 0.000000 3.747710 0.000000 
#    z 0.287210 0.000000 3.722830 
# 
# 
# High freq. dielectric constant tensor:
#      x y z
#    x 1.826690 0.000000 0.014790 
#    y 0.000000 1.790670 0.000000 
#    z 0.014790 0.000000 1.796680 
# 
# From -- ./inp_files/266252.got.cif
#   From: 2010.06.25/outbox.cif.g09.slc.cpg/sg15_134_cif.got.tgz:266252.got - 2010.06.28 07:06:18.
