data_PCOD8134227
_publ_section_title
;
Structure prediction by ZEFSAII (Michael W. Deem and Ramdas Pophale) SiO2 
 PCOD8134227
Probable space group: C 2/C
;
_chemical_formula_sum "Si O2"
_cell_formula_units_Z 48
_cell_length_a 17.426783
_cell_length_b 8.564595
_cell_length_c 29.588202
_cell_angle_alpha 90.000000
_cell_angle_beta 33.175015
_cell_angle_gamma 90.000000
_cell_volume 2416.503094
_symmetry_space_group_name_H-M "C 2/C"
_symmetry_group_IT_number 15
_symmetry_cell_setting 'monoclinic'
loop_
_space_group_symop_operation_xyz
x,y,z
-x,y,1/2-z
-x,-y,-z
x,-y,1/2+z
1/2+x,1/2+y,z
1/2-x,1/2+y,1/2-z
1/2-x,1/2-y,-z
1/2+x,1/2-y,1/2+z
loop_
_atom_site_type_symbol
_atom_site_label
_atom_site_fract_x
_atom_site_fract_y
_atom_site_fract_z
Si Si1 0.756004 0.733277 0.561263
Si Si2 0.195486 0.722010 0.321008
Si Si3 0.497008 0.473280 0.054536
Si Si4 0.850595 0.457429 0.095342
Si Si5 0.073386 0.421032 0.593810
Si Si6 0.051622 0.272245 0.367990
O O1 0.749304 0.640358 0.611893
O O2 0.792107 0.605674 0.505098
O O3 0.613260 0.832285 0.621485
O O4 0.883418 0.851207 0.494916
O O5 0.152621 0.897588 0.357002
O O6 0.220041 0.620048 0.354564
O O7 0.338824 0.716421 0.223250
O O8 0.072829 0.647617 0.351273
O O9 0.527271 0.625511 0.070224
O O10 0.500000 0.500000 0.000000
O O11 0.866494 0.354353 0.131878
O O12 0.000000 0.500000 0.000000
O O13 0.056169 0.609519 0.604295
#
# Coordination Sequence:
#
# PCOD8134227 Si02
#       6
#     8   8   8   8   8   8
#     4  10  19  35  58  87 113 148 201 249 297 349
#     4  10  21  35  57  85 117 155 200 238 301 364
#     4  11  19  31  56  88 107 148 205 244 284 351
#     4  11  17  36  59  86 112 162 205 243 285 365
#     4   9  20  36  57  85 115 150 193 250 302 352
#     4  11  20  34  57  86 119 153 198 250 301 359
#
# _framework density 19.863412
#
# number of rings (size 3 to 8) (size 9 to 14) (size 15 to 20)
#    0.000    1.667    6.667    2.000    0.000    0.667 
#    0.000    0.833    0.000    0.000    8.667    0.000 
#    0.000    0.000    0.000    0.000    0.000    0.000 
#
# Total GULP energy -297388.684040 kJ/mol
# GULP energy per Si atom -12391.195168 kJ/mol
# Density = 1.981820 g / cm^3
# Si number density = 19.863412 Si / 1000 Ang^3
#
#
#
# Elastic Constant Matrix: (Units=GPa)
#
#
# Indices 1 2 3 4 5 6 
#
# 1 102.1064 49.6664 30.1870 0.0000 8.3560 0.0212
# 2 49.6664 134.5156 42.3555 -0.0059 7.1335 0.0093
# 3 30.1870 42.3555 85.4552 0.0015 18.9071 -0.0019
# 4 0.0000 -0.0059 0.0015 33.5693 -0.0007 8.0998
# 5 8.3560 7.1335 18.9071 -0.0007 21.3486 -0.0039
# 6 0.0212 0.0093 -0.0019 8.0998 -0.0039 46.2404
#
#
#
# Elastic Compliance Matrix: (Units=1/GPa)
#
#
# Indices 1 2 3 4 5 6 
#
# 1 0.012421 -0.003831 -0.002110 0.000001 -0.001713 -0.000005
# 2 -0.003831 0.010013 -0.003981 0.000002 0.001680 -0.000001
# 3 -0.002110 -0.003981 0.017342 -0.000002 -0.013202 0.000002
# 4 0.000001 0.000002 -0.000002 0.031104 0.000001 -0.005448
# 5 -0.001713 0.001680 -0.013202 0.000001 0.058643 0.000005
# 6 -0.000005 -0.000001 0.000002 -0.005448 0.000005 0.022580
#
#
# Mechanical properties :
#
#
# Convention : Reuss Voigt Hill
#
# Bulk Modulus (GPa) = 50.17177 62.94391 56.55784
# Shear Modulus (GPa) = 27.99682 33.55621 30.77651
#
# Velocity S-wave (km/s) = 3.75836 4.11463 3.94052
# Velocity P-wave (km/s) = 6.64431 7.37094 7.01704
#
# Compressibility (1/GPa) = 0.01993153
#
# Stress axis : x y z
#
# Youngs Moduli (GPa) = 80.50796 99.86916 57.66441
#
# Poissons Ratio (x) = 0.38260 0.12167
# Poissons Ratio (y) = 0.30842 0.22958
# Poissons Ratio (z) = 0.16987 0.39761
#
# Static dielectric constant tensor:
#      x y z
#    x 3.442090 -0.000010 0.168360 
#    y -0.000010 4.159700 0.000010 
#    z 0.168360 0.000010 3.365790 
# 
# 
# High freq. dielectric constant tensor:
#      x y z
#    x 1.753610 0.000000 0.020160 
#    y 0.000000 1.793080 0.000000 
#    z 0.020160 0.000000 1.746200 
# 
# From -- ./inp_files/224700.got.cif
#   From: 2010.06.25/outbox.cif.g09.slc.cpg/sg15_113_cif.got.tgz:224700.got - 2010.06.28 07:06:18.
