data_PCOD8134977
_publ_section_title
;
Structure prediction by ZEFSAII (Michael W. Deem and Ramdas Pophale) SiO2 
 PCOD8134977
Probable space group: C 2/C
;
_chemical_formula_sum "Si O2"
_cell_formula_units_Z 64
_cell_length_a 12.959346
_cell_length_b 8.499688
_cell_length_c 26.123831
_cell_angle_alpha 90.000000
_cell_angle_beta 96.910934
_cell_angle_gamma 90.000000
_cell_volume 2856.643237
_symmetry_space_group_name_H-M "C 2/C"
_symmetry_group_IT_number 15
_symmetry_cell_setting 'monoclinic'
loop_
_space_group_symop_operation_xyz
x,y,z
-x,y,1/2-z
-x,-y,-z
x,-y,1/2+z
1/2+x,1/2+y,z
1/2-x,1/2+y,1/2-z
1/2-x,1/2-y,-z
1/2+x,1/2-y,1/2+z
loop_
_atom_site_type_symbol
_atom_site_label
_atom_site_fract_x
_atom_site_fract_y
_atom_site_fract_z
Si Si1 0.950548 0.572774 0.918571
Si Si2 0.565542 0.584911 0.803601
Si Si3 0.295328 0.686620 0.939926
Si Si4 0.147690 0.473130 0.493797
Si Si5 0.723560 0.782000 0.756357
Si Si6 0.113093 0.408861 0.275634
Si Si7 0.593467 0.279530 0.872275
Si Si8 0.096197 0.276026 0.648193
O O1 0.911090 0.454676 0.872266
O O2 0.051078 0.491739 0.951030
O O3 0.986477 0.740368 0.897239
O O4 0.860805 0.591956 0.957612
O O5 0.500000 0.532895 0.750000
O O6 0.675031 0.652416 0.791319
O O7 0.582748 0.440988 0.842050
O O8 0.511214 0.723018 0.832737
O O9 0.254994 0.525325 0.966140
O O10 0.192745 0.784020 0.915229
O O11 0.369924 0.656084 0.895614
O O12 0.357991 0.794971 0.983693
O O13 0.846506 0.738948 0.757395
O O14 0.700050 0.954630 0.776382
O O15 0.684560 0.768740 0.695973
O O16 0.106792 0.365676 0.334297
O O17 0.000000 0.467774 0.250000
#
# Coordination Sequence:
#
# PCOD8134977 Si02
#       8
#     8   8   8   8   8   8   8   8
#     4   9  17  31  60  86 110 147 203 257 303 373
#     4  10  22  38  58  84 122 164 201 245 305 361
#     4   9  17  32  57  81 112 149 197 247 307 378
#     4   8  16  31  55  85 109 146 198 252 310 372
#     4  11  23  40  60  87 126 164 204 254 301 357
#     4  12  24  40  61  90 123 168 209 257 306 362
#     4  11  20  35  56  84 117 153 203 252 300 370
#     4  10  19  37  59  83 115 160 203 250 302 374
#
# _framework density 22.403915999999999
#
# number of rings (size 3 to 8) (size 9 to 14) (size 15 to 20)
#    0.000    2.000    1.250    3.750    0.000    1.000 
#    0.000    0.625    0.000   28.500    0.000    0.000 
#    0.000    0.000    0.000    0.000    0.000    0.000 
#
# Total GULP energy -396453.126932 kJ/mol
# GULP energy per Si atom -12389.160217 kJ/mol
# Density = 2.235292 g / cm^3
# Si number density = 22.403916 Si / 1000 Ang^3
#
#
#
# Elastic Constant Matrix: (Units=GPa)
#
#
# Indices 1 2 3 4 5 6 
#
# 1 67.6379 3.4501 13.3633 0.0000 -9.2300 0.0000
# 2 3.4501 49.5777 18.1676 0.0000 11.4384 0.0000
# 3 13.3633 18.1676 91.8511 0.0000 -13.8580 0.0000
# 4 0.0000 0.0000 0.0000 21.2719 0.0000 -3.0604
# 5 -9.2300 11.4384 -13.8580 0.0000 15.9815 0.0000
# 6 0.0000 0.0000 0.0000 -3.0604 0.0000 31.0185
#
#
#
# Elastic Compliance Matrix: (Units=1/GPa)
#
#
# Indices 1 2 3 4 5 6 
#
# 1 0.016714 -0.004334 0.000403 0.000000 0.013104 0.000000
# 2 -0.004334 0.032860 -0.011269 0.000000 -0.035794 0.000000
# 3 0.000403 -0.011269 0.016463 0.000000 0.022574 0.000000
# 4 0.000000 0.000000 0.000000 0.047687 0.000000 0.004705
# 5 0.013104 -0.035794 0.022574 0.000000 0.115334 0.000000
# 6 0.000000 0.000000 0.000000 0.004705 0.000000 0.032703
#
#
# Mechanical properties :
#
#
# Convention : Reuss Voigt Hill
#
# Bulk Modulus (GPa) = 28.06139 31.00320 29.53229
# Shear Modulus (GPa) = 16.44509 25.26010 20.85260
#
# Velocity S-wave (km/s) = 2.71223 3.36145 3.05414
# Velocity P-wave (km/s) = 4.72871 5.37904 5.06433
#
# Compressibility (1/GPa) = 0.03563615
#
# Stress axis : x y z
#
# Youngs Moduli (GPa) = 59.82870 30.43236 60.74051
#
# Poissons Ratio (x) = 0.13190 -0.02446
# Poissons Ratio (y) = 0.25930 0.68450
# Poissons Ratio (z) = -0.02409 0.34295
#
# Static dielectric constant tensor:
#      x y z
#    x 4.283120 0.000000 -0.510030 
#    y 0.000000 3.616320 0.000000 
#    z -0.510030 0.000000 4.386430 
# 
# 
# High freq. dielectric constant tensor:
#      x y z
#    x 1.879050 0.000000 -0.028170 
#    y 0.000000 1.834790 0.000000 
#    z -0.028170 0.000000 1.901970 
# 
# From -- ./inp_files/295188.got.cif
#   From: 2010.06.25/outbox.cif.g09.slc.cpg/sg15_148_cif.got.tgz:295188.got - 2010.06.28 07:06:18.
