data_PCOD8134656
_publ_section_title
;
Structure prediction by ZEFSAII (Michael W. Deem and Ramdas Pophale) SiO2 
 PCOD8134656
Probable space group: C 2/C
;
_chemical_formula_sum "Si O2"
_cell_formula_units_Z 48
_cell_length_a 14.891451
_cell_length_b 9.502057
_cell_length_c 19.732440
_cell_angle_alpha 90.000000
_cell_angle_beta 63.652775
_cell_angle_gamma 90.000000
_cell_volume 2502.085011
_symmetry_space_group_name_H-M "C 2/C"
_symmetry_group_IT_number 15
_symmetry_cell_setting 'monoclinic'
loop_
_space_group_symop_operation_xyz
x,y,z
-x,y,1/2-z
-x,-y,-z
x,-y,1/2+z
1/2+x,1/2+y,z
1/2-x,1/2+y,1/2-z
1/2-x,1/2-y,-z
1/2+x,1/2-y,1/2+z
loop_
_atom_site_type_symbol
_atom_site_label
_atom_site_fract_x
_atom_site_fract_y
_atom_site_fract_z
Si Si1 0.167398 0.234978 0.814382
Si Si2 0.976002 0.108710 0.066275
Si Si3 0.749259 0.442901 0.827506
Si Si4 0.339489 0.209078 0.419946
Si Si5 0.024095 0.936905 0.169398
Si Si6 0.981583 0.646639 0.038850
O O1 0.212026 0.348419 0.747723
O O2 0.128493 0.326279 0.891959
O O3 0.070364 0.159659 0.817042
O O4 0.246703 0.110933 0.809857
O O5 0.859560 0.114626 0.120374
O O6 0.037091 0.065073 0.112826
O O7 0.011241 0.258287 0.029996
O O8 0.000000 0.000000 0.000000
O O9 0.813378 0.414616 0.874779
O O10 0.250000 0.250000 0.500000
O O11 0.373375 0.346212 0.365119
O O12 0.433483 0.166904 0.433568
O O13 0.000000 0.004417 0.250000
O O14 0.000000 0.500000 0.000000
#
# Coordination Sequence:
#
# PCOD8134656 Si02
#       6
#     8   8   8   8   8   8
#     4  10  23  37  61  88 126 155 197 253 304 367
#     4  11  19  39  63  85 117 159 205 247 296 361
#     4  11  21  37  61  92 117 157 207 247 298 363
#     4  11  20  35  65  87 112 161 211 240 289 376
#     4  10  19  36  59  91 118 157 203 247 300 366
#     4  11  24  41  60  88 124 161 196 254 316 356
#
# _framework density 19.184000999999999
#
# number of rings (size 3 to 8) (size 9 to 14) (size 15 to 20)
#    0.000    1.333    8.333    0.000    2.333    0.000 
#    0.000    4.167    0.000    0.000    0.000    0.000 
#    0.000    0.000    0.000    0.000    0.000    0.000 
#
# Total GULP energy -297378.575794 kJ/mol
# GULP energy per Si atom -12390.773991 kJ/mol
# Density = 1.914034 g / cm^3
# Si number density = 19.184001 Si / 1000 Ang^3
#
#
#
# Elastic Constant Matrix: (Units=GPa)
#
#
# Indices 1 2 3 4 5 6 
#
# 1 56.8612 30.8161 34.2921 0.0000 0.2713 0.0000
# 2 30.8161 140.4592 81.5214 0.0000 4.2401 0.0000
# 3 34.2921 81.5214 162.1747 0.0000 1.5943 0.0000
# 4 0.0000 0.0000 0.0000 37.8967 0.0000 3.0725
# 5 0.2713 4.2401 1.5943 0.0000 32.3266 0.0000
# 6 0.0000 0.0000 0.0000 3.0725 0.0000 26.6310
#
#
#
# Elastic Compliance Matrix: (Units=1/GPa)
#
#
# Indices 1 2 3 4 5 6 
#
# 1 0.020943 -0.002871 -0.002989 0.000000 0.000348 0.000000
# 2 -0.002871 0.010483 -0.004651 0.000000 -0.001121 0.000000
# 3 -0.002989 -0.004651 0.009135 0.000000 0.000185 0.000000
# 4 0.000000 0.000000 0.000000 0.026637 0.000000 -0.003073
# 5 0.000348 -0.001121 0.000185 0.000000 0.031069 0.000000
# 6 0.000000 0.000000 0.000000 -0.003073 0.000000 0.037905
#
#
# Mechanical properties :
#
#
# Convention : Reuss Voigt Hill
#
# Bulk Modulus (GPa) = 51.18044 72.52827 61.85436
# Shear Modulus (GPa) = 30.54248 33.56190 32.05219
#
# Velocity S-wave (km/s) = 3.99442 4.18721 4.09195
# Velocity P-wave (km/s) = 6.92896 7.82724 7.39176
#
# Compressibility (1/GPa) = 0.01953871
#
# Stress axis : x y z
#
# Youngs Moduli (GPa) = 47.74790 95.39421 109.47433
#
# Poissons Ratio (x) = 0.27384 0.32721
# Poissons Ratio (y) = 0.13707 0.50921
# Poissons Ratio (z) = 0.14272 0.44372
#
# Static dielectric constant tensor:
#      x y z
#    x 3.436240 0.000000 -0.237780 
#    y 0.000000 3.053920 0.000000 
#    z -0.237780 0.000000 3.268590 
# 
# 
# High freq. dielectric constant tensor:
#      x y z
#    x 1.725480 0.000000 -0.005460 
#    y 0.000000 1.733150 0.000000 
#    z -0.005460 0.000000 1.775880 
# 
# From -- ./inp_files/242305.got.cif
#   From: 2010.06.25/outbox.cif.g09.slc.cpg/sg15_122_cif.got.tgz:242305.got - 2010.06.28 07:06:18.
