data_PCOD8134672
_publ_section_title
;
Structure prediction by ZEFSAII (Michael W. Deem and Ramdas Pophale) SiO2 
 PCOD8134672
Probable space group: C 2/C
;
_chemical_formula_sum "Si O2"
_cell_formula_units_Z 60
_cell_length_a 18.412316
_cell_length_b 8.227035
_cell_length_c 21.374770
_cell_angle_alpha 90.000000
_cell_angle_beta 104.375185
_cell_angle_gamma 90.000000
_cell_volume 3136.450087
_symmetry_space_group_name_H-M "C 2/C"
_symmetry_group_IT_number 15
_symmetry_cell_setting 'monoclinic'
loop_
_space_group_symop_operation_xyz
x,y,z
-x,y,1/2-z
-x,-y,-z
x,-y,1/2+z
1/2+x,1/2+y,z
1/2-x,1/2+y,1/2-z
1/2-x,1/2-y,-z
1/2+x,1/2-y,1/2+z
loop_
_atom_site_type_symbol
_atom_site_label
_atom_site_fract_x
_atom_site_fract_y
_atom_site_fract_z
Si Si1 0.312911 0.351722 0.373871
Si Si2 0.641858 0.670053 0.753276
Si Si3 0.000000 0.963135 0.750000
Si Si4 0.719461 0.552113 0.354924
Si Si5 0.920010 0.948958 0.509285
Si Si6 0.317052 0.682411 0.552678
Si Si7 0.422493 0.734017 0.139025
Si Si8 0.656894 0.953177 0.843405
O O1 0.358341 0.373988 0.319690
O O2 0.292704 0.161640 0.365837
O O3 0.367612 0.378472 0.443627
O O4 0.239309 0.465250 0.363090
O O5 0.569326 0.585109 0.766029
O O6 0.715755 0.583632 0.799340
O O7 0.643149 0.862785 0.773079
O O8 0.003975 0.843886 0.811892
O O9 0.721284 0.470829 0.422740
O O10 0.646627 0.664817 0.335997
O O11 0.924525 0.813618 0.565827
O O12 0.885567 0.118602 0.525549
O O13 0.000000 0.000000 0.500000
O O14 0.250000 0.750000 0.500000
O O15 0.349957 0.810800 0.607678
O O16 0.411074 0.926667 0.149944
#
# Coordination Sequence:
#
# PCOD8134672 Si02
#       8
#     8   8   4   8   8   8   8   8
#     4  11  20  34  59  85 119 150 189 250 298 343
#     4  10  20  36  58  85 117 151 197 243 298 352
#     4  10  20  40  60  78 114 166 194 238 302 356
#     4   8  19  33  54  83 108 148 196 238 283 344
#     4  11  23  38  58  87 121 161 194 239 309 364
#     4  10  19  36  60  82 115 151 194 241 289 350
#     4   9  20  37  59  83 115 152 205 238 286 364
#     4  10  21  36  61  91 111 152 205 253 283 348
#
# _framework density 19.129906999999999
#
# number of rings (size 3 to 8) (size 9 to 14) (size 15 to 20)
#    0.000    2.133    1.333    2.400    1.867    2.133 
#    0.000    0.667    2.933    0.000    0.000    0.000 
#    0.000    0.000    0.000    0.000    0.000    0.000 
#
# Total GULP energy -371686.789069 kJ/mol
# GULP energy per Si atom -12389.559636 kJ/mol
# Density = 1.908637 g / cm^3
# Si number density = 19.129907 Si / 1000 Ang^3
#
#
#
# Elastic Constant Matrix: (Units=GPa)
#
#
# Indices 1 2 3 4 5 6 
#
# 1 70.0526 39.6188 36.4080 0.0000 -2.5832 0.0000
# 2 39.6188 110.7510 41.6732 0.0000 0.8269 0.0000
# 3 36.4080 41.6732 126.8091 0.0000 0.0737 0.0000
# 4 0.0000 0.0000 0.0000 27.9112 0.0000 -0.6863
# 5 -2.5832 0.8269 0.0737 0.0000 29.7721 0.0000
# 6 0.0000 0.0000 0.0000 -0.6863 0.0000 25.4696
#
#
#
# Elastic Compliance Matrix: (Units=1/GPa)
#
#
# Indices 1 2 3 4 5 6 
#
# 1 0.019436 -0.005553 -0.003756 0.000000 0.001850 0.000000
# 2 -0.005553 0.011892 -0.002313 0.000000 -0.000806 0.000000
# 3 -0.003756 -0.002313 0.009725 0.000000 -0.000286 0.000000
# 4 0.000000 0.000000 0.000000 0.035852 0.000000 0.000966
# 5 0.001850 -0.000806 -0.000286 0.000000 0.033772 0.000000
# 6 0.000000 0.000000 0.000000 0.000966 0.000000 0.039288
#
#
# Mechanical properties :
#
#
# Convention : Reuss Voigt Hill
#
# Bulk Modulus (GPa) = 56.15670 60.33474 58.24572
# Shear Modulus (GPa) = 27.91003 29.29144 28.60074
#
# Velocity S-wave (km/s) = 3.82380 3.91728 3.87082
# Velocity P-wave (km/s) = 6.99388 7.21582 7.10572
#
# Compressibility (1/GPa) = 0.01780731
#
# Stress axis : x y z
#
# Youngs Moduli (GPa) = 51.45050 84.08821 102.83040
#
# Poissons Ratio (x) = 0.46696 0.38627
# Poissons Ratio (y) = 0.28572 0.23788
# Poissons Ratio (z) = 0.19327 0.19452
#
# Static dielectric constant tensor:
#      x y z
#    x 3.270750 0.000000 -0.012100 
#    y 0.000000 3.735150 0.000000 
#    z -0.012100 0.000000 2.795140 
# 
# 
# High freq. dielectric constant tensor:
#      x y z
#    x 1.718850 0.000000 -0.000200 
#    y 0.000000 1.750670 0.000000 
#    z -0.000200 0.000000 1.752780 
# 
# From -- ./inp_files/251632.got.cif
#   From: 2010.06.25/outbox.cif.g09.slc.cpg/sg15_126_cif.got.tgz:251632.got - 2010.06.28 07:06:18.
