data_PCOD8134213
_publ_section_title
;
Structure prediction by ZEFSAII (Michael W. Deem and Ramdas Pophale) SiO2 
 PCOD8134213
Probable space group: C 2/C
;
_chemical_formula_sum "Si O2"
_cell_formula_units_Z 64
_cell_length_a 21.887433
_cell_length_b 17.394103
_cell_length_c 8.436814
_cell_angle_alpha 90.000000
_cell_angle_beta 89.972063
_cell_angle_gamma 90.000000
_cell_volume 3211.998177
_symmetry_space_group_name_H-M "C 2/C"
_symmetry_group_IT_number 15
_symmetry_cell_setting 'monoclinic'
loop_
_space_group_symop_operation_xyz
x,y,z
-x,y,1/2-z
-x,-y,-z
x,-y,1/2+z
1/2+x,1/2+y,z
1/2-x,1/2+y,1/2-z
1/2-x,1/2-y,-z
1/2+x,1/2-y,1/2+z
loop_
_atom_site_type_symbol
_atom_site_label
_atom_site_fract_x
_atom_site_fract_y
_atom_site_fract_z
Si Si1 0.698653 0.398736 0.199500
Si Si2 0.197764 0.579929 0.243663
Si Si3 0.833887 0.427188 0.117117
Si Si4 0.084011 0.290631 0.417002
Si Si5 0.030610 0.231049 0.906614
Si Si6 0.170683 0.049085 0.342817
Si Si7 0.353960 0.764828 0.762835
Si Si8 0.066295 0.148418 0.199251
O O1 0.772528 0.396924 0.205136
O O2 0.668817 0.456421 0.329314
O O3 0.677368 0.316680 0.263459
O O4 0.674029 0.420280 0.022769
O O5 0.157353 0.516807 0.337639
O O6 0.269765 0.568322 0.261874
O O7 0.188668 0.667082 0.301202
O O8 0.175171 0.572657 0.067292
O O9 0.893977 0.373736 0.154503
O O10 0.133656 0.268775 0.549161
O O11 0.086662 0.228920 0.277228
O O12 0.015680 0.286558 0.493689
O O13 0.085499 0.281588 0.839062
O O14 0.000000 0.192383 0.750000
O O15 0.059879 0.162783 0.011218
O O16 0.113469 0.082940 0.247699
O O17 0.000000 0.118925 0.250000
#
# Coordination Sequence:
#
# PCOD8134213 Si02
#       8
#     8   8   8   8   8   8   8   8
#     4  10  21  35  57  83 118 155 188 236 283 337
#     4   9  20  35  57  83 117 149 189 236 286 340
#     4   9  19  35  57  83 117 150 190 232 288 335
#     4   9  18  35  59  80 108 152 190 233 279 338
#     4   9  20  36  55  82 113 143 189 240 284 332
#     4  10  21  37  55  81 119 148 193 238 285 332
#     4  10  19  35  58  83 112 153 192 229 287 344
#     4  10  20  36  56  81 110 148 195 235 278 338
#
# _framework density 19.925291999999999
#
# number of rings (size 3 to 8) (size 9 to 14) (size 15 to 20)
#    0.000    2.500    1.250    0.000    3.500    2.500 
#    0.000    3.750    0.000    5.250    0.000    0.000 
#    0.000    0.000    0.000    0.000    0.000    0.000 
#
# Total GULP energy -396436.683432 kJ/mol
# GULP energy per Si atom -12388.646357 kJ/mol
# Density = 1.987994 g / cm^3
# Si number density = 19.925292 Si / 1000 Ang^3
#
#
#
# Elastic Constant Matrix: (Units=GPa)
#
#
# Indices 1 2 3 4 5 6 
#
# 1 72.0319 58.2053 16.8708 0.0000 -3.5574 0.0000
# 2 58.2053 165.3296 26.1621 0.0000 -10.9266 0.0000
# 3 16.8708 26.1621 40.3733 0.0000 -10.1183 0.0000
# 4 0.0000 0.0000 0.0000 22.3952 0.0000 0.2984
# 5 -3.5574 -10.9266 -10.1183 0.0000 15.2078 0.0000
# 6 0.0000 0.0000 0.0000 0.2984 0.0000 31.2943
#
#
#
# Elastic Compliance Matrix: (Units=1/GPa)
#
#
# Indices 1 2 3 4 5 6 
#
# 1 0.020169 -0.006523 -0.005032 0.000000 -0.003317 0.000000
# 2 -0.006523 0.008919 -0.002196 0.000000 0.003421 0.000000
# 3 -0.005032 -0.002196 0.033128 0.000000 0.019287 0.000000
# 4 0.000000 0.000000 0.000000 0.044658 0.000000 -0.000426
# 5 -0.003317 0.003421 0.019287 0.000000 0.080270 0.000000
# 6 0.000000 0.000000 0.000000 -0.000426 0.000000 0.031959
#
#
# Mechanical properties :
#
#
# Convention : Reuss Voigt Hill
#
# Bulk Modulus (GPa) = 28.80797 53.35678 41.08238
# Shear Modulus (GPa) = 19.36663 25.54592 22.45627
#
# Velocity S-wave (km/s) = 3.12101 3.58451 3.36076
# Velocity P-wave (km/s) = 5.24185 6.63085 5.97684
#
# Compressibility (1/GPa) = 0.03471262
#
# Stress axis : x y z
#
# Youngs Moduli (GPa) = 49.58159 112.12327 30.18573
#
# Poissons Ratio (x) = 0.73144 0.15189
# Poissons Ratio (y) = 0.32345 0.06629
# Poissons Ratio (z) = 0.24949 0.24623
#
# Static dielectric constant tensor:
#      x y z
#    x 3.836660 0.000000 -0.007360 
#    y 0.000000 3.775570 0.000000 
#    z -0.007360 0.000000 3.662600 
# 
# 
# High freq. dielectric constant tensor:
#      x y z
#    x 1.771090 0.000000 -0.002550 
#    y 0.000000 1.763310 0.000000 
#    z -0.002550 0.000000 1.774350 
# 
# From -- ./inp_files/61935.got.cif
#   From: 2010.06.25/outbox.cif.g09.slc.cpg/sg15_31_cif.got.tgz:61935.got - 2010.06.28 07:06:18.
