data_PCOD8134513
_publ_section_title
;
Structure prediction by ZEFSAII (Michael W. Deem and Ramdas Pophale) SiO2 
 PCOD8134513
Probable space group: C 2/C
;
_chemical_formula_sum "Si O2"
_cell_formula_units_Z 60
_cell_length_a 13.481163
_cell_length_b 18.357411
_cell_length_c 24.066276
_cell_angle_alpha 90.000000
_cell_angle_beta 33.535189
_cell_angle_gamma 90.000000
_cell_volume 3290.333314
_symmetry_space_group_name_H-M "C 2/C"
_symmetry_group_IT_number 15
_symmetry_cell_setting 'monoclinic'
loop_
_space_group_symop_operation_xyz
x,y,z
-x,y,1/2-z
-x,-y,-z
x,-y,1/2+z
1/2+x,1/2+y,z
1/2-x,1/2+y,1/2-z
1/2-x,1/2-y,-z
1/2+x,1/2-y,1/2+z
loop_
_atom_site_type_symbol
_atom_site_label
_atom_site_fract_x
_atom_site_fract_y
_atom_site_fract_z
Si Si1 0.551946 0.188590 0.510454
Si Si2 0.183386 0.337879 0.638608
Si Si3 0.704311 0.436921 0.553349
Si Si4 0.819370 0.830082 0.362937
Si Si5 0.839928 0.586707 0.462354
Si Si6 0.703640 0.843768 0.827726
Si Si7 0.555474 0.672281 0.384053
Si Si8 0.500000 0.436757 0.750000
O O1 0.662945 0.123435 0.484737
O O2 0.345219 0.162566 0.603642
O O3 0.619589 0.207988 0.415483
O O4 0.570320 0.258724 0.541903
O O5 0.158370 0.254447 0.631028
O O6 0.231543 0.384393 0.562510
O O7 0.342032 0.350301 0.608118
O O8 0.000000 0.368169 0.750000
O O9 0.816196 0.499280 0.470506
O O10 0.563475 0.396873 0.578587
O O11 0.605117 0.478843 0.651825
O O12 0.786590 0.877105 0.432766
O O13 0.000000 0.860152 0.250000
O O14 0.048695 0.604010 0.375729
O O15 0.799433 0.802690 0.731138
O O16 0.858793 0.888195 0.783801
#
# Coordination Sequence:
#
# PCOD8134513 Si02
#       8
#     8   8   8   8   8   8   8   4
#     4   9  19  36  58  82 110 140 183 234 269 320
#     4  10  19  36  57  76 106 149 185 223 265 323
#     4  10  21  35  56  83 112 147 179 223 279 324
#     4   9  20  35  54  85 108 138 183 229 278 322
#     4  11  21  34  56  81 115 143 176 227 279 329
#     4   9  18  34  57  81 105 143 178 223 280 317
#     4  10  19  37  60  79 108 149 190 218 265 329
#     4   8  18  34  52  80 108 140 180 214 266 340
#
# _framework density 18.235234999999999
#
# number of rings (size 3 to 8) (size 9 to 14) (size 15 to 20)
#    0.000    2.400    1.333    0.800    0.933    5.333 
#    2.400    0.000    2.933    0.000    0.000    0.000 
#    0.000    0.000    0.000    0.000    0.000    0.000 
#
# Total GULP energy -371765.864687 kJ/mol
# GULP energy per Si atom -12392.195490 kJ/mol
# Density = 1.819373 g / cm^3
# Si number density = 18.235235 Si / 1000 Ang^3
#
#
#
# Elastic Constant Matrix: (Units=GPa)
#
#
# Indices 1 2 3 4 5 6 
#
# 1 103.1740 40.5751 46.5654 -0.0009 6.0747 0.0006
# 2 40.5751 84.0874 48.9100 0.0009 14.9519 0.0005
# 3 46.5654 48.9100 97.3076 0.0082 4.2859 0.0001
# 4 -0.0009 0.0009 0.0082 22.0093 0.0017 -0.8455
# 5 6.0747 14.9519 4.2859 0.0017 25.5579 -0.0009
# 6 0.0006 0.0005 0.0001 -0.8455 -0.0009 11.6802
#
#
#
# Elastic Compliance Matrix: (Units=1/GPa)
#
#
# Indices 1 2 3 4 5 6 
#
# 1 0.013170 -0.003759 -0.004404 0.000002 -0.000193 0.000000
# 2 -0.003759 0.019924 -0.007799 0.000003 -0.009455 -0.000001
# 3 -0.004404 -0.007799 0.016177 -0.000006 0.002897 0.000000
# 4 0.000002 0.000003 -0.000006 0.045562 -0.000004 0.003298
# 5 -0.000193 -0.009455 0.002897 -0.000004 0.044218 0.000003
# 6 0.000000 -0.000001 0.000000 0.003298 0.000003 0.085854
#
#
# Mechanical properties :
#
#
# Convention : Reuss Voigt Hill
#
# Bulk Modulus (GPa) = 57.65144 61.85222 59.75183
# Shear Modulus (GPa) = 19.03957 21.75072 20.39515
#
# Velocity S-wave (km/s) = 3.23477 3.45742 3.34795
# Velocity P-wave (km/s) = 6.75542 7.06619 6.91255
#
# Compressibility (1/GPa) = 0.01734562
#
# Stress axis : x y z
#
# Youngs Moduli (GPa) = 75.93157 50.19150 61.81634
#
# Poissons Ratio (x) = 0.18865 0.27227
# Poissons Ratio (y) = 0.28540 0.48212
# Poissons Ratio (z) = 0.33444 0.39145
#
# Static dielectric constant tensor:
#      x y z
#    x 3.445350 0.000000 0.084080 
#    y 0.000000 3.048410 0.000010 
#    z 0.084080 0.000010 3.845790 
# 
# 
# High freq. dielectric constant tensor:
#      x y z
#    x 1.717640 0.000000 -0.003600 
#    y 0.000000 1.671610 0.000000 
#    z -0.003600 0.000000 1.718620 
# 
# From -- ./inp_files/274723.got.cif
#   From: 2010.06.25/outbox.cif.g09.slc.cpg/sg15_138_cif.got.tgz:274723.got - 2010.06.28 07:06:18.
