data_PCOD8134666
_publ_section_title
;
Structure prediction by ZEFSAII (Michael W. Deem and Ramdas Pophale) SiO2 
 PCOD8134666
Probable space group: C 2/C
;
_chemical_formula_sum "Si O2"
_cell_formula_units_Z 44
_cell_length_a 9.974618
_cell_length_b 22.067666
_cell_length_c 11.043413
_cell_angle_alpha 90.000000
_cell_angle_beta 62.424022
_cell_angle_gamma 90.000000
_cell_volume 2154.689180
_symmetry_space_group_name_H-M "C 2/C"
_symmetry_group_IT_number 15
_symmetry_cell_setting 'monoclinic'
loop_
_space_group_symop_operation_xyz
x,y,z
-x,y,1/2-z
-x,-y,-z
x,-y,1/2+z
1/2+x,1/2+y,z
1/2-x,1/2+y,1/2-z
1/2-x,1/2-y,-z
1/2+x,1/2-y,1/2+z
loop_
_atom_site_type_symbol
_atom_site_label
_atom_site_fract_x
_atom_site_fract_y
_atom_site_fract_z
Si Si1 0.722372 0.906148 0.785932
Si Si2 0.294584 0.772187 0.782332
Si Si3 0.784357 0.037663 0.507305
Si Si4 0.545831 0.716566 0.557965
Si Si5 0.000000 0.489931 0.750000
Si Si6 0.062874 0.080074 0.520318
O O1 0.670488 0.837732 0.786041
O O2 0.778295 0.915870 0.899037
O O3 0.579712 0.948528 0.817672
O O4 0.862374 0.922810 0.642903
O O5 0.362927 0.726972 0.649475
O O6 0.380726 0.760921 0.873297
O O7 0.115141 0.766247 0.895156
O O8 0.887115 0.065227 0.572105
O O9 0.617138 0.032166 0.630734
O O10 0.852901 0.971900 0.435559
O O11 0.582658 0.646111 0.572868
#
# Coordination Sequence:
#
# PCOD8134666 Si02
#       6
#     8   8   8   8   4   8
#     4  10  19  36  60  78 116 158 187 233 289 352
#     4   9  18  33  56  82 110 143 194 229 286 331
#     4  10  20  37  55  85 115 157 188 235 293 341
#     4   9  17  35  54  84 110 145 185 243 276 337
#     4  10  20  34  52  86 118 146 194 236 284 342
#     4   9  20  37  57  82 118 147 197 235 281 351
#
# _framework density 20.420579
#
# number of rings (size 3 to 8) (size 9 to 14) (size 15 to 20)
#    0.000    2.545    0.000    2.182    0.000    1.455 
#   22.909    0.909    0.000    0.000    0.000    0.000 
#    0.000    0.000    0.000    0.000    0.000    0.000 
#
# Total GULP energy -272545.825297 kJ/mol
# GULP energy per Si atom -12388.446604 kJ/mol
# Density = 2.037410 g / cm^3
# Si number density = 20.420579 Si / 1000 Ang^3
#
#
#
# Elastic Constant Matrix: (Units=GPa)
#
#
# Indices 1 2 3 4 5 6 
#
# 1 65.0147 33.3549 39.7784 0.0000 -12.7126 0.0000
# 2 33.3549 127.3689 53.4661 0.0000 -2.2559 0.0000
# 3 39.7784 53.4661 115.7581 0.0000 -28.0463 0.0000
# 4 0.0000 0.0000 0.0000 35.1244 0.0000 -1.4546
# 5 -12.7126 -2.2559 -28.0463 0.0000 37.9398 0.0000
# 6 0.0000 0.0000 0.0000 -1.4546 0.0000 21.6831
#
#
#
# Elastic Compliance Matrix: (Units=1/GPa)
#
#
# Indices 1 2 3 4 5 6 
#
# 1 0.020643 -0.003344 -0.004777 0.000000 0.003187 0.000000
# 2 -0.003344 0.010643 -0.004732 0.000000 -0.003986 0.000000
# 3 -0.004777 -0.004732 0.014630 0.000000 0.008933 0.000000
# 4 0.000000 0.000000 0.000000 0.028550 0.000000 0.001915
# 5 0.003187 -0.003986 0.008933 0.000000 0.033792 0.000000
# 6 0.000000 0.000000 0.000000 0.001915 0.000000 0.046247
#
#
# Mechanical properties :
#
#
# Convention : Reuss Voigt Hill
#
# Bulk Modulus (GPa) = 49.48232 62.37117 55.92675
# Shear Modulus (GPa) = 26.74549 31.05229 28.89889
#
# Velocity S-wave (km/s) = 3.62295 3.90376 3.76598
# Velocity P-wave (km/s) = 6.46415 7.13644 6.80860
#
# Compressibility (1/GPa) = 0.02020924
#
# Stress axis : x y z
#
# Youngs Moduli (GPa) = 48.44364 93.95975 68.35144
#
# Poissons Ratio (x) = 0.31422 0.32650
# Poissons Ratio (y) = 0.16200 0.32346
# Poissons Ratio (z) = 0.23140 0.44464
#
# Static dielectric constant tensor:
#      x y z
#    x 3.604420 0.000000 -0.593410 
#    y 0.000000 3.772730 0.000000 
#    z -0.593410 0.000000 4.010070 
# 
# 
# High freq. dielectric constant tensor:
#      x y z
#    x 1.766200 0.000000 -0.036380 
#    y 0.000000 1.796740 0.000000 
#    z -0.036380 0.000000 1.796270 
# 
# From -- ./inp_files/88301.got.cif
#   From: 2010.06.25/outbox.cif.g09.slc.cpg/sg15_45_cif.got.tgz:88301.got - 2010.06.28 07:06:18.
