data_PCOD8134781
_publ_section_title
;
Structure prediction by ZEFSAII (Michael W. Deem and Ramdas Pophale) SiO2 
 PCOD8134781
Probable space group: C 2/C
;
_chemical_formula_sum "Si O2"
_cell_formula_units_Z 32
_cell_length_a 20.002572
_cell_length_b 12.402779
_cell_length_c 13.714725
_cell_angle_alpha 90.000000
_cell_angle_beta 29.068252
_cell_angle_gamma 90.000000
_cell_volume 1653.084979
_symmetry_space_group_name_H-M "C 2/C"
_symmetry_group_IT_number 15
_symmetry_cell_setting 'monoclinic'
loop_
_space_group_symop_operation_xyz
x,y,z
-x,y,1/2-z
-x,-y,-z
x,-y,1/2+z
1/2+x,1/2+y,z
1/2-x,1/2+y,1/2-z
1/2-x,1/2-y,-z
1/2+x,1/2-y,1/2+z
loop_
_atom_site_type_symbol
_atom_site_label
_atom_site_fract_x
_atom_site_fract_y
_atom_site_fract_z
Si Si1 0.684483 0.632826 0.577724
Si Si2 0.970534 0.745457 0.451223
Si Si3 0.383828 0.972740 0.964265
Si Si4 0.794448 0.356106 0.733594
O O1 0.750000 0.750000 0.500000
O O2 0.747033 0.549944 0.576357
O O3 0.719642 0.591741 0.424102
O O4 0.526111 0.656678 0.810105
O O5 0.955752 0.636545 0.408714
O O6 0.819393 0.784391 0.679687
O O7 0.076287 0.722088 0.405016
O O8 0.500000 0.031392 0.750000
O O9 0.347053 0.046400 0.102021
#
# Coordination Sequence:
#
# PCOD8134781 Si02
#       4
#     8   8   8   8
#     4  10  19  36  62  87 114 149 198 250 281 341
#     4  11  20  41  60  88 119 153 196 245 290 347
#     4  12  21  37  62  90 115 156 201 240 294 354
#     4  11  23  35  65  89 117 153 201 244 292 347
#
# _framework density 19.357747
#
# number of rings (size 3 to 8) (size 9 to 14) (size 15 to 20)
#    0.000    1.000   10.000    1.500    0.000    1.000 
#    0.000    1.250    0.000    0.000    0.000    0.000 
#    0.000    0.000    0.000    0.000    0.000    0.000 
#
# Total GULP energy -198238.406638 kJ/mol
# GULP energy per Si atom -12389.900415 kJ/mol
# Density = 1.931369 g / cm^3
# Si number density = 19.357747 Si / 1000 Ang^3
#
#
#
# Elastic Constant Matrix: (Units=GPa)
#
#
# Indices 1 2 3 4 5 6 
#
# 1 98.8704 50.8977 68.8371 0.0000 -11.6121 0.0000
# 2 50.8977 60.8297 59.3647 0.0000 8.5871 0.0000
# 3 68.8371 59.3647 115.7121 0.0000 -1.6818 0.0000
# 4 0.0000 0.0000 0.0000 27.5295 0.0000 4.6677
# 5 -11.6121 8.5871 -1.6818 0.0000 40.6500 0.0000
# 6 0.0000 0.0000 0.0000 4.6677 0.0000 30.9384
#
#
#
# Elastic Compliance Matrix: (Units=1/GPa)
#
#
# Indices 1 2 3 4 5 6 
#
# 1 0.022944 -0.014699 -0.005972 0.000000 0.009412 0.000000
# 2 -0.014699 0.044909 -0.014503 0.000000 -0.014286 0.000000
# 3 -0.005972 -0.014503 0.019667 0.000000 0.002172 0.000000
# 4 0.000000 0.000000 0.000000 0.037278 0.000000 -0.005624
# 5 0.009412 -0.014286 0.002172 0.000000 0.030397 0.000000
# 6 0.000000 0.000000 0.000000 -0.005624 0.000000 0.033171
#
#
# Mechanical properties :
#
#
# Convention : Reuss Voigt Hill
#
# Bulk Modulus (GPa) = 58.23255 70.40125 64.31690
# Shear Modulus (GPa) = 18.90810 26.24443 22.57626
#
# Velocity S-wave (km/s) = 3.12873 3.68606 3.41877
# Velocity P-wave (km/s) = 6.57263 7.38671 6.99153
#
# Compressibility (1/GPa) = 0.01717253
#
# Stress axis : x y z
#
# Youngs Moduli (GPa) = 43.58398 22.26738 50.84690
#
# Poissons Ratio (x) = 0.32731 0.30364
# Poissons Ratio (y) = 0.64064 0.73744
# Poissons Ratio (z) = 0.26027 0.32295
#
# Static dielectric constant tensor:
#      x y z
#    x 3.791960 0.000000 -0.314430 
#    y 0.000000 3.129550 0.000000 
#    z -0.314430 0.000000 4.144140 
# 
# 
# High freq. dielectric constant tensor:
#      x y z
#    x 1.759700 0.000000 -0.027130 
#    y 0.000000 1.700420 0.000000 
#    z -0.027130 0.000000 1.756420 
# 
# From -- ./inp_files/83843.got.cif
#   From: 2010.06.25/outbox.cif.g09.slc.cpg/sg15_42_cif.got.tgz:83843.got - 2010.06.28 07:06:18.
