data_PCOD8134844
_publ_section_title
;
Structure prediction by ZEFSAII (Michael W. Deem and Ramdas Pophale) SiO2 
 PCOD8134844
Probable space group: C 2/C
;
_chemical_formula_sum "Si O2"
_cell_formula_units_Z 56
_cell_length_a 20.916595
_cell_length_b 10.480453
_cell_length_c 14.400101
_cell_angle_alpha 90.000000
_cell_angle_beta 66.556683
_cell_angle_gamma 90.000000
_cell_volume 2896.149196
_symmetry_space_group_name_H-M "C 2/C"
_symmetry_group_IT_number 15
_symmetry_cell_setting 'monoclinic'
loop_
_space_group_symop_operation_xyz
x,y,z
-x,y,1/2-z
-x,-y,-z
x,-y,1/2+z
1/2+x,1/2+y,z
1/2-x,1/2+y,1/2-z
1/2-x,1/2-y,-z
1/2+x,1/2-y,1/2+z
loop_
_atom_site_type_symbol
_atom_site_label
_atom_site_fract_x
_atom_site_fract_y
_atom_site_fract_z
Si Si1 0.527972 0.032723 0.630192
Si Si2 0.193683 0.651775 0.784219
Si Si3 0.310214 0.560501 0.241295
Si Si4 0.676540 0.409321 0.552692
Si Si5 0.442773 0.837362 0.035090
Si Si6 0.423521 0.549212 0.027958
Si Si7 0.325763 0.876868 0.414044
O O1 0.500000 0.009833 0.750000
O O2 0.489610 0.153071 0.602666
O O3 0.610915 0.044539 0.580973
O O4 0.516329 0.911214 0.570259
O O5 0.255985 0.553005 0.758333
O O6 0.218727 0.800992 0.777796
O O7 0.134924 0.613561 0.893286
O O8 0.159781 0.639067 0.702840
O O9 0.333151 0.562858 0.334074
O O10 0.379415 0.523951 0.145882
O O11 0.615138 0.482703 0.535789
O O12 0.673267 0.258671 0.533310
O O13 0.753597 0.453403 0.474195
O O14 0.432927 0.697118 0.001602
O O15 0.500000 0.500000 0.000000
#
# Coordination Sequence:
#
# PCOD8134844 Si02
#       7
#     8   8   8   8   8   8   8
#     4  11  21  39  61  88 121 161 201 245 304 357
#     4  10  19  40  61  90 123 155 209 251 301 365
#     4  10  22  39  62  91 121 162 203 254 307 365
#     4  10  21  38  62  89 119 151 203 248 301 363
#     4  10  23  40  60  88 126 158 202 252 302 368
#     4  11  23  43  61  87 125 158 201 255 313 367
#     4  10  19  36  64  88 114 157 201 243 297 369
#
# _framework density 19.336020000000001
#
# number of rings (size 3 to 8) (size 9 to 14) (size 15 to 20)
#    0.000    1.714    2.857    1.714    0.000    0.571 
#   10.286    2.143    0.000    0.000    0.000    0.000 
#    0.000    0.000    0.000    0.000    0.000    0.000 
#
# Total GULP energy -347073.927081 kJ/mol
# GULP energy per Si atom -12395.497396 kJ/mol
# Density = 1.929201 g / cm^3
# Si number density = 19.336020 Si / 1000 Ang^3
#
#
#
# Elastic Constant Matrix: (Units=GPa)
#
#
# Indices 1 2 3 4 5 6 
#
# 1 133.6336 57.9346 42.6902 0.0000 -7.7113 0.0000
# 2 57.9346 73.7343 36.8633 0.0000 4.6388 0.0000
# 3 42.6902 36.8633 104.0889 0.0000 8.9883 0.0000
# 4 0.0000 0.0000 0.0000 21.5645 0.0000 -3.7876
# 5 -7.7113 4.6388 8.9883 0.0000 26.6186 0.0000
# 6 0.0000 0.0000 0.0000 -3.7876 0.0000 33.6909
#
#
#
# Elastic Compliance Matrix: (Units=1/GPa)
#
#
# Indices 1 2 3 4 5 6 
#
# 1 0.012511 -0.008972 -0.002474 0.000000 0.006023 0.000000
# 2 -0.008972 0.022937 -0.003990 0.000000 -0.005249 0.000000
# 3 -0.002474 -0.003990 0.012398 0.000000 -0.004208 0.000000
# 4 0.000000 0.000000 0.000000 0.047307 0.000000 0.005318
# 5 0.006023 -0.005249 -0.004208 0.000000 0.041648 0.000000
# 6 0.000000 0.000000 0.000000 0.005318 0.000000 0.030280
#
#
# Mechanical properties :
#
#
# Convention : Reuss Voigt Hill
#
# Bulk Modulus (GPa) = 58.91388 65.15922 62.03655
# Shear Modulus (GPa) = 24.55678 27.97272 26.26475
#
# Velocity S-wave (km/s) = 3.56757 3.80763 3.68956
# Velocity P-wave (km/s) = 6.89237 7.28713 7.09249
#
# Compressibility (1/GPa) = 0.01697393
#
# Stress axis : x y z
#
# Youngs Moduli (GPa) = 79.93188 43.59785 80.65731
#
# Poissons Ratio (x) = 0.39117 0.19952
# Poissons Ratio (y) = 0.71716 0.32183
# Poissons Ratio (z) = 0.19772 0.17396
#
# Static dielectric constant tensor:
#      x y z
#    x 4.475770 0.000000 -1.740290 
#    y 0.000000 3.574020 0.000000 
#    z -1.740290 0.000000 6.485470 
# 
# 
# High freq. dielectric constant tensor:
#      x y z
#    x 1.751080 0.000000 -0.006720 
#    y 0.000000 1.740190 0.000000 
#    z -0.006720 0.000000 1.765490 
# 
# From -- ./inp_files/160834.got.cif
#   From: 2010.06.25/outbox.cif.g09.slc.cpg/sg15_81_cif.got.tgz:160834.got - 2010.06.28 07:06:18.
