data_PCOD8134245
_publ_section_title
;
Structure prediction by ZEFSAII (Michael W. Deem and Ramdas Pophale) SiO2 
 PCOD8134245
Probable space group: C 2/C
;
_chemical_formula_sum "Si O2"
_cell_formula_units_Z 56
_cell_length_a 8.765291
_cell_length_b 27.209617
_cell_length_c 17.147402
_cell_angle_alpha 90.000000
_cell_angle_beta 135.345054
_cell_angle_gamma 90.000000
_cell_volume 2874.357749
_symmetry_space_group_name_H-M "C 2/C"
_symmetry_group_IT_number 15
_symmetry_cell_setting 'monoclinic'
loop_
_space_group_symop_operation_xyz
x,y,z
-x,y,1/2-z
-x,-y,-z
x,-y,1/2+z
1/2+x,1/2+y,z
1/2-x,1/2+y,1/2-z
1/2-x,1/2-y,-z
1/2+x,1/2-y,1/2+z
loop_
_atom_site_type_symbol
_atom_site_label
_atom_site_fract_x
_atom_site_fract_y
_atom_site_fract_z
Si Si1 0.558653 0.161570 0.860201
Si Si2 0.482637 0.073333 0.946085
Si Si3 0.242738 0.022946 0.329820
Si Si4 0.554512 0.328422 0.550303
Si Si5 0.754855 0.722978 0.856103
Si Si6 0.327671 0.109988 0.254500
Si Si7 0.829492 0.353836 0.509742
O O1 0.500000 0.150545 0.750000
O O2 0.555884 0.110597 0.905848
O O3 0.388754 0.201163 0.831854
O O4 0.800544 0.183769 0.955292
O O5 0.312755 0.099934 0.943921
O O6 0.378638 0.026437 0.866775
O O7 0.689553 0.054132 0.069475
O O8 0.265110 0.056386 0.261828
O O9 0.000000 0.005033 0.250000
O O10 0.696227 0.279856 0.614583
O O11 0.610838 0.363625 0.643858
O O12 0.627869 0.354936 0.496425
O O13 0.500000 0.714604 0.750000
O O14 0.829559 0.696708 0.962412
O O15 0.500000 0.101724 0.250000
O O16 0.439056 0.143556 0.361789
#
# Coordination Sequence:
#
# PCOD8134245 Si02
#       7
#     8   8   8   8   8   8   8
#     4  11  24  39  56  82 117 149 186 234 280 329
#     4   9  21  38  55  82 112 144 187 229 278 338
#     4  10  19  35  59  81 107 145 187 231 279 331
#     4  11  21  37  59  85 113 146 189 233 278 326
#     4  11  22  38  58  83 114 152 191 226 275 334
#     4   9  19  35  56  84 114 145 185 234 281 330
#     4   9  19  36  58  82 113 150 186 228 278 334
#
# _framework density 19.482614000000002
#
# number of rings (size 3 to 8) (size 9 to 14) (size 15 to 20)
#    0.000    2.000    0.000    3.857    0.000    5.143 
#    0.000    2.143    0.000    8.571    0.000    0.000 
#    0.000    0.000    0.000    0.000    0.000    0.000 
#
# Total GULP energy -347221.163032 kJ/mol
# GULP energy per Si atom -12400.755823 kJ/mol
# Density = 1.943827 g / cm^3
# Si number density = 19.482614 Si / 1000 Ang^3
#
#
#
# Elastic Constant Matrix: (Units=GPa)
#
#
# Indices 1 2 3 4 5 6 
#
# 1 84.0029 28.2507 48.2837 0.0000 2.4821 0.0000
# 2 28.2507 95.3427 33.2502 0.0000 -11.5072 0.0000
# 3 48.2837 33.2502 90.0076 0.0000 0.7316 0.0000
# 4 0.0000 0.0000 0.0000 28.7043 0.0000 0.5887
# 5 2.4821 -11.5072 0.7316 0.0000 36.4539 0.0000
# 6 0.0000 0.0000 0.0000 0.5887 0.0000 16.8997
#
#
#
# Elastic Compliance Matrix: (Units=1/GPa)
#
#
# Indices 1 2 3 4 5 6 
#
# 1 0.017721 -0.002480 -0.008576 0.000000 -0.001817 0.000000
# 2 -0.002480 0.012965 -0.003494 0.000000 0.004331 0.000000
# 3 -0.008576 -0.003494 0.017008 0.000000 -0.000861 0.000000
# 4 0.000000 0.000000 0.000000 0.034863 0.000000 -0.001214
# 5 -0.001817 0.004331 -0.000861 0.000000 0.028940 0.000000
# 6 0.000000 0.000000 0.000000 -0.001214 0.000000 0.059215
#
#
# Mechanical properties :
#
#
# Convention : Reuss Voigt Hill
#
# Bulk Modulus (GPa) = 53.77785 54.32471 54.05128
# Shear Modulus (GPa) = 24.27074 27.04947 25.66011
#
# Velocity S-wave (km/s) = 3.53337 3.73015 3.63309
# Velocity P-wave (km/s) = 6.65651 6.81882 6.73815
#
# Compressibility (1/GPa) = 0.01859502
#
# Stress axis : x y z
#
# Youngs Moduli (GPa) = 56.43021 77.13300 58.79471
#
# Poissons Ratio (x) = 0.19125 0.50420
# Poissons Ratio (y) = 0.13992 0.20545
# Poissons Ratio (z) = 0.48392 0.26954
#
# Static dielectric constant tensor:
#      x y z
#    x 3.559540 0.000000 -0.147380 
#    y 0.000000 3.504960 0.000000 
#    z -0.147380 0.000000 3.680240 
# 
# 
# High freq. dielectric constant tensor:
#      x y z
#    x 1.753580 0.000000 -0.006100 
#    y 0.000000 1.759560 0.000000 
#    z -0.006100 0.000000 1.766030 
# 
# From -- ./inp_files/81421.got.cif
#   From: 2010.06.25/outbox.cif.g09.slc.cpg/sg15_41_cif.got.tgz:81421.got - 2010.06.28 07:06:18.
