data_PCOD8134508
_publ_section_title
;
Structure prediction by ZEFSAII (Michael W. Deem and Ramdas Pophale) SiO2 
 PCOD8134508
Probable space group: C 2/C
;
_chemical_formula_sum "Si O2"
_cell_formula_units_Z 56
_cell_length_a 20.453176
_cell_length_b 20.370432
_cell_length_c 9.891219
_cell_angle_alpha 90.000000
_cell_angle_beta 135.654318
_cell_angle_gamma 90.000000
_cell_volume 2880.574386
_symmetry_space_group_name_H-M "C 2/C"
_symmetry_group_IT_number 15
_symmetry_cell_setting 'monoclinic'
loop_
_space_group_symop_operation_xyz
x,y,z
-x,y,1/2-z
-x,-y,-z
x,-y,1/2+z
1/2+x,1/2+y,z
1/2-x,1/2+y,1/2-z
1/2-x,1/2-y,-z
1/2+x,1/2-y,1/2+z
loop_
_atom_site_type_symbol
_atom_site_label
_atom_site_fract_x
_atom_site_fract_y
_atom_site_fract_z
Si Si1 0.356415 0.957254 0.717771
Si Si2 0.610181 0.073990 0.921958
Si Si3 0.828383 0.745709 0.272802
Si Si4 0.973463 0.274752 0.520399
Si Si5 0.000000 0.839309 0.250000
Si Si6 0.000000 0.619997 0.250000
Si Si7 0.301745 0.643273 0.534567
Si Si8 0.158208 0.716970 0.922243
O O1 0.442667 0.924276 0.768089
O O2 0.258957 0.921851 0.539342
O O3 0.352457 0.029502 0.646843
O O4 0.370399 0.958185 0.901135
O O5 0.500000 0.088165 0.750000
O O6 0.667487 0.141427 0.985648
O O7 0.801649 0.816544 0.174507
O O8 0.861935 0.759614 0.474396
O O9 0.914964 0.711325 0.323651
O O10 0.741594 0.694530 0.139105
O O11 0.960368 0.204050 0.567910
O O12 0.933978 0.332491 0.559572
O O13 0.926481 0.276244 0.306020
O O14 0.092011 0.880553 0.343697
O O15 0.250000 0.750000 0.000000
#
# Coordination Sequence:
#
# PCOD8134508 Si02
#       8
#     8   8   8   8   4   4   8   8
#     4  12  25  40  65  89 133 166 213 256 313 386
#     4  12  26  43  61  94 130 172 207 257 316 379
#     4  10  19  36  56  87 123 159 204 261 307 372
#     4  10  20  33  57  88 125 165 201 255 312 371
#     4   9  20  36  60  88 120 157 208 256 316 363
#     4  11  20  36  60  90 122 173 202 252 308 379
#     4  10  20  37  60  88 117 159 209 253 309 374
#     4  12  24  35  58  90 129 164 204 257 314 369
#
# _framework density 19.440567999999999
#
# number of rings (size 3 to 8) (size 9 to 14) (size 15 to 20)
#    0.000    1.143    3.571    3.429    6.000    0.000 
#    0.000    0.000    0.000    0.857    5.571    0.000 
#    0.000    0.000    0.000    0.000    0.000    0.000 
#
# Total GULP energy -346981.277269 kJ/mol
# GULP energy per Si atom -12392.188474 kJ/mol
# Density = 1.939632 g / cm^3
# Si number density = 19.440568 Si / 1000 Ang^3
#
#
#
# Elastic Constant Matrix: (Units=GPa)
#
#
# Indices 1 2 3 4 5 6 
#
# 1 92.9594 44.1544 33.5789 0.0000 4.9789 0.0000
# 2 44.1544 70.8232 37.3831 0.0000 1.2914 0.0000
# 3 33.5789 37.3831 128.3326 0.0000 -22.8559 0.0000
# 4 0.0000 0.0000 0.0000 19.8490 0.0000 -3.0323
# 5 4.9789 1.2914 -22.8559 0.0000 43.4286 0.0000
# 6 0.0000 0.0000 0.0000 -3.0323 0.0000 28.9849
#
#
#
# Elastic Compliance Matrix: (Units=1/GPa)
#
#
# Indices 1 2 3 4 5 6 
#
# 1 0.015775 -0.008698 -0.002063 0.000000 -0.002636 0.000000
# 2 -0.008698 0.021940 -0.004473 0.000000 -0.002009 0.000000
# 3 -0.002063 -0.004473 0.010704 0.000000 0.006003 0.000000
# 4 0.000000 0.000000 0.000000 0.051199 0.000000 0.005356
# 5 -0.002636 -0.002009 0.006003 0.000000 0.026548 0.000000
# 6 0.000000 0.000000 0.000000 0.005356 0.000000 0.035061
#
#
# Mechanical properties :
#
#
# Convention : Reuss Voigt Hill
#
# Bulk Modulus (GPa) = 55.70782 58.03867 56.87324
# Shear Modulus (GPa) = 25.29351 30.25243 27.77297
#
# Velocity S-wave (km/s) = 3.61095 3.94909 3.78379
# Velocity P-wave (km/s) = 6.78991 7.12130 6.95758
#
# Compressibility (1/GPa) = 0.01795080
#
# Stress axis : x y z
#
# Youngs Moduli (GPa) = 63.39032 45.57886 93.42007
#
# Poissons Ratio (x) = 0.39644 0.19277
# Poissons Ratio (y) = 0.55136 0.41788
# Poissons Ratio (z) = 0.13081 0.20388
#
# Static dielectric constant tensor:
#      x y z
#    x 4.064950 0.000000 -0.478490 
#    y 0.000000 3.399860 0.000000 
#    z -0.478490 0.000000 4.180360 
# 
# 
# High freq. dielectric constant tensor:
#      x y z
#    x 1.759110 0.000000 -0.012890 
#    y 0.000000 1.722550 0.000000 
#    z -0.012890 0.000000 1.765040 
# 
# From -- ./inp_files/57948.got.cif
#   From: 2010.06.25/outbox.cif.g09.slc.cpg/sg15_29_cif.got.tgz:57948.got - 2010.06.28 07:06:18.
