data_PCOD8134025
_publ_section_title
;
Structure prediction by ZEFSAII (Michael W. Deem and Ramdas Pophale) SiO2 
 PCOD8134025
Probable space group: C 2/C
;
_chemical_formula_sum "Si O2"
_cell_formula_units_Z 64
_cell_length_a 8.528562
_cell_length_b 23.823516
_cell_length_c 21.011372
_cell_angle_alpha 90.000000
_cell_angle_beta 123.759169
_cell_angle_gamma 90.000000
_cell_volume 3549.245297
_symmetry_space_group_name_H-M "C 2/C"
_symmetry_group_IT_number 15
_symmetry_cell_setting 'monoclinic'
loop_
_space_group_symop_operation_xyz
x,y,z
-x,y,1/2-z
-x,-y,-z
x,-y,1/2+z
1/2+x,1/2+y,z
1/2-x,1/2+y,1/2-z
1/2-x,1/2-y,-z
1/2+x,1/2-y,1/2+z
loop_
_atom_site_type_symbol
_atom_site_label
_atom_site_fract_x
_atom_site_fract_y
_atom_site_fract_z
Si Si1 0.194043 0.676898 0.820648
Si Si2 0.941630 0.791115 0.165289
Si Si3 0.169752 0.550605 0.830348
Si Si4 0.947699 0.989093 0.060144
Si Si5 0.286073 0.883519 0.460626
Si Si6 0.845442 0.421816 0.023329
Si Si7 0.745304 0.702439 0.051277
Si Si8 0.687757 0.692301 0.516325
O O1 0.369586 0.710436 0.832938
O O2 0.214666 0.611064 0.809504
O O3 0.185876 0.688027 0.892966
O O4 0.000000 0.701902 0.750000
O O5 0.796655 0.839256 0.109310
O O6 0.852365 0.728323 0.136899
O O7 0.000000 0.803393 0.250000
O O8 0.348863 0.509385 0.858291
O O9 0.125554 0.558829 0.896283
O O10 0.000000 0.524096 0.750000
O O11 0.874594 0.926431 0.054577
O O12 0.790865 0.034597 0.045364
O O13 0.000000 0.000000 0.000000
O O14 0.455042 0.918877 0.467602
O O15 0.344035 0.851460 0.539713
O O16 0.747966 0.361699 0.989291
O O17 0.750000 0.750000 0.000000
O O18 0.533359 0.687181 0.021845
O O19 0.750000 0.750000 0.500000
#
# Coordination Sequence:
#
# PCOD8134025 Si02
#       8
#     8   8   8   8   8   8   8   8
#     4  10  20  33  51  80 116 143 181 230 286 333
#     4  11  23  34  54  86 116 148 184 234 289 335
#     4   9  18  34  53  80 113 146 179 230 292 334
#     4  10  19  36  56  82 110 143 184 234 278 331
#     4  11  20  36  56  82 114 149 187 239 281 332
#     4  10  22  32  57  86 109 144 193 235 280 328
#     4  10  19  35  53  76 112 146 187 224 277 336
#     4  11  20  35  55  82 111 149 188 232 278 335
#
# _framework density 18.032003
#
# number of rings (size 3 to 8) (size 9 to 14) (size 15 to 20)
#    0.000    1.750    3.750    3.375    7.000    0.000 
#    0.000    0.000    0.000    6.750    0.000    4.375 
#    0.000    0.000    0.000    0.000    0.000    0.000 
#
# Total GULP energy -396497.639609 kJ/mol
# GULP energy per Si atom -12390.551238 kJ/mol
# Density = 1.799096 g / cm^3
# Si number density = 18.032003 Si / 1000 Ang^3
#
#
#
# Elastic Constant Matrix: (Units=GPa)
#
#
# Indices 1 2 3 4 5 6 
#
# 1 85.4847 25.6540 32.6252 0.0000 19.4735 0.0000
# 2 25.6540 77.3796 50.4758 0.0000 5.9201 0.0000
# 3 32.6252 50.4758 103.5963 0.0000 23.0435 0.0000
# 4 0.0000 0.0000 0.0000 7.1007 0.0000 -10.1482
# 5 19.4735 5.9201 23.0435 0.0000 29.2092 0.0000
# 6 0.0000 0.0000 0.0000 -10.1482 0.0000 15.8545
#
#
#
# Elastic Compliance Matrix: (Units=1/GPa)
#
#
# Indices 1 2 3 4 5 6 
#
# 1 0.015149 -0.003654 -0.001102 0.000000 -0.008490 0.000000
# 2 -0.003654 0.020255 -0.010123 0.000000 0.006317 0.000000
# 3 -0.001102 -0.010123 0.017359 0.000000 -0.010908 0.000000
# 4 0.000000 0.000000 0.000000 1.652820 0.000000 1.057943
# 5 -0.008490 0.006317 -0.010908 0.000000 0.047221 0.000000
# 6 0.000000 0.000000 0.000000 1.057943 0.000000 0.740246
#
#
# Mechanical properties :
#
#
# Convention : Reuss Voigt Hill
#
# Bulk Modulus (GPa) = 43.47085 53.77450 48.62268
# Shear Modulus (GPa) = 1.97591 20.94659 11.46125
#
# Velocity S-wave (km/s) = 1.04793 3.41197 2.52386
# Velocity P-wave (km/s) = 5.06203 6.73858 5.95956
#
# Compressibility (1/GPa) = 0.02300392
#
# Stress axis : x y z
#
# Youngs Moduli (GPa) = 66.01026 49.37038 57.60784
#
# Poissons Ratio (x) = 0.18040 0.06349
# Poissons Ratio (y) = 0.24120 0.58319
# Poissons Ratio (z) = 0.07275 0.49980
#
# Static dielectric constant tensor:
#      x y z
#    x 3.198490 0.000000 0.162600 
#    y 0.000000 3.535030 0.000000 
#    z 0.162600 0.000000 3.547680 
# 
# 
# High freq. dielectric constant tensor:
#      x y z
#    x 1.705280 0.000000 0.016970 
#    y 0.000000 1.686220 0.000000 
#    z 0.016970 0.000000 1.679890 
# 
# From -- ./inp_files/233902.got.cif
#   From: 2010.06.25/outbox.cif.g09.slc.cpg/sg15_117_cif.got.tgz:233902.got - 2010.06.28 07:06:18.
