data_PCOD8134779
_publ_section_title
;
Structure prediction by ZEFSAII (Michael W. Deem and Ramdas Pophale) SiO2 
 PCOD8134779
Probable space group: C 2/C
;
_chemical_formula_sum "Si O2"
_cell_formula_units_Z 60
_cell_length_a 29.470043
_cell_length_b 12.648651
_cell_length_c 16.794442
_cell_angle_alpha 90.000000
_cell_angle_beta 151.674648
_cell_angle_gamma 90.000000
_cell_volume 2970.341699
_symmetry_space_group_name_H-M "C 2/C"
_symmetry_group_IT_number 15
_symmetry_cell_setting 'monoclinic'
loop_
_space_group_symop_operation_xyz
x,y,z
-x,y,1/2-z
-x,-y,-z
x,-y,1/2+z
1/2+x,1/2+y,z
1/2-x,1/2+y,1/2-z
1/2-x,1/2-y,-z
1/2+x,1/2-y,1/2+z
loop_
_atom_site_type_symbol
_atom_site_label
_atom_site_fract_x
_atom_site_fract_y
_atom_site_fract_z
Si Si1 0.127040 0.673441 0.023406
Si Si2 0.664177 0.397981 0.899556
Si Si3 0.674145 0.232889 0.270672
Si Si4 0.970049 0.476163 0.328683
Si Si5 0.776671 0.417995 0.510855
Si Si6 0.789444 0.758401 0.671621
Si Si7 0.500000 0.654045 0.250000
Si Si8 0.527704 0.170083 0.515875
O O1 0.179969 0.687738 0.190091
O O2 0.213035 0.659985 0.092029
O O3 0.052970 0.574873 0.900826
O O4 0.068212 0.777645 0.911728
O O5 0.660883 0.302875 0.831143
O O6 0.562986 0.416700 0.787329
O O7 0.688760 0.505105 0.892584
O O8 0.742057 0.357179 0.083952
O O9 0.740315 0.337296 0.385537
O O10 0.707680 0.141530 0.381917
O O11 0.561574 0.251086 0.115224
O O12 0.870236 0.511140 0.131149
O O13 0.950945 0.389500 0.367468
O O14 0.013240 0.584451 0.426059
O O15 0.879929 0.737088 0.868797
#
# Coordination Sequence:
#
# PCOD8134779 Si02
#       8
#     8   8   8   8   8   8   4   8
#     4  10  21  36  55  88 121 155 194 254 293 349
#     4  10  20  35  57  83 111 155 194 242 300 353
#     4   9  20  37  59  85 122 151 196 251 304 348
#     4   9  17  31  60  82 109 149 204 236 289 346
#     4  10  19  36  62  86 114 162 198 245 296 361
#     4  10  20  34  56  83 120 149 194 248 298 346
#     4  10  22  38  58  84 118 148 194 254 294 356
#     4   9  16  33  56  82 107 154 192 243 292 359
#
# _framework density 20.199697
#
# number of rings (size 3 to 8) (size 9 to 14) (size 15 to 20)
#    0.000    2.400    1.333    2.400    3.733    0.000 
#    2.400    4.000    0.000    1.600    0.000    0.000 
#    0.000    0.000    0.000    0.000    0.000    0.000 
#
# Total GULP energy -371652.840439 kJ/mol
# GULP energy per Si atom -12388.428015 kJ/mol
# Density = 2.015372 g / cm^3
# Si number density = 20.199697 Si / 1000 Ang^3
#
#
#
# Elastic Constant Matrix: (Units=GPa)
#
#
# Indices 1 2 3 4 5 6 
#
# 1 76.3135 19.2640 31.2841 0.0000 23.7178 0.0000
# 2 19.2640 58.2432 38.8198 0.0000 15.4895 0.0000
# 3 31.2841 38.8198 106.4176 0.0000 18.3172 0.0000
# 4 0.0000 0.0000 0.0000 36.3721 0.0000 6.2936
# 5 23.7178 15.4895 18.3172 0.0000 39.4782 0.0000
# 6 0.0000 0.0000 0.0000 6.2936 0.0000 16.9959
#
#
#
# Elastic Compliance Matrix: (Units=1/GPa)
#
#
# Indices 1 2 3 4 5 6 
#
# 1 0.017365 -0.001410 -0.003141 0.000000 -0.008422 0.000000
# 2 -0.001410 0.023954 -0.007446 0.000000 -0.005096 0.000000
# 3 -0.003141 -0.007446 0.013269 0.000000 -0.001348 0.000000
# 4 0.000000 0.000000 0.000000 0.029376 0.000000 -0.010878
# 5 -0.008422 -0.005096 -0.001348 0.000000 0.033015 0.000000
# 6 0.000000 0.000000 0.000000 -0.010878 0.000000 0.062866
#
#
# Mechanical properties :
#
#
# Convention : Reuss Voigt Hill
#
# Bulk Modulus (GPa) = 32.68747 46.63445 39.66096
# Shear Modulus (GPa) = 23.36046 28.67635 26.01841
#
# Velocity S-wave (km/s) = 3.40439 3.77190 3.59285
# Velocity P-wave (km/s) = 5.62765 6.48895 6.07359
#
# Compressibility (1/GPa) = 0.03059276
#
# Stress axis : x y z
#
# Youngs Moduli (GPa) = 57.58764 41.74618 75.36597
#
# Poissons Ratio (x) = 0.05888 0.23670
# Poissons Ratio (y) = 0.08122 0.56121
# Poissons Ratio (z) = 0.18087 0.31086
#
# Static dielectric constant tensor:
#      x y z
#    x 3.602530 0.000000 0.176110 
#    y 0.000000 3.387390 0.000000 
#    z 0.176110 0.000000 3.881450 
# 
# 
# High freq. dielectric constant tensor:
#      x y z
#    x 1.772510 0.000000 0.011220 
#    y 0.000000 1.760900 0.000000 
#    z 0.011220 0.000000 1.794820 
# 
# From -- ./inp_files/225028.got.cif
#   From: 2010.06.25/outbox.cif.g09.slc.cpg/sg15_113_cif.got.tgz:225028.got - 2010.06.28 07:06:18.
