data_PCOD8134259
_publ_section_title
;
Structure prediction by ZEFSAII (Michael W. Deem and Ramdas Pophale) SiO2 
 PCOD8134259
Probable space group: C 2/C
;
_chemical_formula_sum "Si O2"
_cell_formula_units_Z 40
_cell_length_a 11.838681
_cell_length_b 9.153283
_cell_length_c 16.527777
_cell_angle_alpha 90.000000
_cell_angle_beta 86.996576
_cell_angle_gamma 90.000000
_cell_volume 1788.536050
_symmetry_space_group_name_H-M "C 2/C"
_symmetry_group_IT_number 15
_symmetry_cell_setting 'monoclinic'
loop_
_space_group_symop_operation_xyz
x,y,z
-x,y,1/2-z
-x,-y,-z
x,-y,1/2+z
1/2+x,1/2+y,z
1/2-x,1/2+y,1/2-z
1/2-x,1/2-y,-z
1/2+x,1/2-y,1/2+z
loop_
_atom_site_type_symbol
_atom_site_label
_atom_site_fract_x
_atom_site_fract_y
_atom_site_fract_z
Si Si1 0.376523 0.307362 0.563998
Si Si2 0.890390 0.011192 0.202585
Si Si3 0.690312 0.791914 0.761489
Si Si4 0.879016 0.662218 0.408829
Si Si5 0.953686 0.457070 0.164409
O O1 0.435351 0.439675 0.611493
O O2 0.248277 0.363815 0.555603
O O3 0.433985 0.271021 0.474845
O O4 0.380999 0.164800 0.621868
O O5 0.816151 0.145988 0.241118
O O6 0.000000 0.976780 0.250000
O O7 0.808348 0.869305 0.198576
O O8 0.620442 0.767956 0.680535
O O9 0.625545 0.901763 0.822587
O O10 0.944295 0.507579 0.399102
O O11 0.000000 0.400740 0.250000
#
# Coordination Sequence:
#
# PCOD8134259 Si02
#       5
#     8   8   8   8   8
#     4  10  20  34  57  85 114 149 189 231 281 336
#     4  11  22  38  60  85 113 147 191 236 278 331
#     4  10  21  38  59  82 112 149 190 232 279 336
#     4   9  19  35  56  82 115 151 185 228 284 336
#     4  10  19  35  59  84 112 149 190 232 278 333
#
# _framework density 22.364661000000002
#
# number of rings (size 3 to 8) (size 9 to 14) (size 15 to 20)
#    0.000    2.000    0.000    5.400    0.000    3.200 
#    0.000    5.000    0.000   13.200    0.000    0.000 
#    0.000    0.000    0.000    0.000    0.000    0.000 
#
# Total GULP energy -247781.771481 kJ/mol
# GULP energy per Si atom -12389.088574 kJ/mol
# Density = 2.231376 g / cm^3
# Si number density = 22.364661 Si / 1000 Ang^3
#
#
#
# Elastic Constant Matrix: (Units=GPa)
#
#
# Indices 1 2 3 4 5 6 
#
# 1 77.9438 28.1532 7.0021 0.0000 -1.8436 0.0000
# 2 28.1532 107.4843 29.0729 0.0000 -4.0886 0.0000
# 3 7.0021 29.0729 70.7708 0.0000 -0.8918 0.0000
# 4 0.0000 0.0000 0.0000 14.3144 0.0000 -6.6105
# 5 -1.8436 -4.0886 -0.8918 0.0000 17.7349 0.0000
# 6 0.0000 0.0000 0.0000 -6.6105 0.0000 27.7008
#
#
#
# Elastic Compliance Matrix: (Units=1/GPa)
#
#
# Indices 1 2 3 4 5 6 
#
# 1 0.014178 -0.003727 0.000136 0.000000 0.000622 0.000000
# 2 -0.003727 0.011533 -0.004343 0.000000 0.002053 0.000000
# 3 0.000136 -0.004343 0.015898 0.000000 -0.000188 0.000000
# 4 0.000000 0.000000 0.000000 0.078513 0.000000 0.018736
# 5 0.000622 0.002053 -0.000188 0.000000 0.056914 0.000000
# 6 0.000000 0.000000 0.000000 0.018736 0.000000 0.040571
#
#
# Mechanical properties :
#
#
# Convention : Reuss Voigt Hill
#
# Bulk Modulus (GPa) = 38.84748 42.73948 40.79348
# Shear Modulus (GPa) = 20.65637 24.74807 22.70222
#
# Velocity S-wave (km/s) = 3.04240 3.33012 3.18951
# Velocity P-wave (km/s) = 5.45430 5.82564 5.64302
#
# Compressibility (1/GPa) = 0.02574169
#
# Stress axis : x y z
#
# Youngs Moduli (GPa) = 70.52995 86.71013 62.89930
#
# Poissons Ratio (x) = 0.32316 -0.00856
# Poissons Ratio (y) = 0.26286 0.27317
# Poissons Ratio (z) = -0.00959 0.37659
#
# Static dielectric constant tensor:
#      x y z
#    x 3.875370 0.000000 0.041840 
#    y 0.000000 3.929770 0.000000 
#    z 0.041840 0.000000 4.422290 
# 
# 
# High freq. dielectric constant tensor:
#      x y z
#    x 1.865260 0.000000 -0.000810 
#    y 0.000000 1.871640 0.000000 
#    z -0.000810 0.000000 1.874290 
# 
# From -- ./inp_files/150686.got.cif
#   From: 2010.06.25/outbox.cif.g09.slc.cpg/sg15_76_cif.got.tgz:150686.got - 2010.06.28 07:06:18.
