data_PCOD8134355
_publ_section_title
;
Structure prediction by ZEFSAII (Michael W. Deem and Ramdas Pophale) SiO2 
 PCOD8134355
Probable space group: C 2/C
;
_chemical_formula_sum "Si O2"
_cell_formula_units_Z 64
_cell_length_a 19.835290
_cell_length_b 9.252903
_cell_length_c 16.834599
_cell_angle_alpha 90.000000
_cell_angle_beta 79.916183
_cell_angle_gamma 90.000000
_cell_volume 3041.993594
_symmetry_space_group_name_H-M "C 2/C"
_symmetry_group_IT_number 15
_symmetry_cell_setting 'monoclinic'
loop_
_space_group_symop_operation_xyz
x,y,z
-x,y,1/2-z
-x,-y,-z
x,-y,1/2+z
1/2+x,1/2+y,z
1/2-x,1/2+y,1/2-z
1/2-x,1/2-y,-z
1/2+x,1/2-y,1/2+z
loop_
_atom_site_type_symbol
_atom_site_label
_atom_site_fract_x
_atom_site_fract_y
_atom_site_fract_z
Si Si1 0.184979 0.524135 0.175328
Si Si2 0.061369 0.299872 0.934155
Si Si3 0.686745 0.977838 0.859562
Si Si4 0.447512 0.485225 0.583550
Si Si5 0.180385 0.812578 0.861779
Si Si6 0.456581 0.271124 0.879307
Si Si7 0.819004 0.193302 0.323883
Si Si8 0.965530 0.455603 0.836210
O O1 0.171013 0.550608 0.270805
O O2 0.246143 0.621974 0.129638
O O3 0.205498 0.357645 0.157464
O O4 0.116084 0.570496 0.143450
O O5 0.130035 0.392826 0.920278
O O6 0.072432 0.147416 0.885226
O O7 0.998425 0.385454 0.907411
O O8 0.045020 0.270878 0.028339
O O9 0.761037 0.915813 0.867302
O O10 0.681699 0.144916 0.884526
O O11 0.500000 0.500000 0.500000
O O12 0.378401 0.396128 0.576451
O O13 0.486318 0.395822 0.645175
O O14 0.165572 0.836692 0.771601
O O15 0.385781 0.337113 0.862462
O O16 0.479499 0.127675 0.828418
O O17 0.000000 0.388412 0.750000
#
# Coordination Sequence:
#
# PCOD8134355 Si02
#       8
#     8   8   8   8   8   8   8   8
#     4   9  19  36  57  89 126 152 198 263 305 356
#     4  11  22  39  59  87 127 166 198 252 310 370
#     4  10  19  35  61  89 120 160 207 251 308 365
#     4  10  23  40  59  85 124 163 203 249 307 371
#     4  10  20  37  62  90 121 160 205 259 311 356
#     4  10  23  39  61  86 123 166 205 249 307 371
#     4   9  20  36  59  91 118 160 205 257 299 367
#     4  11  21  38  63  91 122 156 208 259 301 365
#
# _framework density 21.038834000000001
#
# number of rings (size 3 to 8) (size 9 to 14) (size 15 to 20)
#    0.000    2.000    1.250    1.875    3.500    3.500 
#    2.250    1.250    0.000    9.000    0.000    0.000 
#    0.000    0.000    0.000    0.000    0.000    0.000 
#
# Total GULP energy -396785.284656 kJ/mol
# GULP energy per Si atom -12399.540145 kJ/mol
# Density = 2.099095 g / cm^3
# Si number density = 21.038834 Si / 1000 Ang^3
#
#
#
# Elastic Constant Matrix: (Units=GPa)
#
#
# Indices 1 2 3 4 5 6 
#
# 1 142.8893 78.5926 37.6116 0.0000 1.6259 0.0000
# 2 78.5926 127.9687 10.9558 0.0000 -9.1724 0.0000
# 3 37.6116 10.9558 48.2224 0.0000 3.0985 0.0000
# 4 0.0000 0.0000 0.0000 23.6319 0.0000 0.4286
# 5 1.6259 -9.1724 3.0985 0.0000 32.2908 0.0000
# 6 0.0000 0.0000 0.0000 0.4286 0.0000 47.5861
#
#
#
# Elastic Compliance Matrix: (Units=1/GPa)
#
#
# Indices 1 2 3 4 5 6 
#
# 1 0.013561 -0.007732 -0.008689 0.000000 -0.002045 0.000000
# 2 -0.007732 0.012575 0.002937 0.000000 0.003680 0.000000
# 3 -0.008689 0.002937 0.026932 0.000000 -0.001313 0.000000
# 4 0.000000 0.000000 0.000000 0.042323 0.000000 -0.000381
# 5 -0.002045 0.003680 -0.001313 0.000000 0.032243 0.000000
# 6 0.000000 0.000000 0.000000 -0.000381 0.000000 0.021018
#
#
# Mechanical properties :
#
#
# Convention : Reuss Voigt Hill
#
# Bulk Modulus (GPa) = 38.31396 63.71115 51.01255
# Shear Modulus (GPa) = 27.12677 33.49646 30.31162
#
# Velocity S-wave (km/s) = 3.59467 3.99447 3.79983
# Velocity P-wave (km/s) = 5.95647 7.18490 6.59933
#
# Compressibility (1/GPa) = 0.02610015
#
# Stress axis : x y z
#
# Youngs Moduli (GPa) = 73.73823 79.52246 37.13084
#
# Poissons Ratio (x) = 0.61483 0.32265
# Poissons Ratio (y) = 0.57011 -0.10905
# Poissons Ratio (z) = 0.64075 -0.23355
#
# Static dielectric constant tensor:
#      x y z
#    x 3.918990 0.000000 0.112290 
#    y 0.000000 4.308940 0.000000 
#    z 0.112290 0.000000 3.456340 
# 
# 
# High freq. dielectric constant tensor:
#      x y z
#    x 1.836480 0.000000 0.000320 
#    y 0.000000 1.832260 0.000000 
#    z 0.000320 0.000000 1.793550 
# 
# From -- ./inp_files/247481.got.cif
#   From: 2010.06.25/outbox.cif.g09.slc.cpg/sg15_124_cif.got.tgz:247481.got - 2010.06.28 07:06:18.
