data_PCOD8134896
_publ_section_title
;
Structure prediction by ZEFSAII (Michael W. Deem and Ramdas Pophale) SiO2 
 PCOD8134896
Probable space group: C 2/C
;
_chemical_formula_sum "Si O2"
_cell_formula_units_Z 56
_cell_length_a 15.507386
_cell_length_b 18.421306
_cell_length_c 11.897784
_cell_angle_alpha 90.000000
_cell_angle_beta 59.375688
_cell_angle_gamma 90.000000
_cell_volume 2924.752131
_symmetry_space_group_name_H-M "C 2/C"
_symmetry_group_IT_number 15
_symmetry_cell_setting 'monoclinic'
loop_
_space_group_symop_operation_xyz
x,y,z
-x,y,1/2-z
-x,-y,-z
x,-y,1/2+z
1/2+x,1/2+y,z
1/2-x,1/2+y,1/2-z
1/2-x,1/2-y,-z
1/2+x,1/2-y,1/2+z
loop_
_atom_site_type_symbol
_atom_site_label
_atom_site_fract_x
_atom_site_fract_y
_atom_site_fract_z
Si Si1 0.775192 0.432680 0.713933
Si Si2 0.629437 0.834460 0.275837
Si Si3 0.589939 0.113460 0.567345
Si Si4 0.206188 0.792382 0.858184
Si Si5 0.246140 0.079989 0.633887
Si Si6 0.616900 0.708527 0.656092
Si Si7 0.395057 0.043874 0.347022
O O1 0.842915 0.382686 0.588076
O O2 0.700596 0.376624 0.824638
O O3 0.719235 0.495361 0.677746
O O4 0.840448 0.472406 0.765809
O O5 0.516581 0.851328 0.389393
O O6 0.643449 0.842925 0.132719
O O7 0.657886 0.752478 0.288362
O O8 0.704361 0.888663 0.287751
O O9 0.573345 0.030402 0.613886
O O10 0.319975 0.766313 0.811048
O O11 0.137967 0.778515 0.011495
O O12 0.147098 0.125816 0.669989
O O13 0.323325 0.089462 0.477827
O O14 0.500000 0.721019 0.750000
O O15 0.500000 0.085883 0.250000
#
# Coordination Sequence:
#
# PCOD8134896 Si02
#       7
#     8   8   8   8   8   8   8
#     4  11  21  34  57  88 118 150 193 241 286 338
#     4  10  19  37  52  83 123 153 191 225 291 350
#     4  10  20  33  56  84 119 160 184 230 291 352
#     4  10  23  38  60  88 117 148 196 241 282 349
#     4  10  20  36  59  83 118 153 192 240 285 345
#     4  10  22  42  62  84 113 156 193 239 290 337
#     4  11  18  31  55  90 121 146 186 238 293 346
#
# _framework density 19.146920999999999
#
# number of rings (size 3 to 8) (size 9 to 14) (size 15 to 20)
#    0.000    1.714    4.286    0.857    2.000    3.429 
#    0.000    0.714    3.143    0.000    0.000    0.000 
#    0.000    0.000    0.000    0.000    0.000    0.000 
#
# Total GULP energy -347140.267576 kJ/mol
# GULP energy per Si atom -12397.866699 kJ/mol
# Density = 1.910334 g / cm^3
# Si number density = 19.146921 Si / 1000 Ang^3
#
#
#
# Elastic Constant Matrix: (Units=GPa)
#
#
# Indices 1 2 3 4 5 6 
#
# 1 76.5230 23.2368 26.3728 0.0000 -5.4376 0.0000
# 2 23.2368 78.7227 15.5078 0.0000 -0.9070 0.0000
# 3 26.3728 15.5078 62.7108 0.0000 -3.2662 0.0000
# 4 0.0000 0.0000 0.0000 26.8213 0.0000 3.4475
# 5 -5.4376 -0.9070 -3.2662 0.0000 26.5890 0.0000
# 6 0.0000 0.0000 0.0000 3.4475 0.0000 17.3656
#
#
#
# Elastic Compliance Matrix: (Units=1/GPa)
#
#
# Indices 1 2 3 4 5 6 
#
# 1 0.016371 -0.003651 -0.005852 0.000000 0.002505 0.000000
# 2 -0.003651 0.014167 -0.001995 0.000000 -0.000508 0.000000
# 3 -0.005852 -0.001995 0.018956 0.000000 0.001064 0.000000
# 4 0.000000 0.000000 0.000000 0.038260 0.000000 -0.007596
# 5 0.002505 -0.000508 0.001064 0.000000 0.038235 0.000000
# 6 0.000000 0.000000 0.000000 -0.007596 0.000000 0.059093
#
#
# Mechanical properties :
#
#
# Convention : Reuss Voigt Hill
#
# Bulk Modulus (GPa) = 37.73522 38.68791 38.21156
# Shear Modulus (GPa) = 23.05103 24.34446 23.69774
#
# Velocity S-wave (km/s) = 3.47349 3.56962 3.52188
# Velocity P-wave (km/s) = 5.98648 6.10239 6.04471
#
# Compressibility (1/GPa) = 0.02650044
#
# Stress axis : x y z
#
# Youngs Moduli (GPa) = 61.08279 70.58411 52.75444
#
# Poissons Ratio (x) = 0.25769 0.30870
# Poissons Ratio (y) = 0.22300 0.10523
# Poissons Ratio (z) = 0.35743 0.14079
#
# Static dielectric constant tensor:
#      x y z
#    x 3.328600 0.000000 0.228590 
#    y 0.000000 3.450550 0.000000 
#    z 0.228590 0.000000 3.626080 
# 
# 
# High freq. dielectric constant tensor:
#      x y z
#    x 1.722160 0.000000 0.025270 
#    y 0.000000 1.740690 0.000000 
#    z 0.025270 0.000000 1.743780 
# 
# From -- ./inp_files/98372.got.cif
#   From: 2010.06.25/outbox.cif.g09.slc.cpg/sg15_50_cif.got.tgz:98372.got - 2010.06.28 07:06:18.
