data_PCOD8134020
_publ_section_title
;
Structure prediction by ZEFSAII (Michael W. Deem and Ramdas Pophale) SiO2 
 PCOD8134020
Probable space group: C 2/C
;
_chemical_formula_sum "Si O2"
_cell_formula_units_Z 40
_cell_length_a 21.303186
_cell_length_b 13.434812
_cell_length_c 8.666675
_cell_angle_alpha 90.000000
_cell_angle_beta 62.397858
_cell_angle_gamma 90.000000
_cell_volume 2198.131526
_symmetry_space_group_name_H-M "C 2/C"
_symmetry_group_IT_number 15
_symmetry_cell_setting 'monoclinic'
loop_
_space_group_symop_operation_xyz
x,y,z
-x,y,1/2-z
-x,-y,-z
x,-y,1/2+z
1/2+x,1/2+y,z
1/2-x,1/2+y,1/2-z
1/2-x,1/2-y,-z
1/2+x,1/2-y,1/2+z
loop_
_atom_site_type_symbol
_atom_site_label
_atom_site_fract_x
_atom_site_fract_y
_atom_site_fract_z
Si Si1 0.775673 0.552646 0.354467
Si Si2 0.494458 0.109436 0.438839
Si Si3 0.869707 0.708964 0.080806
Si Si4 0.146242 0.640375 0.735186
Si Si5 0.778826 0.882302 0.261349
O O1 0.808628 0.636528 0.209913
O O2 0.839089 0.475742 0.331985
O O3 0.716537 0.491781 0.323047
O O4 0.738142 0.605273 0.539864
O O5 0.500000 0.106266 0.250000
O O6 0.553967 0.181275 0.440615
O O7 0.418679 0.152300 0.573537
O O8 0.500000 0.000000 0.500000
O O9 0.851346 0.821363 0.155968
O O10 0.870323 0.706224 0.895011
O O11 0.215160 0.679648 0.749826
#
# Coordination Sequence:
#
# PCOD8134020 Si02
#       5
#     8   8   8   8   8
#     4  10  19  35  52  80 121 145 188 234 285 323
#     4  12  23  35  54  82 118 154 182 232 290 344
#     4  12  21  35  58  86 112 155 197 229 287 345
#     4  10  20  36  53  81 118 151 181 233 289 336
#     4  10  21  35  57  85 116 151 193 234 285 339
#
# _framework density 18.197274
#
# number of rings (size 3 to 8) (size 9 to 14) (size 15 to 20)
#    1.200    0.000    4.000    4.200    0.000    0.000 
#    0.000    0.000    0.000    0.000    0.000   19.600 
#    0.000    0.000    0.000    0.000    0.000    0.000 
#
# Total GULP energy -247930.693581 kJ/mol
# GULP energy per Si atom -12396.534679 kJ/mol
# Density = 1.815586 g / cm^3
# Si number density = 18.197274 Si / 1000 Ang^3
#
#
#
# Elastic Constant Matrix: (Units=GPa)
#
#
# Indices 1 2 3 4 5 6 
#
# 1 57.1389 6.8377 22.9303 0.0000 -2.9162 0.0000
# 2 6.8377 41.3622 18.7031 0.0000 -8.7917 0.0000
# 3 22.9303 18.7031 130.4132 0.0000 12.8255 0.0000
# 4 0.0000 0.0000 0.0000 29.1034 0.0000 -9.5255
# 5 -2.9162 -8.7917 12.8255 0.0000 24.0608 0.0000
# 6 0.0000 0.0000 0.0000 -9.5255 0.0000 24.4764
#
#
#
# Elastic Compliance Matrix: (Units=1/GPa)
#
#
# Indices 1 2 3 4 5 6 
#
# 1 0.019269 -0.000650 -0.003695 0.000000 0.004067 0.000000
# 2 -0.000650 0.029675 -0.005488 0.000000 0.013690 0.000000
# 3 -0.003695 -0.005488 0.009863 0.000000 -0.007710 0.000000
# 4 0.000000 0.000000 0.000000 0.039376 0.000000 0.015324
# 5 0.004067 0.013690 -0.007710 0.000000 0.051166 0.000000
# 6 0.000000 0.000000 0.000000 0.015324 0.000000 0.046819
#
#
# Mechanical properties :
#
#
# Convention : Reuss Voigt Hill
#
# Bulk Modulus (GPa) = 25.54811 36.20628 30.87720
# Shear Modulus (GPa) = 21.84532 27.55768 24.70150
#
# Velocity S-wave (km/s) = 3.46854 3.89573 3.68833
# Velocity P-wave (km/s) = 5.48735 6.33840 5.92817
#
# Compressibility (1/GPa) = 0.03914184
#
# Stress axis : x y z
#
# Youngs Moduli (GPa) = 51.89576 33.69795 101.38994
#
# Poissons Ratio (x) = 0.02191 0.37462
# Poissons Ratio (y) = 0.03374 0.55641
# Poissons Ratio (z) = 0.19175 0.18493
#
# Static dielectric constant tensor:
#      x y z
#    x 3.214870 0.000000 0.048080 
#    y 0.000000 3.032830 0.000000 
#    z 0.048080 0.000000 3.428260 
# 
# 
# High freq. dielectric constant tensor:
#      x y z
#    x 1.686510 0.000000 0.017570 
#    y 0.000000 1.673060 0.000000 
#    z 0.017570 0.000000 1.718490 
# 
# From -- ./inp_files/46915.got.cif
#   From: 2010.06.25/outbox.cif.g09.slc.cpg/sg15_24_cif.got.tgz:46915.got - 2010.06.28 07:06:18.
