data_PCOD8134214
_publ_section_title
;
Structure prediction by ZEFSAII (Michael W. Deem and Ramdas Pophale) SiO2 
 PCOD8134214
Probable space group: C 2/C
;
_chemical_formula_sum "Si O2"
_cell_formula_units_Z 56
_cell_length_a 22.723775
_cell_length_b 5.270018
_cell_length_c 25.543575
_cell_angle_alpha 90.000000
_cell_angle_beta 101.361117
_cell_angle_gamma 90.000000
_cell_volume 2999.023124
_symmetry_space_group_name_H-M "C 2/C"
_symmetry_group_IT_number 15
_symmetry_cell_setting 'monoclinic'
loop_
_space_group_symop_operation_xyz
x,y,z
-x,y,1/2-z
-x,-y,-z
x,-y,1/2+z
1/2+x,1/2+y,z
1/2-x,1/2+y,1/2-z
1/2-x,1/2-y,-z
1/2+x,1/2-y,1/2+z
loop_
_atom_site_type_symbol
_atom_site_label
_atom_site_fract_x
_atom_site_fract_y
_atom_site_fract_z
Si Si1 0.273833 0.172461 0.629617
Si Si2 0.742129 0.970903 0.716948
Si Si3 0.558655 0.402966 0.446897
Si Si4 0.676582 0.913871 0.545710
Si Si5 0.422122 0.550985 0.935325
Si Si6 0.374839 0.087288 0.571671
Si Si7 0.821943 0.215604 0.367530
O O1 0.284252 0.396804 0.674335
O O2 0.233100 0.243944 0.572406
O O3 0.338871 0.089907 0.620152
O O4 0.236469 0.957756 0.654373
O O5 0.729321 0.712907 0.747573
O O6 0.679439 0.069152 0.678562
O O7 0.573357 0.376802 0.511389
O O8 0.487665 0.390195 0.425100
O O9 0.585252 0.660698 0.427272
O O10 0.584236 0.161581 0.420786
O O11 0.612795 0.806494 0.555301
O O12 0.674568 0.936437 0.483024
O O13 0.686245 0.184300 0.574571
O O14 0.386216 0.423209 0.880385
#
# Coordination Sequence:
#
# PCOD8134214 Si02
#       7
#     8   8   8   8   8   8   8
#     4  10  22  35  56  81 118 143 185 228 284 353
#     4  11  22  39  58  83 111 135 179 238 303 348
#     4  10  22  33  54  76 118 164 196 226 256 316
#     4   9  19  32  52  80 115 155 189 230 263 325
#     4   9  19  35  51  80 115 156 201 232 259 306
#     4  11  22  35  50  82 117 161 189 217 275 329
#     4  10  19  35  58  83 114 145 183 237 279 335
#
# _framework density 18.672746
#
# number of rings (size 3 to 8) (size 9 to 14) (size 15 to 20)
#    0.000    2.000    2.857    0.429    6.000    2.286 
#    0.000    0.000    0.000    0.000    0.000    1.000 
#   12.857    0.000    0.000    0.000    0.000    0.000 
#
# Total GULP energy -346884.961308 kJ/mol
# GULP energy per Si atom -12388.748618 kJ/mol
# Density = 1.863025 g / cm^3
# Si number density = 18.672746 Si / 1000 Ang^3
#
#
#
# Elastic Constant Matrix: (Units=GPa)
#
#
# Indices 1 2 3 4 5 6 
#
# 1 111.0391 49.8329 45.5084 0.0000 -12.4129 0.0000
# 2 49.8329 117.7160 41.0245 0.0000 -0.4622 0.0000
# 3 45.5084 41.0245 79.7762 0.0000 1.2230 0.0000
# 4 0.0000 0.0000 0.0000 26.8828 0.0000 5.5861
# 5 -12.4129 -0.4622 1.2230 0.0000 12.4948 0.0000
# 6 0.0000 0.0000 0.0000 5.5861 0.0000 18.6514
#
#
#
# Elastic Compliance Matrix: (Units=1/GPa)
#
#
# Indices 1 2 3 4 5 6 
#
# 1 0.015461 -0.004050 -0.006981 0.000000 0.015893 0.000000
# 2 -0.004050 0.011421 -0.003513 0.000000 -0.003257 0.000000
# 3 -0.006981 -0.003513 0.018460 0.000000 -0.008872 0.000000
# 4 0.000000 0.000000 0.000000 0.039667 0.000000 -0.011880
# 5 0.015893 -0.003257 -0.008872 0.000000 0.096570 0.000000
# 6 0.000000 0.000000 0.000000 -0.011880 0.000000 0.057174
#
#
# Mechanical properties :
#
#
# Convention : Reuss Voigt Hill
#
# Bulk Modulus (GPa) = 61.52142 64.58477 63.05310
# Shear Modulus (GPa) = 18.29771 23.08350 20.69060
#
# Velocity S-wave (km/s) = 3.13376 3.51980 3.33237
# Velocity P-wave (km/s) = 6.79063 7.15412 6.97474
#
# Compressibility (1/GPa) = 0.01625450
#
# Stress axis : x y z
#
# Youngs Moduli (GPa) = 64.67850 87.55825 54.17178
#
# Poissons Ratio (x) = 0.35460 0.37816
# Poissons Ratio (y) = 0.26194 0.19030
# Poissons Ratio (z) = 0.45151 0.30759
#
# Static dielectric constant tensor:
#      x y z
#    x 3.254980 0.000000 0.202680 
#    y 0.000000 3.639410 0.000000 
#    z 0.202680 0.000000 3.341990 
# 
# 
# High freq. dielectric constant tensor:
#      x y z
#    x 1.694030 0.000000 0.011670 
#    y 0.000000 1.742350 0.000000 
#    z 0.011670 0.000000 1.696610 
# 
# From -- ./inp_files/278643.got.cif
#   From: 2010.06.25/outbox.cif.g09.slc.cpg/sg15_140_cif.got.tgz:278643.got - 2010.06.28 07:06:18.
