data_PCOD8134077
_publ_section_title
;
Structure prediction by ZEFSAII (Michael W. Deem and Ramdas Pophale) SiO2 
 PCOD8134077
Probable space group: C 2/C
;
_chemical_formula_sum "Si O2"
_cell_formula_units_Z 56
_cell_length_a 8.821809
_cell_length_b 20.113108
_cell_length_c 24.923580
_cell_angle_alpha 90.000000
_cell_angle_beta 140.106412
_cell_angle_gamma 90.000000
_cell_volume 2836.296874
_symmetry_space_group_name_H-M "C 2/C"
_symmetry_group_IT_number 15
_symmetry_cell_setting 'monoclinic'
loop_
_space_group_symop_operation_xyz
x,y,z
-x,y,1/2-z
-x,-y,-z
x,-y,1/2+z
1/2+x,1/2+y,z
1/2-x,1/2+y,1/2-z
1/2-x,1/2-y,-z
1/2+x,1/2-y,1/2+z
loop_
_atom_site_type_symbol
_atom_site_label
_atom_site_fract_x
_atom_site_fract_y
_atom_site_fract_z
Si Si1 0.116944 0.968247 0.110279
Si Si2 0.467502 0.747260 0.486978
Si Si3 0.281491 0.940906 0.044221
Si Si4 0.707004 0.353072 0.475223
Si Si5 0.129343 0.446425 0.622418
Si Si6 0.103128 0.825115 0.925722
Si Si7 0.885132 0.934989 0.801965
O O1 0.294698 0.938448 0.113386
O O2 0.966947 0.908451 0.095600
O O3 0.231824 0.008306 0.191412
O O4 0.955638 0.021667 0.036514
O O5 0.430921 0.681744 0.513062
O O6 0.258617 0.799211 0.443263
O O7 0.722100 0.783288 0.565795
O O8 0.451668 0.725833 0.420703
O O9 0.510318 0.981217 0.086685
O O10 0.268963 0.869753 0.011069
O O11 0.950974 0.387052 0.560273
O O12 0.219200 0.428100 0.706015
O O13 0.343422 0.452575 0.638856
O O14 0.907338 0.864660 0.838466
#
# Coordination Sequence:
#
# PCOD8134077 Si02
#       7
#     8   8   8   8   8   8   8
#     4   9  18  32  53  79 104 130 171 220 264 306
#     4  10  20  32  56  80 104 136 180 218 262 296
#     4   9  18  32  53  79 104 130 171 220 264 306
#     4  10  19  35  55  83 105 139 180 227 251 314
#     4  10  21  35  54  79 109 139 172 221 277 321
#     4  10  19  35  55  83 105 139 180 227 251 314
#     4  10  21  35  54  79 109 139 172 221 277 321
#
# _framework density 19.744054999999999
#
# number of rings (size 3 to 8) (size 9 to 14) (size 15 to 20)
#    0.000    2.286    2.857    0.000    4.000    2.286 
#    0.000    0.000    0.000   10.286    0.000    0.000 
#    0.000    0.000    0.000    0.000    0.000    0.000 
#
# Total GULP energy -346992.403010 kJ/mol
# GULP energy per Si atom -12392.585822 kJ/mol
# Density = 1.969912 g / cm^3
# Si number density = 19.744055 Si / 1000 Ang^3
#
#
#
# Elastic Constant Matrix: (Units=GPa)
#
#
# Indices 1 2 3 4 5 6 
#
# 1 66.4834 9.4869 2.1112 0.0003 -9.5707 0.0003
# 2 9.4869 68.1449 15.8385 0.0003 -2.9630 0.0002
# 3 2.1112 15.8385 36.9638 -0.0007 -4.9518 0.0006
# 4 0.0003 0.0003 -0.0007 12.1412 0.0005 -6.7213
# 5 -9.5707 -2.9630 -4.9518 0.0005 20.0112 0.0006
# 6 0.0003 0.0002 0.0006 -6.7213 0.0006 34.4303
#
#
#
# Elastic Compliance Matrix: (Units=1/GPa)
#
#
# Indices 1 2 3 4 5 6 
#
# 1 0.016444 -0.002193 0.001045 -0.000001 0.007798 0.000000
# 2 -0.002193 0.016600 -0.007032 -0.000001 -0.000331 0.000000
# 3 0.001045 -0.007032 0.030961 0.000001 0.007120 0.000000
# 4 -0.000001 -0.000001 0.000001 0.092344 -0.000003 0.018027
# 5 0.007798 -0.000331 0.007120 -0.000003 0.055415 -0.000002
# 6 0.000000 0.000000 0.000000 0.018027 -0.000002 0.032563
#
#
# Mechanical properties :
#
#
# Convention : Reuss Voigt Hill
#
# Bulk Modulus (GPa) = 20.98869 25.16282 23.07576
# Shear Modulus (GPa) = 18.07875 22.92689 20.50282
#
# Velocity S-wave (km/s) = 3.02926 3.41134 3.22596
# Velocity P-wave (km/s) = 4.78421 5.31869 5.05852
#
# Compressibility (1/GPa) = 0.04764470
#
# Stress axis : x y z
#
# Youngs Moduli (GPa) = 60.81347 60.24127 32.29900
#
# Poissons Ratio (x) = 0.13211 -0.03376
# Poissons Ratio (y) = 0.13337 0.22713
# Poissons Ratio (z) = -0.06356 0.42361
#
# Static dielectric constant tensor:
#      x y z
#    x 3.909560 0.000000 -0.237430 
#    y 0.000000 3.750960 0.000000 
#    z -0.237430 0.000000 3.171090 
# 
# 
# High freq. dielectric constant tensor:
#      x y z
#    x 1.788710 0.000000 -0.017390 
#    y 0.000000 1.775840 0.000000 
#    z -0.017390 0.000000 1.713920 
# 
# From -- ./inp_files/191590.got.cif
#   From: 2010.06.25/outbox.cif.g09.slc.cpg/sg15_96_cif.got.tgz:191590.got - 2010.06.28 07:06:18.
