data_PCOD8134871
_publ_section_title
;
Structure prediction by ZEFSAII (Michael W. Deem and Ramdas Pophale) SiO2 
 PCOD8134871
Probable space group: C 2/C
;
_chemical_formula_sum "Si O2"
_cell_formula_units_Z 56
_cell_length_a 16.634056
_cell_length_b 9.102508
_cell_length_c 19.140808
_cell_angle_alpha 90.000000
_cell_angle_beta 117.089306
_cell_angle_gamma 90.000000
_cell_volume 2580.208507
_symmetry_space_group_name_H-M "C 2/C"
_symmetry_group_IT_number 15
_symmetry_cell_setting 'monoclinic'
loop_
_space_group_symop_operation_xyz
x,y,z
-x,y,1/2-z
-x,-y,-z
x,-y,1/2+z
1/2+x,1/2+y,z
1/2-x,1/2+y,1/2-z
1/2-x,1/2-y,-z
1/2+x,1/2-y,1/2+z
loop_
_atom_site_type_symbol
_atom_site_label
_atom_site_fract_x
_atom_site_fract_y
_atom_site_fract_z
Si Si1 0.087466 0.798161 0.247803
Si Si2 0.662060 0.774394 0.036490
Si Si3 0.168446 0.597053 0.395854
Si Si4 0.230033 0.983190 0.841005
Si Si5 0.583667 0.898038 0.621267
Si Si6 0.991315 0.316815 0.053872
Si Si7 0.835422 0.741351 0.583574
O O1 0.126662 0.665208 0.309624
O O2 0.055732 0.733975 0.160833
O O3 0.000000 0.867528 0.250000
O O4 0.159529 0.927842 0.265148
O O5 0.723600 0.629499 0.055123
O O6 0.580372 0.737574 0.057591
O O7 0.726171 0.908262 0.085076
O O8 0.621216 0.828070 0.945762
O O9 0.154165 0.424032 0.384650
O O10 0.309291 0.923440 0.822542
O O11 0.175854 0.851844 0.856767
O O12 0.573666 0.863021 0.535385
O O13 0.523838 0.042780 0.612423
O O14 0.928811 0.216558 0.079295
O O15 0.750000 0.750000 0.500000
#
# Coordination Sequence:
#
# PCOD8134871 Si02
#       7
#     8   8   8   8   8   8   8
#     4  11  23  40  60  87 122 164 200 244 305 370
#     4   9  18  37  61  88 118 155 204 255 293 356
#     4  10  20  35  62  87 120 162 204 241 305 369
#     4  10  22  39  59  85 123 155 199 255 305 354
#     4  10  20  39  61  90 119 160 203 248 303 367
#     4  10  19  36  66  93 117 151 211 258 293 357
#     4  12  20  37  60  90 120 155 196 254 304 350
#
# _framework density 21.703671
#
# number of rings (size 3 to 8) (size 9 to 14) (size 15 to 20)
#    0.000    1.714    2.857    3.429    0.000    1.143 
#    0.000    8.571    0.000    0.000    0.000    0.000 
#    0.000    0.000    0.000    0.000    0.000    0.000 
#
# Total GULP energy -347142.940190 kJ/mol
# GULP energy per Si atom -12397.962150 kJ/mol
# Density = 2.165427 g / cm^3
# Si number density = 21.703671 Si / 1000 Ang^3
#
#
#
# Elastic Constant Matrix: (Units=GPa)
#
#
# Indices 1 2 3 4 5 6 
#
# 1 140.7592 40.4661 17.5632 0.0000 6.6248 0.0000
# 2 40.4661 59.0983 22.4081 0.0000 -3.7807 0.0000
# 3 17.5632 22.4081 54.0743 0.0000 5.9799 0.0000
# 4 0.0000 0.0000 0.0000 26.2796 0.0000 -1.5854
# 5 6.6248 -3.7807 5.9799 0.0000 24.0152 0.0000
# 6 0.0000 0.0000 0.0000 -1.5854 0.0000 30.9361
#
#
#
# Elastic Compliance Matrix: (Units=1/GPa)
#
#
# Indices 1 2 3 4 5 6 
#
# 1 0.009135 -0.006536 0.000138 0.000000 -0.003583 0.000000
# 2 -0.006536 0.025452 -0.009323 0.000000 0.008132 0.000000
# 3 0.000138 -0.009323 0.023115 0.000000 -0.007262 0.000000
# 4 0.000000 0.000000 0.000000 0.038170 0.000000 0.001956
# 5 -0.003583 0.008132 -0.007262 0.000000 0.045717 0.000000
# 6 0.000000 0.000000 0.000000 0.001956 0.000000 0.032425
#
#
# Mechanical properties :
#
#
# Convention : Reuss Voigt Hill
#
# Bulk Modulus (GPa) = 38.08369 46.08960 42.08665
# Shear Modulus (GPa) = 23.34156 27.81249 25.57703
#
# Velocity S-wave (km/s) = 3.28299 3.58364 3.43660
# Velocity P-wave (km/s) = 5.65295 6.19720 5.93132
#
# Compressibility (1/GPa) = 0.02625796
#
# Stress axis : x y z
#
# Youngs Moduli (GPa) = 109.47038 39.28981 43.26228
#
# Poissons Ratio (x) = 0.25681 -0.00597
# Poissons Ratio (y) = 0.71554 0.40335
# Poissons Ratio (z) = -0.01510 0.36631
#
# Static dielectric constant tensor:
#      x y z
#    x 4.211120 0.000000 0.178050 
#    y 0.000000 3.741200 0.000000 
#    z 0.178050 0.000000 3.600060 
# 
# 
# High freq. dielectric constant tensor:
#      x y z
#    x 1.874960 0.000000 0.011910 
#    y 0.000000 1.821910 0.000000 
#    z 0.011910 0.000000 1.830490 
# 
# From -- ./inp_files/247564.got.cif
#   From: 2010.06.25/outbox.cif.g09.slc.cpg/sg15_124_cif.got.tgz:247564.got - 2010.06.28 07:06:18.
