data_PCOD8134008
_publ_section_title
;
Structure prediction by ZEFSAII (Michael W. Deem and Ramdas Pophale) SiO2 
 PCOD8134008
Probable space group: C 2/C
;
_chemical_formula_sum "Si O2"
_cell_formula_units_Z 40
_cell_length_a 20.997989
_cell_length_b 13.412635
_cell_length_c 5.358471
_cell_angle_alpha 90.000000
_cell_angle_beta 75.215168
_cell_angle_gamma 90.000000
_cell_volume 1459.184485
_symmetry_space_group_name_H-M "C 2/C"
_symmetry_group_IT_number 15
_symmetry_cell_setting 'monoclinic'
loop_
_space_group_symop_operation_xyz
x,y,z
-x,y,1/2-z
-x,-y,-z
x,-y,1/2+z
1/2+x,1/2+y,z
1/2-x,1/2+y,1/2-z
1/2-x,1/2-y,-z
1/2+x,1/2-y,1/2+z
loop_
_atom_site_type_symbol
_atom_site_label
_atom_site_fract_x
_atom_site_fract_y
_atom_site_fract_z
Si Si1 0.468638 0.795960 0.031362
Si Si2 0.113932 0.092068 0.386067
Si Si3 0.936166 0.122261 0.563835
Si Si4 0.185118 0.666183 0.814881
Si Si5 0.754140 0.620991 0.245861
O O1 0.500000 0.844946 0.250000
O O2 0.391759 0.811571 0.108242
O O3 0.500000 0.844946 0.750000
O O4 0.491396 0.675039 0.008603
O O5 0.103366 0.159221 0.649128
O O6 0.188874 0.050152 0.311126
O O7 0.063141 0.998575 0.436856
O O8 0.103366 0.159220 0.144137
O O9 0.203207 0.602418 0.548074
O O10 0.225259 0.767740 0.774740
O O11 0.203208 0.602418 0.045510
#
# Coordination Sequence:
#
# PCOD8134008 Si02
#       5
#     8   8   8   8   8
#     4  12  23  37  54  77 113 150 189 228 276 340
#     4  10  20  37  56  78 107 151 191 230 280 328
#     4  10  21  36  54  79 112 144 182 231 280 338
#     4  10  21  33  51  73  95 141 190 234 275 314
#     4  10  19  35  52  69  99 136 193 239 267 320
#
# _framework density 27.412571
#
# number of rings (size 3 to 8) (size 9 to 14) (size 15 to 20)
#    0.000    1.600    0.000    6.000    0.000    3.200 
#    0.000   21.000    0.000    0.000    0.000    0.000 
#    0.000    0.000    0.000  252.000    0.000   56.000 
#
# Total GULP energy -247767.638760 kJ/mol
# GULP energy per Si atom -12388.381938 kJ/mol
# Density = 2.735018 g / cm^3
# Si number density = 27.412571 Si / 1000 Ang^3
#
#
#
# Elastic Constant Matrix: (Units=GPa)
#
#
# Indices 1 2 3 4 5 6 
#
# 1 230.9174 24.6283 147.5270 0.0000 7.8926 0.0000
# 2 24.6283 26.3261 4.2465 0.0000 -8.4151 0.0000
# 3 147.5270 4.2465 332.7670 0.0000 34.1589 0.0000
# 4 0.0000 0.0000 0.0000 4.4320 0.0000 -4.4598
# 5 7.8926 -8.4151 34.1589 0.0000 62.0979 0.0000
# 6 0.0000 0.0000 0.0000 -4.4598 0.0000 15.2346
#
#
#
# Elastic Compliance Matrix: (Units=1/GPa)
#
#
# Indices 1 2 3 4 5 6 
#
# 1 0.006858 -0.005955 -0.002959 0.000000 -0.000051 0.000000
# 2 -0.005955 0.045275 0.001436 0.000000 0.006102 0.000000
# 3 -0.002959 0.001436 0.004494 0.000000 -0.001901 0.000000
# 4 0.000000 0.000000 0.000000 0.319854 0.000000 0.093634
# 5 -0.000051 0.006102 -0.001901 0.000000 0.017983 0.000000
# 6 0.000000 0.000000 0.000000 0.093634 0.000000 0.093051
#
#
# Mechanical properties :
#
#
# Convention : Reuss Voigt Hill
#
# Bulk Modulus (GPa) = 23.99783 104.75712 64.37747
# Shear Modulus (GPa) = 9.68317 43.92680 26.80498
#
# Velocity S-wave (km/s) = 1.88150 4.00738 3.13043
# Velocity P-wave (km/s) = 3.67333 7.72723 6.04994
#
# Compressibility (1/GPa) = 0.04167043
#
# Stress axis : x y z
#
# Youngs Moduli (GPa) = 145.81780 22.08741 222.52670
#
# Poissons Ratio (x) = 0.13152 0.65849
# Poissons Ratio (y) = 0.86827 -0.31947
# Poissons Ratio (z) = 0.43149 -0.03171
#
# Static dielectric constant tensor:
#      x y z
#    x 5.442910 0.000000 0.713540 
#    y 0.000000 4.169880 0.000000 
#    z 0.713540 0.000000 7.171150 
# 
# 
# High freq. dielectric constant tensor:
#      x y z
#    x 2.116490 0.000000 0.017020 
#    y 0.000000 2.020750 0.000000 
#    z 0.017020 0.000000 2.157710 
# 
# From -- ./inp_files/10133.got.cif
#   From: 2010.06.25/outbox.cif.g09.slc.cpg/sg15_6_cif.got.tgz:10133.got - 2010.06.28 07:06:18.
