data_PCOD8134885
_publ_section_title
;
Structure prediction by ZEFSAII (Michael W. Deem and Ramdas Pophale) SiO2 
 PCOD8134885
Probable space group: C 2/C
;
_chemical_formula_sum "Si O2"
_cell_formula_units_Z 60
_cell_length_a 15.102812
_cell_length_b 27.086784
_cell_length_c 13.918090
_cell_angle_alpha 90.000000
_cell_angle_beta 150.334298
_cell_angle_gamma 90.000000
_cell_volume 2818.034020
_symmetry_space_group_name_H-M "C 2/C"
_symmetry_group_IT_number 15
_symmetry_cell_setting 'monoclinic'
loop_
_space_group_symop_operation_xyz
x,y,z
-x,y,1/2-z
-x,-y,-z
x,-y,1/2+z
1/2+x,1/2+y,z
1/2-x,1/2+y,1/2-z
1/2-x,1/2-y,-z
1/2+x,1/2-y,1/2+z
loop_
_atom_site_type_symbol
_atom_site_label
_atom_site_fract_x
_atom_site_fract_y
_atom_site_fract_z
Si Si1 0.206204 0.097258 0.147129
Si Si2 0.498997 0.794278 0.042889
Si Si3 0.346896 0.980511 0.923496
Si Si4 0.389481 0.684695 0.320190
Si Si5 0.000000 0.427037 0.250000
Si Si6 0.167306 0.081206 0.754470
Si Si7 0.536637 0.145890 0.389684
Si Si8 0.729664 0.632277 0.611996
O O1 0.230199 0.062189 0.262582
O O2 0.143589 0.152185 0.116653
O O3 0.395584 0.100783 0.271513
O O4 0.046189 0.079221 0.927207
O O5 0.306629 0.807192 0.912094
O O6 0.506109 0.811316 0.938696
O O7 0.525320 0.736090 0.067130
O O8 0.650031 0.821135 0.245541
O O9 0.222031 0.026018 0.832832
O O10 0.438386 0.960380 0.104752
O O11 0.500000 0.000000 0.000000
O O12 0.537095 0.654601 0.395850
O O13 0.172804 0.394665 0.383705
O O14 0.208901 0.094566 0.681963
O O15 0.266780 0.121410 0.915587
O O16 0.500000 0.168827 0.250000
#
# Coordination Sequence:
#
# PCOD8134885 Si02
#       8
#     8   8   8   8   4   8   8   8
#     4  10  22  40  64  90 125 170 216 260 323 377
#     4  10  19  38  65  91 120 173 216 252 324 386
#     4  12  22  42  67  94 125 174 213 266 324 383
#     4  10  19  36  68  89 117 167 216 255 312 385
#     4  12  24  40  68  96 132 166 212 268 328 378
#     4  10  21  40  67  86 125 171 215 261 316 381
#     4  10  21  37  60  94 132 165 208 273 324 379
#     4  10  21  40  62  92 125 160 207 267 311 371
#
# _framework density 21.291439
#
# number of rings (size 3 to 8) (size 9 to 14) (size 15 to 20)
#    0.000    1.600    4.000    2.000    0.933    0.533 
#    0.000    9.333    0.000    0.000    0.000    0.000 
#    0.000    0.000    0.000    0.000    0.000    0.000 
#
# Total GULP energy -371820.838369 kJ/mol
# GULP energy per Si atom -12394.027946 kJ/mol
# Density = 2.124298 g / cm^3
# Si number density = 21.291439 Si / 1000 Ang^3
#
#
#
# Elastic Constant Matrix: (Units=GPa)
#
#
# Indices 1 2 3 4 5 6 
#
# 1 56.9199 21.2862 28.6111 0.0000 -1.8570 0.0000
# 2 21.2862 108.1580 31.8914 0.0000 3.0970 0.0000
# 3 28.6111 31.8914 126.3021 0.0000 18.2226 0.0000
# 4 0.0000 0.0000 0.0000 32.0037 0.0000 12.2702
# 5 -1.8570 3.0970 18.2226 0.0000 27.7183 0.0000
# 6 0.0000 0.0000 0.0000 12.2702 0.0000 17.7869
#
#
#
# Elastic Compliance Matrix: (Units=1/GPa)
#
#
# Indices 1 2 3 4 5 6 
#
# 1 0.021216 -0.002907 -0.004777 0.000000 0.004887 0.000000
# 2 -0.002907 0.010397 -0.001957 0.000000 -0.000070 0.000000
# 3 -0.004777 -0.001957 0.010505 0.000000 -0.007007 0.000000
# 4 0.000000 0.000000 0.000000 0.042482 0.000000 -0.029306
# 5 0.004887 -0.000070 -0.007007 0.000000 0.041019 0.000000
# 6 0.000000 0.000000 0.000000 -0.029306 0.000000 0.076438
#
#
# Mechanical properties :
#
#
# Convention : Reuss Voigt Hill
#
# Bulk Modulus (GPa) = 43.78942 50.55084 47.17013
# Shear Modulus (GPa) = 21.83875 29.47454 25.65665
#
# Velocity S-wave (km/s) = 3.20614 3.72471 3.47511
# Velocity P-wave (km/s) = 5.85808 6.50321 6.18906
#
# Compressibility (1/GPa) = 0.02283657
#
# Stress axis : x y z
#
# Youngs Moduli (GPa) = 47.13354 96.18396 95.19488
#
# Poissons Ratio (x) = 0.27959 0.45476
# Poissons Ratio (y) = 0.13701 0.18626
# Poissons Ratio (z) = 0.22517 0.18819
#
# Static dielectric constant tensor:
#      x y z
#    x 3.646300 0.000000 0.384470 
#    y 0.000000 3.965050 0.000000 
#    z 0.384470 0.000000 4.313930 
# 
# 
# High freq. dielectric constant tensor:
#      x y z
#    x 1.799930 0.000000 0.023830 
#    y 0.000000 1.838410 0.000000 
#    z 0.023830 0.000000 1.852720 
# 
# From -- ./inp_files/157353.got.cif
#   From: 2010.06.25/outbox.cif.g09.slc.cpg/sg15_79_cif.got.tgz:157353.got - 2010.06.28 07:06:18.
