data_PCOD8134602
_publ_section_title
;
Structure prediction by ZEFSAII (Michael W. Deem and Ramdas Pophale) SiO2 
 PCOD8134602
Probable space group: C 2/C
;
_chemical_formula_sum "Si O2"
_cell_formula_units_Z 64
_cell_length_a 14.762401
_cell_length_b 13.478228
_cell_length_c 27.272507
_cell_angle_alpha 90.000000
_cell_angle_beta 144.678837
_cell_angle_gamma 90.000000
_cell_volume 3137.344264
_symmetry_space_group_name_H-M "C 2/C"
_symmetry_group_IT_number 15
_symmetry_cell_setting 'monoclinic'
loop_
_space_group_symop_operation_xyz
x,y,z
-x,y,1/2-z
-x,-y,-z
x,-y,1/2+z
1/2+x,1/2+y,z
1/2-x,1/2+y,1/2-z
1/2-x,1/2-y,-z
1/2+x,1/2-y,1/2+z
loop_
_atom_site_type_symbol
_atom_site_label
_atom_site_fract_x
_atom_site_fract_y
_atom_site_fract_z
Si Si1 0.145577 0.726732 0.882446
Si Si2 0.890428 0.576462 0.318023
Si Si3 0.750730 0.409193 0.501301
Si Si4 0.104274 0.883685 0.948433
Si Si5 0.823259 0.254869 0.455077
Si Si6 0.172763 0.275523 0.629165
Si Si7 0.674767 0.858225 0.232439
Si Si8 0.782605 0.796387 0.829454
O O1 0.133071 0.818267 0.913447
O O2 0.187630 0.773139 0.848333
O O3 0.985126 0.665415 0.808882
O O4 0.280658 0.649696 0.957316
O O5 0.806522 0.626042 0.328212
O O6 0.804062 0.473895 0.268370
O O7 0.868063 0.649654 0.261340
O O8 0.071929 0.557884 0.409058
O O9 0.638732 0.503702 0.447863
O O10 0.740741 0.347676 0.445910
O O11 0.690254 0.343077 0.518841
O O12 0.927639 0.873395 0.890273
O O13 0.742548 0.235156 0.367167
O O14 0.006851 0.277321 0.528342
O O15 0.183769 0.180404 0.670615
O O16 0.672715 0.804011 0.179161
#
# Coordination Sequence:
#
# PCOD8134602 Si02
#       8
#     8   8   8   8   8   8   8   8
#     4  10  19  36  58  86 117 146 180 238 294 337
#     4  10  22  39  58  84 115 153 193 235 288 347
#     4  10  22  39  57  83 117 151 191 241 288 338
#     4  10  20  35  59  88 114 141 188 241 287 338
#     4  10  22  39  58  81 114 154 197 236 282 338
#     4  10  21  37  59  83 115 154 190 235 290 345
#     4  10  21  38  58  85 120 148 186 240 293 339
#     4  10  22  39  60  85 115 151 193 238 285 344
#
# _framework density 20.399419999999999
#
# number of rings (size 3 to 8) (size 9 to 14) (size 15 to 20)
#    0.000    2.000    2.500    0.375    1.750    3.000 
#    2.250    2.500    0.000    0.000    0.000    0.000 
#    0.000    0.000    0.000    0.000    0.000    0.000 
#
# Total GULP energy -396845.653749 kJ/mol
# GULP energy per Si atom -12401.426680 kJ/mol
# Density = 2.035299 g / cm^3
# Si number density = 20.399420 Si / 1000 Ang^3
#
#
#
# Elastic Constant Matrix: (Units=GPa)
#
#
# Indices 1 2 3 4 5 6 
#
# 1 93.0006 23.3694 11.0783 0.0000 -27.6152 0.0000
# 2 23.3694 93.4641 5.4162 0.0000 -13.1672 0.0000
# 3 11.0783 5.4162 49.4998 -0.0002 -23.6653 0.0000
# 4 0.0000 0.0000 -0.0002 24.0152 0.0000 4.9698
# 5 -27.6152 -13.1672 -23.6653 0.0000 25.2438 0.0000
# 6 0.0000 0.0000 0.0000 4.9698 0.0000 20.7522
#
#
#
# Elastic Compliance Matrix: (Units=1/GPa)
#
#
# Indices 1 2 3 4 5 6 
#
# 1 0.018368 -0.001128 0.009674 0.000000 0.028574 0.000000
# 2 -0.001128 0.011856 0.002396 0.000000 0.007196 0.000000
# 3 0.009674 0.002396 0.042464 0.000000 0.051640 0.000000
# 4 0.000000 0.000000 0.000000 0.043811 0.000001 -0.010492
# 5 0.028574 0.007196 0.051640 0.000001 0.123037 0.000000
# 6 0.000000 0.000000 0.000000 -0.010492 0.000000 0.050700
#
#
# Mechanical properties :
#
#
# Convention : Reuss Voigt Hill
#
# Bulk Modulus (GPa) = 10.57406 35.07694 22.82550
# Shear Modulus (GPa) = 16.67342 27.07561 21.87452
#
# Velocity S-wave (km/s) = 2.86203 3.64713 3.27817
# Velocity P-wave (km/s) = 4.01452 5.91336 5.05392
#
# Compressibility (1/GPa) = 0.09457103
#
# Stress axis : x y z
#
# Youngs Moduli (GPa) = 54.44112 84.34350 23.54960
#
# Poissons Ratio (x) = 0.09512 -0.22781
# Poissons Ratio (y) = 0.06140 -0.05641
# Poissons Ratio (z) = -0.52664 -0.20205
#
# Static dielectric constant tensor:
#      x y z
#    x 3.544070 0.000000 -0.008960 
#    y 0.000000 3.573050 0.000000 
#    z -0.008960 0.000000 3.776850 
# 
# 
# High freq. dielectric constant tensor:
#      x y z
#    x 1.790200 0.000000 -0.001400 
#    y 0.000000 1.789960 0.000000 
#    z -0.001400 0.000000 1.799670 
# 
# From -- ./inp_files/296167.got.cif
#   From: 2010.06.25/outbox.cif.g09.slc.cpg/sg15_149_cif.got.tgz:296167.got - 2010.06.28 07:06:18.
