data_PCOD8134454
_publ_section_title
;
Structure prediction by ZEFSAII (Michael W. Deem and Ramdas Pophale) SiO2 
 PCOD8134454
Probable space group: C 2/C
;
_chemical_formula_sum "Si O2"
_cell_formula_units_Z 56
_cell_length_a 5.620594
_cell_length_b 18.083176
_cell_length_c 28.860866
_cell_angle_alpha 90.000000
_cell_angle_beta 118.644180
_cell_angle_gamma 90.000000
_cell_volume 2574.362073
_symmetry_space_group_name_H-M "C 2/C"
_symmetry_group_IT_number 15
_symmetry_cell_setting 'monoclinic'
loop_
_space_group_symop_operation_xyz
x,y,z
-x,y,1/2-z
-x,-y,-z
x,-y,1/2+z
1/2+x,1/2+y,z
1/2-x,1/2+y,1/2-z
1/2-x,1/2-y,-z
1/2+x,1/2-y,1/2+z
loop_
_atom_site_type_symbol
_atom_site_label
_atom_site_fract_x
_atom_site_fract_y
_atom_site_fract_z
Si Si1 0.080291 0.548372 0.390605
Si Si2 0.443434 0.081107 0.546471
Si Si3 0.500619 0.623199 0.619343
Si Si4 0.327904 0.223168 0.592250
Si Si5 0.020008 0.457778 0.199342
Si Si6 0.196841 0.183883 0.804597
Si Si7 0.827113 0.888898 0.572516
O O1 0.188332 0.478295 0.430941
O O2 0.907125 0.525243 0.328463
O O3 0.349093 0.593890 0.399249
O O4 0.849704 0.591888 0.398381
O O5 0.425532 0.165171 0.562891
O O6 0.318090 0.071232 0.484225
O O7 0.768117 0.068717 0.577622
O O8 0.551642 0.689325 0.587330
O O9 0.743117 0.567131 0.649360
O O10 0.457681 0.663020 0.663742
O O11 0.539155 0.230468 0.655553
O O12 0.292062 0.300867 0.563961
O O13 0.000000 0.486558 0.250000
O O14 0.229365 0.390627 0.216807
O O15 0.000000 0.228053 0.750000
#
# Coordination Sequence:
#
# PCOD8134454 Si02
#       7
#     8   8   8   8   8   8   8
#     4  12  26  45  67 101 139 174 230 277 337 410
#     4  11  23  43  71  97 128 184 233 278 321 400
#     4  10  19  37  68  98 129 156 236 286 323 383
#     4  10  24  41  66  97 134 173 231 277 332 415
#     4  11  21  38  68  99 126 171 223 284 333 389
#     4  10  19  35  69  98 124 164 226 291 331 380
#     4  12  29  44  66  98 147 185 213 277 351 398
#
# _framework density 21.752960000000002
#
# number of rings (size 3 to 8) (size 9 to 14) (size 15 to 20)
#    0.000    1.143    5.714    2.143    6.000    0.571 
#    0.000    0.714    3.143    0.000    0.000    0.000 
#    0.000    0.000    0.000    0.000    0.000    0.000 
#
# Total GULP energy -346943.201178 kJ/mol
# GULP energy per Si atom -12390.828613 kJ/mol
# Density = 2.170345 g / cm^3
# Si number density = 21.752960 Si / 1000 Ang^3
#
#
#
# Elastic Constant Matrix: (Units=GPa)
#
#
# Indices 1 2 3 4 5 6 
#
# 1 112.5261 16.4875 18.5004 0.0000 -9.8395 0.0000
# 2 16.4875 69.8962 -1.7659 0.0000 -9.4486 0.0000
# 3 18.5004 -1.7659 72.3662 0.0000 -16.4812 0.0000
# 4 0.0000 0.0000 0.0000 13.8408 0.0000 -10.4926
# 5 -9.8395 -9.4486 -16.4812 0.0000 32.8133 0.0000
# 6 0.0000 0.0000 0.0000 -10.4926 0.0000 25.7603
#
#
#
# Elastic Compliance Matrix: (Units=1/GPa)
#
#
# Indices 1 2 3 4 5 6 
#
# 1 0.009680 -0.002188 -0.002270 0.000000 0.001132 0.000000
# 2 -0.002188 0.015529 0.002041 0.000000 0.004840 0.000000
# 3 -0.002270 0.002041 0.016291 0.000000 0.008089 0.000000
# 4 0.000000 0.000000 0.000000 0.104526 0.000000 0.042575
# 5 0.001132 0.004840 0.008089 0.000000 0.036272 0.000000
# 6 0.000000 0.000000 0.000000 0.042575 0.000000 0.056161
#
#
# Mechanical properties :
#
#
# Convention : Reuss Voigt Hill
#
# Bulk Modulus (GPa) = 27.27359 35.69251 31.48305
# Shear Modulus (GPa) = 19.56838 29.25398 24.41118
#
# Velocity S-wave (km/s) = 3.00254 3.67117 3.35356
# Velocity P-wave (km/s) = 4.95837 5.86632 5.43135
#
# Compressibility (1/GPa) = 0.03666551
#
# Stress axis : x y z
#
# Youngs Moduli (GPa) = 103.31012 64.39634 61.38327
#
# Poissons Ratio (x) = 0.14087 0.13934
# Poissons Ratio (y) = 0.22600 -0.12526
# Poissons Ratio (z) = 0.23452 -0.13141
#
# Static dielectric constant tensor:
#      x y z
#    x 4.302420 0.000000 -0.031500 
#    y 0.000000 3.667350 0.000000 
#    z -0.031500 0.000000 3.916570 
# 
# 
# High freq. dielectric constant tensor:
#      x y z
#    x 1.868070 0.000000 -0.009910 
#    y 0.000000 1.823620 0.000000 
#    z -0.009910 0.000000 1.856310 
# 
# From -- ./inp_files/286104.got.cif
#   From: 2010.06.25/outbox.cif.g09.slc.cpg/sg15_144_cif.got.tgz:286104.got - 2010.06.28 07:06:18.
