data_PCOD8134339
_publ_section_title
;
Structure prediction by ZEFSAII (Michael W. Deem and Ramdas Pophale) SiO2 
 PCOD8134339
Probable space group: C 2/C
;
_chemical_formula_sum "Si O2"
_cell_formula_units_Z 60
_cell_length_a 8.075722
_cell_length_b 12.137633
_cell_length_c 29.238290
_cell_angle_alpha 90.000000
_cell_angle_beta 82.749411
_cell_angle_gamma 90.000000
_cell_volume 2843.024502
_symmetry_space_group_name_H-M "C 2/C"
_symmetry_group_IT_number 15
_symmetry_cell_setting 'monoclinic'
loop_
_space_group_symop_operation_xyz
x,y,z
-x,y,1/2-z
-x,-y,-z
x,-y,1/2+z
1/2+x,1/2+y,z
1/2-x,1/2+y,1/2-z
1/2-x,1/2-y,-z
1/2+x,1/2-y,1/2+z
loop_
_atom_site_type_symbol
_atom_site_label
_atom_site_fract_x
_atom_site_fract_y
_atom_site_fract_z
Si Si1 0.784762 0.131449 0.439546
Si Si2 0.218537 0.379510 0.447503
Si Si3 0.010260 0.223358 0.990386
Si Si4 0.500000 0.542705 0.250000
Si Si5 0.841293 0.088611 0.339148
Si Si6 0.704063 0.340337 0.152444
Si Si7 0.813830 0.378264 0.242977
Si Si8 0.583838 0.206045 0.294995
O O1 0.657658 0.230398 0.453906
O O2 0.856959 0.155441 0.385956
O O3 0.930720 0.140641 0.471724
O O4 0.697032 0.011474 0.444647
O O5 0.077699 0.330803 0.485225
O O6 0.397951 0.350889 0.461854
O O7 0.202538 0.317740 0.398804
O O8 0.484087 0.619052 0.296108
O O9 0.670983 0.472807 0.247539
O O10 0.659242 0.104412 0.321207
O O11 0.872590 0.961866 0.350084
O O12 0.830535 0.331572 0.190733
O O13 0.549478 0.259646 0.166462
O O14 0.741934 0.285993 0.279720
O O15 0.000000 0.419115 0.250000
O O16 0.500000 0.168583 0.250000
#
# Coordination Sequence:
#
# PCOD8134339 Si02
#       8
#     8   8   8   4   8   8   8   8
#     4  10  21  38  59  86 118 151 200 243 294 363
#     4  10  20  37  63  82 120 155 184 246 309 342
#     4  10  21  37  60  89 113 151 199 244 294 365
#     4  10  20  42  56  84 126 156 200 256 292 354
#     4  10  20  34  60  81 115 161 194 241 305 347
#     4   9  19  38  56  82 120 157 194 249 300 351
#     4  10  19  35  61  81 119 166 197 242 306 345
#     4  10  19  36  56  84 118 159 205 247 292 357
#
# _framework density 21.104285000000001
#
# number of rings (size 3 to 8) (size 9 to 14) (size 15 to 20)
#    0.000    2.133    3.333    1.600    0.933    3.200 
#    2.400    0.000   20.533    0.000    0.000    0.000 
#    0.000    0.000    0.000    0.000    0.000    0.000 
#
# Total GULP energy -371722.382009 kJ/mol
# GULP energy per Si atom -12390.746067 kJ/mol
# Density = 2.105625 g / cm^3
# Si number density = 21.104285 Si / 1000 Ang^3
#
#
#
# Elastic Constant Matrix: (Units=GPa)
#
#
# Indices 1 2 3 4 5 6 
#
# 1 91.6623 8.6128 26.3358 0.0000 9.0782 0.0000
# 2 8.6128 42.1616 16.2745 0.0000 -3.7653 0.0000
# 3 26.3358 16.2745 133.6777 0.0000 -8.0555 0.0000
# 4 0.0000 0.0000 0.0000 11.5732 0.0000 5.0142
# 5 9.0782 -3.7653 -8.0555 0.0000 20.0309 0.0000
# 6 0.0000 0.0000 0.0000 5.0142 0.0000 24.2850
#
#
#
# Elastic Compliance Matrix: (Units=1/GPa)
#
#
# Indices 1 2 3 4 5 6 
#
# 1 0.012587 -0.002191 -0.002646 0.000000 -0.007180 0.000000
# 2 -0.002191 0.025518 -0.002384 0.000000 0.004831 0.000000
# 3 -0.002646 -0.002384 0.008544 0.000000 0.004187 0.000000
# 4 0.000000 0.000000 0.000000 0.094895 0.000000 -0.019593
# 5 -0.007180 0.004831 0.004187 0.000000 0.055769 0.000000
# 6 0.000000 0.000000 0.000000 -0.019593 0.000000 0.045223
#
#
# Mechanical properties :
#
#
# Convention : Reuss Voigt Hill
#
# Bulk Modulus (GPa) = 31.04883 41.10531 36.07707
# Shear Modulus (GPa) = 18.67670 25.59640 22.13655
#
# Velocity S-wave (km/s) = 2.97808 3.48638 3.24221
# Velocity P-wave (km/s) = 5.15454 5.97712 5.58101
#
# Compressibility (1/GPa) = 0.03220733
#
# Stress axis : x y z
#
# Youngs Moduli (GPa) = 79.44858 39.18879 117.03541
#
# Poissons Ratio (x) = 0.08587 0.30963
# Poissons Ratio (y) = 0.17409 0.27899
# Poissons Ratio (z) = 0.21019 0.09342
#
# Static dielectric constant tensor:
#      x y z
#    x 3.606010 0.000000 -0.072660 
#    y 0.000000 3.566390 0.000000 
#    z -0.072660 0.000000 4.376540 
# 
# 
# High freq. dielectric constant tensor:
#      x y z
#    x 1.809680 0.000000 -0.003070 
#    y 0.000000 1.813580 0.000000 
#    z -0.003070 0.000000 1.842860 
# 
# From -- ./inp_files/307153.got.cif
#   From: 2010.06.25/outbox.cif.g09.slc.cpg/sg15_154_cif.got.tgz:307153.got - 2010.06.28 07:06:18.
