data_PCOD8134858
_publ_section_title
;
Structure prediction by ZEFSAII (Michael W. Deem and Ramdas Pophale) SiO2 
 PCOD8134858
Probable space group: C 2/C
;
_chemical_formula_sum "Si O2"
_cell_formula_units_Z 36
_cell_length_a 16.373457
_cell_length_b 9.653581
_cell_length_c 20.035065
_cell_angle_alpha 90.000000
_cell_angle_beta 152.288134
_cell_angle_gamma 90.000000
_cell_volume 1472.638874
_symmetry_space_group_name_H-M "C 2/C"
_symmetry_group_IT_number 15
_symmetry_cell_setting 'monoclinic'
loop_
_space_group_symop_operation_xyz
x,y,z
-x,y,1/2-z
-x,-y,-z
x,-y,1/2+z
1/2+x,1/2+y,z
1/2-x,1/2+y,1/2-z
1/2-x,1/2-y,-z
1/2+x,1/2-y,1/2+z
loop_
_atom_site_type_symbol
_atom_site_label
_atom_site_fract_x
_atom_site_fract_y
_atom_site_fract_z
Si Si1 0.000000 0.075668 0.750000
Si Si2 0.103424 0.152008 0.424808
Si Si3 0.649599 0.901053 0.681248
Si Si4 0.625451 0.113359 0.778600
Si Si5 0.778916 0.649315 0.852612
O O1 0.856325 0.170749 0.683881
O O2 0.901982 0.985177 0.623545
O O3 0.250000 0.250000 0.500000
O O4 0.170408 0.116645 0.548515
O O5 0.920218 0.237869 0.289182
O O6 0.762210 0.769991 0.785979
O O7 0.477005 0.843803 0.520745
O O8 0.592940 0.991537 0.703408
O O9 0.761129 0.999576 0.711384
O O10 0.500000 0.081953 0.750000
#
# Coordination Sequence:
#
# PCOD8134858 Si02
#       5
#     4   8   8   8   8
#     4  12  24  44  72 110 142 192 238 302 350 428
#     4  10  19  36  65 103 139 182 234 286 344 420
#     4  11  28  50  71 106 145 193 236 302 360 431
#     4  10  21  37  68 100 140 185 237 285 347 425
#     4  11  29  49  75 103 151 185 245 295 364 426
#
# _framework density 24.445910999999999
#
# number of rings (size 3 to 8) (size 9 to 14) (size 15 to 20)
#    0.000    1.333    3.333    2.667    7.778    3.556 
#    0.000    0.000    0.000    0.000    0.000    0.000 
#    0.000    0.000    0.000    0.000    0.000    0.000 
#
# Total GULP energy -223220.205992 kJ/mol
# GULP energy per Si atom -12401.122555 kJ/mol
# Density = 2.439027 g / cm^3
# Si number density = 24.445911 Si / 1000 Ang^3
#
#
#
# Elastic Constant Matrix: (Units=GPa)
#
#
# Indices 1 2 3 4 5 6 
#
# 1 107.7245 23.5243 26.1873 0.0011 -2.0480 0.0007
# 2 23.5243 99.6529 48.1607 0.0023 -20.2024 0.0016
# 3 26.1873 48.1607 155.6060 -0.0006 -42.8669 0.0010
# 4 0.0011 0.0023 -0.0006 41.8623 0.0014 -21.5961
# 5 -2.0480 -20.2024 -42.8669 0.0014 24.8946 0.0016
# 6 0.0007 0.0016 0.0010 -21.5961 0.0016 26.6322
#
#
#
# Elastic Compliance Matrix: (Units=1/GPa)
#
#
# Indices 1 2 3 4 5 6 
#
# 1 0.010287 -0.002304 -0.002473 0.000000 -0.005282 0.000000
# 2 -0.002304 0.012851 -0.001463 -0.000003 0.007720 -0.000003
# 3 -0.002473 -0.001463 0.013151 -0.000002 0.021254 -0.000003
# 4 0.000000 -0.000003 -0.000002 0.041068 -0.000010 0.033302
# 5 -0.005282 0.007720 0.021254 -0.000010 0.082597 -0.000014
# 6 0.000000 -0.000003 -0.000003 0.033302 -0.000014 0.064553
#
#
# Mechanical properties :
#
#
# Convention : Reuss Voigt Hill
#
# Bulk Modulus (GPa) = 42.00261 62.08088 52.04175
# Shear Modulus (GPa) = 20.41460 36.35190 28.38325
#
# Velocity S-wave (km/s) = 2.89293 3.86039 3.41113
# Velocity P-wave (km/s) = 5.32709 6.73205 6.07035
#
# Compressibility (1/GPa) = 0.02380804
#
# Stress axis : x y z
#
# Youngs Moduli (GPa) = 97.21126 77.81638 76.04241
#
# Poissons Ratio (x) = 0.17928 0.18808
# Poissons Ratio (y) = 0.22396 0.11124
# Poissons Ratio (z) = 0.24043 0.11384
#
# Static dielectric constant tensor:
#      x y z
#    x 4.093040 0.000000 -0.428480 
#    y 0.000000 4.229510 -0.000010 
#    z -0.428480 -0.000010 5.406980 
# 
# 
# High freq. dielectric constant tensor:
#      x y z
#    x 1.973010 0.000000 -0.012690 
#    y 0.000000 1.958650 0.000000 
#    z -0.012690 0.000000 1.985500 
# 
# From -- ./inp_files/247916.got.cif
#   From: 2010.06.25/outbox.cif.g09.slc.cpg/sg15_124_cif.got.tgz:247916.got - 2010.06.28 07:06:18.
