data_PCOD8134437
_publ_section_title
;
Structure prediction by ZEFSAII (Michael W. Deem and Ramdas Pophale) SiO2 
 PCOD8134437
Probable space group: C 2/C
;
_chemical_formula_sum "Si O2"
_cell_formula_units_Z 52
_cell_length_a 9.176477
_cell_length_b 16.787090
_cell_length_c 17.131416
_cell_angle_alpha 90.000000
_cell_angle_beta 97.528811
_cell_angle_gamma 90.000000
_cell_volume 2616.281197
_symmetry_space_group_name_H-M "C 2/C"
_symmetry_group_IT_number 15
_symmetry_cell_setting 'monoclinic'
loop_
_space_group_symop_operation_xyz
x,y,z
-x,y,1/2-z
-x,-y,-z
x,-y,1/2+z
1/2+x,1/2+y,z
1/2-x,1/2+y,1/2-z
1/2-x,1/2-y,-z
1/2+x,1/2-y,1/2+z
loop_
_atom_site_type_symbol
_atom_site_label
_atom_site_fract_x
_atom_site_fract_y
_atom_site_fract_z
Si Si1 0.840501 0.843348 0.134557
Si Si2 0.000000 0.959646 0.250000
Si Si3 0.665828 0.464650 0.502523
Si Si4 0.867016 0.235720 0.892459
Si Si5 0.212473 0.868339 0.967063
Si Si6 0.080994 0.097938 0.145739
Si Si7 0.844552 0.252622 0.267197
O O1 0.874716 0.902187 0.208466
O O2 0.699038 0.794101 0.153812
O O3 0.966137 0.778995 0.121893
O O4 0.805814 0.896049 0.057493
O O5 0.943757 0.012711 0.316877
O O6 0.500000 0.500000 0.500000
O O7 0.765756 0.540714 0.486340
O O8 0.701646 0.421563 0.587166
O O9 0.843754 0.321607 0.932257
O O10 0.773310 0.230307 0.807390
O O11 0.819453 0.168302 0.950374
O O12 0.067764 0.864591 0.901813
O O13 0.144156 0.157994 0.214717
O O14 0.000000 0.287358 0.250000
#
# Coordination Sequence:
#
# PCOD8134437 Si02
#       7
#     8   4   8   8   8   8   8
#     4  12  23  37  66  94 121 159 215 256 300 363
#     4  12  18  34  66  94 114 158 218 260 280 354
#     4  10  19  37  61  96 114 158 214 254 286 368
#     4  11  20  37  60  94 121 159 202 250 304 368
#     4  10  19  35  65  88 121 155 204 252 301 358
#     4  11  20  37  63  92 122 163 210 250 300 365
#     4  12  25  39  58  93 128 162 197 259 318 365
#
# _framework density 19.875540000000001
#
# number of rings (size 3 to 8) (size 9 to 14) (size 15 to 20)
#    0.000    0.923   10.000    0.000    0.000    0.615 
#    0.000    0.000    3.385    1.846    0.000    0.000 
#    0.000    0.000    0.000    0.000    0.000    0.000 
#
# Total GULP energy -322259.570817 kJ/mol
# GULP energy per Si atom -12394.598878 kJ/mol
# Density = 1.983030 g / cm^3
# Si number density = 19.875540 Si / 1000 Ang^3
#
#
#
# Elastic Constant Matrix: (Units=GPa)
#
#
# Indices 1 2 3 4 5 6 
#
# 1 83.2953 57.6408 33.0403 0.0000 -32.1048 0.0000
# 2 57.6408 109.0555 36.6119 0.0000 -18.4257 0.0000
# 3 33.0403 36.6119 103.1103 0.0000 -18.4171 0.0000
# 4 0.0000 0.0000 0.0000 47.9929 0.0000 -14.3863
# 5 -32.1048 -18.4257 -18.4171 0.0000 28.0412 0.0000
# 6 0.0000 0.0000 0.0000 -14.3863 0.0000 0.9281
#
#
#
# Elastic Compliance Matrix: (Units=1/GPa)
#
#
# Indices 1 2 3 4 5 6 
#
# 1 0.030604 -0.011289 -0.000980 0.000000 0.026978 0.000000
# 2 -0.011289 0.015232 -0.002619 0.000000 -0.004636 0.000000
# 3 -0.000980 -0.002619 0.011821 0.000000 0.004921 0.000000
# 4 0.000000 0.000000 0.000000 -0.005714 0.000000 -0.088572
# 5 0.026978 -0.004636 0.004921 0.000000 0.066735 0.000000
# 6 0.000000 0.000000 0.000000 -0.088572 0.000000 -0.295478
#
#
# Mechanical properties :
#
#
# Convention : Reuss Voigt Hill
#
# Bulk Modulus (GPa) = 35.86481 61.11634 48.49057
# Shear Modulus (GPa) = -36.30312 26.60365 -4.84974
#
# Velocity S-wave (km/s) = -4.27842 3.66254 -1.56376
# Velocity P-wave (km/s) = 2.51448 6.97867 4.60322
#
# Compressibility (1/GPa) = 0.02788248
#
# Stress axis : x y z
#
# Youngs Moduli (GPa) = 32.67535 65.64990 84.59261
#
# Poissons Ratio (x) = 0.74110 0.08287
# Poissons Ratio (y) = 0.36886 0.22158
# Poissons Ratio (z) = 0.03201 0.17196
#
# Static dielectric constant tensor:
#      x y z
#    x 3.404640 0.000000 -0.377010 
#    y 0.000000 3.953110 0.000000 
#    z -0.377010 0.000000 4.013850 
# 
# 
# High freq. dielectric constant tensor:
#      x y z
#    x 1.718940 0.000000 -0.028530 
#    y 0.000000 1.788020 0.000000 
#    z -0.028530 0.000000 1.800580 
# 
# From -- ./inp_files/190494.got.cif
#   From: 2010.06.25/outbox.cif.g09.slc.cpg/sg15_96_cif.got.tgz:190494.got - 2010.06.28 07:06:18.
