data_PCOD8134930
_publ_section_title
;
Structure prediction by ZEFSAII (Michael W. Deem and Ramdas Pophale) SiO2 
 PCOD8134930
Probable space group: C 2/C
;
_chemical_formula_sum "Si O2"
_cell_formula_units_Z 48
_cell_length_a 11.731098
_cell_length_b 19.590149
_cell_length_c 11.500445
_cell_angle_alpha 90.000000
_cell_angle_beta 79.664534
_cell_angle_gamma 90.000000
_cell_volume 2600.078520
_symmetry_space_group_name_H-M "C 2/C"
_symmetry_group_IT_number 15
_symmetry_cell_setting 'monoclinic'
loop_
_space_group_symop_operation_xyz
x,y,z
-x,y,1/2-z
-x,-y,-z
x,-y,1/2+z
1/2+x,1/2+y,z
1/2-x,1/2+y,1/2-z
1/2-x,1/2-y,-z
1/2+x,1/2-y,1/2+z
loop_
_atom_site_type_symbol
_atom_site_label
_atom_site_fract_x
_atom_site_fract_y
_atom_site_fract_z
Si Si1 0.823227 0.078593 0.331040
Si Si2 0.616654 0.564039 0.660509
Si Si3 0.930945 0.259153 0.009276
Si Si4 0.710064 0.709188 0.680139
Si Si5 0.317859 0.206267 0.081817
Si Si6 0.446800 0.609263 0.081413
O O1 0.727261 0.128456 0.402469
O O2 0.845659 0.103092 0.195438
O O3 0.936019 0.077448 0.392327
O O4 0.790183 0.997797 0.337903
O O5 0.500000 0.543723 0.750000
O O6 0.666052 0.632565 0.709863
O O7 0.593784 0.572594 0.528079
O O8 0.869376 0.248562 0.897420
O O9 0.046842 0.303428 0.973071
O O10 0.842624 0.296634 0.112626
O O11 0.971403 0.188287 0.056330
O O12 0.700343 0.752450 0.797307
O O13 0.250000 0.250000 0.000000
#
# Coordination Sequence:
#
# PCOD8134930 Si02
#       6
#     8   8   8   8   8   8
#     4  11  22  34  57  89 119 149 189 245 300 345
#     4  11  22  35  59  85 118 156 195 242 289 350
#     4  10  20  39  60  82 113 153 199 239 282 349
#     4  10  22  38  58  84 114 155 198 239 284 342
#     4  12  23  35  60  89 119 150 193 245 300 349
#     4  10  19  37  57  82 119 151 188 242 295 341
#
# _framework density 18.460981
#
# number of rings (size 3 to 8) (size 9 to 14) (size 15 to 20)
#    0.000    1.333    5.000    3.000    0.000    0.667 
#    0.000    0.833    0.000    0.000    4.333    0.000 
#    0.000    0.000    0.000    0.000    0.000    0.000 
#
# Total GULP energy -297590.336244 kJ/mol
# GULP energy per Si atom -12399.597344 kJ/mol
# Density = 1.841896 g / cm^3
# Si number density = 18.460981 Si / 1000 Ang^3
#
#
#
# Elastic Constant Matrix: (Units=GPa)
#
#
# Indices 1 2 3 4 5 6 
#
# 1 91.1811 23.2362 25.3148 0.0000 -24.5202 0.0000
# 2 23.2362 69.1067 27.9338 0.0000 -13.9311 0.0000
# 3 25.3148 27.9338 62.7939 0.0000 -3.6376 0.0000
# 4 0.0000 0.0000 0.0000 15.8146 0.0000 -14.9212
# 5 -24.5202 -13.9311 -3.6376 0.0000 26.3602 0.0000
# 6 0.0000 0.0000 0.0000 -14.9212 0.0000 20.2150
#
#
#
# Elastic Compliance Matrix: (Units=1/GPa)
#
#
# Indices 1 2 3 4 5 6 
#
# 1 0.016494 -0.000363 -0.005656 0.000000 0.014371 0.000000
# 2 -0.000363 0.019661 -0.008082 0.000000 0.008938 0.000000
# 3 -0.005656 -0.008082 0.021419 0.000000 -0.006576 0.000000
# 4 0.000000 0.000000 0.000000 0.208292 0.000000 0.153746
# 5 0.014371 0.008938 -0.006576 0.000000 0.055120 0.000000
# 6 0.000000 0.000000 0.000000 0.153746 0.000000 0.162952
#
#
# Mechanical properties :
#
#
# Convention : Reuss Voigt Hill
#
# Bulk Modulus (GPa) = 34.04423 41.78346 37.91385
# Shear Modulus (GPa) = 9.57980 22.25110 15.91545
#
# Velocity S-wave (km/s) = 2.28046 3.47552 2.93936
# Velocity P-wave (km/s) = 5.04135 6.22801 5.66583
#
# Compressibility (1/GPa) = 0.02937355
#
# Stress axis : x y z
#
# Youngs Moduli (GPa) = 60.62655 50.86198 46.68649
#
# Poissons Ratio (x) = 0.01846 0.26404
# Poissons Ratio (y) = 0.02201 0.37733
# Poissons Ratio (z) = 0.34288 0.41107
#
# Static dielectric constant tensor:
#      x y z
#    x 3.308990 0.000000 -0.046190 
#    y 0.000000 3.553940 0.000000 
#    z -0.046190 0.000000 3.717910 
# 
# 
# High freq. dielectric constant tensor:
#      x y z
#    x 1.688770 0.000000 0.002040 
#    y 0.000000 1.717190 0.000000 
#    z 0.002040 0.000000 1.732900 
# 
# From -- ./inp_files/87258.got.cif
#   From: 2010.06.25/outbox.cif.g09.slc.cpg/sg15_44_cif.got.tgz:87258.got - 2010.06.28 07:06:18.
