data_PCOD8134651
_publ_section_title
;
Structure prediction by ZEFSAII (Michael W. Deem and Ramdas Pophale) SiO2 
 PCOD8134651
Probable space group: C 2/C
;
_chemical_formula_sum "Si O2"
_cell_formula_units_Z 40
_cell_length_a 21.817265
_cell_length_b 15.587496
_cell_length_c 9.656471
_cell_angle_alpha 90.000000
_cell_angle_beta 141.485887
_cell_angle_gamma 90.000000
_cell_volume 2044.933177
_symmetry_space_group_name_H-M "C 2/C"
_symmetry_group_IT_number 15
_symmetry_cell_setting 'monoclinic'
loop_
_space_group_symop_operation_xyz
x,y,z
-x,y,1/2-z
-x,-y,-z
x,-y,1/2+z
1/2+x,1/2+y,z
1/2-x,1/2+y,1/2-z
1/2-x,1/2-y,-z
1/2+x,1/2-y,1/2+z
loop_
_atom_site_type_symbol
_atom_site_label
_atom_site_fract_x
_atom_site_fract_y
_atom_site_fract_z
Si Si1 0.047250 0.569684 0.983692
Si Si2 0.344092 0.521152 0.734399
Si Si3 0.547462 0.814294 0.985921
Si Si4 0.979855 0.126865 0.559710
Si Si5 0.717511 0.046872 0.765223
O O1 0.000000 0.573379 0.750000
O O2 0.160151 0.543751 0.161133
O O3 0.000000 0.500000 0.000000
O O4 0.033712 0.657578 0.043071
O O5 0.417041 0.599663 0.828391
O O6 0.262621 0.561166 0.692310
O O7 0.301285 0.468554 0.528036
O O8 0.403142 0.449638 0.922267
O O9 0.500000 0.825361 0.750000
O O10 0.567006 0.717138 0.074467
O O11 0.647599 0.871112 0.174370
O O12 0.000000 0.150976 0.750000
#
# Coordination Sequence:
#
# PCOD8134651 Si02
#       5
#     8   8   8   8   8
#     4  10  19  36  59  89 125 158 187 239 310 355
#     4  11  22  39  63  85 116 160 205 244 293 360
#     4  10  21  40  61  86 125 158 190 247 311 353
#     4  10  22  43  58  82 122 166 193 241 315 357
#     4  11  20  36  63  91 112 150 207 246 285 357
#
# _framework density 19.560541000000001
#
# number of rings (size 3 to 8) (size 9 to 14) (size 15 to 20)
#    0.000    1.600    2.000    6.000    0.000    0.800 
#    7.200    3.000    0.000    0.000    0.000    0.000 
#    0.000    0.000    0.000    0.000    0.000    0.000 
#
# Total GULP energy -247782.431915 kJ/mol
# GULP energy per Si atom -12389.121596 kJ/mol
# Density = 1.951602 g / cm^3
# Si number density = 19.560541 Si / 1000 Ang^3
#
#
#
# Elastic Constant Matrix: (Units=GPa)
#
#
# Indices 1 2 3 4 5 6 
#
# 1 121.4618 52.2966 19.4756 0.0000 0.5412 0.0000
# 2 52.2966 130.7022 18.5028 0.0000 8.4014 0.0000
# 3 19.4756 18.5028 60.9674 0.0000 -2.4904 0.0000
# 4 0.0000 0.0000 0.0000 33.0378 0.0000 -0.6507
# 5 0.5412 8.4014 -2.4904 0.0000 36.8614 0.0000
# 6 0.0000 0.0000 0.0000 -0.6507 0.0000 20.5824
#
#
#
# Elastic Compliance Matrix: (Units=1/GPa)
#
#
# Indices 1 2 3 4 5 6 
#
# 1 0.010212 -0.003830 -0.002076 0.000000 0.000583 0.000000
# 2 -0.003830 0.009579 -0.001776 0.000000 -0.002247 0.000000
# 3 -0.002076 -0.001776 0.017671 0.000000 0.001629 0.000000
# 4 0.000000 0.000000 0.000000 0.030287 0.000000 0.000958
# 5 0.000583 -0.002247 0.001629 0.000000 0.027742 0.000000
# 6 0.000000 0.000000 0.000000 0.000958 0.000000 0.048615
#
#
# Mechanical properties :
#
#
# Convention : Reuss Voigt Hill
#
# Bulk Modulus (GPa) = 45.25017 54.85350 50.05183
# Shear Modulus (GPa) = 29.96949 32.95343 31.46146
#
# Velocity S-wave (km/s) = 3.91850 4.10895 4.01486
# Velocity P-wave (km/s) = 6.60731 7.11443 6.86555
#
# Compressibility (1/GPa) = 0.02209937
#
# Stress axis : x y z
#
# Youngs Moduli (GPa) = 97.92162 104.39395 56.59047
#
# Poissons Ratio (x) = 0.39979 0.11749
# Poissons Ratio (y) = 0.37501 0.10048
# Poissons Ratio (z) = 0.20330 0.18536
#
# Static dielectric constant tensor:
#      x y z
#    x 3.975080 0.000000 0.023620 
#    y 0.000000 3.807290 0.000000 
#    z 0.023620 0.000000 3.546990 
# 
# 
# High freq. dielectric constant tensor:
#      x y z
#    x 1.773050 0.000000 -0.006740 
#    y 0.000000 1.754250 0.000000 
#    z -0.006740 0.000000 1.758640 
# 
# From -- ./inp_files/38072.got.cif
#   From: 2010.06.25/outbox.cif.g09.slc.cpg/sg15_20_cif.got.tgz:38072.got - 2010.06.28 07:06:18.
