data_PCOD8134084
_publ_section_title
;
Structure prediction by ZEFSAII (Michael W. Deem and Ramdas Pophale) SiO2 
 PCOD8134084
Probable space group: C 2/C
;
_chemical_formula_sum "Si O2"
_cell_formula_units_Z 56
_cell_length_a 11.527241
_cell_length_b 13.439433
_cell_length_c 24.718571
_cell_angle_alpha 90.000000
_cell_angle_beta 47.313197
_cell_angle_gamma 90.000000
_cell_volume 2814.873207
_symmetry_space_group_name_H-M "C 2/C"
_symmetry_group_IT_number 15
_symmetry_cell_setting 'monoclinic'
loop_
_space_group_symop_operation_xyz
x,y,z
-x,y,1/2-z
-x,-y,-z
x,-y,1/2+z
1/2+x,1/2+y,z
1/2-x,1/2+y,1/2-z
1/2-x,1/2-y,-z
1/2+x,1/2-y,1/2+z
loop_
_atom_site_type_symbol
_atom_site_label
_atom_site_fract_x
_atom_site_fract_y
_atom_site_fract_z
Si Si1 0.553396 0.040503 0.293044
Si Si2 0.367937 0.444255 0.162078
Si Si3 0.254045 0.925405 0.413323
Si Si4 0.349287 0.185293 0.531854
Si Si5 0.979927 0.260156 0.876055
Si Si6 0.701264 0.480837 0.552356
Si Si7 0.327678 0.220123 0.030830
O O1 0.500000 0.072515 0.250000
O O2 0.553799 0.138435 0.330275
O O3 0.725057 0.990072 0.241750
O O4 0.436920 0.955976 0.352776
O O5 0.339870 0.471349 0.107659
O O6 0.389691 0.327187 0.169766
O O7 0.527989 0.497513 0.129346
O O8 0.188882 0.962619 0.491543
O O9 0.229289 0.807009 0.411027
O O10 0.185534 0.236345 0.602785
O O11 0.428801 0.235631 0.454508
O O12 0.482001 0.206342 0.535597
O O13 0.321199 0.069837 0.527493
O O14 0.760065 0.387189 0.568824
O O15 0.250000 0.250000 0.000000
#
# Coordination Sequence:
#
# PCOD8134084 Si02
#       7
#     8   8   8   8   8   8   8
#     4  10  22  37  57  83 117 155 195 244 294 352
#     4  10  21  36  58  83 114 151 197 239 287 354
#     4  10  19  35  55  85 115 151 195 238 290 342
#     4  10  19  36  61  89 117 150 198 246 295 352
#     4  10  20  37  63  86 112 156 197 243 295 350
#     4  10  20  34  58  87 115 150 195 240 294 343
#     4  10  21  33  54  91 121 147 185 247 298 339
#
# _framework density 19.894324000000001
#
# number of rings (size 3 to 8) (size 9 to 14) (size 15 to 20)
#    0.000    2.000    2.857    0.857    0.000    5.714 
#    0.000    1.429    3.143    0.000    0.000    0.000 
#    0.000    0.000    0.000    0.000    0.000    0.000 
#
# Total GULP energy -346965.488160 kJ/mol
# GULP energy per Si atom -12391.624577 kJ/mol
# Density = 1.984904 g / cm^3
# Si number density = 19.894324 Si / 1000 Ang^3
#
#
#
# Elastic Constant Matrix: (Units=GPa)
#
#
# Indices 1 2 3 4 5 6 
#
# 1 88.1478 35.9992 31.2792 0.0000 -31.9436 0.0000
# 2 35.9992 138.1306 58.0649 0.0000 -27.8743 0.0000
# 3 31.2792 58.0649 94.3577 0.0002 -28.3271 0.0001
# 4 0.0000 0.0000 0.0002 35.5193 0.0000 -5.9199
# 5 -31.9436 -27.8743 -28.3271 0.0000 30.5522 0.0000
# 6 0.0000 0.0000 0.0001 -5.9199 0.0000 24.9845
#
#
#
# Elastic Compliance Matrix: (Units=1/GPa)
#
#
# Indices 1 2 3 4 5 6 
#
# 1 0.018406 -0.001146 0.000093 0.000000 0.018285 0.000000
# 2 -0.001146 0.010333 -0.004861 0.000000 0.003721 0.000000
# 3 0.000093 -0.004861 0.016984 0.000000 0.011409 0.000000
# 4 0.000000 0.000000 0.000000 0.029311 0.000000 0.006945
# 5 0.018285 0.003721 0.011409 0.000000 0.065821 0.000000
# 6 0.000000 0.000000 0.000000 0.006945 0.000000 0.041670
#
#
# Mechanical properties :
#
#
# Convention : Reuss Voigt Hill
#
# Bulk Modulus (GPa) = 29.50433 63.48030 46.49231
# Shear Modulus (GPa) = 24.31295 31.23071 27.77183
#
# Velocity S-wave (km/s) = 3.49965 3.96641 3.74032
# Velocity P-wave (km/s) = 5.58505 7.27699 6.48642
#
# Compressibility (1/GPa) = 0.03389334
#
# Stress axis : x y z
#
# Youngs Moduli (GPa) = 54.33102 96.78006 58.88013
#
# Poissons Ratio (x) = 0.11093 -0.00548
# Poissons Ratio (y) = 0.06228 0.28623
# Poissons Ratio (z) = -0.00506 0.47047
#
# Static dielectric constant tensor:
#      x y z
#    x 3.744380 0.000000 -0.234610 
#    y 0.000000 4.279640 0.000000 
#    z -0.234610 0.000000 3.494560 
# 
# 
# High freq. dielectric constant tensor:
#      x y z
#    x 1.773310 0.000000 -0.025430 
#    y 0.000000 1.789060 0.000000 
#    z -0.025430 0.000000 1.746480 
# 
# From -- ./inp_files/311048.got.cif
#   From: 2010.06.25/outbox.cif.g09.slc.cpg/sg15_156_cif.got.tgz:311048.got - 2010.06.28 07:06:18.
