data_PCOD8134155
_publ_section_title
;
Structure prediction by ZEFSAII (Michael W. Deem and Ramdas Pophale) SiO2 
 PCOD8134155
Probable space group: C 2/C
;
_chemical_formula_sum "Si O2"
_cell_formula_units_Z 60
_cell_length_a 23.248146
_cell_length_b 22.851939
_cell_length_c 13.543440
_cell_angle_alpha 90.000000
_cell_angle_beta 156.132694
_cell_angle_gamma 90.000000
_cell_volume 2911.303839
_symmetry_space_group_name_H-M "C 2/C"
_symmetry_group_IT_number 15
_symmetry_cell_setting 'monoclinic'
loop_
_space_group_symop_operation_xyz
x,y,z
-x,y,1/2-z
-x,-y,-z
x,-y,1/2+z
1/2+x,1/2+y,z
1/2-x,1/2+y,1/2-z
1/2-x,1/2-y,-z
1/2+x,1/2-y,1/2+z
loop_
_atom_site_type_symbol
_atom_site_label
_atom_site_fract_x
_atom_site_fract_y
_atom_site_fract_z
Si Si1 0.659418 0.955247 0.477107
Si Si2 0.840508 0.415887 0.514608
Si Si3 0.447253 0.087809 0.388131
Si Si4 0.354822 0.318467 0.253998
Si Si5 0.610930 0.375776 0.564894
Si Si6 0.500000 0.529518 0.750000
Si Si7 0.215885 0.692526 0.322156
Si Si8 0.701054 0.021805 0.812731
O O1 0.500000 0.935197 0.250000
O O2 0.760267 0.904861 0.675200
O O3 0.682470 0.960869 0.397189
O O4 0.690597 0.019106 0.578563
O O5 0.833493 0.421105 0.622099
O O6 0.724954 0.367195 0.303370
O O7 0.000000 0.391686 0.750000
O O8 0.424293 0.150912 0.401467
O O9 0.614763 0.075928 0.621794
O O10 0.387299 0.035589 0.364755
O O11 0.517294 0.338870 0.495624
O O12 0.340554 0.257517 0.291332
O O13 0.285982 0.309518 0.039194
O O14 0.514454 0.427781 0.367012
O O15 0.667606 0.330098 0.572496
O O16 0.366173 0.485629 0.547042
#
# Coordination Sequence:
#
# PCOD8134155 Si02
#       8
#     8   8   8   8   8   4   8   8
#     4  10  22  36  59  85 117 160 199 234 287 357
#     4   9  19  33  49  86 120 153 184 233 293 343
#     4   9  17  34  56  77 114 158 191 235 274 354
#     4  10  21  34  56  85 116 149 192 247 291 345
#     4  12  21  38  58  85 119 153 193 243 297 352
#     4  12  22  32  58  92 118 160 182 246 298 352
#     4  10  19  35  57  82 112 153 202 232 292 351
#     4  10  20  34  54  86 117 154 197 234 293 343
#
# _framework density 20.609324000000001
#
# number of rings (size 3 to 8) (size 9 to 14) (size 15 to 20)
#    0.000    1.867    2.667    2.400    5.600    5.333 
#    0.000    0.000    0.000    3.200    0.000    0.000 
#    0.000    0.000    0.000    0.000    0.000    0.000 
#
# Total GULP energy -371719.974681 kJ/mol
# GULP energy per Si atom -12390.665823 kJ/mol
# Density = 2.056242 g / cm^3
# Si number density = 20.609324 Si / 1000 Ang^3
#
#
#
# Elastic Constant Matrix: (Units=GPa)
#
#
# Indices 1 2 3 4 5 6 
#
# 1 38.6761 33.8238 19.2415 0.0000 31.0713 0.0000
# 2 33.8238 136.8114 61.1833 0.0000 28.9486 0.0000
# 3 19.2415 61.1833 95.4496 0.0000 33.3953 0.0000
# 4 0.0000 0.0000 0.0000 28.1849 0.0000 9.0647
# 5 31.0713 28.9486 33.3953 0.0000 39.1023 0.0000
# 6 0.0000 0.0000 0.0000 9.0647 0.0000 24.7783
#
#
#
# Elastic Compliance Matrix: (Units=1/GPa)
#
#
# Indices 1 2 3 4 5 6 
#
# 1 0.091745 -0.014210 0.017741 0.000000 -0.077533 0.000000
# 2 -0.014210 0.012670 -0.008451 0.000000 0.009129 0.000000
# 3 0.017741 -0.008451 0.021479 0.000000 -0.026185 0.000000
# 4 0.000000 0.000000 0.000000 0.040211 0.000000 -0.014711
# 5 -0.077533 0.009129 -0.026185 0.000000 0.102787 0.000000
# 6 0.000000 0.000000 0.000000 -0.014711 0.000000 0.045740
#
#
# Mechanical properties :
#
#
# Convention : Reuss Voigt Hill
#
# Bulk Modulus (GPa) = 8.61676 55.49271 32.05473
# Shear Modulus (GPa) = 13.76816 28.85901 21.31358
#
# Velocity S-wave (km/s) = 2.58748 3.74610 3.21934
# Velocity P-wave (km/s) = 3.62171 6.75985 5.42275
#
# Compressibility (1/GPa) = 0.11605294
#
# Stress axis : x y z
#
# Youngs Moduli (GPa) = 10.89980 78.92517 46.55756
#
# Poissons Ratio (x) = 1.12155 -0.82597
# Poissons Ratio (y) = 0.15489 0.39346
# Poissons Ratio (z) = -0.19337 0.66700
#
# Static dielectric constant tensor:
#      x y z
#    x 3.735520 0.000000 0.075220 
#    y 0.000000 4.025230 0.000000 
#    z 0.075220 0.000000 3.741530 
# 
# 
# High freq. dielectric constant tensor:
#      x y z
#    x 1.803820 0.000000 0.018530 
#    y 0.000000 1.790430 0.000000 
#    z 0.018530 0.000000 1.780990 
# 
# From -- ./inp_files/179133.got.cif
#   From: 2010.06.25/outbox.cif.g09.slc.cpg/sg15_90_cif.got.tgz:179133.got - 2010.06.28 07:06:18.
