data_PCOD8134182
_publ_section_title
;
Structure prediction by ZEFSAII (Michael W. Deem and Ramdas Pophale) SiO2 
 PCOD8134182
Probable space group: C 2/C
;
_chemical_formula_sum "Si O2"
_cell_formula_units_Z 60
_cell_length_a 27.547708
_cell_length_b 5.492459
_cell_length_c 22.246050
_cell_angle_alpha 90.000000
_cell_angle_beta 73.115273
_cell_angle_gamma 90.000000
_cell_volume 3220.829179
_symmetry_space_group_name_H-M "C 2/C"
_symmetry_group_IT_number 15
_symmetry_cell_setting 'monoclinic'
loop_
_space_group_symop_operation_xyz
x,y,z
-x,y,1/2-z
-x,-y,-z
x,-y,1/2+z
1/2+x,1/2+y,z
1/2-x,1/2+y,1/2-z
1/2-x,1/2-y,-z
1/2+x,1/2-y,1/2+z
loop_
_atom_site_type_symbol
_atom_site_label
_atom_site_fract_x
_atom_site_fract_y
_atom_site_fract_z
Si Si1 0.446588 0.753819 0.974065
Si Si2 0.421280 0.768290 0.848401
Si Si3 0.086179 0.645370 0.743168
Si Si4 0.261877 0.954890 0.211896
Si Si5 0.500000 0.525978 0.250000
Si Si6 0.866845 0.331733 0.678803
Si Si7 0.937270 0.245614 0.546385
Si Si8 0.837249 0.973178 0.301594
O O1 0.418520 0.783508 0.920592
O O2 0.507074 0.749056 0.944374
O O3 0.429590 0.493849 0.007799
O O4 0.428848 0.993248 0.017066
O O5 0.470283 0.615640 0.812106
O O6 0.367428 0.669524 0.842529
O O7 0.430859 0.026276 0.813626
O O8 0.041901 0.833831 0.774483
O O9 0.089887 0.474938 0.799622
O O10 0.141828 0.753457 0.709434
O O11 0.242803 0.183430 0.259320
O O12 0.320381 0.997954 0.172433
O O13 0.223814 0.965432 0.166987
O O14 0.894515 0.213121 0.612302
O O15 0.845589 0.129625 0.731264
#
# Coordination Sequence:
#
# PCOD8134182 Si02
#       8
#     8   8   8   8   4   8   8   8
#     4  10  24  41  56  79 114 155 199 237 275 335
#     4  10  22  36  54  83 112 156 185 241 290 346
#     4  10  20  33  53  86 113 151 179 235 288 351
#     4  10  19  35  57  87 121 149 180 236 301 350
#     4  10  22  30  52  86 116 142 190 228 298 346
#     4  10  21  35  60  84 118 147 192 239 284 354
#     4  10  24  39  58  81 109 159 199 233 279 330
#     4   9  20  35  55  89 115 145 184 234 302 347
#
# _framework density 18.628744999999999
#
# number of rings (size 3 to 8) (size 9 to 14) (size 15 to 20)
#    0.000    2.133    1.333    0.400   13.067    1.067 
#    0.000    0.000    0.000    1.600    0.000    0.000 
#    0.000    0.000    0.000    0.000    0.000    0.000 
#
# Total GULP energy -371666.475032 kJ/mol
# GULP energy per Si atom -12388.882501 kJ/mol
# Density = 1.858634 g / cm^3
# Si number density = 18.628745 Si / 1000 Ang^3
#
#
#
# Elastic Constant Matrix: (Units=GPa)
#
#
# Indices 1 2 3 4 5 6 
#
# 1 83.4334 18.4883 41.7594 0.0001 17.8080 0.0001
# 2 18.4883 100.3963 24.2232 -0.0008 8.2701 -0.0002
# 3 41.7594 24.2232 86.2575 -0.0001 13.5850 0.0001
# 4 0.0001 -0.0008 -0.0001 1.3217 0.0000 -23.2689
# 5 17.8080 8.2701 13.5850 0.0000 24.1839 0.0000
# 6 0.0001 -0.0002 0.0001 -23.2689 0.0000 -27.6554
#
#
#
# Elastic Compliance Matrix: (Units=1/GPa)
#
#
# Indices 1 2 3 4 5 6 
#
# 1 0.017459 -0.000846 -0.006841 0.000000 -0.008724 0.000000
# 2 -0.000846 0.010829 -0.002355 0.000000 -0.001758 0.000000
# 3 -0.006841 -0.002355 0.016068 0.000000 -0.003183 0.000000
# 4 0.000000 0.000000 0.000000 0.047847 0.000000 -0.040258
# 5 -0.008724 -0.001758 -0.003183 0.000000 0.050163 0.000000
# 6 0.000000 0.000000 0.000000 -0.040258 0.000000 -0.002287
#
#
# Mechanical properties :
#
#
# Convention : Reuss Voigt Hill
#
# Bulk Modulus (GPa) = 41.19833 48.78101 44.98967
# Shear Modulus (GPa) = 29.71704 11.94445 20.83075
#
# Velocity S-wave (km/s) = 3.99836 2.53491 3.34758
# Velocity P-wave (km/s) = 6.59388 5.90003 6.25659
#
# Compressibility (1/GPa) = 0.02427283
#
# Stress axis : x y z
#
# Youngs Moduli (GPa) = 57.27690 92.34261 62.23699
#
# Poissons Ratio (x) = 0.07812 0.42575
# Poissons Ratio (y) = 0.04845 0.14655
# Poissons Ratio (z) = 0.39182 0.21744
#
# Static dielectric constant tensor:
#      x y z
#    x 4.033050 0.000000 0.132950 
#    y 0.000000 3.685120 0.000000 
#    z 0.132950 0.000000 2.951440 
# 
# 
# High freq. dielectric constant tensor:
#      x y z
#    x 1.735470 0.000000 0.012600 
#    y 0.000000 1.742780 0.000000 
#    z 0.012600 0.000000 1.669790 
# 
# From -- ./inp_files/223860.got.cif
#   From: 2010.06.25/outbox.cif.g09.slc.cpg/sg15_112_cif.got.tgz:223860.got - 2010.06.28 07:06:18.
