data_PCOD8134792
_publ_section_title
;
Structure prediction by ZEFSAII (Michael W. Deem and Ramdas Pophale) SiO2 
 PCOD8134792
Probable space group: C 2/C
;
_chemical_formula_sum "Si O2"
_cell_formula_units_Z 40
_cell_length_a 18.669680
_cell_length_b 9.124247
_cell_length_c 14.176883
_cell_angle_alpha 90.000000
_cell_angle_beta 127.671574
_cell_angle_gamma 90.000000
_cell_volume 1911.526415
_symmetry_space_group_name_H-M "C 2/C"
_symmetry_group_IT_number 15
_symmetry_cell_setting 'monoclinic'
loop_
_space_group_symop_operation_xyz
x,y,z
-x,y,1/2-z
-x,-y,-z
x,-y,1/2+z
1/2+x,1/2+y,z
1/2-x,1/2+y,1/2-z
1/2-x,1/2-y,-z
1/2+x,1/2-y,1/2+z
loop_
_atom_site_type_symbol
_atom_site_label
_atom_site_fract_x
_atom_site_fract_y
_atom_site_fract_z
Si Si1 0.352015 0.686556 0.878174
Si Si2 0.965320 0.514840 0.628090
Si Si3 0.547795 0.193676 0.536558
Si Si4 0.851485 0.793376 0.581726
Si Si5 0.680448 0.394110 0.745676
O O1 0.311931 0.564766 0.775708
O O2 0.279461 0.819811 0.824630
O O3 0.448844 0.748824 0.923017
O O4 0.369448 0.619632 0.997987
O O5 0.911799 0.397886 0.519885
O O6 0.905847 0.642997 0.624660
O O7 0.000000 0.431394 0.750000
O O8 0.042470 0.587203 0.623466
O O9 0.615996 0.323807 0.614550
O O10 0.750000 0.750000 0.500000
O O11 0.869925 0.884903 0.692461
#
# Coordination Sequence:
#
# PCOD8134792 Si02
#       5
#     8   8   8   8   8
#     4  10  24  39  61  92 120 162 207 251 307 364
#     4  10  19  36  62  89 114 159 204 246 303 361
#     4  10  22  37  61  89 123 158 208 249 302 363
#     4   9  20  37  60  85 120 157 201 242 306 371
#     4  11  22  41  64  87 126 163 199 256 309 362
#
# _framework density 20.925684
#
# number of rings (size 3 to 8) (size 9 to 14) (size 15 to 20)
#    0.000    2.000    2.000    0.600   11.200    0.000 
#    3.600    1.000    0.000    0.000    0.000    0.000 
#    0.000    0.000    0.000    0.000    0.000    0.000 
#
# Total GULP energy -247782.993632 kJ/mol
# GULP energy per Si atom -12389.149682 kJ/mol
# Density = 2.087806 g / cm^3
# Si number density = 20.925684 Si / 1000 Ang^3
#
#
#
# Elastic Constant Matrix: (Units=GPa)
#
#
# Indices 1 2 3 4 5 6 
#
# 1 54.5695 17.5688 33.5182 0.0000 -14.2155 0.0000
# 2 17.5688 66.2363 37.2231 0.0000 -24.4965 0.0000
# 3 33.5182 37.2231 110.4496 0.0000 -22.9471 0.0000
# 4 0.0000 0.0000 0.0000 44.2380 0.0000 -5.9393
# 5 -14.2155 -24.4965 -22.9471 0.0000 43.2885 0.0000
# 6 0.0000 0.0000 0.0000 -5.9393 0.0000 21.0872
#
#
#
# Elastic Compliance Matrix: (Units=1/GPa)
#
#
# Indices 1 2 3 4 5 6 
#
# 1 0.023352 -0.001569 -0.005786 0.000000 0.003713 0.000000
# 2 -0.001569 0.021659 -0.004926 0.000000 0.009130 0.000000
# 3 -0.005786 -0.004926 0.012919 0.000000 0.002160 0.000000
# 4 0.000000 0.000000 0.000000 0.023493 0.000000 0.006617
# 5 0.003713 0.009130 0.002160 0.000000 0.030632 0.000000
# 6 0.000000 0.000000 0.000000 0.006617 0.000000 0.049286
#
#
# Mechanical properties :
#
#
# Convention : Reuss Voigt Hill
#
# Bulk Modulus (GPa) = 29.97034 45.31947 37.64491
# Shear Modulus (GPa) = 25.37741 31.25243 28.31492
#
# Velocity S-wave (km/s) = 3.48622 3.86877 3.68247
# Velocity P-wave (km/s) = 5.52796 6.45452 6.00913
#
# Compressibility (1/GPa) = 0.03336632
#
# Stress axis : x y z
#
# Youngs Moduli (GPa) = 42.82313 46.17114 77.40538
#
# Poissons Ratio (x) = 0.07243 0.44790
# Poissons Ratio (y) = 0.06718 0.38133
# Poissons Ratio (z) = 0.24779 0.22746
#
# Static dielectric constant tensor:
#      x y z
#    x 4.444340 0.000000 -0.703280 
#    y 0.000000 3.568680 0.000000 
#    z -0.703280 0.000000 4.366440 
# 
# 
# High freq. dielectric constant tensor:
#      x y z
#    x 1.809250 0.000000 -0.008610 
#    y 0.000000 1.786940 0.000000 
#    z -0.008610 0.000000 1.835040 
# 
# From -- ./inp_files/159515.got.cif
#   From: 2010.06.25/outbox.cif.g09.slc.cpg/sg15_80_cif.got.tgz:159515.got - 2010.06.28 07:06:18.
