data_PCOD8134745
_publ_section_title
;
Structure prediction by ZEFSAII (Michael W. Deem and Ramdas Pophale) SiO2 
 PCOD8134745
Probable space group: C 2/C
;
_chemical_formula_sum "Si O2"
_cell_formula_units_Z 44
_cell_length_a 11.011445
_cell_length_b 22.407562
_cell_length_c 11.886630
_cell_angle_alpha 90.000000
_cell_angle_beta 44.711658
_cell_angle_gamma 90.000000
_cell_volume 2063.412403
_symmetry_space_group_name_H-M "C 2/C"
_symmetry_group_IT_number 15
_symmetry_cell_setting 'monoclinic'
loop_
_space_group_symop_operation_xyz
x,y,z
-x,y,1/2-z
-x,-y,-z
x,-y,1/2+z
1/2+x,1/2+y,z
1/2-x,1/2+y,1/2-z
1/2-x,1/2-y,-z
1/2+x,1/2-y,1/2+z
loop_
_atom_site_type_symbol
_atom_site_label
_atom_site_fract_x
_atom_site_fract_y
_atom_site_fract_z
Si Si1 0.810065 0.116891 0.080813
Si Si2 0.092878 0.791698 0.382911
Si Si3 0.000000 0.705802 0.250000
Si Si4 0.511732 0.202366 0.874654
Si Si5 0.866267 0.413483 0.583147
Si Si6 0.368618 0.976540 0.935665
O O1 0.667578 0.164590 0.136581
O O2 0.784842 0.099402 0.227965
O O3 0.792858 0.058985 0.011895
O O4 0.999885 0.144075 0.940656
O O5 0.289328 0.802135 0.218418
O O6 0.997944 0.746320 0.361562
O O7 0.073737 0.762429 0.518976
O O8 0.500000 0.206409 0.750000
O O9 0.406728 0.145805 0.987620
O O10 0.799412 0.463547 0.540020
O O11 0.038235 0.434799 0.534031
O O12 0.500000 0.994431 0.750000
#
# Coordination Sequence:
#
# PCOD8134745 Si02
#       6
#     8   8   4   8   8   8
#     4  11  20  38  63  97 129 162 217 271 320 380
#     4  12  25  38  64  98 131 172 210 269 330 384
#     4  12  20  38  64  96 136 158 210 270 328 380
#     4  12  24  41  61  91 135 170 216 255 330 403
#     4  10  19  36  61  88 120 170 214 257 314 381
#     4   9  18  34  62  89 119 162 220 265 311 369
#
# _framework density 21.323899000000001
#
# number of rings (size 3 to 8) (size 9 to 14) (size 15 to 20)
#    0.000    1.091    6.364    1.636    2.545    0.000 
#    0.000    0.000    0.000   26.182    0.000    0.000 
#    0.000    0.000    0.000    0.000    0.000    0.000 
#
# Total GULP energy -272895.020730 kJ/mol
# GULP energy per Si atom -12404.319124 kJ/mol
# Density = 2.127537 g / cm^3
# Si number density = 21.323899 Si / 1000 Ang^3
#
#
#
# Elastic Constant Matrix: (Units=GPa)
#
#
# Indices 1 2 3 4 5 6 
#
# 1 52.0715 39.4053 27.2005 0.0000 25.4840 0.0000
# 2 39.4053 113.5301 39.1321 0.0000 9.8888 0.0000
# 3 27.2005 39.1321 59.7772 0.0000 11.0378 0.0000
# 4 0.0000 0.0000 0.0000 31.0241 0.0000 11.6729
# 5 25.4840 9.8888 11.0378 0.0000 40.3029 0.0000
# 6 0.0000 0.0000 0.0000 11.6729 0.0000 32.6949
#
#
#
# Elastic Compliance Matrix: (Units=1/GPa)
#
#
# Indices 1 2 3 4 5 6 
#
# 1 0.041471 -0.009537 -0.008655 0.000000 -0.021512 0.000000
# 2 -0.009537 0.013592 -0.005325 0.000000 0.004154 0.000000
# 3 -0.008655 -0.005325 0.024121 0.000000 0.000173 0.000000
# 4 0.000000 0.000000 0.000000 0.037235 0.000000 -0.013294
# 5 -0.021512 0.004154 0.000173 0.000000 0.037348 0.000000
# 6 0.000000 0.000000 0.000000 -0.013294 0.000000 0.035332
#
#
# Mechanical properties :
#
#
# Convention : Reuss Voigt Hill
#
# Bulk Modulus (GPa) = 31.10467 48.53938 39.82203
# Shear Modulus (GPa) = 20.25519 28.78045 24.51782
#
# Velocity S-wave (km/s) = 3.08536 3.67779 3.39452
# Velocity P-wave (km/s) = 5.22599 6.39118 5.83773
#
# Compressibility (1/GPa) = 0.03214951
#
# Stress axis : x y z
#
# Youngs Moduli (GPa) = 24.11327 73.57159 41.45732
#
# Poissons Ratio (x) = 0.70166 0.35882
# Poissons Ratio (y) = 0.22997 0.22077
# Poissons Ratio (z) = 0.20870 0.39178
#
# Static dielectric constant tensor:
#      x y z
#    x 3.865830 0.000000 0.279750 
#    y 0.000000 4.004430 0.000000 
#    z 0.279750 0.000000 3.836920 
# 
# 
# High freq. dielectric constant tensor:
#      x y z
#    x 1.821590 0.000000 0.027130 
#    y 0.000000 1.839210 0.000000 
#    z 0.027130 0.000000 1.831190 
# 
# From -- ./inp_files/30705.got.cif
#   From: 2010.06.25/outbox.cif.g09.slc.cpg/sg15_16_cif.got.tgz:30705.got - 2010.06.28 07:06:18.
