data_PCOD8134000
_publ_section_title
;
Structure prediction by ZEFSAII (Michael W. Deem and Ramdas Pophale) SiO2 
 PCOD8134000
Probable space group: C 2/C
;
_chemical_formula_sum "Si O2"
_cell_formula_units_Z 60
_cell_length_a 26.332175
_cell_length_b 15.545779
_cell_length_c 10.729663
_cell_angle_alpha 90.000000
_cell_angle_beta 50.164105
_cell_angle_gamma 90.000000
_cell_volume 3372.717694
_symmetry_space_group_name_H-M "C 2/C"
_symmetry_group_IT_number 15
_symmetry_cell_setting 'monoclinic'
loop_
_space_group_symop_operation_xyz
x,y,z
-x,y,1/2-z
-x,-y,-z
x,-y,1/2+z
1/2+x,1/2+y,z
1/2-x,1/2+y,1/2-z
1/2-x,1/2-y,-z
1/2+x,1/2-y,1/2+z
loop_
_atom_site_type_symbol
_atom_site_label
_atom_site_fract_x
_atom_site_fract_y
_atom_site_fract_z
Si Si1 0.699842 0.667121 0.696200
Si Si2 0.222799 0.501687 0.411775
Si Si3 0.384971 0.112021 0.808563
Si Si4 0.823614 0.777039 0.004999
Si Si5 0.802307 0.832363 0.779216
Si Si6 0.000000 0.514008 0.750000
Si Si7 0.112607 0.597781 0.970947
Si Si8 0.336854 0.255700 0.486745
O O1 0.728421 0.573149 0.616292
O O2 0.661260 0.670283 0.890609
O O3 0.648598 0.694925 0.666307
O O4 0.758620 0.736170 0.611122
O O5 0.171920 0.538317 0.595728
O O6 0.267384 0.579506 0.293615
O O7 0.176663 0.464875 0.373498
O O8 0.387504 0.144691 0.662420
O O9 0.455788 0.073483 0.731536
O O10 0.369698 0.192233 0.923120
O O11 0.747157 0.748680 0.129763
O O12 0.836362 0.838426 0.863394
O O13 0.852271 0.813369 0.585751
O O14 0.045398 0.454808 0.591552
O O15 0.119490 0.668798 0.070432
#
# Coordination Sequence:
#
# PCOD8134000 Si02
#       8
#     8   8   8   8   8   4   8   8
#     4   9  18  29  42  70  99 130 157 199 233 289
#     4   9  20  27  47  74 103 128 165 194 245 279
#     4  10  19  35  50  69  94 137 166 205 241 296
#     4   9  17  30  47  65  95 129 169 189 239 288
#     4   9  16  27  46  69  92 131 162 196 226 298
#     4  10  22  36  48  76  94 120 168 218 252 272
#     4  10  19  35  49  69  97 134 165 207 242 293
#     4   9  17  30  45  64  97 130 165 190 242 287
#
# _framework density 17.789808000000001
#
# number of rings (size 3 to 8) (size 9 to 14) (size 15 to 20)
#    0.000    2.667    1.333    0.400    7.467    0.000 
#   16.800    0.000    0.000    0.000    0.000    0.000 
#    0.000    6.400    0.000    0.000    0.000    0.000 
#
# Total GULP energy -371719.385805 kJ/mol
# GULP energy per Si atom -12390.646193 kJ/mol
# Density = 1.774932 g / cm^3
# Si number density = 17.789808 Si / 1000 Ang^3
#
#
#
# Elastic Constant Matrix: (Units=GPa)
#
#
# Indices 1 2 3 4 5 6 
#
# 1 72.4370 39.9623 49.1410 0.0000 18.7952 0.0000
# 2 39.9623 79.0658 30.3562 0.0000 1.8784 0.0000
# 3 49.1410 30.3562 58.9959 0.0000 22.2842 0.0000
# 4 0.0000 0.0000 0.0000 22.2421 0.0000 0.1044
# 5 18.7952 1.8784 22.2842 0.0000 30.6855 0.0000
# 6 0.0000 0.0000 0.0000 0.1044 0.0000 23.4766
#
#
#
# Elastic Compliance Matrix: (Units=1/GPa)
#
#
# Indices 1 2 3 4 5 6 
#
# 1 0.035944 -0.008955 -0.023734 0.000000 -0.004232 0.000000
# 2 -0.008955 0.019089 -0.005504 0.000000 0.008313 0.000000
# 3 -0.023734 -0.005504 0.046760 0.000000 -0.019083 0.000000
# 4 0.000000 0.000000 0.000000 0.044961 0.000000 -0.000200
# 5 -0.004232 0.008313 -0.019083 0.000000 0.048531 0.000000
# 6 0.000000 0.000000 0.000000 -0.000200 0.000000 0.042597
#
#
# Mechanical properties :
#
#
# Convention : Reuss Voigt Hill
#
# Bulk Modulus (GPa) = 39.35582 49.93529 44.64555
# Shear Modulus (GPa) = 15.49263 21.35013 18.42138
#
# Velocity S-wave (km/s) = 2.95425 3.46805 3.22141
# Velocity P-wave (km/s) = 5.81442 6.64583 6.24398
#
# Compressibility (1/GPa) = 0.02540921
#
# Stress axis : x y z
#
# Youngs Moduli (GPa) = 27.82090 52.38590 21.38600
#
# Poissons Ratio (x) = 0.46909 0.50757
# Poissons Ratio (y) = 0.24912 0.11770
# Poissons Ratio (z) = 0.66029 0.28831
#
# Static dielectric constant tensor:
#      x y z
#    x 3.184800 0.000000 0.408070 
#    y 0.000000 3.161300 0.000000 
#    z 0.408070 0.000000 3.200610 
# 
# 
# High freq. dielectric constant tensor:
#      x y z
#    x 1.658080 0.000000 0.039390 
#    y 0.000000 1.676250 0.000000 
#    z 0.039390 0.000000 1.659450 
# 
# From -- ./inp_files/123134.got.cif
#   From: 2010.06.25/outbox.cif.g09.slc.cpg/sg15_62_cif.got.tgz:123134.got - 2010.06.28 07:06:18.
