data_PCOD8134252
_publ_section_title
;
Structure prediction by ZEFSAII (Michael W. Deem and Ramdas Pophale) SiO2 
 PCOD8134252
Probable space group: C 2/C
;
_chemical_formula_sum "Si O2"
_cell_formula_units_Z 64
_cell_length_a 22.404092
_cell_length_b 11.895316
_cell_length_c 16.839202
_cell_angle_alpha 90.000000
_cell_angle_beta 131.524030
_cell_angle_gamma 90.000000
_cell_volume 3359.849037
_symmetry_space_group_name_H-M "C 2/C"
_symmetry_group_IT_number 15
_symmetry_cell_setting 'monoclinic'
loop_
_space_group_symop_operation_xyz
x,y,z
-x,y,1/2-z
-x,-y,-z
x,-y,1/2+z
1/2+x,1/2+y,z
1/2-x,1/2+y,1/2-z
1/2-x,1/2-y,-z
1/2+x,1/2-y,1/2+z
loop_
_atom_site_type_symbol
_atom_site_label
_atom_site_fract_x
_atom_site_fract_y
_atom_site_fract_z
Si Si1 0.017377 0.246521 0.948170
Si Si2 0.762116 0.979477 0.860443
Si Si3 0.365477 0.119920 0.358775
Si Si4 0.442217 0.428600 0.267357
Si Si5 0.763726 0.713056 0.716441
Si Si6 0.279597 0.374379 0.042453
Si Si7 0.611183 0.608300 0.151818
Si Si8 0.336733 0.901166 0.428673
O O1 0.953430 0.339344 0.917018
O O2 0.987038 0.173932 0.848489
O O3 0.038011 0.165095 0.040285
O O4 0.094871 0.313463 0.987005
O O5 0.682926 0.912582 0.763758
O O6 0.832090 0.961194 0.857802
O O7 0.741626 0.111340 0.850621
O O8 0.791849 0.939379 0.971412
O O9 0.319135 0.220513 0.361455
O O10 0.373588 0.012813 0.423186
O O11 0.500000 0.477551 0.250000
O O12 0.362500 0.376069 0.161405
O O13 0.424473 0.527892 0.313139
O O14 0.837226 0.794658 0.759198
O O15 0.776266 0.661301 0.815367
O O16 0.212775 0.435936 0.037081
O O17 0.250000 0.250000 0.000000
#
# Coordination Sequence:
#
# PCOD8134252 Si02
#       8
#     8   8   8   8   8   8   8   8
#     4  11  21  36  59  83 112 149 188 227 279 335
#     4  10  20  36  59  84 110 149 190 227 277 337
#     4  10  19  35  59  83 109 147 188 232 274 332
#     4  12  24  37  56  86 115 143 181 233 284 330
#     4   9  18  36  59  80 106 147 191 228 274 334
#     4  12  22  37  57  83 115 146 182 234 286 333
#     4  10  21  39  58  81 112 147 188 230 274 339
#     4  10  21  36  55  84 114 144 188 235 279 330
#
# _framework density 19.048475
#
# number of rings (size 3 to 8) (size 9 to 14) (size 15 to 20)
#    0.000    1.500    0.000    9.000    0.000    1.000 
#    0.000    3.750    0.000    0.000    0.000    0.000 
#    0.000    0.000    0.000    0.000    0.000    0.000 
#
# Total GULP energy -396900.467665 kJ/mol
# GULP energy per Si atom -12403.139615 kJ/mol
# Density = 1.900512 g / cm^3
# Si number density = 19.048475 Si / 1000 Ang^3
#
#
#
# Elastic Constant Matrix: (Units=GPa)
#
#
# Indices 1 2 3 4 5 6 
#
# 1 121.1575 49.1275 46.8622 0.0000 -5.0160 0.0000
# 2 49.1275 113.8030 48.0534 0.0000 -3.7072 0.0000
# 3 46.8622 48.0534 101.6177 0.0000 5.3065 0.0000
# 4 0.0000 0.0000 0.0000 30.4093 0.0000 4.5567
# 5 -5.0160 -3.7072 5.3065 0.0000 24.5699 0.0000
# 6 0.0000 0.0000 0.0000 4.5567 0.0000 26.8187
#
#
#
# Elastic Compliance Matrix: (Units=1/GPa)
#
#
# Indices 1 2 3 4 5 6 
#
# 1 0.011082 -0.003103 -0.003779 0.000000 0.002610 0.000000
# 2 -0.003103 0.012043 -0.004375 0.000000 0.002129 0.000000
# 3 -0.003779 -0.004375 0.013884 0.000000 -0.004430 0.000000
# 4 0.000000 0.000000 0.000000 0.033744 0.000000 -0.005733
# 5 0.002610 0.002129 -0.004430 0.000000 0.042511 0.000000
# 6 0.000000 0.000000 0.000000 -0.005733 0.000000 0.038262
#
#
# Mechanical properties :
#
#
# Convention : Reuss Voigt Hill
#
# Bulk Modulus (GPa) = 68.99488 69.40716 69.20102
# Shear Modulus (GPa) = 27.95279 29.19525 28.57402
#
# Velocity S-wave (km/s) = 3.83489 3.91919 3.87727
# Velocity P-wave (km/s) = 7.47716 7.54959 7.51346
#
# Compressibility (1/GPa) = 0.01449383
#
# Stress axis : x y z
#
# Youngs Moduli (GPa) = 90.23747 83.03242 72.02449
#
# Poissons Ratio (x) = 0.25765 0.27222
# Poissons Ratio (y) = 0.28001 0.31513
# Poissons Ratio (z) = 0.34105 0.36330
#
# Static dielectric constant tensor:
#      x y z
#    x 3.410210 0.000000 0.088090 
#    y 0.000000 3.675890 0.000000 
#    z 0.088090 0.000000 3.602590 
# 
# 
# High freq. dielectric constant tensor:
#      x y z
#    x 1.728560 0.000000 0.016210 
#    y 0.000000 1.750810 0.000000 
#    z 0.016210 0.000000 1.741060 
# 
# From -- ./inp_files/215080.got.cif
#   From: 2010.06.25/outbox.cif.g09.slc.cpg/sg15_108_cif.got.tgz:215080.got - 2010.06.28 07:06:18.
