data_PCOD8134298
_publ_section_title
;
Structure prediction by ZEFSAII (Michael W. Deem and Ramdas Pophale) SiO2 
 PCOD8134298
Probable space group: C 2/C
;
_chemical_formula_sum "Si O2"
_cell_formula_units_Z 64
_cell_length_a 9.207863
_cell_length_b 33.676418
_cell_length_c 14.124833
_cell_angle_alpha 90.000000
_cell_angle_beta 131.047484
_cell_angle_gamma 90.000000
_cell_volume 3303.199372
_symmetry_space_group_name_H-M "C 2/C"
_symmetry_group_IT_number 15
_symmetry_cell_setting 'monoclinic'
loop_
_space_group_symop_operation_xyz
x,y,z
-x,y,1/2-z
-x,-y,-z
x,-y,1/2+z
1/2+x,1/2+y,z
1/2-x,1/2+y,1/2-z
1/2-x,1/2-y,-z
1/2+x,1/2-y,1/2+z
loop_
_atom_site_type_symbol
_atom_site_label
_atom_site_fract_x
_atom_site_fract_y
_atom_site_fract_z
Si Si1 0.887013 0.143427 0.106320
Si Si2 0.678216 0.638993 0.757257
Si Si3 0.123117 0.556616 0.396072
Si Si4 0.477618 0.590128 0.980394
Si Si5 0.327694 0.220032 0.751928
Si Si6 0.833675 0.468081 0.102555
Si Si7 0.417639 0.273186 0.522766
Si Si8 0.026776 0.405452 0.486575
O O1 0.900591 0.181336 0.045010
O O2 0.000000 0.152360 0.250000
O O3 0.982270 0.107390 0.088910
O O4 0.667853 0.132622 0.041317
O O5 0.500000 0.646952 0.750000
O O6 0.620267 0.622212 0.630253
O O7 0.797163 0.679333 0.794861
O O8 0.814064 0.606615 0.864047
O O9 0.307988 0.584074 0.463555
O O10 0.195344 0.512165 0.452174
O O11 0.000000 0.555214 0.250000
O O12 0.984501 0.576028 0.414234
O O13 0.361306 0.548461 0.931989
O O14 0.500000 0.215026 0.750000
O O15 0.380793 0.253688 0.854089
O O16 0.127090 0.230596 0.609786
O O17 0.890544 0.439941 0.042047
O O18 0.000000 0.467866 0.250000
O O19 0.250000 0.250000 0.500000
#
# Coordination Sequence:
#
# PCOD8134298 Si02
#       8
#     8   8   8   8   8   8   8   8
#     4  11  22  37  62  90 118 155 197 248 300 361
#     4  12  23  39  62  90 120 161 203 252 299 360
#     4  11  23  40  56  85 125 163 195 248 309 364
#     4  11  22  39  61  86 121 155 206 246 301 354
#     4  10  21  37  64  91 121 159 199 256 307 361
#     4  10  21  36  62  87 117 155 205 253 303 354
#     4  10  19  35  59  91 120 147 196 251 302 351
#     4  11  22  37  61  88 118 156 205 251 297 359
#
# _framework density 19.375154999999999
#
# number of rings (size 3 to 8) (size 9 to 14) (size 15 to 20)
#    0.000    1.250    3.750    4.125    1.750    0.000 
#    0.000    0.625    2.750    0.000    0.000    0.000 
#    0.000    0.000    0.000    0.000    0.000    0.000 
#
# Total GULP energy -396745.576343 kJ/mol
# GULP energy per Si atom -12398.299261 kJ/mol
# Density = 1.933106 g / cm^3
# Si number density = 19.375155 Si / 1000 Ang^3
#
#
#
# Elastic Constant Matrix: (Units=GPa)
#
#
# Indices 1 2 3 4 5 6 
#
# 1 81.5811 27.6736 20.9143 0.0000 2.2870 0.0000
# 2 27.6736 105.3929 37.6111 0.0000 3.6875 0.0000
# 3 20.9143 37.6111 109.0178 0.0000 -4.9657 0.0000
# 4 0.0000 0.0000 0.0000 22.8051 0.0000 3.4481
# 5 2.2870 3.6875 -4.9657 0.0000 25.0567 0.0000
# 6 0.0000 0.0000 0.0000 3.4481 0.0000 20.8909
#
#
#
# Elastic Compliance Matrix: (Units=1/GPa)
#
#
# Indices 1 2 3 4 5 6 
#
# 1 0.013723 -0.002971 -0.001660 0.000000 -0.001144 0.000000
# 2 -0.002971 0.011603 -0.003530 0.000000 -0.002136 0.000000
# 3 -0.001660 -0.003530 0.010838 0.000000 0.002819 0.000000
# 4 0.000000 0.000000 0.000000 0.044972 0.000000 -0.007423
# 5 -0.001144 -0.002136 0.002819 0.000000 0.040887 0.000000
# 6 0.000000 0.000000 0.000000 -0.007423 0.000000 0.049093
#
#
# Mechanical properties :
#
#
# Convention : Reuss Voigt Hill
#
# Bulk Modulus (GPa) = 50.39963 52.04331 51.22147
# Shear Modulus (GPa) = 25.76628 27.73671 26.75150
#
# Velocity S-wave (km/s) = 3.65068 3.78770 3.71982
# Velocity P-wave (km/s) = 6.62110 6.78587 6.70399
#
# Compressibility (1/GPa) = 0.01984141
#
# Stress axis : x y z
#
# Youngs Moduli (GPa) = 72.86957 86.18439 92.27124
#
# Poissons Ratio (x) = 0.25605 0.15315
# Poissons Ratio (y) = 0.21650 0.32575
# Poissons Ratio (z) = 0.12095 0.30426
#
# Static dielectric constant tensor:
#      x y z
#    x 3.375830 0.000000 0.010400 
#    y 0.000000 3.679720 0.000000 
#    z 0.010400 0.000000 4.053220 
# 
# 
# High freq. dielectric constant tensor:
#      x y z
#    x 1.735360 0.000000 -0.003740 
#    y 0.000000 1.761120 0.000000 
#    z -0.003740 0.000000 1.763990 
# 
# From -- ./inp_files/139872.got.cif
#   From: 2010.06.25/outbox.cif.g09.slc.cpg/sg15_70_cif.got.tgz:139872.got - 2010.06.28 07:06:18.
