data_PCOD8134369
_publ_section_title
;
Structure prediction by ZEFSAII (Michael W. Deem and Ramdas Pophale) SiO2 
 PCOD8134369
Probable space group: C 2/C
;
_chemical_formula_sum "Si O2"
_cell_formula_units_Z 60
_cell_length_a 11.417273
_cell_length_b 23.714418
_cell_length_c 13.177890
_cell_angle_alpha 90.000000
_cell_angle_beta 52.202624
_cell_angle_gamma 90.000000
_cell_volume 2819.346543
_symmetry_space_group_name_H-M "C 2/C"
_symmetry_group_IT_number 15
_symmetry_cell_setting 'monoclinic'
loop_
_space_group_symop_operation_xyz
x,y,z
-x,y,1/2-z
-x,-y,-z
x,-y,1/2+z
1/2+x,1/2+y,z
1/2-x,1/2+y,1/2-z
1/2-x,1/2-y,-z
1/2+x,1/2-y,1/2+z
loop_
_atom_site_type_symbol
_atom_site_label
_atom_site_fract_x
_atom_site_fract_y
_atom_site_fract_z
Si Si1 0.788822 0.018274 0.703257
Si Si2 0.379014 0.307088 0.885113
Si Si3 0.560796 0.777446 0.421440
Si Si4 0.220624 0.918712 0.493831
Si Si5 0.000000 0.978623 0.750000
Si Si6 0.972972 0.591709 0.574677
Si Si7 0.391584 0.908847 0.713000
Si Si8 0.679510 0.786203 0.805903
O O1 0.735971 0.955172 0.704984
O O2 0.935984 0.017348 0.693780
O O3 0.834020 0.049078 0.576002
O O4 0.665576 0.053419 0.827159
O O5 0.500000 0.338230 0.750000
O O6 0.457588 0.254376 0.895672
O O7 0.317537 0.352327 0.998478
O O8 0.246779 0.285464 0.883882
O O9 0.566987 0.842956 0.389749
O O10 0.492047 0.768903 0.573410
O O11 0.730678 0.754273 0.319489
O O12 0.136917 0.941498 0.637473
O O13 0.395897 0.925731 0.418003
O O14 0.015708 0.578110 0.436933
O O15 0.500000 0.910830 0.750000
O O16 0.313401 0.847954 0.747554
#
# Coordination Sequence:
#
# PCOD8134369 Si02
#       8
#     8   8   8   8   4   8   8   8
#     4  12  27  42  70 100 129 181 218 288 333 402
#     4  10  19  35  61  95 134 168 208 277 334 389
#     4  10  22  36  67  95 131 175 218 274 348 387
#     4  12  23  41  68 100 135 174 223 273 342 399
#     4  12  26  48  62  98 144 170 224 280 340 404
#     4  11  24  45  67 101 137 167 232 290 322 399
#     4  11  23  44  70  94 126 185 231 264 341 410
#     4  10  21  40  60  98 132 175 219 282 334 397
#
# _framework density 21.281527000000001
#
# number of rings (size 3 to 8) (size 9 to 14) (size 15 to 20)
#    0.000    1.067    4.667    2.400    5.600    2.133 
#    0.000    2.667    1.467    0.000    0.000    0.000 
#    0.000    0.000    0.000    0.000    0.000    0.000 
#
# Total GULP energy -371929.136808 kJ/mol
# GULP energy per Si atom -12397.637894 kJ/mol
# Density = 2.123309 g / cm^3
# Si number density = 21.281527 Si / 1000 Ang^3
#
#
#
# Elastic Constant Matrix: (Units=GPa)
#
#
# Indices 1 2 3 4 5 6 
#
# 1 53.4386 13.0201 7.2698 0.0000 -6.2825 0.0000
# 2 13.0201 93.2492 38.3847 0.0000 -9.4438 0.0000
# 3 7.2698 38.3847 103.5465 0.0000 -12.8853 0.0000
# 4 0.0000 0.0000 0.0000 34.6503 0.0000 -9.1761
# 5 -6.2825 -9.4438 -12.8853 0.0000 29.3257 0.0000
# 6 0.0000 0.0000 0.0000 -9.1761 0.0000 16.1271
#
#
#
# Elastic Compliance Matrix: (Units=1/GPa)
#
#
# Indices 1 2 3 4 5 6 
#
# 1 0.019704 -0.002372 -0.000078 0.000000 0.003423 0.000000
# 2 -0.002372 0.013068 -0.004461 0.000000 0.001740 0.000000
# 3 -0.000078 -0.004461 0.011780 0.000000 0.003723 0.000000
# 4 0.000000 0.000000 0.000000 0.033980 0.000000 0.019334
# 5 0.003423 0.001740 0.003723 0.000000 0.037029 0.000000
# 6 0.000000 0.000000 0.000000 0.019334 0.000000 0.073008
#
#
# Mechanical properties :
#
#
# Convention : Reuss Voigt Hill
#
# Bulk Modulus (GPa) = 32.54285 40.84260 36.69273
# Shear Modulus (GPa) = 23.51446 28.79127 26.15287
#
# Velocity S-wave (km/s) = 3.32765 3.68214 3.50937
# Velocity P-wave (km/s) = 5.48535 6.10825 5.80516
#
# Compressibility (1/GPa) = 0.03072871
#
# Stress axis : x y z
#
# Youngs Moduli (GPa) = 50.75078 76.52412 84.88994
#
# Poissons Ratio (x) = 0.18155 0.00662
# Poissons Ratio (y) = 0.12040 0.37871
# Poissons Ratio (z) = 0.00396 0.34139
#
# Static dielectric constant tensor:
#      x y z
#    x 3.629310 0.000000 -0.161320 
#    y 0.000000 3.880630 0.000000 
#    z -0.161320 0.000000 4.145800 
# 
# 
# High freq. dielectric constant tensor:
#      x y z
#    x 1.807530 0.000000 -0.010820 
#    y 0.000000 1.839920 0.000000 
#    z -0.010820 0.000000 1.847980 
# 
# From -- ./inp_files/148099.got.cif
#   From: 2010.06.25/outbox.cif.g09.slc.cpg/sg15_75_cif.got.tgz:148099.got - 2010.06.28 07:06:18.
