data_PCOD8134902
_publ_section_title
;
Structure prediction by ZEFSAII (Michael W. Deem and Ramdas Pophale) SiO2 
 PCOD8134902
Probable space group: C 2/C
;
_chemical_formula_sum "Si O2"
_cell_formula_units_Z 48
_cell_length_a 12.223153
_cell_length_b 9.166876
_cell_length_c 22.680375
_cell_angle_alpha 90.000000
_cell_angle_beta 106.169373
_cell_angle_gamma 90.000000
_cell_volume 2440.766798
_symmetry_space_group_name_H-M "C 2/C"
_symmetry_group_IT_number 15
_symmetry_cell_setting 'monoclinic'
loop_
_space_group_symop_operation_xyz
x,y,z
-x,y,1/2-z
-x,-y,-z
x,-y,1/2+z
1/2+x,1/2+y,z
1/2-x,1/2+y,1/2-z
1/2-x,1/2-y,-z
1/2+x,1/2-y,1/2+z
loop_
_atom_site_type_symbol
_atom_site_label
_atom_site_fract_x
_atom_site_fract_y
_atom_site_fract_z
Si Si1 0.335367 0.545222 0.685856
Si Si2 0.038299 0.811027 0.061741
Si Si3 0.691388 0.721331 0.114883
Si Si4 0.915104 0.009796 0.822380
Si Si5 0.825029 0.025495 0.493914
Si Si6 0.341700 0.022461 0.427739
O O1 0.305625 0.712392 0.662007
O O2 0.327060 0.536200 0.755532
O O3 0.458582 0.497990 0.683205
O O4 0.244054 0.439018 0.639787
O O5 0.053513 0.636068 0.057127
O O6 0.095575 0.860121 0.131872
O O7 0.100865 0.887529 0.015899
O O8 0.905913 0.859689 0.041502
O O9 0.612911 0.644018 0.151416
O O10 0.729761 0.608791 0.070030
O O11 0.615903 0.854696 0.075144
O O12 0.726104 0.967018 0.520923
#
# Coordination Sequence:
#
# PCOD8134902 Si02
#       6
#     8   8   8   8   8   8
#     4   9  21  35  60  80 111 148 193 231 282 336
#     4  10  20  33  61  84 110 156 185 231 283 340
#     4   9  21  35  60  83 112 152 184 239 282 336
#     4  10  19  39  59  79 115 152 186 238 285 331
#     4  10  19  37  54  84 120 143 192 229 284 336
#     4  10  20  34  56  86 110 147 189 230 278 340
#
# _framework density 19.665951
#
# number of rings (size 3 to 8) (size 9 to 14) (size 15 to 20)
#    1.000    1.333    1.667    1.000    2.333    0.667 
#    0.000    0.000    7.333    2.000    0.000    0.000 
#    0.000    0.000    0.000    0.000    0.000    0.000 
#
# Total GULP energy -297403.326541 kJ/mol
# GULP energy per Si atom -12391.805273 kJ/mol
# Density = 1.962119 g / cm^3
# Si number density = 19.665951 Si / 1000 Ang^3
#
#
#
# Elastic Constant Matrix: (Units=GPa)
#
#
# Indices 1 2 3 4 5 6 
#
# 1 46.2631 11.1672 17.2532 0.0000 -7.0817 0.0000
# 2 11.1672 64.0356 11.3191 0.0000 -7.3701 0.0000
# 3 17.2532 11.3191 103.0212 0.0000 -11.7065 0.0000
# 4 0.0000 0.0000 0.0000 20.3104 0.0000 2.5657
# 5 -7.0817 -7.3701 -11.7065 0.0000 24.4150 0.0000
# 6 0.0000 0.0000 0.0000 2.5657 0.0000 33.8626
#
#
#
# Elastic Compliance Matrix: (Units=1/GPa)
#
#
# Indices 1 2 3 4 5 6 
#
# 1 0.024265 -0.003141 -0.003201 0.000000 0.004555 0.000000
# 2 -0.003141 0.016750 -0.000892 0.000000 0.003717 0.000000
# 3 -0.003201 -0.000892 0.010793 0.000000 0.003977 0.000000
# 4 0.000000 0.000000 0.000000 0.049712 0.000000 -0.003767
# 5 0.004555 0.003717 0.003977 0.000000 0.045309 0.000000
# 6 0.000000 0.000000 0.000000 -0.003767 0.000000 0.029816
#
#
# Mechanical properties :
#
#
# Convention : Reuss Voigt Hill
#
# Bulk Modulus (GPa) = 26.78181 32.53323 29.65752
# Shear Modulus (GPa) = 24.56292 27.28961 25.92627
#
# Velocity S-wave (km/s) = 3.53796 3.72917 3.63482
# Velocity P-wave (km/s) = 5.50795 5.92631 5.72095
#
# Compressibility (1/GPa) = 0.03733877
#
# Stress axis : x y z
#
# Youngs Moduli (GPa) = 41.21199 59.70274 92.65485
#
# Poissons Ratio (x) = 0.18755 0.29658
# Poissons Ratio (y) = 0.12947 0.08263
# Poissons Ratio (z) = 0.13192 0.05324
#
# Static dielectric constant tensor:
#      x y z
#    x 3.150780 0.000000 -0.045100 
#    y 0.000000 3.412790 0.000000 
#    z -0.045100 0.000000 3.959160 
# 
# 
# High freq. dielectric constant tensor:
#      x y z
#    x 1.737440 0.000000 -0.008060 
#    y 0.000000 1.750700 0.000000 
#    z -0.008060 0.000000 1.780950 
# 
# From -- ./inp_files/272363.got.cif
#   From: 2010.06.25/outbox.cif.g09.slc.cpg/sg15_137_cif.got.tgz:272363.got - 2010.06.28 07:06:18.
