data_PCOD8134326
_publ_section_title
;
Structure prediction by ZEFSAII (Michael W. Deem and Ramdas Pophale) SiO2 
 PCOD8134326
Probable space group: C 2/C
;
_chemical_formula_sum "Si O2"
_cell_formula_units_Z 52
_cell_length_a 8.593650
_cell_length_b 16.632746
_cell_length_c 18.498334
_cell_angle_alpha 90.000000
_cell_angle_beta 108.956162
_cell_angle_gamma 90.000000
_cell_volume 2500.682602
_symmetry_space_group_name_H-M "C 2/C"
_symmetry_group_IT_number 15
_symmetry_cell_setting 'monoclinic'
loop_
_space_group_symop_operation_xyz
x,y,z
-x,y,1/2-z
-x,-y,-z
x,-y,1/2+z
1/2+x,1/2+y,z
1/2-x,1/2+y,1/2-z
1/2-x,1/2-y,-z
1/2+x,1/2-y,1/2+z
loop_
_atom_site_type_symbol
_atom_site_label
_atom_site_fract_x
_atom_site_fract_y
_atom_site_fract_z
Si Si1 0.250542 0.510117 0.436643
Si Si2 0.856657 0.405684 0.287911
Si Si3 0.897420 0.338790 0.078128
Si Si4 0.235678 0.319904 0.593538
Si Si5 0.066276 0.024811 0.398421
Si Si6 0.448972 0.084765 0.320940
Si Si7 0.000000 0.072442 0.750000
O O1 0.208858 0.417033 0.418934
O O2 0.379550 0.531102 0.394492
O O3 0.321713 0.525216 0.527566
O O4 0.097241 0.567806 0.399094
O O5 0.847901 0.502250 0.296196
O O6 0.663654 0.378853 0.244782
O O7 0.000000 0.385440 0.250000
O O8 0.915526 0.357790 0.368673
O O9 0.819750 0.266705 0.113604
O O10 0.895933 0.318566 0.992519
O O11 0.376030 0.383883 0.597060
O O12 0.153854 0.344115 0.657178
O O13 0.079665 0.980798 0.324746
O O14 0.500000 0.117610 0.250000
#
# Coordination Sequence:
#
# PCOD8134326 Si02
#       7
#     8   8   8   8   8   8   4
#     4   9  20  36  60  81 122 157 202 253 311 356
#     4  10  21  37  58  89 123 160 199 261 305 359
#     4   9  20  38  61  87 121 158 196 249 317 370
#     4  10  20  36  64  88 117 157 201 249 312 379
#     4  10  20  34  57  89 113 158 206 256 296 363
#     4  10  19  35  60  88 120 155 204 259 304 361
#     4  12  20  32  62  92 116 156 216 256 292 366
#
# _framework density 20.794322999999999
#
# number of rings (size 3 to 8) (size 9 to 14) (size 15 to 20)
#    0.000    2.154    1.538    2.769    2.154    1.846 
#    1.385    0.000   13.538    3.692    2.000    0.000 
#    0.000    0.000    0.000    0.000    0.000    0.000 
#
# Total GULP energy -322176.383318 kJ/mol
# GULP energy per Si atom -12391.399358 kJ/mol
# Density = 2.074699 g / cm^3
# Si number density = 20.794323 Si / 1000 Ang^3
#
#
#
# Elastic Constant Matrix: (Units=GPa)
#
#
# Indices 1 2 3 4 5 6 
#
# 1 125.4834 21.8745 34.8097 0.0000 -1.2474 0.0000
# 2 21.8745 59.0047 23.6563 0.0000 -12.3391 0.0000
# 3 34.8097 23.6563 82.0528 0.0000 -8.7388 0.0000
# 4 0.0000 0.0000 0.0000 18.9183 0.0000 -4.5422
# 5 -1.2474 -12.3391 -8.7388 0.0000 35.1758 0.0000
# 6 0.0000 0.0000 0.0000 -4.5422 0.0000 17.4083
#
#
#
# Elastic Compliance Matrix: (Units=1/GPa)
#
#
# Indices 1 2 3 4 5 6 
#
# 1 0.009315 -0.002367 -0.003413 0.000000 -0.001348 0.000000
# 2 -0.002367 0.020857 -0.004354 0.000000 0.006151 0.000000
# 3 -0.003413 -0.004354 0.015115 0.000000 0.002107 0.000000
# 4 0.000000 0.000000 0.000000 0.056392 0.000000 0.014714
# 5 -0.001348 0.006151 0.002107 0.000000 0.031062 0.000000
# 6 0.000000 0.000000 0.000000 0.014714 0.000000 0.061283
#
#
# Mechanical properties :
#
#
# Convention : Reuss Voigt Hill
#
# Bulk Modulus (GPa) = 39.96913 47.46910 43.71912
# Shear Modulus (GPa) = 22.45865 26.71382 24.58624
#
# Velocity S-wave (km/s) = 3.28996 3.58812 3.44227
# Velocity P-wave (km/s) = 5.80471 6.32800 6.07199
#
# Compressibility (1/GPa) = 0.02501931
#
# Stress axis : x y z
#
# Youngs Moduli (GPa) = 107.35189 47.94516 66.16010
#
# Poissons Ratio (x) = 0.11348 0.22580
# Poissons Ratio (y) = 0.25409 0.28807
# Poissons Ratio (z) = 0.36639 0.20876
#
# Static dielectric constant tensor:
#      x y z
#    x 3.910050 0.000000 0.092000 
#    y 0.000000 3.391300 0.000000 
#    z 0.092000 0.000000 4.140920 
# 
# 
# High freq. dielectric constant tensor:
#      x y z
#    x 1.812810 0.000000 0.003470 
#    y 0.000000 1.771210 0.000000 
#    z 0.003470 0.000000 1.829400 
# 
# From -- ./inp_files/190552.got.cif
#   From: 2010.06.25/outbox.cif.g09.slc.cpg/sg15_96_cif.got.tgz:190552.got - 2010.06.28 07:06:18.
