data_PCOD8134809
_publ_section_title
;
Structure prediction by ZEFSAII (Michael W. Deem and Ramdas Pophale) SiO2 
 PCOD8134809
Probable space group: C 2/C
;
_chemical_formula_sum "Si O2"
_cell_formula_units_Z 56
_cell_length_a 9.513350
_cell_length_b 15.822789
_cell_length_c 22.761179
_cell_angle_alpha 90.000000
_cell_angle_beta 123.963377
_cell_angle_gamma 90.000000
_cell_volume 2841.663129
_symmetry_space_group_name_H-M "C 2/C"
_symmetry_group_IT_number 15
_symmetry_cell_setting 'monoclinic'
loop_
_space_group_symop_operation_xyz
x,y,z
-x,y,1/2-z
-x,-y,-z
x,-y,1/2+z
1/2+x,1/2+y,z
1/2-x,1/2+y,1/2-z
1/2-x,1/2-y,-z
1/2+x,1/2-y,1/2+z
loop_
_atom_site_type_symbol
_atom_site_label
_atom_site_fract_x
_atom_site_fract_y
_atom_site_fract_z
Si Si1 0.864854 0.927334 0.766519
Si Si2 0.475552 0.744781 0.180868
Si Si3 0.005233 0.455221 0.629990
Si Si4 0.053771 0.869854 0.023016
Si Si5 0.659656 0.534691 0.110010
Si Si6 0.908141 0.694024 0.431597
Si Si7 0.925050 0.633788 0.566011
O O1 0.681257 0.955777 0.703914
O O2 0.894652 0.970962 0.835549
O O3 0.000000 0.959662 0.750000
O O4 0.880077 0.827137 0.781843
O O5 0.500000 0.792527 0.250000
O O6 0.293242 0.697169 0.130296
O O7 0.516855 0.809611 0.137918
O O8 0.993585 0.369680 0.588702
O O9 0.860547 0.462278 0.645895
O O10 0.988243 0.537204 0.584334
O O11 0.015699 0.788975 0.055769
O O12 0.226681 0.854433 0.029002
O O13 0.065681 0.951737 0.065595
O O14 0.911809 0.882602 0.940064
O O15 0.958238 0.665806 0.508755
#
# Coordination Sequence:
#
# PCOD8134809 Si02
#       7
#     8   8   8   8   8   8   8
#     4  11  21  39  62  84 115 161 200 247 295 360
#     4  10  19  36  63  86 112 155 212 248 287 352
#     4  11  23  36  57  91 122 156 189 256 308 351
#     4   9  20  36  62  85 115 163 197 246 298 361
#     4  10  21  39  59  89 121 155 199 243 310 364
#     4  11  19  37  59  90 119 153 204 247 294 357
#     4  10  21  35  60  91 115 155 203 255 287 356
#
# _framework density 19.706769000000001
#
# number of rings (size 3 to 8) (size 9 to 14) (size 15 to 20)
#    0.000    1.714    2.857    4.286    0.000    4.000 
#    2.571    0.000    0.000    0.000    0.000    0.000 
#    0.000    0.000    0.000    0.000    0.000    0.000 
#
# Total GULP energy -347020.521238 kJ/mol
# GULP energy per Si atom -12393.590044 kJ/mol
# Density = 1.966192 g / cm^3
# Si number density = 19.706769 Si / 1000 Ang^3
#
#
#
# Elastic Constant Matrix: (Units=GPa)
#
#
# Indices 1 2 3 4 5 6 
#
# 1 61.6155 34.7655 59.4643 0.0000 -13.7869 0.0000
# 2 34.7655 100.8019 31.8952 0.0000 -3.8070 0.0000
# 3 59.4643 31.8952 119.0641 0.0000 -11.6586 0.0000
# 4 0.0000 0.0000 0.0000 27.5223 0.0000 1.7987
# 5 -13.7869 -3.8070 -11.6586 0.0000 39.9619 0.0000
# 6 0.0000 0.0000 0.0000 1.7987 0.0000 28.2371
#
#
#
# Elastic Compliance Matrix: (Units=1/GPa)
#
#
# Indices 1 2 3 4 5 6 
#
# 1 0.037744 -0.007650 -0.016056 0.000000 0.007609 0.000000
# 2 -0.007650 0.012391 0.000369 0.000000 -0.001351 0.000000
# 3 -0.016056 0.000369 0.016244 0.000000 -0.000765 0.000000
# 4 0.000000 0.000000 0.000000 0.036486 0.000000 -0.002324
# 5 0.007609 -0.001351 -0.000765 0.000000 0.027297 0.000000
# 6 0.000000 0.000000 0.000000 -0.002324 0.000000 0.035562
#
#
# Mechanical properties :
#
#
# Convention : Reuss Voigt Hill
#
# Bulk Modulus (GPa) = 50.74874 59.30348 55.02611
# Shear Modulus (GPa) = 22.83443 29.50135 26.16789
#
# Velocity S-wave (km/s) = 3.40768 3.87333 3.64794
# Velocity P-wave (km/s) = 6.42580 7.08250 6.76213
#
# Compressibility (1/GPa) = 0.01970492
#
# Stress axis : x y z
#
# Youngs Moduli (GPa) = 26.49413 80.70359 61.56073
#
# Poissons Ratio (x) = 0.61736 0.98844
# Poissons Ratio (y) = 0.20267 -0.02271
# Poissons Ratio (z) = 0.42540 -0.02977
#
# Static dielectric constant tensor:
#      x y z
#    x 3.346160 0.000000 -0.092320 
#    y 0.000000 3.796090 0.000000 
#    z -0.092320 0.000000 3.839810 
# 
# 
# High freq. dielectric constant tensor:
#      x y z
#    x 1.736060 0.000000 -0.005770 
#    y 0.000000 1.770260 0.000000 
#    z -0.005770 0.000000 1.786920 
# 
# From -- ./inp_files/264832.got.cif
#   From: 2010.06.25/outbox.cif.g09.slc.cpg/sg15_133_cif.got.tgz:264832.got - 2010.06.28 07:06:18.
