data_PCOD8134616
_publ_section_title
;
Structure prediction by ZEFSAII (Michael W. Deem and Ramdas Pophale) SiO2 
 PCOD8134616
Probable space group: C 2/C
;
_chemical_formula_sum "Si O2"
_cell_formula_units_Z 60
_cell_length_a 20.670527
_cell_length_b 17.071203
_cell_length_c 9.250466
_cell_angle_alpha 90.000000
_cell_angle_beta 116.035577
_cell_angle_gamma 90.000000
_cell_volume 2932.971508
_symmetry_space_group_name_H-M "C 2/C"
_symmetry_group_IT_number 15
_symmetry_cell_setting 'monoclinic'
loop_
_space_group_symop_operation_xyz
x,y,z
-x,y,1/2-z
-x,-y,-z
x,-y,1/2+z
1/2+x,1/2+y,z
1/2-x,1/2+y,1/2-z
1/2-x,1/2-y,-z
1/2+x,1/2-y,1/2+z
loop_
_atom_site_type_symbol
_atom_site_label
_atom_site_fract_x
_atom_site_fract_y
_atom_site_fract_z
Si Si1 0.876559 0.971492 0.316739
Si Si2 0.697413 0.346203 0.422302
Si Si3 0.826739 0.712801 0.903170
Si Si4 0.923751 0.098540 0.143119
Si Si5 0.736577 0.943543 0.754640
Si Si6 0.500000 0.016610 0.750000
Si Si7 0.597182 0.945056 0.091366
Si Si8 0.295240 0.316002 0.617767
O O1 0.867131 0.901555 0.192108
O O2 0.929512 0.947905 0.498313
O O3 0.911401 0.043685 0.269327
O O4 0.798962 0.991776 0.309255
O O5 0.746319 0.323136 0.332542
O O6 0.660661 0.265275 0.440623
O O7 0.750898 0.390737 0.589491
O O8 0.879692 0.641488 0.930456
O O9 0.837295 0.777266 0.790777
O O10 0.856666 0.157352 0.065558
O O11 0.000000 0.141050 0.250000
O O12 0.743754 0.887445 0.620031
O O13 0.660283 0.989560 0.676649
O O14 0.445485 0.065758 0.798518
O O15 0.453717 0.966190 0.592170
O O16 0.250000 0.250000 0.500000
#
# Coordination Sequence:
#
# PCOD8134616 Si02
#       8
#     8   8   8   8   8   4   8   8
#     4  11  20  38  66  94 124 158 210 255 315 373
#     4  10  19  36  59 102 119 155 199 272 323 373
#     4  10  21  36  61  85 131 154 206 263 323 367
#     4  11  24  41  62  92 133 167 203 254 317 389
#     4  10  21  35  68  95 119 156 213 266 311 371
#     4  10  26  40  60  90 124 164 228 254 318 392
#     4  11  22  42  63  90 123 172 210 270 318 374
#     4  10  23  39  60  97 124 160 214 260 312 374
#
# _framework density 20.457069000000001
#
# number of rings (size 3 to 8) (size 9 to 14) (size 15 to 20)
#    0.000    1.600    2.667    2.000    1.867    0.000 
#    1.200    1.333    0.000    0.000    0.000    0.000 
#    0.000    0.000    0.000    0.000    0.000    0.000 
#
# Total GULP energy -371763.204632 kJ/mol
# GULP energy per Si atom -12392.106821 kJ/mol
# Density = 2.041051 g / cm^3
# Si number density = 20.457069 Si / 1000 Ang^3
#
#
#
# Elastic Constant Matrix: (Units=GPa)
#
#
# Indices 1 2 3 4 5 6 
#
# 1 103.8432 51.9477 40.1946 0.0000 1.6408 0.0000
# 2 51.9477 107.2456 20.0120 0.0000 3.7084 0.0000
# 3 40.1946 20.0120 81.9367 0.0000 3.2118 0.0000
# 4 0.0000 0.0000 0.0000 30.7900 0.0000 -3.1217
# 5 1.6408 3.7084 3.2118 0.0000 27.0835 0.0000
# 6 0.0000 0.0000 0.0000 -3.1217 0.0000 26.1101
#
#
#
# Elastic Compliance Matrix: (Units=1/GPa)
#
#
# Indices 1 2 3 4 5 6 
#
# 1 0.014984 -0.006186 -0.005865 0.000000 0.000635 0.000000
# 2 -0.006186 0.012354 0.000069 0.000000 -0.001325 0.000000
# 3 -0.005865 0.000069 0.015121 0.000000 -0.001447 0.000000
# 4 0.000000 0.000000 0.000000 0.032877 0.000000 0.003931
# 5 0.000635 -0.001325 -0.001447 0.000000 0.037237 0.000000
# 6 0.000000 0.000000 0.000000 0.003931 0.000000 0.038769
#
#
# Mechanical properties :
#
#
# Convention : Reuss Voigt Hill
#
# Bulk Modulus (GPa) = 54.06375 57.48154 55.77265
# Shear Modulus (GPa) = 27.55263 28.85479 28.20371
#
# Velocity S-wave (km/s) = 3.67393 3.75974 3.71708
# Velocity P-wave (km/s) = 6.66950 6.85618 6.76348
#
# Compressibility (1/GPa) = 0.01849668
#
# Stress axis : x y z
#
# Youngs Moduli (GPa) = 66.73621 80.94844 66.13154
#
# Poissons Ratio (x) = 0.50072 0.38785
# Poissons Ratio (y) = 0.41281 -0.00458
# Poissons Ratio (z) = 0.39139 -0.00560
#
# Static dielectric constant tensor:
#      x y z
#    x 3.684390 0.000000 0.024860 
#    y 0.000000 3.799190 0.000000 
#    z 0.024860 0.000000 3.322650 
# 
# 
# High freq. dielectric constant tensor:
#      x y z
#    x 1.792560 0.000000 -0.020150 
#    y 0.000000 1.800150 0.000000 
#    z -0.020150 0.000000 1.796970 
# 
# From -- ./inp_files/57022.got.cif
#   From: 2010.06.25/outbox.cif.g09.slc.cpg/sg15_29_cif.got.tgz:57022.got - 2010.06.28 07:06:18.
