data_PCOD8134221
_publ_section_title
;
Structure prediction by ZEFSAII (Michael W. Deem and Ramdas Pophale) SiO2 
 PCOD8134221
Probable space group: C 2/C
;
_chemical_formula_sum "Si O2"
_cell_formula_units_Z 40
_cell_length_a 16.228872
_cell_length_b 8.766662
_cell_length_c 19.382148
_cell_angle_alpha 90.000000
_cell_angle_beta 41.624715
_cell_angle_gamma 90.000000
_cell_volume 1831.703726
_symmetry_space_group_name_H-M "C 2/C"
_symmetry_group_IT_number 15
_symmetry_cell_setting 'monoclinic'
loop_
_space_group_symop_operation_xyz
x,y,z
-x,y,1/2-z
-x,-y,-z
x,-y,1/2+z
1/2+x,1/2+y,z
1/2-x,1/2+y,1/2-z
1/2-x,1/2-y,-z
1/2+x,1/2-y,1/2+z
loop_
_atom_site_type_symbol
_atom_site_label
_atom_site_fract_x
_atom_site_fract_y
_atom_site_fract_z
Si Si1 0.660386 0.933462 0.255963
Si Si2 0.394234 0.251138 0.164258
Si Si3 0.990271 0.041223 0.150532
Si Si4 0.045988 0.707234 0.522847
Si Si5 0.825516 0.184439 0.353791
O O1 0.788044 0.868130 0.206390
O O2 0.547245 0.900250 0.378136
O O3 0.642869 0.860371 0.189943
O O4 0.660974 0.118546 0.251898
O O5 0.494156 0.356927 0.143082
O O6 0.462343 0.182301 0.054076
O O7 0.012904 0.116301 0.061510
O O8 0.092334 0.118625 0.136158
O O9 0.854769 0.087389 0.265759
O O10 0.183507 0.665076 0.464094
#
# Coordination Sequence:
#
# PCOD8134221 Si02
#       5
#     8   8   8   8   8
#     4  10  21  37  59  86 116 152 197 240 287 343
#     4  11  21  36  59  88 116 151 195 243 287 342
#     4  10  20  36  56  82 117 154 190 234 292 346
#     4  10  19  35  58  85 115 150 192 241 287 341
#     4   9  20  38  57  80 116 157 191 234 289 348
#
# _framework density 21.837592999999998
#
# number of rings (size 3 to 8) (size 9 to 14) (size 15 to 20)
#    0.000    2.000    0.000    5.400    0.000    1.600 
#    0.000    9.000    0.000    0.000    0.000   16.800 
#    0.000    0.000    0.000    0.000    0.000    0.000 
#
# Total GULP energy -247775.711209 kJ/mol
# GULP energy per Si atom -12388.785560 kJ/mol
# Density = 2.178789 g / cm^3
# Si number density = 21.837593 Si / 1000 Ang^3
#
#
#
# Elastic Constant Matrix: (Units=GPa)
#
#
# Indices 1 2 3 4 5 6 
#
# 1 63.7651 54.1779 14.9175 0.0000 5.5204 0.0000
# 2 54.1779 115.2691 -6.1488 0.0000 9.1251 0.0000
# 3 14.9175 -6.1488 93.6562 0.0000 -11.9719 0.0000
# 4 0.0000 0.0000 0.0000 23.9006 0.0000 -1.7579
# 5 5.5204 9.1251 -11.9719 0.0000 23.4904 0.0000
# 6 0.0000 0.0000 0.0000 -1.7579 0.0000 31.9955
#
#
#
# Elastic Compliance Matrix: (Units=1/GPa)
#
#
# Indices 1 2 3 4 5 6 
#
# 1 0.029108 -0.013639 -0.006128 0.000000 -0.004666 0.000000
# 2 -0.013639 0.015343 0.003025 0.000000 -0.001214 0.000000
# 3 -0.006128 0.003025 0.012714 0.000000 0.006745 0.000000
# 4 0.000000 0.000000 0.000000 0.042010 0.000000 0.002308
# 5 -0.004666 -0.001214 0.006745 0.000000 0.047576 0.000000
# 6 0.000000 0.000000 0.000000 0.002308 0.000000 0.031381
#
#
# Mechanical properties :
#
#
# Convention : Reuss Voigt Hill
#
# Bulk Modulus (GPa) = 42.22817 44.28706 43.25761
# Shear Modulus (GPa) = 22.77787 29.86022 26.31904
#
# Velocity S-wave (km/s) = 3.23314 3.70182 3.47539
# Velocity P-wave (km/s) = 5.77209 6.21253 5.99635
#
# Compressibility (1/GPa) = 0.02368087
#
# Stress axis : x y z
#
# Youngs Moduli (GPa) = 34.35437 65.17547 78.65211
#
# Poissons Ratio (x) = 0.88892 0.48199
# Poissons Ratio (y) = 0.46855 -0.23789
# Poissons Ratio (z) = 0.21053 -0.19713
#
# Static dielectric constant tensor:
#      x y z
#    x 3.677390 0.000000 0.056670 
#    y 0.000000 4.001110 0.000000 
#    z 0.056670 0.000000 4.255000 
# 
# 
# High freq. dielectric constant tensor:
#      x y z
#    x 1.828780 0.000000 -0.004130 
#    y 0.000000 1.849620 0.000000 
#    z -0.004130 0.000000 1.871000 
# 
# From -- ./inp_files/102812.got.cif
#   From: 2010.06.25/outbox.cif.g09.slc.cpg/sg15_52_cif.got.tgz:102812.got - 2010.06.28 07:06:18.
