data_PCOD8134635
_publ_section_title
;
Structure prediction by ZEFSAII (Michael W. Deem and Ramdas Pophale) SiO2 
 PCOD8134635
Probable space group: C 2/C
;
_chemical_formula_sum "Si O2"
_cell_formula_units_Z 40
_cell_length_a 7.413150
_cell_length_b 12.454234
_cell_length_c 24.702234
_cell_angle_alpha 90.000000
_cell_angle_beta 50.490931
_cell_angle_gamma 90.000000
_cell_volume 1759.565429
_symmetry_space_group_name_H-M "C 2/C"
_symmetry_group_IT_number 15
_symmetry_cell_setting 'monoclinic'
loop_
_space_group_symop_operation_xyz
x,y,z
-x,y,1/2-z
-x,-y,-z
x,-y,1/2+z
1/2+x,1/2+y,z
1/2-x,1/2+y,1/2-z
1/2-x,1/2-y,-z
1/2+x,1/2-y,1/2+z
loop_
_atom_site_type_symbol
_atom_site_label
_atom_site_fract_x
_atom_site_fract_y
_atom_site_fract_z
Si Si1 0.754232 0.864632 0.970295
Si Si2 0.044177 0.214440 0.326385
Si Si3 0.384076 0.212738 0.169840
Si Si4 0.329264 0.390193 0.328368
Si Si5 0.966854 0.549327 0.436351
O O1 0.978735 0.868708 0.887223
O O2 0.512135 0.878634 0.981643
O O3 0.750000 0.750000 0.000000
O O4 0.748941 0.965261 0.013932
O O5 0.255430 0.168021 0.248909
O O6 0.123380 0.324767 0.338550
O O7 0.812323 0.242471 0.336617
O O8 0.531012 0.317834 0.155408
O O9 0.566030 0.124522 0.110426
O O10 0.500000 0.438033 0.250000
O O11 0.215112 0.488788 0.381130
#
# Coordination Sequence:
#
# PCOD8134635 Si02
#       5
#     8   8   8   8   8
#     4  10  19  36  59  85 121 156 192 241 296 348
#     4   9  18  37  62  79 124 154 182 257 289 327
#     4   9  20  37  60  89 116 151 202 244 286 349
#     4  10  20  36  62  89 115 152 199 244 290 346
#     4  10  21  36  62  84 116 162 192 240 299 346
#
# _framework density 22.732883000000001
#
# number of rings (size 3 to 8) (size 9 to 14) (size 15 to 20)
#    0.000    2.400    2.000    0.000    5.600    0.000 
#    0.000   14.000   13.200    0.000    0.000    0.000 
#    0.000    0.000    0.000    0.000    0.000    0.000 
#
# Total GULP energy -247769.910301 kJ/mol
# GULP energy per Si atom -12388.495515 kJ/mol
# Density = 2.268114 g / cm^3
# Si number density = 22.732883 Si / 1000 Ang^3
#
#
#
# Elastic Constant Matrix: (Units=GPa)
#
#
# Indices 1 2 3 4 5 6 
#
# 1 61.9398 29.4314 22.3638 0.0001 10.5162 0.0002
# 2 29.4314 87.8789 26.2641 0.0000 14.7771 0.0000
# 3 22.3638 26.2641 85.3142 0.0002 12.9397 0.0000
# 4 0.0001 0.0000 0.0002 39.1813 -0.0001 -0.4408
# 5 10.5162 14.7771 12.9397 -0.0001 18.9666 -0.0002
# 6 0.0002 0.0000 0.0000 -0.4408 -0.0002 30.9479
#
#
#
# Elastic Compliance Matrix: (Units=1/GPa)
#
#
# Indices 1 2 3 4 5 6 
#
# 1 0.020560 -0.005080 -0.003008 0.000000 -0.005389 0.000000
# 2 -0.005080 0.014965 -0.002157 0.000000 -0.007371 0.000000
# 3 -0.003008 -0.002157 0.014128 0.000000 -0.006290 0.000000
# 4 0.000000 0.000000 0.000000 0.025526 0.000000 0.000364
# 5 -0.005389 -0.007371 -0.006290 0.000000 0.065746 0.000000
# 6 0.000000 0.000000 0.000000 0.000364 0.000000 0.032318
#
#
# Mechanical properties :
#
#
# Convention : Reuss Voigt Hill
#
# Bulk Modulus (GPa) = 34.29218 43.47238 38.88228
# Shear Modulus (GPa) = 24.57549 28.29074 26.43312
#
# Velocity S-wave (km/s) = 3.29151 3.53155 3.41364
# Velocity P-wave (km/s) = 5.43718 5.98279 5.71650
#
# Compressibility (1/GPa) = 0.02916116
#
# Stress axis : x y z
#
# Youngs Moduli (GPa) = 48.63866 66.82290 70.78131
#
# Poissons Ratio (x) = 0.33949 0.21291
# Poissons Ratio (y) = 0.24711 0.15270
# Poissons Ratio (z) = 0.14631 0.14416
#
# Static dielectric constant tensor:
#      x y z
#    x 3.751740 0.000000 0.194340 
#    y 0.000000 3.894210 0.000000 
#    z 0.194340 0.000000 4.857130 
# 
# 
# High freq. dielectric constant tensor:
#      x y z
#    x 1.858670 0.000000 0.014280 
#    y 0.000000 1.876960 0.000000 
#    z 0.014280 0.000000 1.928300 
# 
# From -- ./inp_files/229921.got.cif
#   From: 2010.06.25/outbox.cif.g09.slc.cpg/sg15_115_cif.got.tgz:229921.got - 2010.06.28 07:06:18.
