data_PCOD8134535
_publ_section_title
;
Structure prediction by ZEFSAII (Michael W. Deem and Ramdas Pophale) SiO2 
 PCOD8134535
Probable space group: C 2/C
;
_chemical_formula_sum "Si O2"
_cell_formula_units_Z 40
_cell_length_a 8.697328
_cell_length_b 16.777915
_cell_length_c 21.224217
_cell_angle_alpha 90.000000
_cell_angle_beta 138.731906
_cell_angle_gamma 90.000000
_cell_volume 2042.796523
_symmetry_space_group_name_H-M "C 2/C"
_symmetry_group_IT_number 15
_symmetry_cell_setting 'monoclinic'
loop_
_space_group_symop_operation_xyz
x,y,z
-x,y,1/2-z
-x,-y,-z
x,-y,1/2+z
1/2+x,1/2+y,z
1/2-x,1/2+y,1/2-z
1/2-x,1/2-y,-z
1/2+x,1/2-y,1/2+z
loop_
_atom_site_type_symbol
_atom_site_label
_atom_site_fract_x
_atom_site_fract_y
_atom_site_fract_z
Si Si1 0.298532 0.423658 0.475131
Si Si2 0.825997 0.432359 0.640353
Si Si3 0.114773 0.305642 0.506501
Si Si4 0.743775 0.702771 0.648197
Si Si5 0.406647 0.248784 0.152134
O O1 0.559043 0.435849 0.582800
O O2 0.164296 0.503924 0.413446
O O3 0.146376 0.393559 0.487795
O O4 0.327788 0.364771 0.424130
O O5 0.899788 0.345870 0.636638
O O6 0.000000 0.458280 0.750000
O O7 0.250000 0.250000 0.500000
O O8 0.234349 0.289770 0.611284
O O9 0.846392 0.285533 0.431326
O O10 0.568880 0.704334 0.653070
O O11 0.000000 0.683213 0.750000
O O12 0.500000 0.266179 0.250000
#
# Coordination Sequence:
#
# PCOD8134535 Si02
#       5
#     8   8   8   8   8
#     4  10  21  39  58  84 116 155 190 235 285 347
#     4  10  21  35  60  83 116 152 196 226 288 346
#     4  10  19  36  57  85 114 147 189 240 277 342
#     4  11  22  35  61  87 115 151 195 237 287 339
#     4  11  21  36  60  85 114 151 194 241 286 338
#
# _framework density 19.581001000000001
#
# number of rings (size 3 to 8) (size 9 to 14) (size 15 to 20)
#    0.000    1.600    4.000    3.600    2.800    0.000 
#    0.000    1.000    0.000    1.200    0.000    0.000 
#    0.000    0.000    0.000    0.000    0.000    0.000 
#
# Total GULP energy -247868.376343 kJ/mol
# GULP energy per Si atom -12393.418817 kJ/mol
# Density = 1.953643 g / cm^3
# Si number density = 19.581001 Si / 1000 Ang^3
#
#
#
# Elastic Constant Matrix: (Units=GPa)
#
#
# Indices 1 2 3 4 5 6 
#
# 1 116.0028 26.2466 35.6768 0.0002 6.2937 0.0003
# 2 26.2466 61.7926 21.9615 0.0002 -0.2320 0.0002
# 3 35.6768 21.9615 128.8509 0.0005 13.2039 0.0006
# 4 0.0002 0.0002 0.0005 68.9407 0.0004 56.9228
# 5 6.2937 -0.2320 13.2039 0.0004 32.6683 0.0005
# 6 0.0003 0.0002 0.0006 56.9228 0.0005 88.6382
#
#
#
# Elastic Compliance Matrix: (Units=1/GPa)
#
#
# Indices 1 2 3 4 5 6 
#
# 1 0.010129 -0.003567 -0.002080 0.000000 -0.001136 0.000000
# 2 -0.003567 0.018542 -0.002354 0.000000 0.001770 0.000000
# 3 -0.002080 -0.002354 0.009075 0.000000 -0.003284 0.000000
# 4 0.000000 0.000000 0.000000 0.030878 0.000000 -0.019830
# 5 -0.001136 0.001770 -0.003284 0.000000 0.032169 0.000000
# 6 0.000000 0.000000 0.000000 -0.019830 0.000000 0.024016
#
#
# Mechanical properties :
#
#
# Convention : Reuss Voigt Hill
#
# Bulk Modulus (GPa) = 45.99299 52.71292 49.35296
# Shear Modulus (GPa) = 33.77022 52.90019 43.33521
#
# Velocity S-wave (km/s) = 4.15739 5.20334 4.70949
# Velocity P-wave (km/s) = 6.82530 7.94220 7.40484
#
# Compressibility (1/GPa) = 0.02174244
#
# Stress axis : x y z
#
# Youngs Moduli (GPa) = 98.72644 53.93262 110.19797
#
# Poissons Ratio (x) = 0.19239 0.22923
# Poissons Ratio (y) = 0.35219 0.25940
# Poissons Ratio (z) = 0.20536 0.12695
#
# Static dielectric constant tensor:
#      x y z
#    x 3.753120 0.000000 -0.049280 
#    y 0.000000 3.845210 0.000000 
#    z -0.049280 0.000000 3.811940 
# 
# 
# High freq. dielectric constant tensor:
#      x y z
#    x 1.749080 0.000000 0.006300 
#    y 0.000000 1.747880 0.000000 
#    z 0.006300 0.000000 1.780730 
# 
# From -- ./inp_files/133806.got.cif
#   From: 2010.06.25/outbox.cif.g09.slc.cpg/sg15_67_cif.got.tgz:133806.got - 2010.06.28 07:06:18.
