data_PCOD8134081
_publ_section_title
;
Structure prediction by ZEFSAII (Michael W. Deem and Ramdas Pophale) SiO2 
 PCOD8134081
Probable space group: C 2/C
;
_chemical_formula_sum "Si O2"
_cell_formula_units_Z 56
_cell_length_a 14.338742
_cell_length_b 33.860714
_cell_length_c 5.176177
_cell_angle_alpha 90.000000
_cell_angle_beta 95.376068
_cell_angle_gamma 90.000000
_cell_volume 2502.082849
_symmetry_space_group_name_H-M "C 2/C"
_symmetry_group_IT_number 15
_symmetry_cell_setting 'monoclinic'
loop_
_space_group_symop_operation_xyz
x,y,z
-x,y,1/2-z
-x,-y,-z
x,-y,1/2+z
1/2+x,1/2+y,z
1/2-x,1/2+y,1/2-z
1/2-x,1/2-y,-z
1/2+x,1/2-y,1/2+z
loop_
_atom_site_type_symbol
_atom_site_label
_atom_site_fract_x
_atom_site_fract_y
_atom_site_fract_z
Si Si1 0.858229 0.019100 0.469558
Si Si2 0.704942 0.769463 0.739572
Si Si3 0.000000 0.290728 0.750000
Si Si4 0.500000 0.157308 0.750000
Si Si5 0.939067 0.897069 0.983559
Si Si6 0.762098 0.140774 0.301120
Si Si7 0.677506 0.893292 0.292424
Si Si8 0.151654 0.514894 0.851729
O O1 0.871087 0.065659 0.517866
O O2 0.907347 0.003821 0.220940
O O3 0.748804 0.008038 0.445463
O O4 0.750000 0.750000 0.500000
O O5 0.591795 0.763918 0.712191
O O6 0.727622 0.815443 0.740580
O O7 0.750000 0.750000 0.000000
O O8 0.974194 0.316379 0.491483
O O9 0.415157 0.129501 0.642797
O O10 0.871633 0.859705 0.910691
O O11 0.000000 0.906411 0.750000
O O12 0.000000 0.887270 0.250000
O O13 0.702829 0.120731 0.512794
O O14 0.754880 0.116505 0.030398
O O15 0.662287 0.939715 0.285434
O O16 0.096536 0.507918 0.107149
#
# Coordination Sequence:
#
# PCOD8134081 Si02
#       8
#     8   8   4   4   8   8   8   8
#     4  10  19  35  55  83 118 168 226 281 345 396
#     4  12  26  48  77 114 147 187 230 287 365 438
#     4  12  24  50  76 113 152 180 242 302 338 437
#     4  12  22  42  74 111 134 184 238 302 340 411
#     4  12  26  42  62  92 132 180 236 290 343 416
#     4  12  24  46  71  97 141 178 235 286 351 432
#     4  12  22  41  72 101 133 183 233 294 355 419
#     4  10  20  35  57  90 129 174 229 280 359 413
#
# _framework density 22.381354000000002
#
# number of rings (size 3 to 8) (size 9 to 14) (size 15 to 20)
#    0.000    0.571    2.857    7.714    0.000    1.714 
#    3.857    0.714    0.000    0.000    0.000    0.000 
#    0.000    0.000    0.000    0.000    0.000    0.000 
#
# Total GULP energy -347167.760854 kJ/mol
# GULP energy per Si atom -12398.848602 kJ/mol
# Density = 2.233041 g / cm^3
# Si number density = 22.381354 Si / 1000 Ang^3
#
#
#
# Elastic Constant Matrix: (Units=GPa)
#
#
# Indices 1 2 3 4 5 6 
#
# 1 106.4850 20.9794 19.2589 0.0000 10.4692 0.0000
# 2 20.9794 92.4259 47.9595 0.0000 -1.8764 0.0000
# 3 19.2589 47.9595 187.7864 0.0000 1.3583 0.0000
# 4 0.0000 0.0000 0.0000 41.9461 0.0000 -12.9232
# 5 10.4692 -1.8764 1.3583 0.0000 26.5173 0.0000
# 6 0.0000 0.0000 0.0000 -12.9232 0.0000 87.4639
#
#
#
# Elastic Compliance Matrix: (Units=1/GPa)
#
#
# Indices 1 2 3 4 5 6 
#
# 1 0.010320 -0.002184 -0.000470 0.000000 -0.004205 0.000000
# 2 -0.002184 0.012964 -0.003101 0.000000 0.001938 0.000000
# 3 -0.000470 -0.003101 0.006168 0.000000 -0.000350 0.000000
# 4 0.000000 0.000000 0.000000 0.024977 0.000000 0.003690
# 5 -0.004205 0.001938 -0.000350 0.000000 0.039526 0.000000
# 6 0.000000 0.000000 0.000000 0.003690 0.000000 0.011979
#
#
# Mechanical properties :
#
#
# Convention : Reuss Voigt Hill
#
# Bulk Modulus (GPa) = 55.73711 62.56586 59.15149
# Shear Modulus (GPa) = 40.51098 51.08544 45.79821
#
# Velocity S-wave (km/s) = 4.25906 4.78273 4.52848
# Velocity P-wave (km/s) = 7.01025 7.64948 7.33683
#
# Compressibility (1/GPa) = 0.01794137
#
# Stress axis : x y z
#
# Youngs Moduli (GPa) = 96.90227 77.13936 162.12990
#
# Poissons Ratio (x) = 0.16846 0.07624
# Poissons Ratio (y) = 0.21161 0.50274
# Poissons Ratio (z) = 0.04557 0.23920
#
# Static dielectric constant tensor:
#      x y z
#    x 4.090360 0.000000 -0.012440 
#    y 0.000000 3.938090 0.000000 
#    z -0.012440 0.000000 5.107510 
# 
# 
# High freq. dielectric constant tensor:
#      x y z
#    x 1.875470 0.000000 -0.000530 
#    y 0.000000 1.866560 0.000000 
#    z -0.000530 0.000000 1.918850 
# 
# From -- ./inp_files/9106.got.cif
#   From: 2010.06.25/outbox.cif.g09.slc.cpg/sg15_5_cif.got.tgz:9106.got - 2010.06.28 07:06:18.
