data_PCOD8134338
_publ_section_title
;
Structure prediction by ZEFSAII (Michael W. Deem and Ramdas Pophale) SiO2 
 PCOD8134338
Probable space group: C 2/C
;
_chemical_formula_sum "Si O2"
_cell_formula_units_Z 60
_cell_length_a 10.888337
_cell_length_b 23.466901
_cell_length_c 20.015803
_cell_angle_alpha 90.000000
_cell_angle_beta 36.473960
_cell_angle_gamma 90.000000
_cell_volume 3040.262202
_symmetry_space_group_name_H-M "C 2/C"
_symmetry_group_IT_number 15
_symmetry_cell_setting 'monoclinic'
loop_
_space_group_symop_operation_xyz
x,y,z
-x,y,1/2-z
-x,-y,-z
x,-y,1/2+z
1/2+x,1/2+y,z
1/2-x,1/2+y,1/2-z
1/2-x,1/2-y,-z
1/2+x,1/2-y,1/2+z
loop_
_atom_site_type_symbol
_atom_site_label
_atom_site_fract_x
_atom_site_fract_y
_atom_site_fract_z
Si Si1 0.562263 0.341778 0.921001
Si Si2 0.071057 0.727046 0.467579
Si Si3 0.233639 0.956658 0.653645
Si Si4 0.331501 0.071676 0.378584
Si Si5 0.620551 0.852497 0.834536
Si Si6 0.933850 0.474989 0.424042
Si Si7 0.500000 0.779028 0.250000
Si Si8 0.414058 0.848329 0.409254
O O1 0.630163 0.398261 0.933358
O O2 0.719969 0.331192 0.791304
O O3 0.565312 0.284244 0.964109
O O4 0.332165 0.349395 0.994424
O O5 0.014002 0.699015 0.421725
O O6 0.313609 0.740027 0.355956
O O7 0.032946 0.683384 0.545036
O O8 0.254589 0.891027 0.666539
O O9 0.322381 0.967387 0.542481
O O10 0.000000 0.976339 0.750000
O O11 0.347848 0.993334 0.660781
O O12 0.500000 0.055330 0.250000
O O13 0.424308 0.116817 0.389255
O O14 0.287478 0.012585 0.438020
O O15 0.989662 0.413140 0.372121
O O16 0.548785 0.818630 0.292416
#
# Coordination Sequence:
#
# PCOD8134338 Si02
#       8
#     8   8   8   8   8   8   4   8
#     4  10  21  36  56  83 113 151 194 224 285 354
#     4  11  20  35  58  84 110 148 190 242 280 338
#     4  10  20  37  59  86 108 147 193 235 286 340
#     4   9  21  39  56  81 114 153 190 233 284 346
#     4  10  19  35  61  81 110 147 190 239 276 337
#     4  10  21  37  59  83 116 144 188 244 285 335
#     4  10  22  34  50  82 118 138 178 228 288 336
#     4  11  21  36  56  84 114 148 186 238 288 334
#
# _framework density 19.735140999999999
#
# number of rings (size 3 to 8) (size 9 to 14) (size 15 to 20)
#    0.000    1.867    1.333    4.000    1.867    1.067 
#    4.800    0.000    0.000    0.800    0.000    0.000 
#    0.000    0.000    0.000    0.000    0.000    0.000 
#
# Total GULP energy -371862.300940 kJ/mol
# GULP energy per Si atom -12395.410031 kJ/mol
# Density = 1.969022 g / cm^3
# Si number density = 19.735141 Si / 1000 Ang^3
#
#
#
# Elastic Constant Matrix: (Units=GPa)
#
#
# Indices 1 2 3 4 5 6 
#
# 1 57.5916 18.9926 15.3673 -0.0077 17.1325 0.0056
# 2 18.9926 109.7080 29.4974 -0.0020 22.1296 -0.0008
# 3 15.3673 29.4974 59.8606 -0.0026 16.0050 -0.0004
# 4 -0.0077 -0.0020 -0.0026 20.9235 0.0023 5.8280
# 5 17.1325 22.1296 16.0050 0.0023 35.1074 -0.0039
# 6 0.0056 -0.0008 -0.0004 5.8280 -0.0039 15.8916
#
#
#
# Elastic Compliance Matrix: (Units=1/GPa)
#
#
# Indices 1 2 3 4 5 6 
#
# 1 0.020914 -0.001275 -0.002536 0.000012 -0.008246 -0.000014
# 2 -0.001275 0.011365 -0.004013 0.000001 -0.004712 -0.000001
# 3 -0.002536 -0.004013 0.020871 0.000002 -0.005748 -0.000001
# 4 0.000012 0.000001 0.000002 0.053231 -0.000013 -0.019521
# 5 -0.008246 -0.004712 -0.005748 -0.000013 0.038099 0.000017
# 6 -0.000014 -0.000001 -0.000001 -0.019521 0.000017 0.070085
#
#
# Mechanical properties :
#
#
# Convention : Reuss Voigt Hill
#
# Bulk Modulus (GPa) = 26.66574 39.43053 33.04813
# Shear Modulus (GPa) = 20.60039 25.27137 22.93588
#
# Velocity S-wave (km/s) = 3.23436 3.58233 3.41278
# Velocity P-wave (km/s) = 5.24302 6.09377 5.68433
#
# Compressibility (1/GPa) = 0.03750130
#
# Stress axis : x y z
#
# Youngs Moduli (GPa) = 47.81497 87.98601 47.91391
#
# Poissons Ratio (x) = 0.11222 0.12150
# Poissons Ratio (y) = 0.06099 0.19229
# Poissons Ratio (z) = 0.12125 0.35311
#
# Static dielectric constant tensor:
#      x y z
#    x 3.755310 -0.000010 0.322370 
#    y -0.000010 3.976660 0.000010 
#    z 0.322370 0.000010 3.498570 
# 
# 
# High freq. dielectric constant tensor:
#      x y z
#    x 1.763430 0.000000 0.025810 
#    y 0.000000 1.779610 0.000000 
#    z 0.025810 0.000000 1.755890 
# 
# From -- ./inp_files/90890.got.cif
#   From: 2010.06.25/outbox.cif.g09.slc.cpg/sg15_46_cif.got.tgz:90890.got - 2010.06.28 07:06:18.
