data_PCOD8134363
_publ_section_title
;
Structure prediction by ZEFSAII (Michael W. Deem and Ramdas Pophale) SiO2 
 PCOD8134363
Probable space group: C 2/C
;
_chemical_formula_sum "Si O2"
_cell_formula_units_Z 40
_cell_length_a 19.189994
_cell_length_b 11.978177
_cell_length_c 17.573795
_cell_angle_alpha 90.000000
_cell_angle_beta 151.080123
_cell_angle_gamma 90.000000
_cell_volume 1953.461710
_symmetry_space_group_name_H-M "C 2/C"
_symmetry_group_IT_number 15
_symmetry_cell_setting 'monoclinic'
loop_
_space_group_symop_operation_xyz
x,y,z
-x,y,1/2-z
-x,-y,-z
x,-y,1/2+z
1/2+x,1/2+y,z
1/2-x,1/2+y,1/2-z
1/2-x,1/2-y,-z
1/2+x,1/2-y,1/2+z
loop_
_atom_site_type_symbol
_atom_site_label
_atom_site_fract_x
_atom_site_fract_y
_atom_site_fract_z
Si Si1 0.141452 0.755533 0.092028
Si Si2 0.613418 0.984745 0.510417
Si Si3 0.868448 0.680373 0.069142
Si Si4 0.367380 0.313339 0.919211
Si Si5 0.291283 0.027200 0.730846
O O1 0.143329 0.648478 0.036963
O O2 0.211212 0.724293 0.239685
O O3 0.233585 0.855117 0.142581
O O4 0.980294 0.795851 0.958176
O O5 0.441872 0.006234 0.336031
O O6 0.685267 0.056320 0.510089
O O7 0.675605 0.038478 0.647281
O O8 0.000000 0.663121 0.250000
O O9 0.750000 0.750000 0.000000
O O10 0.918263 0.748006 0.042219
O O11 0.340586 0.443281 0.913409
#
# Coordination Sequence:
#
# PCOD8134363 Si02
#       5
#     8   8   8   8   8
#     4  11  19  36  61  93 123 151 193 262 318 357
#     4  10  20  37  57  88 126 155 197 246 316 353
#     4  12  24  40  60  83 122 168 207 239 285 368
#     4  11  21  35  59  92 123 153 202 251 314 360
#     4  10  19  35  61  91 125 150 190 265 320 357
#
# _framework density 20.476471
#
# number of rings (size 3 to 8) (size 9 to 14) (size 15 to 20)
#    0.000    1.200    4.000    5.400    0.000    0.000 
#    0.000    0.000    0.000    6.000    0.000    0.000 
#    0.000    0.000    0.000    0.000    0.000    0.000 
#
# Total GULP energy -247855.419915 kJ/mol
# GULP energy per Si atom -12392.770996 kJ/mol
# Density = 2.042987 g / cm^3
# Si number density = 20.476471 Si / 1000 Ang^3
#
#
#
# Elastic Constant Matrix: (Units=GPa)
#
#
# Indices 1 2 3 4 5 6 
#
# 1 47.1418 41.7767 16.2940 0.0000 -1.3759 0.0000
# 2 41.7767 182.5743 44.2758 0.0000 0.7646 0.0000
# 3 16.2940 44.2758 70.1091 0.0000 -5.3294 -0.0001
# 4 0.0000 0.0000 0.0000 34.4142 0.0000 -0.2940
# 5 -1.3759 0.7646 -5.3294 0.0000 24.5665 0.0000
# 6 0.0000 0.0000 -0.0001 -0.2940 0.0000 43.0734
#
#
#
# Elastic Compliance Matrix: (Units=1/GPa)
#
#
# Indices 1 2 3 4 5 6 
#
# 1 0.027098 -0.005548 -0.002710 0.000000 0.001102 0.000000
# 2 -0.005548 0.007633 -0.003633 0.000000 -0.001336 0.000000
# 3 -0.002710 -0.003633 0.017473 0.000000 0.003752 0.000000
# 4 0.000000 0.000000 0.000000 0.029060 0.000000 0.000198
# 5 0.001102 -0.001336 0.003752 0.000000 0.041623 0.000000
# 6 0.000000 0.000000 0.000000 0.000198 0.000000 0.023218
#
#
# Mechanical properties :
#
#
# Convention : Reuss Voigt Hill
#
# Bulk Modulus (GPa) = 35.18413 56.05758 45.62085
# Shear Modulus (GPa) = 27.87681 33.57607 30.72644
#
# Velocity S-wave (km/s) = 3.69373 4.05376 3.87793
# Velocity P-wave (km/s) = 5.95076 7.02472 6.50992
#
# Compressibility (1/GPa) = 0.02842191
#
# Stress axis : x y z
#
# Youngs Moduli (GPa) = 36.90297 131.00525 57.23170
#
# Poissons Ratio (x) = 0.72681 0.15512
# Poissons Ratio (y) = 0.20473 0.20791
# Poissons Ratio (z) = 0.10002 0.47592
#
# Static dielectric constant tensor:
#      x y z
#    x 3.229530 0.000000 0.017180 
#    y 0.000000 4.155270 0.000000 
#    z 0.017180 0.000000 3.574560 
# 
# 
# High freq. dielectric constant tensor:
#      x y z
#    x 1.738790 0.000000 0.013040 
#    y 0.000000 1.824610 0.000000 
#    z 0.013040 0.000000 1.800780 
# 
# From -- ./inp_files/54234.got.cif
#   From: 2010.06.25/outbox.cif.g09.slc.cpg/sg15_28_cif.got.tgz:54234.got - 2010.06.28 07:06:18.
