data_PCOD8134017
_publ_section_title
;
Structure prediction by ZEFSAII (Michael W. Deem and Ramdas Pophale) SiO2 
 PCOD8134017
Probable space group: C 2/C
;
_chemical_formula_sum "Si O2"
_cell_formula_units_Z 52
_cell_length_a 11.625718
_cell_length_b 26.103334
_cell_length_c 9.625471
_cell_angle_alpha 90.000000
_cell_angle_beta 74.669164
_cell_angle_gamma 90.000000
_cell_volume 2817.097190
_symmetry_space_group_name_H-M "C 2/C"
_symmetry_group_IT_number 15
_symmetry_cell_setting 'monoclinic'
loop_
_space_group_symop_operation_xyz
x,y,z
-x,y,1/2-z
-x,-y,-z
x,-y,1/2+z
1/2+x,1/2+y,z
1/2-x,1/2+y,1/2-z
1/2-x,1/2-y,-z
1/2+x,1/2-y,1/2+z
loop_
_atom_site_type_symbol
_atom_site_label
_atom_site_fract_x
_atom_site_fract_y
_atom_site_fract_z
Si Si1 0.378293 0.521041 0.481427
Si Si2 0.642508 0.560216 0.722866
Si Si3 0.112611 0.726295 0.309561
Si Si4 0.649532 0.317435 0.855352
Si Si5 0.536933 0.212609 0.882206
Si Si6 0.287388 0.325333 0.354319
Si Si7 0.000000 0.899985 0.750000
O O1 0.500000 0.500000 0.500000
O O2 0.309781 0.539782 0.642247
O O3 0.307403 0.476776 0.417064
O O4 0.406217 0.567226 0.367902
O O5 0.500000 0.560069 0.750000
O O6 0.691681 0.617132 0.699373
O O7 0.214828 0.684819 0.242741
O O8 0.159556 0.784654 0.273223
O O9 0.000000 0.714678 0.250000
O O10 0.076305 0.717081 0.480476
O O11 0.578781 0.268809 0.822288
O O12 0.582609 0.368053 0.827670
O O13 0.646110 0.314770 0.022958
O O14 0.500000 0.184518 0.750000
O O15 0.645756 0.182323 0.919270
#
# Coordination Sequence:
#
# PCOD8134017 Si02
#       7
#     8   8   8   8   8   8   4
#     4  10  19  35  52  79 120 144 179 246 293 350
#     4  10  20  33  55  82 114 147 184 234 299 349
#     4  11  20  38  58  79 118 161 198 232 280 345
#     4  11  22  35  57  87 116 158 194 237 283 348
#     4  11  23  39  54  83 123 150 197 248 272 342
#     4  11  22  35  61  83 111 163 199 230 296 344
#     4  12  22  34  56  88 122 146 192 232 298 352
#
# _framework density 18.458717
#
# number of rings (size 3 to 8) (size 9 to 14) (size 15 to 20)
#    0.000    1.231    6.154    3.231    2.154    3.692 
#    0.000    0.000    0.000    0.000    0.000    5.385 
#    0.000    0.000    0.000    0.000    0.000    0.000 
#
# Total GULP energy -322312.634275 kJ/mol
# GULP energy per Si atom -12396.639780 kJ/mol
# Density = 1.841670 g / cm^3
# Si number density = 18.458717 Si / 1000 Ang^3
#
#
#
# Elastic Constant Matrix: (Units=GPa)
#
#
# Indices 1 2 3 4 5 6 
#
# 1 40.7244 19.7157 23.9205 0.0000 -2.5960 0.0000
# 2 19.7157 85.7035 33.1150 0.0000 6.9281 0.0000
# 3 23.9205 33.1150 127.5457 0.0000 3.4656 0.0000
# 4 0.0000 0.0000 0.0000 27.3293 0.0000 4.8403
# 5 -2.5960 6.9281 3.4656 0.0000 28.1204 0.0000
# 6 0.0000 0.0000 0.0000 4.8403 0.0000 15.7433
#
#
#
# Elastic Compliance Matrix: (Units=1/GPa)
#
#
# Indices 1 2 3 4 5 6 
#
# 1 0.030119 -0.005643 -0.004311 0.000000 0.004702 0.000000
# 2 -0.005643 0.014248 -0.002540 0.000000 -0.003718 0.000000
# 3 -0.004311 -0.002540 0.009333 0.000000 -0.000922 0.000000
# 4 0.000000 0.000000 0.000000 0.038698 0.000000 -0.011898
# 5 0.004702 -0.003718 -0.000922 0.000000 0.037025 0.000000
# 6 0.000000 0.000000 0.000000 -0.011898 0.000000 0.067177
#
#
# Mechanical properties :
#
#
# Convention : Reuss Voigt Hill
#
# Bulk Modulus (GPa) = 34.82828 45.27512 40.05170
# Shear Modulus (GPa) = 21.62996 26.05344 23.84170
#
# Velocity S-wave (km/s) = 3.42687 3.76099 3.59781
# Velocity P-wave (km/s) = 5.87938 6.59099 6.24533
#
# Compressibility (1/GPa) = 0.02871230
#
# Stress axis : x y z
#
# Youngs Moduli (GPa) = 33.20121 70.18385 107.14185
#
# Poissons Ratio (x) = 0.39605 0.46193
# Poissons Ratio (y) = 0.18736 0.27214
# Poissons Ratio (z) = 0.14314 0.17826
#
# Static dielectric constant tensor:
#      x y z
#    x 3.192550 0.000000 0.110240 
#    y 0.000000 3.579460 0.000000 
#    z 0.110240 0.000000 3.751190 
# 
# 
# High freq. dielectric constant tensor:
#      x y z
#    x 1.681470 0.000000 0.015410 
#    y 0.000000 1.704620 0.000000 
#    z 0.015410 0.000000 1.732800 
# 
# From -- ./inp_files/33563.got.cif
#   From: 2010.06.25/outbox.cif.g09.slc.cpg/sg15_17_cif.got.tgz:33563.got - 2010.06.28 07:06:18.
