data_PCOD8134952
_publ_section_title
;
Structure prediction by ZEFSAII (Michael W. Deem and Ramdas Pophale) SiO2 
 PCOD8134952
Probable space group: C 2/C
;
_chemical_formula_sum "Si O2"
_cell_formula_units_Z 56
_cell_length_a 8.786388
_cell_length_b 16.293161
_cell_length_c 24.761888
_cell_angle_alpha 90.000000
_cell_angle_beta 127.438136
_cell_angle_gamma 90.000000
_cell_volume 2814.657462
_symmetry_space_group_name_H-M "C 2/C"
_symmetry_group_IT_number 15
_symmetry_cell_setting 'monoclinic'
loop_
_space_group_symop_operation_xyz
x,y,z
-x,y,1/2-z
-x,-y,-z
x,-y,1/2+z
1/2+x,1/2+y,z
1/2-x,1/2+y,1/2-z
1/2-x,1/2-y,-z
1/2+x,1/2-y,1/2+z
loop_
_atom_site_type_symbol
_atom_site_label
_atom_site_fract_x
_atom_site_fract_y
_atom_site_fract_z
Si Si1 0.821776 0.854774 0.051647
Si Si2 0.219675 0.516070 0.787259
Si Si3 0.565878 0.677444 0.702591
Si Si4 0.799097 0.338678 0.736120
Si Si5 0.043688 0.742355 0.024710
Si Si6 0.018607 0.014623 0.440943
Si Si7 0.441993 0.691801 0.086886
O O1 0.824187 0.952789 0.049898
O O2 0.882320 0.823322 0.123941
O O3 0.982011 0.824964 0.042504
O O4 0.609406 0.826401 0.989673
O O5 0.305816 0.596545 0.777561
O O6 0.251621 0.433018 0.756515
O O7 0.316471 0.498791 0.866437
O O8 0.000000 0.536303 0.750000
O O9 0.500000 0.679587 0.750000
O O10 0.676299 0.765192 0.714235
O O11 0.635536 0.304581 0.661895
O O12 0.000000 0.350714 0.750000
O O13 0.262497 0.718048 0.086420
O O14 0.031599 0.747044 0.957425
O O15 0.104269 0.103310 0.447938
O O16 0.000000 0.000000 0.500000
#
# Coordination Sequence:
#
# PCOD8134952 Si02
#       7
#     8   8   8   8   8   8   8
#     4  10  21  37  57  81 115 152 185 237 289 343
#     4   9  20  37  57  84 110 147 194 238 278 346
#     4  10  20  37  57  80 112 149 190 230 291 340
#     4   9  18  35  58  78 110 149 191 224 285 345
#     4  10  20  35  54  83 116 141 193 230 283 334
#     4  10  19  37  58  83 116 152 189 233 292 350
#     4  10  20  35  59  83 112 150 188 235 280 343
#
# _framework density 19.895849999999999
#
# number of rings (size 3 to 8) (size 9 to 14) (size 15 to 20)
#    0.000    2.286    1.429    1.714    0.000    2.857 
#    2.571    5.000    0.000    0.000    0.000    0.000 
#    0.000    0.000    0.000    0.000    0.000    0.000 
#
# Total GULP energy -346919.018960 kJ/mol
# GULP energy per Si atom -12389.964963 kJ/mol
# Density = 1.985057 g / cm^3
# Si number density = 19.895850 Si / 1000 Ang^3
#
#
#
# Elastic Constant Matrix: (Units=GPa)
#
#
# Indices 1 2 3 4 5 6 
#
# 1 79.1476 12.9636 22.3093 0.0000 14.5847 0.0000
# 2 12.9636 119.1462 7.5578 0.0000 6.7642 0.0000
# 3 22.3093 7.5578 57.4841 0.0000 8.8736 0.0000
# 4 0.0000 0.0000 0.0000 35.6241 0.0000 -0.3823
# 5 14.5847 6.7642 8.8736 0.0000 32.1061 0.0000
# 6 0.0000 0.0000 0.0000 -0.3823 0.0000 25.2022
#
#
#
# Elastic Compliance Matrix: (Units=1/GPa)
#
#
# Indices 1 2 3 4 5 6 
#
# 1 0.015173 -0.001037 -0.004933 0.000000 -0.005311 0.000000
# 2 -0.001037 0.008608 -0.000545 0.000000 -0.001192 0.000000
# 3 -0.004933 -0.000545 0.019866 0.000000 -0.003135 0.000000
# 4 0.000000 0.000000 0.000000 0.028075 0.000000 0.000426
# 5 -0.005311 -0.001192 -0.003135 0.000000 0.034677 0.000000
# 6 0.000000 0.000000 0.000000 0.000426 0.000000 0.039686
#
#
# Mechanical properties :
#
#
# Convention : Reuss Voigt Hill
#
# Bulk Modulus (GPa) = 32.66009 37.93768 35.29888
# Shear Modulus (GPa) = 29.52971 32.78295 31.15633
#
# Velocity S-wave (km/s) = 3.85673 4.06363 3.96153
# Velocity P-wave (km/s) = 6.02359 6.41303 6.22136
#
# Compressibility (1/GPa) = 0.03061841
#
# Stress axis : x y z
#
# Youngs Moduli (GPa) = 65.90471 116.16964 50.33701
#
# Poissons Ratio (x) = 0.12041 0.24829
# Poissons Ratio (y) = 0.06831 0.02746
# Poissons Ratio (z) = 0.32508 0.06337
#
# Static dielectric constant tensor:
#      x y z
#    x 3.024500 0.000000 0.144490 
#    y 0.000000 4.247030 0.000000 
#    z 0.144490 0.000000 3.577210 
# 
# 
# High freq. dielectric constant tensor:
#      x y z
#    x 1.746560 0.000000 0.016980 
#    y 0.000000 1.797020 0.000000 
#    z 0.016980 0.000000 1.771630 
# 
# From -- ./inp_files/265315.got.cif
#   From: 2010.06.25/outbox.cif.g09.slc.cpg/sg15_133_cif.got.tgz:265315.got - 2010.06.28 07:06:18.
