data_PCOD8134273
_publ_section_title
;
Structure prediction by ZEFSAII (Michael W. Deem and Ramdas Pophale) SiO2 
 PCOD8134273
Probable space group: C 2/C
;
_chemical_formula_sum "Si O2"
_cell_formula_units_Z 64
_cell_length_a 8.407255
_cell_length_b 17.077931
_cell_length_c 28.017354
_cell_angle_alpha 90.000000
_cell_angle_beta 52.192958
_cell_angle_gamma 90.000000
_cell_volume 3178.245806
_symmetry_space_group_name_H-M "C 2/C"
_symmetry_group_IT_number 15
_symmetry_cell_setting 'monoclinic'
loop_
_space_group_symop_operation_xyz
x,y,z
-x,y,1/2-z
-x,-y,-z
x,-y,1/2+z
1/2+x,1/2+y,z
1/2-x,1/2+y,1/2-z
1/2-x,1/2-y,-z
1/2+x,1/2-y,1/2+z
loop_
_atom_site_type_symbol
_atom_site_label
_atom_site_fract_x
_atom_site_fract_y
_atom_site_fract_z
Si Si1 0.796286 0.745262 0.606823
Si Si2 0.897596 0.739203 0.221340
Si Si3 0.919482 0.089250 0.062046
Si Si4 0.990331 0.290573 0.338043
Si Si5 0.185427 0.149453 0.185072
Si Si6 0.069250 0.594956 0.957722
Si Si7 0.773643 0.946151 0.913796
Si Si8 0.776515 0.429823 0.425705
O O1 0.578583 0.712063 0.663645
O O2 0.785659 0.832279 0.587343
O O3 0.958900 0.743577 0.619510
O O4 0.870838 0.685490 0.553054
O O5 0.701735 0.794320 0.268459
O O6 0.855452 0.666824 0.193349
O O7 0.000000 0.702216 0.250000
O O8 0.041021 0.085801 0.089515
O O9 0.766785 0.015988 0.087474
O O10 0.067807 0.097752 0.989086
O O11 0.845755 0.230202 0.338017
O O12 0.864352 0.371900 0.367775
O O13 0.223257 0.078637 0.141963
O O14 0.000000 0.120665 0.250000
O O15 0.268921 0.540487 0.921134
O O16 0.946037 0.565392 0.934511
O O17 0.940729 0.585952 0.028908
#
# Coordination Sequence:
#
# PCOD8134273 Si02
#       8
#     8   8   8   8   8   8   8   8
#     4  10  19  35  59  86 112 153 197 239 288 348
#     4   9  20  36  57  81 115 148 196 246 289 344
#     4  10  20  34  59  89 122 151 193 245 293 347
#     4   9  18  36  59  80 111 155 193 237 288 349
#     4  10  20  35  58  84 111 150 199 240 289 346
#     4   9  21  36  57  82 121 157 192 233 299 349
#     4  10  20  37  56  82 123 155 189 242 293 350
#     4   9  20  35  57  88 121 152 195 239 294 353
#
# _framework density 20.136893000000001
#
# number of rings (size 3 to 8) (size 9 to 14) (size 15 to 20)
#    0.000    2.500    1.250    0.000    3.500    2.500 
#    0.000    3.750    0.000    5.250    0.000    0.000 
#    0.000    0.000    0.000    0.000    0.000    0.000 
#
# Total GULP energy -396434.946125 kJ/mol
# GULP energy per Si atom -12388.592066 kJ/mol
# Density = 2.009106 g / cm^3
# Si number density = 20.136893 Si / 1000 Ang^3
#
#
#
# Elastic Constant Matrix: (Units=GPa)
#
#
# Indices 1 2 3 4 5 6 
#
# 1 53.6250 22.5325 25.7545 0.0015 -1.9448 -0.0009
# 2 22.5325 130.7319 61.6206 0.0009 -6.8729 -0.0007
# 3 25.7545 61.6206 99.4897 -0.0009 5.5992 -0.0005
# 4 0.0015 0.0009 -0.0009 28.0429 -0.0005 4.3870
# 5 -1.9448 -6.8729 5.5992 -0.0005 25.3975 0.0007
# 6 -0.0009 -0.0007 -0.0005 4.3870 0.0007 25.2125
#
#
#
# Elastic Compliance Matrix: (Units=1/GPa)
#
#
# Indices 1 2 3 4 5 6 
#
# 1 0.021648 -0.001270 -0.004952 -0.000001 0.002406 0.000001
# 2 -0.001270 0.011399 -0.006986 0.000000 0.004528 0.000000
# 3 -0.004952 -0.006986 0.015986 0.000001 -0.005794 0.000000
# 4 -0.000001 0.000000 0.000001 0.036657 0.000001 -0.006379
# 5 0.002406 0.004528 -0.005794 0.000001 0.042061 -0.000001
# 6 0.000001 0.000000 0.000000 -0.006379 -0.000001 0.040773
#
#
# Mechanical properties :
#
#
# Convention : Reuss Voigt Hill
#
# Bulk Modulus (GPa) = 44.21798 55.96242 50.09020
# Shear Modulus (GPa) = 24.69371 27.32650 26.01011
#
# Velocity S-wave (km/s) = 3.50564 3.68779 3.59787
# Velocity P-wave (km/s) = 6.19616 6.78118 6.49526
#
# Compressibility (1/GPa) = 0.02261523
#
# Stress axis : x y z
#
# Youngs Moduli (GPa) = 46.19461 87.72542 62.55288
#
# Poissons Ratio (x) = 0.11144 0.30979
# Poissons Ratio (y) = 0.05868 0.43701
# Poissons Ratio (z) = 0.22878 0.61287
#
# Static dielectric constant tensor:
#      x y z
#    x 3.731300 0.000000 -0.002570 
#    y 0.000000 3.461510 0.000000 
#    z -0.002570 0.000000 3.832040 
# 
# 
# High freq. dielectric constant tensor:
#      x y z
#    x 1.782850 0.000000 -0.001170 
#    y 0.000000 1.761390 0.000000 
#    z -0.001170 0.000000 1.786660 
# 
# From -- ./inp_files/308236.got.cif
#   From: 2010.06.25/outbox.cif.g09.slc.cpg/sg15_155_cif.got.tgz:308236.got - 2010.06.28 07:06:18.
