data_PCOD8134046
_publ_section_title
;
Structure prediction by ZEFSAII (Michael W. Deem and Ramdas Pophale) SiO2 
 PCOD8134046
Probable space group: C 2/C
;
_chemical_formula_sum "Si O2"
_cell_formula_units_Z 40
_cell_length_a 20.578758
_cell_length_b 4.981397
_cell_length_c 23.602701
_cell_angle_alpha 90.000000
_cell_angle_beta 125.524334
_cell_angle_gamma 90.000000
_cell_volume 1969.184587
_symmetry_space_group_name_H-M "C 2/C"
_symmetry_group_IT_number 15
_symmetry_cell_setting 'monoclinic'
loop_
_space_group_symop_operation_xyz
x,y,z
-x,y,1/2-z
-x,-y,-z
x,-y,1/2+z
1/2+x,1/2+y,z
1/2-x,1/2+y,1/2-z
1/2-x,1/2-y,-z
1/2+x,1/2-y,1/2+z
loop_
_atom_site_type_symbol
_atom_site_label
_atom_site_fract_x
_atom_site_fract_y
_atom_site_fract_z
Si Si1 0.856697 0.736092 0.807145
Si Si2 0.169552 0.969588 0.006812
Si Si3 0.690709 0.731231 0.781282
Si Si4 0.505773 0.251575 0.962084
Si Si5 0.258683 0.530452 0.579324
O O1 0.784305 0.703670 0.814405
O O2 0.845550 0.524241 0.749854
O O3 0.938220 0.700751 0.881663
O O4 0.859854 0.032245 0.783405
O O5 0.228299 0.773505 0.072662
O O6 0.181568 0.265765 0.039706
O O7 0.085338 0.818070 0.966869
O O8 0.191172 0.018055 0.952654
O O9 0.681544 0.635806 0.841629
O O10 0.500000 0.500000 0.000000
O O11 0.500000 0.000000 0.000000
#
# Coordination Sequence:
#
# PCOD8134046 Si02
#       5
#     8   8   8   8   8
#     4  10  21  33  53  82 110 143 185 227 280 349
#     4  10  21  36  58  86 111 143 194 235 283 348
#     4  10  19  35  54  78 111 145 184 227 277 339
#     4  12  23  37  58  84 117 149 185 243 301 347
#     4  10  20  37  60  82 110 150 190 238 283 337
#
# _framework density 20.312975999999999
#
# number of rings (size 3 to 8) (size 9 to 14) (size 15 to 20)
#    0.000    1.600    0.000    6.000    0.000    3.200 
#    0.000    1.000    0.000    2.400    0.000    0.000 
#    0.000    0.000    0.000    0.000    0.000    0.000 
#
# Total GULP energy -247792.531322 kJ/mol
# GULP energy per Si atom -12389.626566 kJ/mol
# Density = 2.026674 g / cm^3
# Si number density = 20.312976 Si / 1000 Ang^3
#
#
#
# Elastic Constant Matrix: (Units=GPa)
#
#
# Indices 1 2 3 4 5 6 
#
# 1 67.7258 36.3042 39.8702 -0.0009 12.1838 -0.0036
# 2 36.3042 109.2879 18.3581 -0.0038 -5.3222 -0.0193
# 3 39.8702 18.3581 112.3709 -0.0021 7.4281 -0.0040
# 4 -0.0009 -0.0038 -0.0021 25.7386 -0.0004 -0.3737
# 5 12.1838 -5.3222 7.4281 -0.0004 22.0043 0.0021
# 6 -0.0036 -0.0193 -0.0040 -0.3737 0.0021 29.8237
#
#
#
# Elastic Compliance Matrix: (Units=1/GPa)
#
#
# Indices 1 2 3 4 5 6 
#
# 1 0.025579 -0.008017 -0.006854 -0.000001 -0.013788 -0.000002
# 2 -0.008017 0.012100 0.000389 0.000002 0.007234 0.000006
# 3 -0.006854 0.000389 0.011262 0.000001 0.000088 0.000001
# 4 -0.000001 0.000002 0.000001 0.038859 0.000002 0.000487
# 5 -0.013788 0.007234 0.000088 0.000002 0.054800 -0.000001
# 6 -0.000002 0.000006 0.000001 0.000487 -0.000001 0.033536
#
#
# Mechanical properties :
#
#
# Convention : Reuss Voigt Hill
#
# Bulk Modulus (GPa) = 50.05828 53.16105 51.60967
# Shear Modulus (GPa) = 23.61178 28.50347 26.05762
#
# Velocity S-wave (km/s) = 3.41310 3.75001 3.58551
# Velocity P-wave (km/s) = 6.34266 6.70656 6.52714
#
# Compressibility (1/GPa) = 0.01997671
#
# Stress axis : x y z
#
# Youngs Moduli (GPa) = 39.09533 82.64354 88.79703
#
# Poissons Ratio (x) = 0.66255 0.60864
# Poissons Ratio (y) = 0.31343 -0.03458
# Poissons Ratio (z) = 0.26797 -0.03219
#
# Static dielectric constant tensor:
#      x y z
#    x 3.172650 0.000120 -0.188390 
#    y 0.000120 4.126160 0.000030 
#    z -0.188390 0.000030 3.542470 
# 
# 
# High freq. dielectric constant tensor:
#      x y z
#    x 1.762070 0.000000 -0.013180 
#    y 0.000000 1.821470 0.000000 
#    z -0.013180 0.000000 1.795360 
# 
# From -- ./inp_files/212614.got.cif
#   From: 2010.06.25/outbox.cif.g09.slc.cpg/sg15_107_cif.got.tgz:212614.got - 2010.06.28 07:06:18.
