data_PCOD8134583
_publ_section_title
;
Structure prediction by ZEFSAII (Michael W. Deem and Ramdas Pophale) SiO2 
 PCOD8134583
Probable space group: C 2/C
;
_chemical_formula_sum "Si O2"
_cell_formula_units_Z 44
_cell_length_a 12.252926
_cell_length_b 15.408679
_cell_length_c 12.457727
_cell_angle_alpha 90.000000
_cell_angle_beta 115.747864
_cell_angle_gamma 90.000000
_cell_volume 2118.513085
_symmetry_space_group_name_H-M "C 2/C"
_symmetry_group_IT_number 15
_symmetry_cell_setting 'monoclinic'
loop_
_space_group_symop_operation_xyz
x,y,z
-x,y,1/2-z
-x,-y,-z
x,-y,1/2+z
1/2+x,1/2+y,z
1/2-x,1/2+y,1/2-z
1/2-x,1/2-y,-z
1/2+x,1/2-y,1/2+z
loop_
_atom_site_type_symbol
_atom_site_label
_atom_site_fract_x
_atom_site_fract_y
_atom_site_fract_z
Si Si1 0.238791 0.398366 0.629304
Si Si2 0.883786 0.949244 0.258565
Si Si3 0.819744 0.867105 0.430921
Si Si4 0.500000 0.284907 0.250000
Si Si5 0.620878 0.234732 0.734017
Si Si6 0.984005 0.707598 0.469376
O O1 0.263836 0.494210 0.686998
O O2 0.293472 0.405475 0.534658
O O3 0.303064 0.324658 0.730015
O O4 0.094044 0.381677 0.564834
O O5 0.894252 0.938582 0.392668
O O6 0.000000 0.995667 0.250000
O O7 0.881659 0.848205 0.215187
O O8 0.694978 0.844515 0.316854
O O9 0.895586 0.780121 0.480280
O O10 0.526084 0.226503 0.365456
O O11 0.500000 0.248269 0.750000
O O12 0.596247 0.206161 0.599661
#
# Coordination Sequence:
#
# PCOD8134583 Si02
#       6
#     8   8   8   4   8   8
#     4  11  20  33  58  89 109 142 198 236 275 335
#     4   9  21  36  53  78 118 148 183 228 296 327
#     4  10  20  35  55  83 114 145 192 234 279 341
#     4   8  20  38  56  78 120 156 172 232 296 332
#     4  11  18  32  59  87 105 145 187 237 282 323
#     4  10  19  36  58  83 116 146 191 237 275 339
#
# _framework density 20.769285
#
# number of rings (size 3 to 8) (size 9 to 14) (size 15 to 20)
#    0.545    1.455    3.636    1.636    0.000    2.182 
#    0.000   10.909    2.000    0.000    0.000    0.000 
#    0.000    0.000    0.000    0.000    0.000    0.000 
#
# Total GULP energy -272570.474742 kJ/mol
# GULP energy per Si atom -12389.567034 kJ/mol
# Density = 2.072201 g / cm^3
# Si number density = 20.769285 Si / 1000 Ang^3
#
#
#
# Elastic Constant Matrix: (Units=GPa)
#
#
# Indices 1 2 3 4 5 6 
#
# 1 36.8731 12.2541 22.2506 0.0000 -5.2063 0.0000
# 2 12.2541 58.1456 26.8909 0.0000 -3.4211 0.0000
# 3 22.2506 26.8909 117.9558 0.0000 -4.4299 0.0000
# 4 0.0000 0.0000 0.0000 20.0476 0.0000 -0.3695
# 5 -5.2063 -3.4211 -4.4299 0.0000 36.9138 0.0000
# 6 0.0000 0.0000 0.0000 -0.3695 0.0000 5.0742
#
#
#
# Elastic Compliance Matrix: (Units=1/GPa)
#
#
# Indices 1 2 3 4 5 6 
#
# 1 0.032011 -0.004256 -0.004936 0.000000 0.003528 0.000000
# 2 -0.004256 0.019850 -0.003692 0.000000 0.000796 0.000000
# 3 -0.004936 -0.003692 0.010258 0.000000 0.000193 0.000000
# 4 0.000000 0.000000 0.000000 0.049948 0.000000 0.003637
# 5 0.003528 0.000796 0.000193 0.000000 0.027685 0.000000
# 6 0.000000 0.000000 0.000000 0.003637 0.000000 0.197340
#
#
# Mechanical properties :
#
#
# Convention : Reuss Voigt Hill
#
# Bulk Modulus (GPa) = 27.51022 37.30728 32.40875
# Shear Modulus (GPa) = 13.33419 22.51240 17.92330
#
# Velocity S-wave (km/s) = 2.53655 3.29588 2.94082
# Velocity P-wave (km/s) = 4.67474 5.69960 5.21242
#
# Compressibility (1/GPa) = 0.03635013
#
# Stress axis : x y z
#
# Youngs Moduli (GPa) = 31.23932 50.37861 97.48678
#
# Poissons Ratio (x) = 0.21442 0.48116
# Poissons Ratio (y) = 0.13296 0.35997
# Poissons Ratio (z) = 0.15418 0.18602
#
# Static dielectric constant tensor:
#      x y z
#    x 3.729410 0.000000 -0.019520 
#    y 0.000000 3.435020 0.000000 
#    z -0.019520 0.000000 3.835600 
# 
# 
# High freq. dielectric constant tensor:
#      x y z
#    x 1.799320 0.000000 -0.015810 
#    y 0.000000 1.780630 0.000000 
#    z -0.015810 0.000000 1.813810 
# 
# From -- ./inp_files/96105.got.cif
#   From: 2010.06.25/outbox.cif.g09.slc.cpg/sg15_49_cif.got.tgz:96105.got - 2010.06.28 07:06:18.
