data_PCOD8134638
_publ_section_title
;
Structure prediction by ZEFSAII (Michael W. Deem and Ramdas Pophale) SiO2 
 PCOD8134638
Probable space group: C 2/C
;
_chemical_formula_sum "Si O2"
_cell_formula_units_Z 44
_cell_length_a 12.370463
_cell_length_b 13.155528
_cell_length_c 16.419515
_cell_angle_alpha 90.000000
_cell_angle_beta 124.031397
_cell_angle_gamma 90.000000
_cell_volume 2214.461623
_symmetry_space_group_name_H-M "C 2/C"
_symmetry_group_IT_number 15
_symmetry_cell_setting 'monoclinic'
loop_
_space_group_symop_operation_xyz
x,y,z
-x,y,1/2-z
-x,-y,-z
x,-y,1/2+z
1/2+x,1/2+y,z
1/2-x,1/2+y,1/2-z
1/2-x,1/2-y,-z
1/2+x,1/2-y,1/2+z
loop_
_atom_site_type_symbol
_atom_site_label
_atom_site_fract_x
_atom_site_fract_y
_atom_site_fract_z
Si Si1 0.154174 0.490489 0.326800
Si Si2 0.316050 0.919156 0.830403
Si Si3 0.898416 0.636254 0.066106
Si Si4 0.500000 0.722198 0.750000
Si Si5 0.642697 0.775566 0.275146
Si Si6 0.730460 0.859743 0.148622
O O1 0.210885 0.559780 0.277134
O O2 0.183419 0.544432 0.425333
O O3 0.206770 0.373945 0.348399
O O4 0.000000 0.483387 0.250000
O O5 0.466411 0.900828 0.915730
O O6 0.231285 0.823512 0.824642
O O7 0.280658 0.019298 0.865661
O O8 0.934097 0.714834 0.151044
O O9 0.810962 0.685244 0.957327
O O10 0.618860 0.658051 0.763211
O O11 0.500000 0.749669 0.250000
O O12 0.636930 0.809623 0.177528
#
# Coordination Sequence:
#
# PCOD8134638 Si02
#       6
#     8   8   8   4   8   8
#     4   8  16  33  59  81 113 154 193 233 279 343
#     4  10  19  36  59  86 122 151 191 239 296 346
#     4  11  19  40  64  88 111 155 206 241 281 354
#     4  12  22  40  64  86 122 146 194 262 296 326
#     4  10  20  37  59  84 121 160 186 239 300 346
#     4  11  24  37  63  91 113 155 203 240 291 353
#
# _framework density 19.869389000000002
#
# number of rings (size 3 to 8) (size 9 to 14) (size 15 to 20)
#    0.000    1.818    4.545    2.182    1.273    0.000 
#    0.000    3.636    0.000    3.273    0.000    0.000 
#    0.000    0.000    0.000    0.000    0.000    0.000 
#
# Total GULP energy -272641.794107 kJ/mol
# GULP energy per Si atom -12392.808823 kJ/mol
# Density = 1.982417 g / cm^3
# Si number density = 19.869389 Si / 1000 Ang^3
#
#
#
# Elastic Constant Matrix: (Units=GPa)
#
#
# Indices 1 2 3 4 5 6 
#
# 1 108.3414 34.8745 32.9142 0.0000 -2.7547 0.0000
# 2 34.8745 75.8084 16.7058 0.0000 8.9589 0.0000
# 3 32.9142 16.7058 85.7896 0.0000 -9.2483 0.0000
# 4 0.0000 0.0000 0.0000 68.6392 0.0000 -33.4004
# 5 -2.7547 8.9589 -9.2483 0.0000 20.3239 0.0000
# 6 0.0000 0.0000 0.0000 -33.4004 0.0000 59.0525
#
#
#
# Elastic Compliance Matrix: (Units=1/GPa)
#
#
# Indices 1 2 3 4 5 6 
#
# 1 0.011921 -0.005019 -0.003348 0.000000 0.002305 0.000000
# 2 -0.005019 0.017136 -0.002418 0.000000 -0.009334 0.000000
# 3 -0.003348 -0.002418 0.014173 0.000000 0.007061 0.000000
# 4 0.000000 0.000000 0.000000 0.020101 0.000000 0.011369
# 5 0.002305 -0.009334 0.007061 0.000000 0.056843 0.000000
# 6 0.000000 0.000000 0.000000 0.011369 0.000000 0.023365
#
#
# Mechanical properties :
#
#
# Convention : Reuss Voigt Hill
#
# Bulk Modulus (GPa) = 46.16519 48.76981 47.46750
# Shear Modulus (GPa) = 29.01441 41.96613 35.49027
#
# Velocity S-wave (km/s) = 3.82548 4.60074 4.23091
# Velocity P-wave (km/s) = 6.54195 7.26780 6.91441
#
# Compressibility (1/GPa) = 0.02166134
#
# Stress axis : x y z
#
# Youngs Moduli (GPa) = 83.88334 58.35750 70.55720
#
# Poissons Ratio (x) = 0.29288 0.23623
# Poissons Ratio (y) = 0.42099 0.17057
# Poissons Ratio (z) = 0.28084 0.14108
#
# Static dielectric constant tensor:
#      x y z
#    x 5.319930 0.000000 0.551540 
#    y 0.000000 3.898670 0.000000 
#    z 0.551540 0.000000 3.696970 
# 
# 
# High freq. dielectric constant tensor:
#      x y z
#    x 1.775600 0.000000 -0.023390 
#    y 0.000000 1.783680 0.000000 
#    z -0.023390 0.000000 1.738110 
# 
# From -- ./inp_files/143038.got.cif
#   From: 2010.06.25/outbox.cif.g09.slc.cpg/sg15_72_cif.got.tgz:143038.got - 2010.06.28 07:06:18.
