data_PCOD8134967
_publ_section_title
;
Structure prediction by ZEFSAII (Michael W. Deem and Ramdas Pophale) SiO2 
 PCOD8134967
Probable space group: C 2/C
;
_chemical_formula_sum "Si O2"
_cell_formula_units_Z 56
_cell_length_a 15.112102
_cell_length_b 7.798323
_cell_length_c 23.327664
_cell_angle_alpha 90.000000
_cell_angle_beta 108.581860
_cell_angle_gamma 90.000000
_cell_volume 2605.828474
_symmetry_space_group_name_H-M "C 2/C"
_symmetry_group_IT_number 15
_symmetry_cell_setting 'monoclinic'
loop_
_space_group_symop_operation_xyz
x,y,z
-x,y,1/2-z
-x,-y,-z
x,-y,1/2+z
1/2+x,1/2+y,z
1/2-x,1/2+y,1/2-z
1/2-x,1/2-y,-z
1/2+x,1/2-y,1/2+z
loop_
_atom_site_type_symbol
_atom_site_label
_atom_site_fract_x
_atom_site_fract_y
_atom_site_fract_z
Si Si1 0.745941 0.742061 0.338640
Si Si2 0.421990 0.121134 0.008623
Si Si3 0.527378 0.173947 0.195217
Si Si4 0.170521 0.196745 0.109591
Si Si5 0.353006 0.996164 0.111866
Si Si6 0.939177 0.862886 0.403763
Si Si7 0.795254 0.440549 0.282623
O O1 0.846345 0.744399 0.391583
O O2 0.723940 0.552520 0.308437
O O3 0.670685 0.801797 0.371299
O O4 0.750936 0.876863 0.285902
O O5 0.363292 0.020578 0.045579
O O6 0.474891 0.294342 0.040263
O O7 0.348228 0.164979 0.943904
O O8 0.500000 0.000000 0.000000
O O9 0.500000 0.252378 0.250000
O O10 0.451800 0.036185 0.159712
O O11 0.528761 0.340127 0.155267
O O12 0.624193 0.072817 0.218058
O O13 0.271213 0.116205 0.119187
O O14 0.168544 0.281464 0.172079
O O15 0.086007 0.059316 0.088635
#
# Coordination Sequence:
#
# PCOD8134967 Si02
#       7
#     8   8   8   8   8   8   8
#     4  10  19  37  58  90 119 157 207 246 314 366
#     4  11  22  42  65  85 121 165 208 258 323 372
#     4  10  19  37  59  87 124 163 193 248 314 370
#     4  11  22  40  60  91 119 163 214 254 308 377
#     4  10  21  38  61  91 118 158 201 260 304 368
#     4   9  21  36  61  85 120 159 199 252 311 363
#     4  11  22  37  64  86 127 167 199 255 311 381
#
# _framework density 21.490288
#
# number of rings (size 3 to 8) (size 9 to 14) (size 15 to 20)
#    0.000    1.714    1.429    5.143    2.000    0.000 
#    0.000   14.286    0.000    0.000    0.000    0.000 
#    0.000    0.000    0.000    0.000    0.000    0.000 
#
# Total GULP energy -347016.967942 kJ/mol
# GULP energy per Si atom -12393.463141 kJ/mol
# Density = 2.144137 g / cm^3
# Si number density = 21.490288 Si / 1000 Ang^3
#
#
#
# Elastic Constant Matrix: (Units=GPa)
#
#
# Indices 1 2 3 4 5 6 
#
# 1 75.4631 17.2548 20.9769 0.0000 -15.0225 0.0000
# 2 17.2548 70.4359 -2.9760 0.0000 -15.2325 0.0000
# 3 20.9769 -2.9760 59.2252 0.0000 -11.7948 0.0000
# 4 0.0000 0.0000 0.0000 28.1009 0.0000 -3.2589
# 5 -15.0225 -15.2325 -11.7948 0.0000 40.3781 0.0000
# 6 0.0000 0.0000 0.0000 -3.2589 0.0000 34.1186
#
#
#
# Elastic Compliance Matrix: (Units=1/GPa)
#
#
# Indices 1 2 3 4 5 6 
#
# 1 0.016141 -0.003496 -0.005266 0.000000 0.003148 0.000000
# 2 -0.003496 0.016455 0.003230 0.000000 0.005851 0.000000
# 3 -0.005266 0.003230 0.019924 0.000000 0.005079 0.000000
# 4 0.000000 0.000000 0.000000 0.035985 0.000000 0.003437
# 5 0.003148 0.005851 0.005079 0.000000 0.029628 0.000000
# 6 0.000000 0.000000 0.000000 0.003437 0.000000 0.029638
#
#
# Mechanical properties :
#
#
# Convention : Reuss Voigt Hill
#
# Bulk Modulus (GPa) = 24.12090 30.62617 27.37353
# Shear Modulus (GPa) = 28.95986 31.84410 30.40198
#
# Velocity S-wave (km/s) = 3.67492 3.85358 3.76531
# Velocity P-wave (km/s) = 5.40881 5.83800 5.62749
#
# Compressibility (1/GPa) = 0.04145782
#
# Stress axis : x y z
#
# Youngs Moduli (GPa) = 61.95280 60.77024 50.19163
#
# Poissons Ratio (x) = 0.21244 0.26430
# Poissons Ratio (y) = 0.21657 -0.16213
# Poissons Ratio (z) = 0.32623 -0.19630
#
# Static dielectric constant tensor:
#      x y z
#    x 4.033920 0.000000 -0.215680 
#    y 0.000000 3.915000 0.000000 
#    z -0.215680 0.000000 4.460000 
# 
# 
# High freq. dielectric constant tensor:
#      x y z
#    x 1.833450 0.000000 -0.000720 
#    y 0.000000 1.826530 0.000000 
#    z -0.000720 0.000000 1.855750 
# 
# From -- ./inp_files/272841.got.cif
#   From: 2010.06.25/outbox.cif.g09.slc.cpg/sg15_137_cif.got.tgz:272841.got - 2010.06.28 07:06:18.
