data_PCOD8134069
_publ_section_title
;
Structure prediction by ZEFSAII (Michael W. Deem and Ramdas Pophale) SiO2 
 PCOD8134069
Probable space group: C 2/C
;
_chemical_formula_sum "Si O2"
_cell_formula_units_Z 48
_cell_length_a 12.469842
_cell_length_b 13.733621
_cell_length_c 22.673774
_cell_angle_alpha 90.000000
_cell_angle_beta 42.761413
_cell_angle_gamma 90.000000
_cell_volume 2636.365983
_symmetry_space_group_name_H-M "C 2/C"
_symmetry_group_IT_number 15
_symmetry_cell_setting 'monoclinic'
loop_
_space_group_symop_operation_xyz
x,y,z
-x,y,1/2-z
-x,-y,-z
x,-y,1/2+z
1/2+x,1/2+y,z
1/2-x,1/2+y,1/2-z
1/2-x,1/2-y,-z
1/2+x,1/2-y,1/2+z
loop_
_atom_site_type_symbol
_atom_site_label
_atom_site_fract_x
_atom_site_fract_y
_atom_site_fract_z
Si Si1 0.362747 0.969955 0.475145
Si Si2 0.077907 0.639876 0.430677
Si Si3 0.996945 0.022225 0.411931
Si Si4 0.938632 0.347664 0.336233
Si Si5 0.420915 0.650849 0.547323
Si Si6 0.399024 0.643685 0.236238
O O1 0.444789 0.070469 0.458495
O O2 0.356463 0.898179 0.533345
O O3 0.186957 0.994967 0.526185
O O4 0.460954 0.920633 0.381955
O O5 0.997376 0.745798 0.471514
O O6 0.217224 0.651941 0.327228
O O7 0.019619 0.098368 0.456124
O O8 0.090298 0.064021 0.318969
O O9 0.077568 0.919362 0.396099
O O10 0.755005 0.322159 0.402847
O O11 0.000000 0.395179 0.250000
O O12 0.033748 0.248431 0.311392
O O13 0.500000 0.603242 0.250000
#
# Coordination Sequence:
#
# PCOD8134069 Si02
#       6
#     8   8   8   8   8   8
#     4  10  22  36  54  79 110 142 173 217 267 319
#     4  11  21  35  55  82 107 141 178 216 266 315
#     4  10  21  36  56  79 107 142 176 219 263 314
#     4  10  19  35  55  80 103 136 176 222 262 303
#     4  10  20  36  56  77 105 140 180 213 266 315
#     4  11  19  33  58  81 105 134 181 226 259 302
#
# _framework density 18.206880000000002
#
# number of rings (size 3 to 8) (size 9 to 14) (size 15 to 20)
#    0.000    1.667    5.000    1.000    2.333    3.333 
#    0.000    0.000    0.000    1.000    0.000    0.000 
#    0.000    0.000    0.000    0.000    0.000    0.000 
#
# Total GULP energy -297628.844941 kJ/mol
# GULP energy per Si atom -12401.201873 kJ/mol
# Density = 1.816544 g / cm^3
# Si number density = 18.206880 Si / 1000 Ang^3
#
#
#
# Elastic Constant Matrix: (Units=GPa)
#
#
# Indices 1 2 3 4 5 6 
#
# 1 62.5011 53.4714 24.9791 0.0000 12.2453 0.0000
# 2 53.4714 153.5510 49.9012 0.0000 11.9647 0.0001
# 3 24.9791 49.9012 73.1627 0.0000 11.5346 0.0001
# 4 0.0000 0.0000 0.0000 28.2799 0.0000 4.5249
# 5 12.2453 11.9647 11.5346 0.0000 27.7266 0.0000
# 6 0.0000 0.0001 0.0001 4.5249 0.0000 16.9995
#
#
#
# Elastic Compliance Matrix: (Units=1/GPa)
#
#
# Indices 1 2 3 4 5 6 
#
# 1 0.024430 -0.007218 -0.002363 0.000000 -0.006692 0.000000
# 2 -0.007218 0.010545 -0.004830 0.000000 0.000647 0.000000
# 3 -0.002363 -0.004830 0.018489 0.000000 -0.004564 0.000000
# 4 0.000000 0.000000 0.000000 0.036934 0.000000 -0.009831
# 5 -0.006692 0.000647 -0.004564 0.000000 0.040641 0.000000
# 6 0.000000 0.000000 0.000000 -0.009831 0.000000 0.061442
#
#
# Mechanical properties :
#
#
# Convention : Reuss Voigt Hill
#
# Bulk Modulus (GPa) = 40.58029 60.65757 50.61893
# Shear Modulus (GPa) = 21.78474 25.32540 23.55507
#
# Velocity S-wave (km/s) = 3.46282 3.73363 3.60077
# Velocity P-wave (km/s) = 6.19071 7.20935 6.71936
#
# Compressibility (1/GPa) = 0.02464251
#
# Stress axis : x y z
#
# Youngs Moduli (GPa) = 40.93248 94.82799 54.08683
#
# Poissons Ratio (x) = 0.68449 0.12780
# Poissons Ratio (y) = 0.29546 0.26125
# Poissons Ratio (z) = 0.09671 0.45803
#
# Static dielectric constant tensor:
#      x y z
#    x 3.243080 0.000000 0.202950 
#    y 0.000000 3.405880 0.000000 
#    z 0.202950 0.000000 3.433760 
# 
# 
# High freq. dielectric constant tensor:
#      x y z
#    x 1.690550 0.000000 0.012390 
#    y 0.000000 1.705180 0.000000 
#    z 0.012390 0.000000 1.709520 
# 
# From -- ./inp_files/197186.got.cif
#   From: 2010.06.25/outbox.cif.g09.slc.cpg/sg15_99_cif.got.tgz:197186.got - 2010.06.28 07:06:18.
