data_PCOD8134786
_publ_section_title
;
Structure prediction by ZEFSAII (Michael W. Deem and Ramdas Pophale) SiO2 
 PCOD8134786
Probable space group: C 2/C
;
_chemical_formula_sum "Si O2"
_cell_formula_units_Z 56
_cell_length_a 11.675227
_cell_length_b 15.138663
_cell_length_c 18.383097
_cell_angle_alpha 90.000000
_cell_angle_beta 121.317160
_cell_angle_gamma 90.000000
_cell_volume 2775.770557
_symmetry_space_group_name_H-M "C 2/C"
_symmetry_group_IT_number 15
_symmetry_cell_setting 'monoclinic'
loop_
_space_group_symop_operation_xyz
x,y,z
-x,y,1/2-z
-x,-y,-z
x,-y,1/2+z
1/2+x,1/2+y,z
1/2-x,1/2+y,1/2-z
1/2-x,1/2-y,-z
1/2+x,1/2-y,1/2+z
loop_
_atom_site_type_symbol
_atom_site_label
_atom_site_fract_x
_atom_site_fract_y
_atom_site_fract_z
Si Si1 0.112060 0.001854 0.436203
Si Si2 0.646525 0.306090 0.418305
Si Si3 0.353358 0.178986 0.210684
Si Si4 0.369238 0.238401 0.374932
Si Si5 0.637849 0.871969 0.333249
Si Si6 0.803679 0.655752 0.491855
Si Si7 0.823866 0.021319 0.377365
O O1 0.175885 0.911003 0.425434
O O2 0.130830 0.006883 0.528243
O O3 0.186560 0.087553 0.428328
O O4 0.952340 0.010674 0.366326
O O5 0.750000 0.250000 0.500000
O O6 0.646266 0.270060 0.335543
O O7 0.501132 0.297120 0.407814
O O8 0.500000 0.133614 0.250000
O O9 0.327264 0.191226 0.286932
O O10 0.232128 0.120428 0.140424
O O11 0.242973 0.294371 0.357709
O O12 0.395480 0.168762 0.449786
O O13 0.500000 0.846265 0.250000
O O14 0.613628 0.885658 0.412505
O O15 0.700420 0.957946 0.314083
O O16 0.750000 0.750000 0.500000
#
# Coordination Sequence:
#
# PCOD8134786 Si02
#       7
#     8   8   8   8   8   8   8
#     4  10  20  37  65  94 115 162 212 255 310 374
#     4  11  21  39  64  85 122 164 210 257 311 370
#     4  10  22  37  58  83 123 165 205 252 317 369
#     4  10  22  41  56  90 124 163 208 260 306 374
#     4  10  20  36  62  89 123 159 202 252 315 369
#     4   9  21  39  62  91 126 157 205 257 306 371
#     4  10  19  36  62  88 118 159 206 249 310 380
#
# _framework density 20.174578
#
# number of rings (size 3 to 8) (size 9 to 14) (size 15 to 20)
#    0.000    2.000    2.857    0.429    2.000    3.429 
#    2.571    0.714    0.000    0.000    0.000    0.000 
#    0.000    0.000    0.000    0.000    0.000    0.000 
#
# Total GULP energy -347033.624167 kJ/mol
# GULP energy per Si atom -12394.058006 kJ/mol
# Density = 2.012866 g / cm^3
# Si number density = 20.174578 Si / 1000 Ang^3
#
#
#
# Elastic Constant Matrix: (Units=GPa)
#
#
# Indices 1 2 3 4 5 6 
#
# 1 77.8436 43.2742 48.3564 0.0000 -5.2847 0.0000
# 2 43.2742 118.4772 19.5195 0.0000 2.1262 0.0000
# 3 48.3564 19.5195 82.5608 0.0000 -5.3666 0.0000
# 4 0.0000 0.0000 0.0000 24.6991 0.0000 6.4789
# 5 -5.2847 2.1262 -5.3666 0.0000 40.0394 0.0000
# 6 0.0000 0.0000 0.0000 6.4789 0.0000 26.6840
#
#
#
# Elastic Compliance Matrix: (Units=1/GPa)
#
#
# Indices 1 2 3 4 5 6 
#
# 1 0.024768 -0.006984 -0.012730 0.000000 0.001934 0.000000
# 2 -0.006984 0.010774 0.001459 0.000000 -0.001298 0.000000
# 3 -0.012730 0.001459 0.019277 0.000000 0.000826 0.000000
# 4 0.000000 0.000000 0.000000 0.043241 0.000000 -0.010499
# 5 0.001934 -0.001298 0.000826 0.000000 0.025410 0.000000
# 6 0.000000 0.000000 0.000000 -0.010499 0.000000 0.040025
#
#
# Mechanical properties :
#
#
# Convention : Reuss Voigt Hill
#
# Bulk Modulus (GPa) = 54.61711 55.68686 55.15199
# Shear Modulus (GPa) = 24.25909 29.46658 26.86283
#
# Velocity S-wave (km/s) = 3.47141 3.82590 3.65296
# Velocity P-wave (km/s) = 6.57256 6.86870 6.72226
#
# Compressibility (1/GPa) = 0.01830928
#
# Stress axis : x y z
#
# Youngs Moduli (GPa) = 40.37520 92.81345 51.87532
#
# Poissons Ratio (x) = 0.64820 0.66036
# Poissons Ratio (y) = 0.28198 -0.07568
# Poissons Ratio (z) = 0.51397 -0.13540
#
# Static dielectric constant tensor:
#      x y z
#    x 3.828730 0.000000 -0.189690 
#    y 0.000000 3.701060 0.000000 
#    z -0.189690 0.000000 3.967050 
# 
# 
# High freq. dielectric constant tensor:
#      x y z
#    x 1.777360 0.000000 0.003760 
#    y 0.000000 1.783350 0.000000 
#    z 0.003760 0.000000 1.780230 
# 
# From -- ./inp_files/198239.got.cif
#   From: 2010.06.25/outbox.cif.g09.slc.cpg/sg15_100_cif.got.tgz:198239.got - 2010.06.28 07:06:18.
