data_PCOD8134734
_publ_section_title
;
Structure prediction by ZEFSAII (Michael W. Deem and Ramdas Pophale) SiO2 
 PCOD8134734
Probable space group: C 2/C
;
_chemical_formula_sum "Si O2"
_cell_formula_units_Z 48
_cell_length_a 19.598108
_cell_length_b 14.759890
_cell_length_c 16.572637
_cell_angle_alpha 90.000000
_cell_angle_beta 30.334049
_cell_angle_gamma 90.000000
_cell_volume 2421.113765
_symmetry_space_group_name_H-M "C 2/C"
_symmetry_group_IT_number 15
_symmetry_cell_setting 'monoclinic'
loop_
_space_group_symop_operation_xyz
x,y,z
-x,y,1/2-z
-x,-y,-z
x,-y,1/2+z
1/2+x,1/2+y,z
1/2-x,1/2+y,1/2-z
1/2-x,1/2-y,-z
1/2+x,1/2-y,1/2+z
loop_
_atom_site_type_symbol
_atom_site_label
_atom_site_fract_x
_atom_site_fract_y
_atom_site_fract_z
Si Si1 0.617400 0.677116 0.065373
Si Si2 0.644338 0.880783 0.068924
Si Si3 0.258541 0.048985 0.634719
Si Si4 0.872654 0.716308 0.431615
Si Si5 0.031250 0.100368 0.625793
Si Si6 0.624126 0.538798 0.925231
O O1 0.500000 0.655061 0.250000
O O2 0.628890 0.784850 0.038552
O O3 0.756203 0.634453 0.957174
O O4 0.588958 0.634054 0.005867
O O5 0.500000 0.914430 0.250000
O O6 0.704004 0.954725 0.946101
O O7 0.349964 0.130060 0.510467
O O8 0.260791 0.040830 0.730672
O O9 0.106693 0.082412 0.778562
O O10 0.750000 0.750000 0.500000
O O11 0.914551 0.799061 0.446577
O O12 0.000000 0.686493 0.250000
O O13 0.000000 0.082183 0.750000
O O14 0.146818 0.032029 0.475932
O O15 0.500000 0.500000 0.000000
#
# Coordination Sequence:
#
# PCOD8134734 Si02
#       6
#     8   8   8   8   8   8
#     4  10  20  39  66  91 119 165 218 256 304 375
#     4  10  22  39  64  90 121 163 211 264 309 364
#     4  11  21  37  57  88 122 157 201 250 313 368
#     4  11  21  37  62  89 115 156 207 253 305 364
#     4  10  19  36  61  87 113 159 209 247 299 370
#     4  10  21  35  61  93 124 161 202 256 311 367
#
# _framework density 19.825586000000001
#
# number of rings (size 3 to 8) (size 9 to 14) (size 15 to 20)
#    0.000    1.667    3.333    4.000    0.000    1.333 
#    0.000    4.167    0.000    0.000    0.000    0.000 
#    0.000    0.000    0.000    0.000    0.000    0.000 
#
# Total GULP energy -297340.074109 kJ/mol
# GULP energy per Si atom -12389.169755 kJ/mol
# Density = 1.978046 g / cm^3
# Si number density = 19.825586 Si / 1000 Ang^3
#
#
#
# Elastic Constant Matrix: (Units=GPa)
#
#
# Indices 1 2 3 4 5 6 
#
# 1 56.7957 45.9606 40.4828 0.0000 10.0688 0.0000
# 2 45.9606 166.3645 72.8728 -0.0001 24.9227 0.0001
# 3 40.4828 72.8728 130.4883 0.0001 9.0413 0.0000
# 4 0.0000 -0.0001 0.0001 55.3041 0.0000 -6.3676
# 5 10.0688 24.9227 9.0413 0.0000 36.0017 0.0000
# 6 0.0000 0.0001 0.0000 -6.3676 0.0000 28.8385
#
#
#
# Elastic Compliance Matrix: (Units=1/GPa)
#
#
# Indices 1 2 3 4 5 6 
#
# 1 0.025316 -0.004261 -0.005280 0.000000 -0.002805 0.000000
# 2 -0.004261 0.009451 -0.003649 0.000000 -0.004434 0.000000
# 3 -0.005280 -0.003649 0.011258 0.000000 0.001175 0.000000
# 4 0.000000 0.000000 0.000000 0.018554 0.000000 0.004097
# 5 -0.002805 -0.004434 0.001175 0.000000 0.031335 0.000000
# 6 0.000000 0.000000 0.000000 0.004097 0.000000 0.035580
#
#
# Mechanical properties :
#
#
# Convention : Reuss Voigt Hill
#
# Bulk Modulus (GPa) = 50.90389 74.69789 62.80089
# Shear Modulus (GPa) = 30.40976 36.98434 33.69705
#
# Velocity S-wave (km/s) = 3.92071 4.32381 4.12718
# Velocity P-wave (km/s) = 6.79908 7.91748 7.37950
#
# Compressibility (1/GPa) = 0.01964486
#
# Stress axis : x y z
#
# Youngs Moduli (GPa) = 39.50115 105.81421 88.82712
#
# Poissons Ratio (x) = 0.45086 0.46902
# Poissons Ratio (y) = 0.16831 0.32410
# Poissons Ratio (z) = 0.20857 0.38608
#
# Static dielectric constant tensor:
#      x y z
#    x 4.034530 0.000000 0.575010 
#    y 0.000000 4.033630 0.000000 
#    z 0.575010 0.000000 4.158460 
# 
# 
# High freq. dielectric constant tensor:
#      x y z
#    x 1.745520 0.000000 0.010900 
#    y 0.000000 1.788950 0.000000 
#    z 0.010900 0.000000 1.780330 
# 
# From -- ./inp_files/112495.got.cif
#   From: 2010.06.25/outbox.cif.g09.slc.cpg/sg15_57_cif.got.tgz:112495.got - 2010.06.28 07:06:18.
