data_PCOD8134397
_publ_section_title
;
Structure prediction by ZEFSAII (Michael W. Deem and Ramdas Pophale) SiO2 
 PCOD8134397
Probable space group: C 2/C
;
_chemical_formula_sum "Si O2"
_cell_formula_units_Z 44
_cell_length_a 13.043385
_cell_length_b 8.354377
_cell_length_c 17.661630
_cell_angle_alpha 90.000000
_cell_angle_beta 109.826060
_cell_angle_gamma 90.000000
_cell_volume 1810.500256
_symmetry_space_group_name_H-M "C 2/C"
_symmetry_group_IT_number 15
_symmetry_cell_setting 'monoclinic'
loop_
_space_group_symop_operation_xyz
x,y,z
-x,y,1/2-z
-x,-y,-z
x,-y,1/2+z
1/2+x,1/2+y,z
1/2-x,1/2+y,1/2-z
1/2-x,1/2-y,-z
1/2+x,1/2-y,1/2+z
loop_
_atom_site_type_symbol
_atom_site_label
_atom_site_fract_x
_atom_site_fract_y
_atom_site_fract_z
Si Si1 0.147990 0.026693 0.675403
Si Si2 0.350801 0.802076 0.600582
Si Si3 0.531482 0.102219 0.883822
Si Si4 0.500000 0.657334 0.250000
Si Si5 0.600781 0.692459 0.037877
Si Si6 0.129064 0.359513 0.734299
O O1 0.088497 0.953783 0.732906
O O2 0.090818 0.976800 0.580306
O O3 0.266038 0.948115 0.705129
O O4 0.155803 0.217593 0.682640
O O5 0.364461 0.987421 0.572901
O O6 0.415896 0.684625 0.557585
O O7 0.226257 0.744271 0.577450
O O8 0.418904 0.788917 0.696970
O O9 0.437734 0.993306 0.824362
O O10 0.561596 0.235613 0.828880
O O11 0.484056 0.180799 0.948235
#
# Coordination Sequence:
#
# PCOD8134397 Si02
#       6
#     8   8   8   4   8   8
#     4  10  22  36  59  85 117 149 194 246 287 352
#     4  10  19  35  63  81 117 154 195 241 303 352
#     4  11  20  37  60  86 115 155 198 242 295 357
#     4  10  20  34  56  88 112 146 196 242 290 344
#     4   9  21  37  57  87 116 154 195 243 302 353
#     4  11  21  37  61  86 113 151 199 240 293 346
#
# _framework density 24.302672999999999
#
# number of rings (size 3 to 8) (size 9 to 14) (size 15 to 20)
#    0.000    1.818    1.818    3.818    5.091    0.000 
#    0.000    0.909    4.000    6.545    0.000    0.000 
#    0.000    0.000    0.000    0.000    0.000    0.000 
#
# Total GULP energy -272600.751018 kJ/mol
# GULP energy per Si atom -12390.943228 kJ/mol
# Density = 2.424736 g / cm^3
# Si number density = 24.302673 Si / 1000 Ang^3
#
#
#
# Elastic Constant Matrix: (Units=GPa)
#
#
# Indices 1 2 3 4 5 6 
#
# 1 47.2795 2.7413 2.0869 0.0000 -19.3295 0.0000
# 2 2.7413 54.6572 -13.7260 0.0000 -7.7592 0.0000
# 3 2.0869 -13.7260 68.0924 0.0000 -30.1777 0.0000
# 4 0.0000 0.0000 0.0000 -2.4322 0.0000 -14.6158
# 5 -19.3295 -7.7592 -30.1777 0.0000 35.1872 0.0000
# 6 0.0000 0.0000 0.0000 -14.6158 0.0000 33.6759
#
#
#
# Elastic Compliance Matrix: (Units=1/GPa)
#
#
# Indices 1 2 3 4 5 6 
#
# 1 0.033329 0.006586 0.014621 0.000000 0.032301 0.000000
# 2 0.006586 0.024500 0.014090 0.000000 0.021104 0.000000
# 3 0.014621 0.014090 0.035513 0.000000 0.041596 0.000000
# 4 0.000000 0.000000 0.000000 -0.113951 0.000000 -0.049456
# 5 0.032301 0.021104 0.041596 0.000000 0.086491 0.000000
# 6 0.000000 0.000000 0.000000 -0.049456 0.000000 0.008230
#
#
# Mechanical properties :
#
#
# Convention : Reuss Voigt Hill
#
# Bulk Modulus (GPa) = 6.09992 16.91483 11.50737
# Shear Modulus (GPa) = 85.96486 25.21464 55.58975
#
# Velocity S-wave (km/s) = 5.95394 3.22456 4.78786
# Velocity P-wave (km/s) = 7.05558 4.56496 5.94223
#
# Compressibility (1/GPa) = 0.16393667
#
# Stress axis : x y z
#
# Youngs Moduli (GPa) = 30.00356 40.81638 28.15880
#
# Poissons Ratio (x) = -0.26881 -0.41172
# Poissons Ratio (y) = -0.19760 -0.39676
# Poissons Ratio (z) = -0.43870 -0.57510
#
# Static dielectric constant tensor:
#      x y z
#    x 4.645670 0.000000 -0.065820 
#    y 0.000000 4.322320 0.000000 
#    z -0.065820 0.000000 5.056040 
# 
# 
# High freq. dielectric constant tensor:
#      x y z
#    x 1.969250 0.000000 -0.023210 
#    y 0.000000 1.950390 0.000000 
#    z -0.023210 0.000000 1.967470 
# 
# From -- ./inp_files/202648.got.cif
#   From: 2010.06.25/outbox.cif.g09.slc.cpg/sg15_102_cif.got.tgz:202648.got - 2010.06.28 07:06:18.
