data_PCOD8134523
_publ_section_title
;
Structure prediction by ZEFSAII (Michael W. Deem and Ramdas Pophale) SiO2 
 PCOD8134523
Probable space group: C 2/C
;
_chemical_formula_sum "Si O2"
_cell_formula_units_Z 48
_cell_length_a 14.584595
_cell_length_b 10.091586
_cell_length_c 27.720867
_cell_angle_alpha 90.000000
_cell_angle_beta 141.097445
_cell_angle_gamma 90.000000
_cell_volume 2562.233494
_symmetry_space_group_name_H-M "C 2/C"
_symmetry_group_IT_number 15
_symmetry_cell_setting 'monoclinic'
loop_
_space_group_symop_operation_xyz
x,y,z
-x,y,1/2-z
-x,-y,-z
x,-y,1/2+z
1/2+x,1/2+y,z
1/2-x,1/2+y,1/2-z
1/2-x,1/2-y,-z
1/2+x,1/2-y,1/2+z
loop_
_atom_site_type_symbol
_atom_site_label
_atom_site_fract_x
_atom_site_fract_y
_atom_site_fract_z
Si Si1 0.528555 0.049686 0.398196
Si Si2 0.312431 0.834010 0.341931
Si Si3 0.715471 0.155772 0.557669
Si Si4 0.587777 0.451764 0.608150
Si Si5 0.044750 0.833764 0.167927
Si Si6 0.295479 0.459819 0.945783
O O1 0.615879 0.060705 0.484388
O O2 0.454120 0.187929 0.354096
O O3 0.637738 0.997287 0.401024
O O4 0.401443 0.943432 0.349358
O O5 0.321569 0.868083 0.401988
O O6 0.383239 0.692457 0.357975
O O7 0.144667 0.834930 0.256443
O O8 0.680303 0.306990 0.528170
O O9 0.883577 0.119990 0.616773
O O10 0.614608 0.564429 0.658461
O O11 0.701525 0.476067 0.610753
O O12 0.422031 0.451774 0.520928
#
# Coordination Sequence:
#
# PCOD8134523 Si02
#       6
#     8   8   8   8   8   8
#     4  11  20  38  59  84 108 146 191 227 272 326
#     4  11  24  33  54  87 119 139 177 237 289 318
#     4  10  19  38  59  81 105 153 193 220 261 340
#     4  10  19  36  57  82 109 142 186 226 277 320
#     4  11  20  39  58  78 111 151 187 225 272 331
#     4   9  18  35  61  81 102 145 192 227 257 332
#
# _framework density 18.733656
#
# number of rings (size 3 to 8) (size 9 to 14) (size 15 to 20)
#    0.000    1.667    3.333    3.000    0.000    0.667 
#    0.000    2.500    0.000    0.000    0.000    0.000 
#    0.000    0.000    0.000    0.000    0.000    0.000 
#
# Total GULP energy -297694.440544 kJ/mol
# GULP energy per Si atom -12403.935023 kJ/mol
# Density = 1.869102 g / cm^3
# Si number density = 18.733656 Si / 1000 Ang^3
#
#
#
# Elastic Constant Matrix: (Units=GPa)
#
#
# Indices 1 2 3 4 5 6 
#
# 1 102.7596 44.8295 23.0195 0.0000 3.3033 0.0000
# 2 44.8295 72.8785 30.1564 0.0000 5.1972 0.0000
# 3 23.0195 30.1564 84.0268 0.0000 13.3886 0.0000
# 4 0.0000 0.0000 0.0000 17.6066 0.0000 1.0567
# 5 3.3033 5.1972 13.3886 0.0000 19.9121 0.0000
# 6 0.0000 0.0000 0.0000 1.0567 0.0000 28.8352
#
#
#
# Elastic Compliance Matrix: (Units=1/GPa)
#
#
# Indices 1 2 3 4 5 6 
#
# 1 0.013354 -0.007872 -0.000904 0.000000 0.000447 0.000000
# 2 -0.007872 0.020757 -0.005194 0.000000 -0.000619 0.000000
# 3 -0.000904 -0.005194 0.015426 0.000000 -0.008866 0.000000
# 4 0.000000 0.000000 0.000000 0.056922 0.000000 -0.002086
# 5 0.000447 -0.000619 -0.008866 0.000000 0.056270 0.000000
# 6 0.000000 0.000000 0.000000 -0.002086 0.000000 0.034756
#
#
# Mechanical properties :
#
#
# Convention : Reuss Voigt Hill
#
# Bulk Modulus (GPa) = 46.30657 50.63064 48.46861
# Shear Modulus (GPa) = 21.49384 24.04808 22.77096
#
# Velocity S-wave (km/s) = 3.39091 3.58674 3.49020
# Velocity P-wave (km/s) = 6.33270 6.65118 6.49389
#
# Compressibility (1/GPa) = 0.02159521
#
# Stress axis : x y z
#
# Youngs Moduli (GPa) = 74.88456 48.17592 64.82702
#
# Poissons Ratio (x) = 0.37924 0.05863
# Poissons Ratio (y) = 0.58949 0.33673
# Poissons Ratio (z) = 0.06773 0.25024
#
# Static dielectric constant tensor:
#      x y z
#    x 3.526460 0.000000 -0.062230 
#    y 0.000000 3.265030 0.000000 
#    z -0.062230 0.000000 3.357970 
# 
# 
# High freq. dielectric constant tensor:
#      x y z
#    x 1.732190 0.000000 -0.004390 
#    y 0.000000 1.709920 0.000000 
#    z -0.004390 0.000000 1.728580 
# 
# From -- ./inp_files/152178.got.cif
#   From: 2010.06.25/outbox.cif.g09.slc.cpg/sg15_77_cif.got.tgz:152178.got - 2010.06.28 07:06:18.
