data_PCOD8134940
_publ_section_title
;
Structure prediction by ZEFSAII (Michael W. Deem and Ramdas Pophale) SiO2 
 PCOD8134940
Probable space group: C 2/C
;
_chemical_formula_sum "Si O2"
_cell_formula_units_Z 64
_cell_length_a 11.679390
_cell_length_b 23.790298
_cell_length_c 11.763419
_cell_angle_alpha 90.000000
_cell_angle_beta 88.119167
_cell_angle_gamma 90.000000
_cell_volume 3266.777612
_symmetry_space_group_name_H-M "C 2/C"
_symmetry_group_IT_number 15
_symmetry_cell_setting 'monoclinic'
loop_
_space_group_symop_operation_xyz
x,y,z
-x,y,1/2-z
-x,-y,-z
x,-y,1/2+z
1/2+x,1/2+y,z
1/2-x,1/2+y,1/2-z
1/2-x,1/2-y,-z
1/2+x,1/2-y,1/2+z
loop_
_atom_site_type_symbol
_atom_site_label
_atom_site_fract_x
_atom_site_fract_y
_atom_site_fract_z
Si Si1 0.874702 0.446560 0.198866
Si Si2 0.410352 0.161963 0.060261
Si Si3 0.370144 0.738648 0.273619
Si Si4 0.225100 0.649793 0.657189
Si Si5 0.328213 0.699481 0.035676
Si Si6 0.089257 0.211317 0.975521
Si Si7 0.866539 0.430036 0.736294
Si Si8 0.652010 0.112178 0.028943
O O1 0.783331 0.406861 0.268210
O O2 0.822382 0.509413 0.194271
O O3 0.000000 0.442769 0.250000
O O4 0.887874 0.429414 0.067710
O O5 0.383088 0.227996 0.083728
O O6 0.342190 0.121795 0.150942
O O7 0.547266 0.153878 0.064484
O O8 0.372490 0.145753 0.935290
O O9 0.500000 0.757377 0.250000
O O10 0.299246 0.796273 0.263054
O O11 0.332098 0.696860 0.173811
O O12 0.357429 0.710246 0.398518
O O13 0.349950 0.660783 0.595960
O O14 0.265830 0.644929 0.987728
O O15 0.250000 0.750000 0.000000
O O16 0.454060 0.701385 0.978077
O O17 0.808758 0.421038 0.860037
O O18 0.000000 0.436030 0.750000
#
# Coordination Sequence:
#
# PCOD8134940 Si02
#       8
#     8   8   8   8   8   8   8   8
#     4  11  22  39  60  84 118 157 197 239 293 357
#     4  10  19  37  57  88 120 151 187 240 294 347
#     4   9  19  34  55  81 117 158 193 225 282 353
#     4  11  21  33  61  85 117 155 193 233 285 346
#     4  11  21  37  56  83 124 160 187 236 293 352
#     4  10  22  37  56  87 122 156 195 235 285 357
#     4   9  23  36  58  87 118 151 191 251 300 340
#     4  11  22  37  58  89 118 152 196 235 301 348
#
# _framework density 19.591170999999999
#
# number of rings (size 3 to 8) (size 9 to 14) (size 15 to 20)
#    0.000    1.750    2.500    2.625    7.000    1.500 
#    0.000    2.500    0.000    0.750    3.250    0.000 
#    0.000    0.000    0.000    0.000    0.000    0.000 
#
# Total GULP energy -396665.094281 kJ/mol
# GULP energy per Si atom -12395.784196 kJ/mol
# Density = 1.954658 g / cm^3
# Si number density = 19.591171 Si / 1000 Ang^3
#
#
#
# Elastic Constant Matrix: (Units=GPa)
#
#
# Indices 1 2 3 4 5 6 
#
# 1 80.0676 32.0205 20.9680 0.0000 -7.9653 0.0000
# 2 32.0205 94.1846 43.2560 0.0000 -10.2668 0.0000
# 3 20.9680 43.2560 86.9780 0.0000 -9.0514 0.0000
# 4 0.0000 0.0000 0.0000 28.9394 0.0000 -1.9881
# 5 -7.9653 -10.2668 -9.0514 0.0000 25.6056 0.0000
# 6 0.0000 0.0000 0.0000 -1.9881 0.0000 15.4288
#
#
#
# Elastic Compliance Matrix: (Units=1/GPa)
#
#
# Indices 1 2 3 4 5 6 
#
# 1 0.014725 -0.004179 -0.001214 0.000000 0.002476 0.000000
# 2 -0.004179 0.015206 -0.006287 0.000000 0.002575 0.000000
# 3 -0.001214 -0.006287 0.015173 0.000000 0.002465 0.000000
# 4 0.000000 0.000000 0.000000 0.034864 0.000000 0.004492
# 5 0.002476 0.002575 0.002465 0.000000 0.041728 0.000000
# 6 0.000000 0.000000 0.000000 0.004492 0.000000 0.065393
#
#
# Mechanical properties :
#
#
# Convention : Reuss Voigt Hill
#
# Bulk Modulus (GPa) = 45.98822 50.41323 48.20073
# Shear Modulus (GPa) = 22.96782 24.99379 23.98081
#
# Velocity S-wave (km/s) = 3.42768 3.57566 3.50246
# Velocity P-wave (km/s) = 6.26021 6.54490 6.40414
#
# Compressibility (1/GPa) = 0.02174470
#
# Stress axis : x y z
#
# Youngs Moduli (GPa) = 67.91266 65.76264 65.90642
#
# Poissons Ratio (x) = 0.27480 0.08001
# Poissons Ratio (y) = 0.28378 0.41436
# Poissons Ratio (z) = 0.08244 0.41345
#
# Static dielectric constant tensor:
#      x y z
#    x 3.700160 0.000000 -0.282840 
#    y 0.000000 3.752110 0.000000 
#    z -0.282840 0.000000 4.097910 
# 
# 
# High freq. dielectric constant tensor:
#      x y z
#    x 1.738470 0.000000 -0.004050 
#    y 0.000000 1.741390 0.000000 
#    z -0.004050 0.000000 1.773340 
# 
# From -- ./inp_files/90829.got.cif
#   From: 2010.06.25/outbox.cif.g09.slc.cpg/sg15_46_cif.got.tgz:90829.got - 2010.06.28 07:06:18.
