data_PCOD8134624
_publ_section_title
;
Structure prediction by ZEFSAII (Michael W. Deem and Ramdas Pophale) SiO2 
 PCOD8134624
Probable space group: C 2/C
;
_chemical_formula_sum "Si O2"
_cell_formula_units_Z 60
_cell_length_a 8.733056
_cell_length_b 10.981374
_cell_length_c 28.460271
_cell_angle_alpha 90.000000
_cell_angle_beta 85.792132
_cell_angle_gamma 90.000000
_cell_volume 2722.009890
_symmetry_space_group_name_H-M "C 2/C"
_symmetry_group_IT_number 15
_symmetry_cell_setting 'monoclinic'
loop_
_space_group_symop_operation_xyz
x,y,z
-x,y,1/2-z
-x,-y,-z
x,-y,1/2+z
1/2+x,1/2+y,z
1/2-x,1/2+y,1/2-z
1/2-x,1/2-y,-z
1/2+x,1/2-y,1/2+z
loop_
_atom_site_type_symbol
_atom_site_label
_atom_site_fract_x
_atom_site_fract_y
_atom_site_fract_z
Si Si1 0.941077 0.029647 0.394031
Si Si2 0.729002 0.304757 0.779344
Si Si3 0.296835 0.461858 0.172987
Si Si4 0.892585 0.218868 0.318302
Si Si5 0.363863 0.636378 0.496293
Si Si6 0.353912 0.070325 0.484335
Si Si7 0.854219 0.193218 0.944550
Si Si8 0.000000 0.867081 0.250000
O O1 0.858121 0.116034 0.357861
O O2 0.918069 0.101670 0.442953
O O3 0.865288 0.892504 0.398002
O O4 0.119413 0.005097 0.376781
O O5 0.798244 0.424496 0.803586
O O6 0.683406 0.334046 0.726859
O O7 0.575305 0.255877 0.809321
O O8 0.865092 0.208713 0.777757
O O9 0.188642 0.346606 0.165974
O O10 0.431376 0.445246 0.208968
O O11 0.250000 0.750000 0.500000
O O12 0.278065 0.524926 0.523487
O O13 0.510861 0.653328 0.524042
O O14 0.309443 0.163512 0.527590
O O15 0.375297 0.159295 0.437703
O O16 0.500000 0.000000 0.500000
#
# Coordination Sequence:
#
# PCOD8134624 Si02
#       8
#     8   8   8   8   8   8   8   4
#     4  10  21  36  59  86 119 154 205 245 306 354
#     4   9  19  37  59  89 115 151 195 226 291 362
#     4  10  20  37  60  82 118 153 188 246 292 348
#     4   9  19  36  59  86 118 154 192 241 294 353
#     4  11  22  39  62  82 116 163 206 253 309 367
#     4  10  19  36  59  83 105 143 200 244 299 351
#     4  10  22  38  58  82 114 153 197 254 295 358
#     4  10  20  36  64  86 114 154 188 232 292 358
#
# _framework density 22.042535000000001
#
# number of rings (size 3 to 8) (size 9 to 14) (size 15 to 20)
#    0.000    2.133    1.333    3.200    1.867    2.133 
#    0.000   10.667    0.000    0.000    0.000    0.000 
#    0.000    0.000    0.000    0.000    0.000    0.000 
#
# Total GULP energy -371645.165848 kJ/mol
# GULP energy per Si atom -12388.172195 kJ/mol
# Density = 2.199237 g / cm^3
# Si number density = 22.042535 Si / 1000 Ang^3
#
#
#
# Elastic Constant Matrix: (Units=GPa)
#
#
# Indices 1 2 3 4 5 6 
#
# 1 81.0136 32.1262 26.3234 0.0000 -11.1225 0.0000
# 2 32.1262 128.4752 43.4407 0.0000 -18.1613 0.0000
# 3 26.3234 43.4407 81.9138 0.0000 -17.7553 0.0000
# 4 0.0000 0.0000 0.0000 43.4014 0.0000 -1.8769
# 5 -11.1225 -18.1613 -17.7553 0.0000 21.2959 0.0000
# 6 0.0000 0.0000 0.0000 -1.8769 0.0000 44.1042
#
#
#
# Elastic Compliance Matrix: (Units=1/GPa)
#
#
# Indices 1 2 3 4 5 6 
#
# 1 0.014596 -0.002232 -0.002767 0.000000 0.003413 0.000000
# 2 -0.002232 0.010237 -0.003750 0.000000 0.004438 0.000000
# 3 -0.002767 -0.003750 0.017185 0.000000 0.009685 0.000000
# 4 0.000000 0.000000 0.000000 0.023083 0.000000 0.000982
# 5 0.003413 0.004438 0.009685 0.000000 0.060599 0.000000
# 6 0.000000 0.000000 0.000000 0.000982 0.000000 0.022715
#
#
# Mechanical properties :
#
#
# Convention : Reuss Voigt Hill
#
# Bulk Modulus (GPa) = 40.78163 55.02035 47.90099
# Shear Modulus (GPa) = 28.72121 34.39446 31.55784
#
# Velocity S-wave (km/s) = 3.61361 3.95443 3.78786
# Velocity P-wave (km/s) = 5.99603 6.77239 6.39600
#
# Compressibility (1/GPa) = 0.02452084
#
# Stress axis : x y z
#
# Youngs Moduli (GPa) = 68.51029 97.68551 58.19035
#
# Poissons Ratio (x) = 0.21801 0.16103
# Poissons Ratio (y) = 0.15290 0.21819
# Poissons Ratio (z) = 0.18959 0.36629
#
# Static dielectric constant tensor:
#      x y z
#    x 41.737830 0.000000 -46.069090 
#    y 0.000000 15.576830 0.000000 
#    z -46.069090 0.000000 59.529750 
# 
# 
# High freq. dielectric constant tensor:
#      x y z
#    x 1.856710 0.000000 -0.015220 
#    y 0.000000 1.889860 0.000000 
#    z -0.015220 0.000000 1.847110 
# 
# From -- ./inp_files/307124.got.cif
#   From: 2010.06.25/outbox.cif.g09.slc.cpg/sg15_154_cif.got.tgz:307124.got - 2010.06.28 07:06:18.
