data_PCOD8134019
_publ_section_title
;
Structure prediction by ZEFSAII (Michael W. Deem and Ramdas Pophale) SiO2 
 PCOD8134019
Probable space group: C 2/C
;
_chemical_formula_sum "Si O2"
_cell_formula_units_Z 64
_cell_length_a 29.020356
_cell_length_b 14.575235
_cell_length_c 8.899569
_cell_angle_alpha 90.000000
_cell_angle_beta 117.225850
_cell_angle_gamma 90.000000
_cell_volume 3347.276905
_symmetry_space_group_name_H-M "C 2/C"
_symmetry_group_IT_number 15
_symmetry_cell_setting 'monoclinic'
loop_
_space_group_symop_operation_xyz
x,y,z
-x,y,1/2-z
-x,-y,-z
x,-y,1/2+z
1/2+x,1/2+y,z
1/2-x,1/2+y,1/2-z
1/2-x,1/2-y,-z
1/2+x,1/2-y,1/2+z
loop_
_atom_site_type_symbol
_atom_site_label
_atom_site_fract_x
_atom_site_fract_y
_atom_site_fract_z
Si Si1 0.444325 0.908365 0.737567
Si Si2 0.260260 0.107174 0.915582
Si Si3 0.359255 0.214952 0.964278
Si Si4 0.686371 0.401154 0.059349
Si Si5 0.234903 0.402895 0.560371
Si Si6 0.810311 0.105746 0.427101
Si Si7 0.055233 0.599158 0.902369
Si Si8 0.860782 0.278741 0.113737
O O1 0.500000 0.884570 0.750000
O O2 0.404138 0.830822 0.628508
O O3 0.423959 0.005240 0.642030
O O4 0.448226 0.912816 0.923410
O O5 0.302775 0.177566 0.922637
O O6 0.202546 0.117222 0.755358
O O7 0.284891 0.005382 0.931183
O O8 0.243236 0.124661 0.061396
O O9 0.356965 0.321358 0.012120
O O10 0.370810 0.203270 0.804627
O O11 0.744925 0.394174 0.079344
O O12 0.644704 0.329050 0.933412
O O13 0.665207 0.505000 0.004101
O O14 0.288669 0.382036 0.726592
O O15 0.190402 0.329478 0.522751
O O16 0.091983 0.683003 0.913249
O O17 0.000000 0.623260 0.750000
#
# Coordination Sequence:
#
# PCOD8134019 Si02
#       8
#     8   8   8   8   8   8   8   8
#     4  11  24  43  65  88 118 145 182 232 288 340
#     4  10  21  32  53  79 121 150 197 238 283 335
#     4  12  22  36  56  87 114 153 194 240 284 339
#     4  10  20  37  52  79 115 164 193 235 278 336
#     4  10  19  35  52  80 116 158 191 234 285 335
#     4  10  22  34  53  80 120 156 197 239 283 330
#     4  11  24  43  65  89 115 148 182 231 287 342
#     4  12  22  35  60  82 115 153 199 233 285 343
#
# _framework density 19.120018999999999
#
# number of rings (size 3 to 8) (size 9 to 14) (size 15 to 20)
#    0.000    1.250    2.500    5.250    3.500    0.000 
#    0.000    0.000    0.000    0.750    0.000    3.500 
#    0.000    0.000    0.000    0.000    0.000    0.000 
#
# Total GULP energy -396683.922475 kJ/mol
# GULP energy per Si atom -12396.372577 kJ/mol
# Density = 1.907650 g / cm^3
# Si number density = 19.120019 Si / 1000 Ang^3
#
#
#
# Elastic Constant Matrix: (Units=GPa)
#
#
# Indices 1 2 3 4 5 6 
#
# 1 77.3831 57.0408 34.5542 0.0000 -5.3766 0.0000
# 2 57.0408 132.3147 51.0565 0.0000 6.4205 0.0000
# 3 34.5542 51.0565 99.8608 0.0000 -5.0637 0.0000
# 4 0.0000 0.0000 0.0000 29.0092 0.0000 1.3257
# 5 -5.3766 6.4205 -5.0637 0.0000 27.6421 0.0000
# 6 0.0000 0.0000 0.0000 1.3257 0.0000 29.1013
#
#
#
# Elastic Compliance Matrix: (Units=1/GPa)
#
#
# Indices 1 2 3 4 5 6 
#
# 1 0.020405 -0.008017 -0.002691 0.000000 0.005338 0.000000
# 2 -0.008017 0.012836 -0.004056 0.000000 -0.005284 0.000000
# 3 -0.002691 -0.004056 0.013162 0.000000 0.002830 0.000000
# 4 0.000000 0.000000 0.000000 0.034544 0.000000 -0.001574
# 5 0.005338 -0.005284 0.002830 0.000000 0.038961 0.000000
# 6 0.000000 0.000000 0.000000 -0.001574 0.000000 0.034434
#
#
# Mechanical properties :
#
#
# Convention : Reuss Voigt Hill
#
# Bulk Modulus (GPa) = 59.26248 66.09573 62.67910
# Shear Modulus (GPa) = 26.38588 28.27766 27.33177
#
# Velocity S-wave (km/s) = 3.71888 3.84989 3.78495
# Velocity P-wave (km/s) = 7.03579 7.37605 7.20793
#
# Compressibility (1/GPa) = 0.01687408
#
# Stress axis : x y z
#
# Youngs Moduli (GPa) = 49.00788 77.90841 75.97385
#
# Poissons Ratio (x) = 0.62461 0.20443
# Poissons Ratio (y) = 0.39291 0.30817
# Poissons Ratio (z) = 0.13187 0.31602
#
# Static dielectric constant tensor:
#      x y z
#    x 3.238500 0.000000 -0.268290 
#    y 0.000000 3.615300 0.000000 
#    z -0.268290 0.000000 3.522630 
# 
# 
# High freq. dielectric constant tensor:
#      x y z
#    x 1.713780 0.000000 -0.031540 
#    y 0.000000 1.748340 0.000000 
#    z -0.031540 0.000000 1.751280 
# 
# From -- ./inp_files/66219.got.cif
#   From: 2010.06.25/outbox.cif.g09.slc.cpg/sg15_34_cif.got.tgz:66219.got - 2010.06.28 07:06:18.
