data_PCOD8134496
_publ_section_title
;
Structure prediction by ZEFSAII (Michael W. Deem and Ramdas Pophale) SiO2 
 PCOD8134496
Probable space group: C 2/C
;
_chemical_formula_sum "Si O2"
_cell_formula_units_Z 56
_cell_length_a 17.268789
_cell_length_b 17.158017
_cell_length_c 17.252897
_cell_angle_alpha 90.000000
_cell_angle_beta 142.304509
_cell_angle_gamma 90.000000
_cell_volume 3125.809073
_symmetry_space_group_name_H-M "C 2/C"
_symmetry_group_IT_number 15
_symmetry_cell_setting 'monoclinic'
loop_
_space_group_symop_operation_xyz
x,y,z
-x,y,1/2-z
-x,-y,-z
x,-y,1/2+z
1/2+x,1/2+y,z
1/2-x,1/2+y,1/2-z
1/2-x,1/2-y,-z
1/2+x,1/2-y,1/2+z
loop_
_atom_site_type_symbol
_atom_site_label
_atom_site_fract_x
_atom_site_fract_y
_atom_site_fract_z
Si Si1 0.465430 0.703236 0.310257
Si Si2 0.245542 0.939831 0.265945
Si Si3 0.460180 0.183674 0.936037
Si Si4 0.728823 0.119260 0.189466
Si Si5 0.417388 0.417694 0.503904
Si Si6 0.884980 0.159085 0.445194
Si Si7 0.507005 0.431715 0.347047
O O1 0.500000 0.720556 0.250000
O O2 0.437509 0.785104 0.330639
O O3 0.344264 0.646023 0.224648
O O4 0.586414 0.662534 0.449058
O O5 0.364213 0.885410 0.378680
O O6 0.130716 0.910470 0.228498
O O7 0.283650 0.026595 0.319597
O O8 0.210219 0.932816 0.146279
O O9 0.440804 0.254420 0.981336
O O10 0.601703 0.153708 0.054795
O O11 0.749609 0.152838 0.294083
O O12 0.533271 0.409152 0.534491
O O13 0.444542 0.484347 0.587847
O O14 0.891334 0.133056 0.540124
O O15 0.500000 0.427031 0.250000
#
# Coordination Sequence:
#
# PCOD8134496 Si02
#       7
#     8   8   8   8   8   8   8
#     4  10  22  36  55  89 115 138 183 236 282 324
#     4  11  19  36  56  82 109 146 193 219 265 339
#     4  10  23  34  57  78 113 158 177 217 277 344
#     4  10  19  36  56  80 109 146 187 219 268 332
#     4   9  17  33  56  81 106 140 183 230 269 319
#     4   9  19  34  55  80 103 139 187 231 266 319
#     4  11  19  33  57  85 104 135 188 244 280 298
#
# _framework density 17.915361000000001
#
# number of rings (size 3 to 8) (size 9 to 14) (size 15 to 20)
#    0.000    2.286    4.286    1.714   12.000    0.571 
#    0.000    0.714    0.000    0.000    0.000    0.000 
#    0.000    0.000    0.000    0.000    0.000    0.000 
#
# Total GULP energy -346988.542860 kJ/mol
# GULP energy per Si atom -12392.447959 kJ/mol
# Density = 1.787458 g / cm^3
# Si number density = 17.915361 Si / 1000 Ang^3
#
#
#
# Elastic Constant Matrix: (Units=GPa)
#
#
# Indices 1 2 3 4 5 6 
#
# 1 61.5218 38.5650 45.1062 0.0000 -16.2696 0.0000
# 2 38.5650 101.6974 40.1925 0.0000 1.6554 0.0000
# 3 45.1062 40.1925 82.7237 -0.0001 -8.0240 0.0000
# 4 0.0000 0.0000 -0.0001 27.8320 0.0000 4.0913
# 5 -16.2696 1.6554 -8.0240 0.0000 31.1034 0.0000
# 6 0.0000 0.0000 0.0000 4.0913 0.0000 17.7337
#
#
#
# Elastic Compliance Matrix: (Units=1/GPa)
#
#
# Indices 1 2 3 4 5 6 
#
# 1 0.035851 -0.008318 -0.013995 0.000000 0.015585 0.000000
# 2 -0.008318 0.014252 -0.002959 0.000000 -0.005873 0.000000
# 3 -0.013995 -0.002959 0.020988 0.000000 -0.001749 0.000000
# 4 0.000000 0.000000 0.000000 0.037191 0.000000 -0.008580
# 5 0.015585 -0.005873 -0.001749 0.000000 0.040164 0.000000
# 6 0.000000 0.000000 0.000000 -0.008580 0.000000 0.058369
#
#
# Mechanical properties :
#
#
# Convention : Reuss Voigt Hill
#
# Bulk Modulus (GPa) = 48.66901 54.85227 51.76064
# Shear Modulus (GPa) = 18.92447 23.47243 21.19845
#
# Velocity S-wave (km/s) = 3.25364 3.62357 3.44358
# Velocity P-wave (km/s) = 6.42962 6.94197 6.69070
#
# Compressibility (1/GPa) = 0.02054696
#
# Stress axis : x y z
#
# Youngs Moduli (GPa) = 27.89347 70.16416 47.64732
#
# Poissons Ratio (x) = 0.58360 0.66683
# Poissons Ratio (y) = 0.23201 0.14099
# Poissons Ratio (z) = 0.39037 0.20762
#
# Static dielectric constant tensor:
#      x y z
#    x 2.920640 0.000000 -0.152980 
#    y 0.000000 3.348720 0.000000 
#    z -0.152980 0.000000 3.520770 
# 
# 
# High freq. dielectric constant tensor:
#      x y z
#    x 1.639320 0.000000 -0.010720 
#    y 0.000000 1.702540 0.000000 
#    z -0.010720 0.000000 1.698870 
# 
# From -- ./inp_files/211244.got.cif
#   From: 2010.06.25/outbox.cif.g09.slc.cpg/sg15_106_cif.got.tgz:211244.got - 2010.06.28 07:06:18.
