data_PCOD8134301
_publ_section_title
;
Structure prediction by ZEFSAII (Michael W. Deem and Ramdas Pophale) SiO2 
 PCOD8134301
Probable space group: C 2/C
;
_chemical_formula_sum "Si O2"
_cell_formula_units_Z 56
_cell_length_a 19.142122
_cell_length_b 12.248724
_cell_length_c 13.566604
_cell_angle_alpha 90.000000
_cell_angle_beta 120.776778
_cell_angle_gamma 90.000000
_cell_volume 2732.938417
_symmetry_space_group_name_H-M "C 2/C"
_symmetry_group_IT_number 15
_symmetry_cell_setting 'monoclinic'
loop_
_space_group_symop_operation_xyz
x,y,z
-x,y,1/2-z
-x,-y,-z
x,-y,1/2+z
1/2+x,1/2+y,z
1/2-x,1/2+y,1/2-z
1/2-x,1/2-y,-z
1/2+x,1/2-y,1/2+z
loop_
_atom_site_type_symbol
_atom_site_label
_atom_site_fract_x
_atom_site_fract_y
_atom_site_fract_z
Si Si1 0.032766 0.353186 0.383629
Si Si2 0.913722 0.131567 0.978024
Si Si3 0.690060 0.011798 0.039059
Si Si4 0.638252 0.124574 0.674975
Si Si5 0.968127 0.973459 0.332121
Si Si6 0.260627 0.506565 0.887693
Si Si7 0.819624 0.872784 0.757979
O O1 0.062880 0.242188 0.453440
O O2 0.105654 0.439159 0.438581
O O3 0.000000 0.331625 0.250000
O O4 0.958265 0.395944 0.396085
O O5 0.938210 0.128104 0.878994
O O6 0.817345 0.114240 0.921249
O O7 0.955646 0.029377 0.060938
O O8 0.739607 0.104442 0.134788
O O9 0.673919 0.904496 0.093290
O O10 0.744901 0.969761 0.988134
O O11 0.674600 0.039368 0.779012
O O12 0.659131 0.246173 0.724955
O O13 0.000000 0.928671 0.250000
O O14 0.895111 0.060627 0.266249
O O15 0.303343 0.408513 0.859003
#
# Coordination Sequence:
#
# PCOD8134301 Si02
#       7
#     8   8   8   8   8   8   8
#     4  12  23  39  65  89 116 162 205 247 297 357
#     4  10  21  34  60  93 123 152 203 248 298 356
#     4  11  24  40  63  87 123 159 197 253 296 356
#     4  11  23  41  61  88 121 157 205 245 295 362
#     4  10  19  35  59  91 127 159 194 249 304 357
#     4  10  22  39  60  93 119 156 199 248 303 351
#     4  10  22  39  62  91 122 154 203 249 297 361
#
# _framework density 20.490765
#
# number of rings (size 3 to 8) (size 9 to 14) (size 15 to 20)
#    0.000    1.429    2.857    2.571    2.000    1.714 
#    0.000    0.000    9.429    0.000    0.000    0.000 
#    0.000    0.000    0.000    0.000    0.000    0.000 
#
# Total GULP energy -347183.199208 kJ/mol
# GULP energy per Si atom -12399.399972 kJ/mol
# Density = 2.044413 g / cm^3
# Si number density = 20.490765 Si / 1000 Ang^3
#
#
#
# Elastic Constant Matrix: (Units=GPa)
#
#
# Indices 1 2 3 4 5 6 
#
# 1 120.1688 4.1794 42.7128 0.0000 -20.2872 0.0000
# 2 4.1794 33.3249 7.5626 0.0000 -5.9000 0.0000
# 3 42.7128 7.5626 82.4044 0.0000 -14.3122 0.0000
# 4 0.0000 0.0000 0.0000 24.0582 0.0000 1.3954
# 5 -20.2872 -5.9000 -14.3122 0.0000 48.0412 0.0000
# 6 0.0000 0.0000 0.0000 1.3954 0.0000 18.5575
#
#
#
# Elastic Compliance Matrix: (Units=1/GPa)
#
#
# Indices 1 2 3 4 5 6 
#
# 1 0.010598 0.000341 -0.004998 0.000000 0.003028 0.000000
# 2 0.000341 0.031097 -0.002470 0.000000 0.003227 0.000000
# 3 -0.004998 -0.002470 0.015327 0.000000 0.002152 0.000000
# 4 0.000000 0.000000 0.000000 0.041748 0.000000 -0.003139
# 5 0.003028 0.003227 0.002152 0.000000 0.023132 0.000000
# 6 0.000000 0.000000 0.000000 -0.003139 0.000000 0.054123
#
#
# Mechanical properties :
#
#
# Convention : Reuss Voigt Hill
#
# Bulk Modulus (GPa) = 23.38305 38.31198 30.84751
# Shear Modulus (GPa) = 24.44587 30.22758 27.33672
#
# Velocity S-wave (km/s) = 3.45776 3.84497 3.65650
# Velocity P-wave (km/s) = 5.23237 6.20077 5.73704
#
# Compressibility (1/GPa) = 0.04276603
#
# Stress axis : x y z
#
# Youngs Moduli (GPa) = 94.36084 32.15775 65.24608
#
# Poissons Ratio (x) = -0.01098 0.32613
# Poissons Ratio (y) = -0.03221 0.16118
# Poissons Ratio (z) = 0.47166 0.07944
#
# Static dielectric constant tensor:
#      x y z
#    x 4.085790 0.000000 0.075180 
#    y 0.000000 3.274770 0.000000 
#    z 0.075180 0.000000 3.960960 
# 
# 
# High freq. dielectric constant tensor:
#      x y z
#    x 1.822990 0.000000 0.006830 
#    y 0.000000 1.759370 0.000000 
#    z 0.006830 0.000000 1.812610 
# 
# From -- ./inp_files/161430.got.cif
#   From: 2010.06.25/outbox.cif.g09.slc.cpg/sg15_81_cif.got.tgz:161430.got - 2010.06.28 07:06:18.
