data_PCOD8134300
_publ_section_title
;
Structure prediction by ZEFSAII (Michael W. Deem and Ramdas Pophale) SiO2 
 PCOD8134300
Probable space group: C 2/C
;
_chemical_formula_sum "Si O2"
_cell_formula_units_Z 44
_cell_length_a 13.157468
_cell_length_b 19.806370
_cell_length_c 8.098162
_cell_angle_alpha 90.000000
_cell_angle_beta 115.601545
_cell_angle_gamma 90.000000
_cell_volume 1903.197920
_symmetry_space_group_name_H-M "C 2/C"
_symmetry_group_IT_number 15
_symmetry_cell_setting 'monoclinic'
loop_
_space_group_symop_operation_xyz
x,y,z
-x,y,1/2-z
-x,-y,-z
x,-y,1/2+z
1/2+x,1/2+y,z
1/2-x,1/2+y,1/2-z
1/2-x,1/2-y,-z
1/2+x,1/2-y,1/2+z
loop_
_atom_site_type_symbol
_atom_site_label
_atom_site_fract_x
_atom_site_fract_y
_atom_site_fract_z
Si Si1 0.381649 0.298021 0.201524
Si Si2 0.840507 0.396402 0.962797
Si Si3 0.770110 0.513466 0.132747
Si Si4 0.500000 0.200385 0.750000
Si Si5 0.886165 0.053928 0.744711
Si Si6 0.194897 0.212625 0.216539
O O1 0.500000 0.259073 0.250000
O O2 0.410370 0.368823 0.312140
O O3 0.305577 0.259528 0.280866
O O4 0.326301 0.311515 0.984592
O O5 0.829924 0.444301 0.115547
O O6 0.945719 0.346976 0.069556
O O7 0.855337 0.443515 0.809227
O O8 0.727254 0.351624 0.852876
O O9 0.650667 0.494004 0.132558
O O10 0.726828 0.557014 0.948746
O O11 0.407279 0.246983 0.772874
O O12 0.000000 0.021529 0.750000
#
# Coordination Sequence:
#
# PCOD8134300 Si02
#       6
#     8   8   8   4   8   8
#     4  10  21  39  66  95 130 172 221 281 342 391
#     4  11  24  45  66  97 132 177 227 279 335 399
#     4  10  22  40  63  91 134 175 221 282 326 401
#     4  12  26  42  70 100 136 182 226 276 346 394
#     4  10  19  35  59  91 125 168 223 273 340 394
#     4  11  23  42  66  99 135 173 224 282 334 404
#
# _framework density 23.118981999999999
#
# number of rings (size 3 to 8) (size 9 to 14) (size 15 to 20)
#    0.000    1.455    1.818    3.273    0.000    3.636 
#    6.545    0.000    2.000    0.000    0.000    0.000 
#    0.000    0.000    0.000    0.000    0.000    0.000 
#
# Total GULP energy -272638.644551 kJ/mol
# GULP energy per Si atom -12392.665661 kJ/mol
# Density = 2.306636 g / cm^3
# Si number density = 23.118982 Si / 1000 Ang^3
#
#
#
# Elastic Constant Matrix: (Units=GPa)
#
#
# Indices 1 2 3 4 5 6 
#
# 1 109.9767 45.6112 10.0243 0.0000 2.2088 0.0000
# 2 45.6112 117.8413 38.6316 0.0000 1.2046 0.0000
# 3 10.0243 38.6316 83.0839 0.0000 4.2023 0.0000
# 4 0.0000 0.0000 0.0000 26.3624 0.0000 -10.1980
# 5 2.2088 1.2046 4.2023 0.0000 26.6244 0.0000
# 6 0.0000 0.0000 0.0000 -10.1980 0.0000 19.9215
#
#
#
# Elastic Compliance Matrix: (Units=1/GPa)
#
#
# Indices 1 2 3 4 5 6 
#
# 1 0.010890 -0.004471 0.000807 0.000000 -0.000829 0.000000
# 2 -0.004471 0.011850 -0.005002 0.000000 0.000624 0.000000
# 3 0.000807 -0.005002 0.014371 0.000000 -0.002109 0.000000
# 4 0.000000 0.000000 0.000000 0.047299 0.000000 0.024213
# 5 -0.000829 0.000624 -0.002109 0.000000 0.037933 0.000000
# 6 0.000000 0.000000 0.000000 0.024213 0.000000 0.062592
#
#
# Mechanical properties :
#
#
# Convention : Reuss Voigt Hill
#
# Bulk Modulus (GPa) = 50.55906 55.49288 53.02597
# Shear Modulus (GPa) = 23.93935 29.02398 26.48166
#
# Velocity S-wave (km/s) = 3.22139 3.54703 3.38812
# Velocity P-wave (km/s) = 5.97938 6.38988 6.18803
#
# Compressibility (1/GPa) = 0.01977885
#
# Stress axis : x y z
#
# Youngs Moduli (GPa) = 91.82491 84.38801 69.58395
#
# Poissons Ratio (x) = 0.37732 -0.05615
# Poissons Ratio (y) = 0.41057 0.34806
# Poissons Ratio (z) = -0.07410 0.42211
#
# Static dielectric constant tensor:
#      x y z
#    x 3.928400 0.000000 0.020940 
#    y 0.000000 4.184220 0.000000 
#    z 0.020940 0.000000 4.190440 
# 
# 
# High freq. dielectric constant tensor:
#      x y z
#    x 1.891880 0.000000 0.002590 
#    y 0.000000 1.918130 0.000000 
#    z 0.002590 0.000000 1.916710 
# 
# From -- ./inp_files/39743.got.cif
#   From: 2010.06.25/outbox.cif.g09.slc.cpg/sg15_20_cif.got.tgz:39743.got - 2010.06.28 07:06:18.
