data_PCOD8134462
_publ_section_title
;
Structure prediction by ZEFSAII (Michael W. Deem and Ramdas Pophale) SiO2 
 PCOD8134462
Probable space group: C 2/C
;
_chemical_formula_sum "Si O2"
_cell_formula_units_Z 64
_cell_length_a 15.696543
_cell_length_b 17.426425
_cell_length_c 23.590121
_cell_angle_alpha 90.000000
_cell_angle_beta 148.374530
_cell_angle_gamma 90.000000
_cell_volume 3383.574528
_symmetry_space_group_name_H-M "C 2/C"
_symmetry_group_IT_number 15
_symmetry_cell_setting 'monoclinic'
loop_
_space_group_symop_operation_xyz
x,y,z
-x,y,1/2-z
-x,-y,-z
x,-y,1/2+z
1/2+x,1/2+y,z
1/2-x,1/2+y,1/2-z
1/2-x,1/2-y,-z
1/2+x,1/2-y,1/2+z
loop_
_atom_site_type_symbol
_atom_site_label
_atom_site_fract_x
_atom_site_fract_y
_atom_site_fract_z
Si Si1 0.602229 0.883458 0.723285
Si Si2 0.220641 0.243819 0.237191
Si Si3 0.229992 0.575190 0.417336
Si Si4 0.179190 0.035282 0.231220
Si Si5 0.645252 0.751777 0.497546
Si Si6 0.117827 0.082588 0.513940
Si Si7 0.168271 0.144556 0.316018
Si Si8 0.919150 0.889794 0.379003
O O1 0.662176 0.796768 0.742820
O O2 0.408595 0.892458 0.619647
O O3 0.688979 0.907821 0.829663
O O4 0.649122 0.940807 0.698934
O O5 0.176824 0.185883 0.261276
O O6 0.319590 0.312387 0.321476
O O7 0.046483 0.269262 0.114545
O O8 0.256627 0.482471 0.437738
O O9 0.390697 0.622033 0.526786
O O10 0.178577 0.056198 0.298793
O O11 0.156154 0.944438 0.212185
O O12 0.041663 0.079720 0.115829
O O13 0.750000 0.750000 0.500000
O O14 0.686434 0.669371 0.549039
O O15 0.695262 0.824802 0.564344
O O16 0.085625 0.067668 0.562477
O O17 0.000000 0.162112 0.250000
#
# Coordination Sequence:
#
# PCOD8134462 Si02
#       8
#     8   8   8   8   8   8   8   8
#     4  10  19  36  52  87 122 153 192 242 312 343
#     4  11  23  36  59  87 122 159 193 248 298 363
#     4  10  20  34  61  84 115 157 196 253 292 348
#     4  10  19  37  59  84 118 155 194 249 306 355
#     4  12  22  37  58  94 126 151 198 247 309 373
#     4  11  18  35  59  90 119 147 193 254 311 347
#     4  11  21  38  60  85 117 163 192 242 315 363
#     4  11  20  36  61  89 116 157 205 244 302 355
#
# _framework density 18.914906999999999
#
# number of rings (size 3 to 8) (size 9 to 14) (size 15 to 20)
#    0.000    1.250    7.500    0.750    0.000    1.500 
#    2.250    0.625    2.750    1.500    0.000    0.000 
#    0.000    0.000    0.000    0.000    0.000    0.000 
#
# Total GULP energy -396527.078502 kJ/mol
# GULP energy per Si atom -12391.471203 kJ/mol
# Density = 1.887186 g / cm^3
# Si number density = 18.914907 Si / 1000 Ang^3
#
#
#
# Elastic Constant Matrix: (Units=GPa)
#
#
# Indices 1 2 3 4 5 6 
#
# 1 96.8384 33.8361 53.4153 -0.0001 14.1728 0.0002
# 2 33.8361 55.6518 27.7723 -0.0013 8.2236 -0.0010
# 3 53.4153 27.7723 88.2130 -0.0038 19.2850 -0.0030
# 4 -0.0001 -0.0013 -0.0038 32.4408 -0.0005 -2.5844
# 5 14.1728 8.2236 19.2850 -0.0005 34.9387 0.0003
# 6 0.0002 -0.0010 -0.0030 -2.5844 0.0003 -8.8737
#
#
#
# Elastic Compliance Matrix: (Units=1/GPa)
#
#
# Indices 1 2 3 4 5 6 
#
# 1 0.017175 -0.006187 -0.008242 -0.000001 -0.000962 0.000004
# 2 -0.006187 0.023616 -0.003437 0.000000 -0.001152 -0.000002
# 3 -0.008242 -0.003437 0.018766 0.000001 -0.006206 -0.000007
# 4 -0.000001 0.000000 0.000001 0.030126 0.000000 -0.008774
# 5 -0.000962 -0.001152 -0.006206 0.000000 0.032708 0.000003
# 6 0.000004 -0.000002 -0.000007 -0.008774 0.000003 -0.110137
#
#
# Mechanical properties :
#
#
# Convention : Reuss Voigt Hill
#
# Bulk Modulus (GPa) = 41.97284 52.30562 47.13923
# Shear Modulus (GPa) = 89.40016 20.07977 54.73997
#
# Velocity S-wave (km/s) = 6.88237 3.26173 5.38544
# Velocity P-wave (km/s) = 9.24092 6.47289 7.97787
#
# Compressibility (1/GPa) = 0.02382493
#
# Stress axis : x y z
#
# Youngs Moduli (GPa) = 58.22311 42.34417 53.28917
#
# Poissons Ratio (x) = 0.26200 0.43920
# Poissons Ratio (y) = 0.36025 0.18314
# Poissons Ratio (z) = 0.47987 0.14552
#
# Static dielectric constant tensor:
#      x y z
#    x 3.786870 0.000000 0.025330 
#    y 0.000000 3.564420 0.000000 
#    z 0.025330 0.000000 3.453140 
# 
# 
# High freq. dielectric constant tensor:
#      x y z
#    x 1.730610 0.000000 0.008140 
#    y 0.000000 1.726290 0.000000 
#    z 0.008140 0.000000 1.725960 
# 
# From -- ./inp_files/274838.got.cif
#   From: 2010.06.25/outbox.cif.g09.slc.cpg/sg15_138_cif.got.tgz:274838.got - 2010.06.28 07:06:18.
