data_PCOD8134908
_publ_section_title
;
Structure prediction by ZEFSAII (Michael W. Deem and Ramdas Pophale) SiO2 
 PCOD8134908
Probable space group: C 2/C
;
_chemical_formula_sum "Si O2"
_cell_formula_units_Z 56
_cell_length_a 22.752714
_cell_length_b 19.270766
_cell_length_c 8.854466
_cell_angle_alpha 90.000000
_cell_angle_beta 49.186738
_cell_angle_gamma 90.000000
_cell_volume 2938.331648
_symmetry_space_group_name_H-M "C 2/C"
_symmetry_group_IT_number 15
_symmetry_cell_setting 'monoclinic'
loop_
_space_group_symop_operation_xyz
x,y,z
-x,y,1/2-z
-x,-y,-z
x,-y,1/2+z
1/2+x,1/2+y,z
1/2-x,1/2+y,1/2-z
1/2-x,1/2-y,-z
1/2+x,1/2-y,1/2+z
loop_
_atom_site_type_symbol
_atom_site_label
_atom_site_fract_x
_atom_site_fract_y
_atom_site_fract_z
Si Si1 0.295039 0.576103 0.249915
Si Si2 0.123439 0.796637 0.024981
Si Si3 0.500000 0.600012 0.250000
Si Si4 0.750600 0.199883 0.703992
Si Si5 0.168636 0.936124 0.460389
Si Si6 0.500000 0.187926 0.750000
Si Si7 0.990318 0.791710 0.020065
Si Si8 0.834676 0.331227 0.448153
O O1 0.318219 0.568287 0.384161
O O2 0.211001 0.611852 0.377870
O O3 0.354292 0.626157 0.063630
O O4 0.288682 0.502272 0.180260
O O5 0.086212 0.805542 0.252082
O O6 0.061885 0.768400 0.005439
O O7 0.195837 0.742227 0.913740
O O8 0.423694 0.554269 0.410996
O O9 0.516395 0.643529 0.374407
O O10 0.799060 0.132934 0.682303
O O11 0.815995 0.252054 0.530070
O O12 0.692328 0.166870 0.679151
O O13 0.532868 0.230863 0.554025
O O14 0.575190 0.146462 0.683731
#
# Coordination Sequence:
#
# PCOD8134908 Si02
#       8
#     8   8   4   8   8   4   8   8
#     4  10  23  40  56  80 111 157 182 227 272 339
#     4  10  19  37  55  84 112 149 182 231 273 329
#     4  11  22  36  54  86 110 155 180 226 266 341
#     4   9  17  36  58  80 108 153 183 227 275 335
#     4  11  23  39  58  79 117 150 189 221 278 332
#     4  11  18  34  56  92 106 141 182 246 278 333
#     4  10  20  31  57  86 118 137 184 230 279 322
#     4   9  18  34  61  81 109 141 191 227 283 324
#
# _framework density 19.058433999999998
#
# number of rings (size 3 to 8) (size 9 to 14) (size 15 to 20)
#    0.000    2.000    2.857    2.571    2.000    1.714 
#    2.571    2.143    0.000    5.143    0.000    0.000 
#    0.000    0.000    0.000    0.000    0.000    0.000 
#
# Total GULP energy -346984.984529 kJ/mol
# GULP energy per Si atom -12392.320876 kJ/mol
# Density = 1.901506 g / cm^3
# Si number density = 19.058434 Si / 1000 Ang^3
#
#
#
# Elastic Constant Matrix: (Units=GPa)
#
#
# Indices 1 2 3 4 5 6 
#
# 1 80.1592 17.8626 24.5140 0.0000 -20.5552 0.0000
# 2 17.8626 109.4174 36.2201 0.0000 -8.6870 0.0000
# 3 24.5140 36.2201 90.8893 0.0000 -2.4757 0.0000
# 4 0.0000 0.0000 0.0000 24.6890 0.0000 -4.6255
# 5 -20.5552 -8.6870 -2.4757 0.0000 32.5073 0.0000
# 6 0.0000 0.0000 0.0000 -4.6255 0.0000 13.1528
#
#
#
# Elastic Compliance Matrix: (Units=1/GPa)
#
#
# Indices 1 2 3 4 5 6 
#
# 1 0.016331 -0.000591 -0.003900 0.000000 0.009872 0.000000
# 2 -0.000591 0.010756 -0.004067 0.000000 0.002191 0.000000
# 3 -0.003900 -0.004067 0.013607 0.000000 -0.002517 0.000000
# 4 0.000000 0.000000 0.000000 0.043361 0.000000 0.015249
# 5 0.009872 0.002191 -0.002517 0.000000 0.037398 0.000000
# 6 0.000000 0.000000 0.000000 0.015249 0.000000 0.081392
#
#
# Mechanical properties :
#
#
# Convention : Reuss Voigt Hill
#
# Bulk Modulus (GPa) = 42.41537 48.62880 45.52208
# Shear Modulus (GPa) = 21.94704 27.52776 24.73740
#
# Velocity S-wave (km/s) = 3.39715 3.80463 3.60665
# Velocity P-wave (km/s) = 6.13932 6.69861 6.42505
#
# Compressibility (1/GPa) = 0.02357636
#
# Stress axis : x y z
#
# Youngs Moduli (GPa) = 61.23313 92.97008 73.49372
#
# Poissons Ratio (x) = 0.05497 0.28664
# Poissons Ratio (y) = 0.03621 0.29892
# Poissons Ratio (z) = 0.23882 0.37813
#
# Static dielectric constant tensor:
#      x y z
#    x 3.463370 0.000000 -0.132060 
#    y 0.000000 3.355510 0.000000 
#    z -0.132060 0.000000 3.538270 
# 
# 
# High freq. dielectric constant tensor:
#      x y z
#    x 1.740830 0.000000 -0.007540 
#    y 0.000000 1.706460 0.000000 
#    z -0.007540 0.000000 1.741040 
# 
# From -- ./inp_files/49762.got.cif
#   From: 2010.06.25/outbox.cif.g09.slc.cpg/sg15_25_cif.got.tgz:49762.got - 2010.06.28 07:06:18.
