data_PCOD8134209
_publ_section_title
;
Structure prediction by ZEFSAII (Michael W. Deem and Ramdas Pophale) SiO2 
 PCOD8134209
Probable space group: C 2/C
;
_chemical_formula_sum "Si O2"
_cell_formula_units_Z 64
_cell_length_a 17.243013
_cell_length_b 13.314167
_cell_length_c 21.703620
_cell_angle_alpha 90.000000
_cell_angle_beta 37.001791
_cell_angle_gamma 90.000000
_cell_volume 2998.750768
_symmetry_space_group_name_H-M "C 2/C"
_symmetry_group_IT_number 15
_symmetry_cell_setting 'monoclinic'
loop_
_space_group_symop_operation_xyz
x,y,z
-x,y,1/2-z
-x,-y,-z
x,-y,1/2+z
1/2+x,1/2+y,z
1/2-x,1/2+y,1/2-z
1/2-x,1/2-y,-z
1/2+x,1/2-y,1/2+z
loop_
_atom_site_type_symbol
_atom_site_label
_atom_site_fract_x
_atom_site_fract_y
_atom_site_fract_z
Si Si1 0.233008 0.886323 0.255625
Si Si2 0.733007 0.613674 0.255626
Si Si3 0.303473 0.744782 0.112567
Si Si4 0.965676 0.387851 0.433910
Si Si5 0.303471 0.744785 0.612568
Si Si6 0.034323 0.612150 0.066091
Si Si7 0.864581 0.385864 0.365712
Si Si8 0.135419 0.614134 0.134288
O O1 0.208265 0.824260 0.208204
O O2 0.384032 0.877356 0.178365
O O3 0.153895 0.837528 0.362881
O O4 0.186265 0.999999 0.275910
O O5 0.653894 0.662470 0.362882
O O6 0.708264 0.675738 0.208205
O O7 0.884031 0.622643 0.178366
O O8 0.238641 0.691611 0.095492
O O9 0.426075 0.807561 0.010786
O O10 0.926074 0.307563 0.510788
O O11 0.939827 0.500000 0.476573
O O12 0.876519 0.370403 0.431026
O O13 0.238640 0.691614 0.595492
O O14 0.123480 0.629597 0.068975
O O15 0.822487 0.499999 0.376328
O O16 0.000000 0.360505 0.250000
O O17 0.000000 0.639493 0.250000
#
# Coordination Sequence:
#
# PCOD8134209 Si02
#       8
#     8   8   8   8   8   8   8   8
#     4  10  21  37  57  83 113 144 183 228 270 322
#     4  10  21  37  57  83 113 144 183 228 270 322
#     4  11  20  32  58  88 108 142 185 227 274 321
#     4  10  20  36  59  85 110 141 185 230 270 321
#     4  11  20  32  58  88 108 142 185 227 274 321
#     4  10  20  36  59  85 110 141 185 230 270 321
#     4  10  19  35  58  83 110 141 183 232 271 319
#     4  10  19  35  58  83 110 141 183 232 271 319
#
# _framework density 21.342220999999999
#
# number of rings (size 3 to 8) (size 9 to 14) (size 15 to 20)
#    0.000    1.750    2.500    3.000    0.000    2.000 
#    0.000    0.000    0.000   34.500    0.000    0.000 
#    0.000    0.000    0.000    0.000    0.000    0.000 
#
# Total GULP energy -396661.804408 kJ/mol
# GULP energy per Si atom -12395.681388 kJ/mol
# Density = 2.129364 g / cm^3
# Si number density = 21.342221 Si / 1000 Ang^3
#
#
#
# Elastic Constant Matrix: (Units=GPa)
#
#
# Indices 1 2 3 4 5 6 
#
# 1 75.5310 29.8948 7.1528 0.0009 8.6035 -0.0002
# 2 29.8948 143.7828 34.4751 0.0011 3.2764 -0.0004
# 3 7.1528 34.4751 66.7891 0.0044 13.2433 -0.0019
# 4 0.0009 0.0011 0.0044 39.5026 -0.0023 8.0302
# 5 8.6035 3.2764 13.2433 -0.0023 18.6245 0.0009
# 6 -0.0002 -0.0004 -0.0019 8.0302 0.0009 19.1111
#
#
#
# Elastic Compliance Matrix: (Units=1/GPa)
#
#
# Indices 1 2 3 4 5 6 
#
# 1 0.015299 -0.003397 0.001627 -0.000001 -0.007627 0.000001
# 2 -0.003397 0.008742 -0.004837 0.000001 0.003471 -0.000001
# 3 0.001627 -0.004837 0.020111 -0.000004 -0.014201 0.000004
# 4 -0.000001 0.000001 -0.000004 0.027679 0.000007 -0.011630
# 5 -0.007627 0.003471 -0.014201 0.000007 0.066703 -0.000007
# 6 0.000001 -0.000001 0.000004 -0.011630 -0.000007 0.057213
#
#
# Mechanical properties :
#
#
# Convention : Reuss Voigt Hill
#
# Bulk Modulus (GPa) = 32.32243 47.68312 40.00278
# Shear Modulus (GPa) = 22.80271 29.75298 26.27785
#
# Velocity S-wave (km/s) = 3.27223 3.73780 3.51274
# Velocity P-wave (km/s) = 5.42719 6.40460 5.93605
#
# Compressibility (1/GPa) = 0.03093827
#
# Stress axis : x y z
#
# Youngs Moduli (GPa) = 65.36441 114.39136 49.72479
#
# Poissons Ratio (x) = 0.38862 -0.08093
# Poissons Ratio (y) = 0.22206 0.24051
# Poissons Ratio (z) = -0.10638 0.55328
#
# Static dielectric constant tensor:
#      x y z
#    x 3.855400 0.000000 0.376970 
#    y 0.000000 4.163920 0.000000 
#    z 0.376970 0.000000 3.591340 
# 
# 
# High freq. dielectric constant tensor:
#      x y z
#    x 1.819130 0.000000 0.037970 
#    y 0.000000 1.852820 0.000000 
#    z 0.037970 0.000000 1.817220 
# 
# From -- ./inp_files/279897.got.cif
#   From: 2010.06.25/outbox.cif.g09.slc.cpg/sg15_140_cif.got.tgz:279897.got - 2010.06.28 07:06:18.
