data_PCOD8134890
_publ_section_title
;
Structure prediction by ZEFSAII (Michael W. Deem and Ramdas Pophale) SiO2 
 PCOD8134890
Probable space group: C 2/C
;
_chemical_formula_sum "Si O2"
_cell_formula_units_Z 64
_cell_length_a 12.841722
_cell_length_b 12.620038
_cell_length_c 25.657434
_cell_angle_alpha 90.000000
_cell_angle_beta 134.996399
_cell_angle_gamma 90.000000
_cell_volume 2940.420505
_symmetry_space_group_name_H-M "C 2/C"
_symmetry_group_IT_number 15
_symmetry_cell_setting 'monoclinic'
loop_
_space_group_symop_operation_xyz
x,y,z
-x,y,1/2-z
-x,-y,-z
x,-y,1/2+z
1/2+x,1/2+y,z
1/2-x,1/2+y,1/2-z
1/2-x,1/2-y,-z
1/2+x,1/2-y,1/2+z
loop_
_atom_site_type_symbol
_atom_site_label
_atom_site_fract_x
_atom_site_fract_y
_atom_site_fract_z
Si Si1 0.589144 0.358211 0.579902
Si Si2 0.110661 0.731397 0.488063
Si Si3 0.380004 0.035767 0.167036
Si Si4 0.022923 0.738153 0.161513
Si Si5 0.668698 0.624309 0.436314
Si Si6 0.198881 0.916754 0.385566
Si Si7 0.595156 0.855881 0.399117
Si Si8 0.212745 0.669035 0.685427
O O1 0.575714 0.332992 0.512915
O O2 0.726637 0.434622 0.640608
O O3 0.441552 0.404602 0.554353
O O4 0.619085 0.246629 0.616396
O O5 0.250000 0.750000 0.500000
O O6 0.147203 0.625646 0.534543
O O7 0.972985 0.715202 0.399568
O O8 0.500000 0.992745 0.250000
O O9 0.446754 0.139902 0.163233
O O10 0.329723 0.941241 0.111665
O O11 0.186090 0.762804 0.239898
O O12 0.932333 0.843540 0.141118
O O13 0.664638 0.536063 0.390222
O O14 0.625499 0.734360 0.392299
O O15 0.833594 0.631521 0.518024
O O16 0.201249 0.910978 0.322944
O O17 0.421620 0.889374 0.332808
#
# Coordination Sequence:
#
# PCOD8134890 Si02
#       8
#     8   8   8   8   8   8   8   8
#     4  10  20  38  67  92 124 168 211 259 323 371
#     4   9  17  32  58 101 123 146 210 277 304 368
#     4  12  21  39  66  95 128 162 209 271 320 378
#     4  11  19  36  65 100 123 155 209 282 318 358
#     4  10  23  44  63  89 131 175 209 260 314 394
#     4  10  19  36  69  95 121 163 220 262 313 381
#     4  10  25  43  60  87 132 173 210 251 327 384
#     4  10  20  41  64  90 125 169 210 258 325 379
#
# _framework density 21.765594
#
# number of rings (size 3 to 8) (size 9 to 14) (size 15 to 20)
#    0.000    1.750    5.000    1.125    1.750    2.000 
#    2.250    3.750    0.000    0.000    0.000    0.000 
#    0.000    0.000    0.000    0.000    0.000    0.000 
#
# Total GULP energy -396529.875779 kJ/mol
# GULP energy per Si atom -12391.558618 kJ/mol
# Density = 2.171605 g / cm^3
# Si number density = 21.765594 Si / 1000 Ang^3
#
#
#
# Elastic Constant Matrix: (Units=GPa)
#
#
# Indices 1 2 3 4 5 6 
#
# 1 55.7513 16.0671 23.6920 0.0000 13.2652 0.0000
# 2 16.0671 101.2402 17.0963 0.0000 3.5027 0.0000
# 3 23.6920 17.0963 106.2101 0.0000 4.5746 0.0000
# 4 0.0000 0.0000 0.0000 27.1815 0.0000 -8.5032
# 5 13.2652 3.5027 4.5746 0.0000 29.8613 0.0000
# 6 0.0000 0.0000 0.0000 -8.5032 0.0000 21.0022
#
#
#
# Elastic Compliance Matrix: (Units=1/GPa)
#
#
# Indices 1 2 3 4 5 6 
#
# 1 0.022647 -0.002562 -0.004247 0.000000 -0.009110 0.000000
# 2 -0.002562 0.010470 -0.001117 0.000000 0.000081 0.000000
# 3 -0.004247 -0.001117 0.010525 0.000000 0.000405 0.000000
# 4 0.000000 0.000000 0.000000 0.042125 0.000000 0.017055
# 5 -0.009110 0.000081 0.000405 0.000000 0.037463 0.000000
# 6 0.000000 0.000000 0.000000 0.017055 0.000000 0.054519
#
#
# Mechanical properties :
#
#
# Convention : Reuss Voigt Hill
#
# Bulk Modulus (GPa) = 35.98440 41.87914 38.93177
# Shear Modulus (GPa) = 24.64680 29.36541 27.00611
#
# Velocity S-wave (km/s) = 3.36873 3.67709 3.52628
# Velocity P-wave (km/s) = 5.63025 6.10825 5.87411
#
# Compressibility (1/GPa) = 0.02778982
#
# Stress axis : x y z
#
# Youngs Moduli (GPa) = 44.15506 95.51144 95.01102
#
# Poissons Ratio (x) = 0.24468 0.40353
# Poissons Ratio (y) = 0.11312 0.10616
# Poissons Ratio (z) = 0.18753 0.10672
#
# Static dielectric constant tensor:
#      x y z
#    x 4.154140 0.000000 -0.083700 
#    y 0.000000 3.737420 0.000000 
#    z -0.083700 0.000000 4.445860 
# 
# 
# High freq. dielectric constant tensor:
#      x y z
#    x 1.836520 0.000000 0.004410 
#    y 0.000000 1.839050 0.000000 
#    z 0.004410 0.000000 1.854560 
# 
# From -- ./inp_files/296170.got.cif
#   From: 2010.06.25/outbox.cif.g09.slc.cpg/sg15_149_cif.got.tgz:296170.got - 2010.06.28 07:06:18.
