data_PCOD8134451
_publ_section_title
;
Structure prediction by ZEFSAII (Michael W. Deem and Ramdas Pophale) SiO2 
 PCOD8134451
Probable space group: C 2/C
;
_chemical_formula_sum "Si O2"
_cell_formula_units_Z 52
_cell_length_a 10.935100
_cell_length_b 17.141826
_cell_length_c 22.428905
_cell_angle_alpha 90.000000
_cell_angle_beta 39.231332
_cell_angle_gamma 90.000000
_cell_volume 2658.986661
_symmetry_space_group_name_H-M "C 2/C"
_symmetry_group_IT_number 15
_symmetry_cell_setting 'monoclinic'
loop_
_space_group_symop_operation_xyz
x,y,z
-x,y,1/2-z
-x,-y,-z
x,-y,1/2+z
1/2+x,1/2+y,z
1/2-x,1/2+y,1/2-z
1/2-x,1/2-y,-z
1/2+x,1/2-y,1/2+z
loop_
_atom_site_type_symbol
_atom_site_label
_atom_site_fract_x
_atom_site_fract_y
_atom_site_fract_z
Si Si1 0.275794 0.839230 0.220835
Si Si2 0.000000 0.056575 0.750000
Si Si3 0.238870 0.661962 0.217207
Si Si4 0.669720 0.071643 0.584911
Si Si5 0.558728 0.395617 0.411321
Si Si6 0.339951 0.894770 0.884491
Si Si7 0.456526 0.541420 0.379103
O O1 0.298970 0.751640 0.189183
O O2 0.484606 0.873708 0.155808
O O3 0.151459 0.837120 0.328547
O O4 0.172847 0.889984 0.208867
O O5 0.092802 0.003315 0.663312
O O6 0.222057 0.625490 0.158517
O O7 0.405833 0.614500 0.188595
O O8 0.033897 0.652567 0.329081
O O9 0.828425 0.108582 0.569127
O O10 0.758324 0.070286 0.484729
O O11 0.609697 0.986176 0.629736
O O12 0.334822 0.371369 0.505434
O O13 0.567777 0.483901 0.382942
#
# Coordination Sequence:
#
# PCOD8134451 Si02
#       7
#     8   4   8   8   8   8   8
#     4  11  25  37  59  85 132 156 192 234 315 350
#     4  10  22  42  54  84 122 168 188 244 282 372
#     4  11  21  37  57  93 117 158 187 253 297 348
#     4  11  20  39  67  92 107 161 204 254 281 345
#     4  10  19  39  63  95 110 153 207 256 276 348
#     4  10  19  35  68  85 113 149 213 244 289 336
#     4  10  20  39  65  87 122 148 210 240 291 348
#
# _framework density 19.556322000000002
#
# number of rings (size 3 to 8) (size 9 to 14) (size 15 to 20)
#    0.000    1.538    3.077    4.154    2.154    1.846 
#    2.769    3.077    0.000    0.000    0.000    0.000 
#    0.000    0.000    0.000    0.000    0.000    0.000 
#
# Total GULP energy -322454.237988 kJ/mol
# GULP energy per Si atom -12402.086076 kJ/mol
# Density = 1.951181 g / cm^3
# Si number density = 19.556322 Si / 1000 Ang^3
#
#
#
# Elastic Constant Matrix: (Units=GPa)
#
#
# Indices 1 2 3 4 5 6 
#
# 1 77.1186 48.5441 52.5108 -0.0017 0.6078 0.0008
# 2 48.5441 113.6441 59.1428 -0.0045 -5.4545 -0.0004
# 3 52.5108 59.1428 135.2316 -0.0290 -5.7374 -0.0047
# 4 -0.0017 -0.0045 -0.0290 6.0945 0.0035 -1.5501
# 5 0.6078 -5.4545 -5.7374 0.0035 28.0669 0.0009
# 6 0.0008 -0.0004 -0.0047 -1.5501 0.0009 20.0271
#
#
#
# Elastic Compliance Matrix: (Units=1/GPa)
#
#
# Indices 1 2 3 4 5 6 
#
# 1 0.020499 -0.006065 -0.005423 -0.000024 -0.002731 -0.000004
# 2 -0.006065 0.013227 -0.003344 -0.000009 0.002018 -0.000001
# 3 -0.005423 -0.003344 0.011036 0.000049 0.001724 0.000006
# 4 -0.000024 -0.000009 0.000049 0.167379 -0.000013 0.012956
# 5 -0.002731 0.002018 0.001724 -0.000013 0.036433 -0.000002
# 6 -0.000004 -0.000001 0.000006 0.012956 -0.000002 0.050935
#
#
# Mechanical properties :
#
#
# Convention : Reuss Voigt Hill
#
# Bulk Modulus (GPa) = 66.23499 71.82108 69.02803
# Shear Modulus (GPa) = 14.96077 21.89081 18.42579
#
# Velocity S-wave (km/s) = 2.76888 3.34933 3.07284
# Velocity P-wave (km/s) = 6.64565 7.19461 6.92557
#
# Compressibility (1/GPa) = 0.01509776
#
# Stress axis : x y z
#
# Youngs Moduli (GPa) = 48.78263 75.60039 90.61033
#
# Poissons Ratio (x) = 0.45853 0.49140
# Poissons Ratio (y) = 0.29587 0.30302
# Poissons Ratio (z) = 0.26456 0.25282
#
# Static dielectric constant tensor:
#      x y z
#    x 3.418160 0.000000 -0.045320 
#    y 0.000000 3.397980 0.000000 
#    z -0.045320 0.000000 3.830010 
# 
# 
# High freq. dielectric constant tensor:
#      x y z
#    x 1.745800 0.000000 -0.006760 
#    y 0.000000 1.748060 0.000000 
#    z -0.006760 0.000000 1.772730 
# 
# From -- ./inp_files/269914.got.cif
#   From: 2010.06.25/outbox.cif.g09.slc.cpg/sg15_135_cif.got.tgz:269914.got - 2010.06.28 07:06:18.
