data_PCOD8134479
_publ_section_title
;
Structure prediction by ZEFSAII (Michael W. Deem and Ramdas Pophale) SiO2 
 PCOD8134479
Probable space group: C 2/C
;
_chemical_formula_sum "Si O2"
_cell_formula_units_Z 48
_cell_length_a 25.257059
_cell_length_b 9.080225
_cell_length_c 11.466202
_cell_angle_alpha 90.000000
_cell_angle_beta 70.354953
_cell_angle_gamma 90.000000
_cell_volume 2476.592941
_symmetry_space_group_name_H-M "C 2/C"
_symmetry_group_IT_number 15
_symmetry_cell_setting 'monoclinic'
loop_
_space_group_symop_operation_xyz
x,y,z
-x,y,1/2-z
-x,-y,-z
x,-y,1/2+z
1/2+x,1/2+y,z
1/2-x,1/2+y,1/2-z
1/2-x,1/2-y,-z
1/2+x,1/2-y,1/2+z
loop_
_atom_site_type_symbol
_atom_site_label
_atom_site_fract_x
_atom_site_fract_y
_atom_site_fract_z
Si Si1 0.745147 0.573742 0.633997
Si Si2 0.698248 0.713186 0.258113
Si Si3 0.500000 0.996269 0.250000
Si Si4 0.167401 0.762652 0.030500
Si Si5 0.075445 0.249564 0.278700
Si Si6 0.500000 0.497518 0.250000
Si Si7 0.957043 0.743589 0.431326
O O1 0.735838 0.401442 0.658170
O O2 0.761769 0.645426 0.747456
O O3 0.796005 0.609659 0.505000
O O4 0.687525 0.643982 0.626850
O O5 0.678118 0.649166 0.399824
O O6 0.642913 0.755387 0.225863
O O7 0.493120 0.100834 0.368095
O O8 0.554528 0.892643 0.224193
O O9 0.102032 0.729028 0.093946
O O10 0.049347 0.256716 0.426469
O O11 0.054327 0.099384 0.233800
O O12 0.487556 0.394526 0.370773
#
# Coordination Sequence:
#
# PCOD8134479 Si02
#       7
#     8   8   4   8   8   4   8
#     4   9  17  34  52  74 100 138 164 210 253 305
#     4   9  18  32  55  72 101 136 169 207 260 300
#     4  10  22  34  56  78 104 140 176 212 262 310
#     4   8  18  33  54  71 107 133 165 211 256 298
#     4  10  20  36  52  79 108 135 171 224 255 303
#     4  10  20  32  58  78 104 140 178 210 256 314
#     4  10  19  36  55  78 104 142 173 210 263 309
#
# _framework density 19.381466
#
# number of rings (size 3 to 8) (size 9 to 14) (size 15 to 20)
#    1.000    1.667    0.000    2.000    0.000    1.333 
#    0.000    0.833   14.667    0.000    0.000    0.000 
#    0.000    0.000    0.000    0.000    0.000    0.000 
#
# Total GULP energy -297414.303175 kJ/mol
# GULP energy per Si atom -12392.262632 kJ/mol
# Density = 1.933735 g / cm^3
# Si number density = 19.381466 Si / 1000 Ang^3
#
#
#
# Elastic Constant Matrix: (Units=GPa)
#
#
# Indices 1 2 3 4 5 6 
#
# 1 86.8681 26.7643 -11.0009 0.0000 18.2387 0.0000
# 2 26.7643 100.2169 12.5952 0.0000 3.6909 0.0000
# 3 -11.0009 12.5952 26.8113 0.0000 3.5971 0.0000
# 4 0.0000 0.0000 0.0000 16.5256 0.0000 -1.2251
# 5 18.2387 3.6909 3.5971 0.0000 26.1237 0.0000
# 6 0.0000 0.0000 0.0000 -1.2251 0.0000 13.8253
#
#
#
# Elastic Compliance Matrix: (Units=1/GPa)
#
#
# Indices 1 2 3 4 5 6 
#
# 1 0.017426 -0.005626 0.011532 0.000000 -0.012960 0.000000
# 2 -0.005626 0.012438 -0.008602 0.000000 0.003355 0.000000
# 3 0.011532 -0.008602 0.047872 0.000000 -0.013428 0.000000
# 4 0.000000 0.000000 0.000000 0.060912 0.000000 0.005398
# 5 -0.012960 0.003355 -0.013428 0.000000 0.048702 0.000000
# 6 0.000000 0.000000 0.000000 0.005398 0.000000 0.072809
#
#
# Mechanical properties :
#
#
# Convention : Reuss Voigt Hill
#
# Bulk Modulus (GPa) = 13.82271 30.06817 21.94544
# Shear Modulus (GPa) = 17.26121 23.66410 20.46266
#
# Velocity S-wave (km/s) = 2.98754 3.49802 3.25281
# Velocity P-wave (km/s) = 4.36439 5.64468 5.04531
#
# Compressibility (1/GPa) = 0.07234469
#
# Stress axis : x y z
#
# Youngs Moduli (GPa) = 57.38399 80.39656 20.88924
#
# Poissons Ratio (x) = 0.45231 -0.24089
# Poissons Ratio (y) = 0.32284 0.17968
# Poissons Ratio (z) = -0.66174 0.69154
#
# Static dielectric constant tensor:
#      x y z
#    x 3.572600 0.000000 0.144470 
#    y 0.000000 3.289360 0.000000 
#    z 0.144470 0.000000 3.156700 
# 
# 
# High freq. dielectric constant tensor:
#      x y z
#    x 1.761280 0.000000 0.012820 
#    y 0.000000 1.738850 0.000000 
#    z 0.012820 0.000000 1.726590 
# 
# From -- ./inp_files/121108.got.cif
#   From: 2010.06.25/outbox.cif.g09.slc.cpg/sg15_61_cif.got.tgz:121108.got - 2010.06.28 07:06:18.
