data_PCOD8134601
_publ_section_title
;
Structure prediction by ZEFSAII (Michael W. Deem and Ramdas Pophale) SiO2 
 PCOD8134601
Probable space group: C 2/C
;
_chemical_formula_sum "Si O2"
_cell_formula_units_Z 52
_cell_length_a 26.100744
_cell_length_b 17.351538
_cell_length_c 8.774514
_cell_angle_alpha 90.000000
_cell_angle_beta 41.751333
_cell_angle_gamma 90.000000
_cell_volume 2646.197847
_symmetry_space_group_name_H-M "C 2/C"
_symmetry_group_IT_number 15
_symmetry_cell_setting 'monoclinic'
loop_
_space_group_symop_operation_xyz
x,y,z
-x,y,1/2-z
-x,-y,-z
x,-y,1/2+z
1/2+x,1/2+y,z
1/2-x,1/2+y,1/2-z
1/2-x,1/2-y,-z
1/2+x,1/2-y,1/2+z
loop_
_atom_site_type_symbol
_atom_site_label
_atom_site_fract_x
_atom_site_fract_y
_atom_site_fract_z
Si Si1 0.539345 0.251965 0.416765
Si Si2 0.247350 0.162664 0.673980
Si Si3 0.197705 0.403006 0.942116
Si Si4 0.388931 0.249659 0.918777
Si Si5 0.821084 0.173515 0.991118
Si Si6 0.843413 0.454842 0.145566
Si Si7 0.000000 0.370916 0.750000
O O1 0.456621 0.280791 0.659611
O O2 0.587186 0.227267 0.461184
O O3 0.585258 0.323268 0.231465
O O4 0.529048 0.180340 0.326518
O O5 0.220044 0.139693 0.566487
O O6 0.302267 0.236464 0.552124
O O7 0.293290 0.090929 0.634756
O O8 0.173022 0.181712 0.942840
O O9 0.286387 0.378076 0.705133
O O10 0.159274 0.456007 0.897294
O O11 0.146443 0.326909 0.075748
O O12 0.197652 0.447753 0.100705
O O13 0.931119 0.425864 0.958091
#
# Coordination Sequence:
#
# PCOD8134601 Si02
#       7
#     8   8   8   8   8   8   4
#     4  10  19  36  58  86 116 145 197 242 289 340
#     4   9  18  35  59  81 110 153 193 245 288 342
#     4  11  24  37  55  83 114 163 194 237 286 345
#     4   9  20  37  60  83 113 153 196 242 293 342
#     4   9  18  36  62  80 109 152 201 244 284 338
#     4  12  25  38  54  83 125 156 201 233 291 356
#     4  12  24  34  54  88 116 164 180 244 284 350
#
# _framework density 19.650835000000001
#
# number of rings (size 3 to 8) (size 9 to 14) (size 15 to 20)
#    0.000    1.846    3.077    1.846    2.154    5.538 
#    0.000    0.000    0.000    0.923    0.000    2.154 
#    0.000    0.000    0.000    0.000    0.000    0.000 
#
# Total GULP energy -322274.369455 kJ/mol
# GULP energy per Si atom -12395.168056 kJ/mol
# Density = 1.960611 g / cm^3
# Si number density = 19.650835 Si / 1000 Ang^3
#
#
#
# Elastic Constant Matrix: (Units=GPa)
#
#
# Indices 1 2 3 4 5 6 
#
# 1 39.6410 18.1787 31.8282 0.0000 -10.8424 0.0000
# 2 18.1787 45.6475 36.4958 0.0000 -10.5026 0.0000
# 3 31.8282 36.4958 156.8324 0.0000 -14.8397 0.0000
# 4 0.0000 0.0000 0.0000 22.5935 0.0000 0.6544
# 5 -10.8424 -10.5026 -14.8397 0.0000 30.4783 0.0000
# 6 0.0000 0.0000 0.0000 0.6544 0.0000 30.2202
#
#
#
# Elastic Compliance Matrix: (Units=1/GPa)
#
#
# Indices 1 2 3 4 5 6 
#
# 1 0.034661 -0.008677 -0.004331 0.000000 0.007232 0.000000
# 2 -0.008677 0.030384 -0.004834 0.000000 0.005030 0.000000
# 3 -0.004331 -0.004834 0.008467 0.000000 0.000916 0.000000
# 4 0.000000 0.000000 0.000000 0.044288 0.000000 -0.000959
# 5 0.007232 0.005030 0.000916 0.000000 0.037562 0.000000
# 6 0.000000 0.000000 0.000000 -0.000959 0.000000 0.033111
#
#
# Mechanical properties :
#
#
# Convention : Reuss Voigt Hill
#
# Bulk Modulus (GPa) = 26.43479 46.12515 36.27997
# Shear Modulus (GPa) = 21.11790 27.03295 24.07542
#
# Velocity S-wave (km/s) = 3.28175 3.71302 3.50403
# Velocity P-wave (km/s) = 5.27649 6.47343 5.90536
#
# Compressibility (1/GPa) = 0.03782894
#
# Stress axis : x y z
#
# Youngs Moduli (GPa) = 28.85111 32.91154 118.11037
#
# Poissons Ratio (x) = 0.28557 0.51151
# Poissons Ratio (y) = 0.25034 0.57092
# Poissons Ratio (z) = 0.12495 0.15909
#
# Static dielectric constant tensor:
#      x y z
#    x 3.466530 0.000000 -0.116500 
#    y 0.000000 3.219770 0.000000 
#    z -0.116500 0.000000 4.045840 
# 
# 
# High freq. dielectric constant tensor:
#      x y z
#    x 1.752140 0.000000 0.000950 
#    y 0.000000 1.725360 0.000000 
#    z 0.000950 0.000000 1.792230 
# 
# From -- ./inp_files/55317.got.cif
#   From: 2010.06.25/outbox.cif.g09.slc.cpg/sg15_28_cif.got.tgz:55317.got - 2010.06.28 07:06:18.
