data_PCOD8134910
_publ_section_title
;
Structure prediction by ZEFSAII (Michael W. Deem and Ramdas Pophale) SiO2 
 PCOD8134910
Probable space group: C 2/C
;
_chemical_formula_sum "Si O2"
_cell_formula_units_Z 60
_cell_length_a 8.168480
_cell_length_b 25.635180
_cell_length_c 21.958094
_cell_angle_alpha 90.000000
_cell_angle_beta 46.480902
_cell_angle_gamma 90.000000
_cell_volume 3334.241478
_symmetry_space_group_name_H-M "C 2/C"
_symmetry_group_IT_number 15
_symmetry_cell_setting 'monoclinic'
loop_
_space_group_symop_operation_xyz
x,y,z
-x,y,1/2-z
-x,-y,-z
x,-y,1/2+z
1/2+x,1/2+y,z
1/2-x,1/2+y,1/2-z
1/2-x,1/2-y,-z
1/2+x,1/2-y,1/2+z
loop_
_atom_site_type_symbol
_atom_site_label
_atom_site_fract_x
_atom_site_fract_y
_atom_site_fract_z
Si Si1 0.030196 0.298714 0.385328
Si Si2 0.849278 0.993646 0.980192
Si Si3 0.152568 0.999103 0.654839
Si Si4 0.996126 0.414340 0.572566
Si Si5 0.006384 0.408953 0.060705
Si Si6 0.500000 0.755160 0.750000
Si Si7 0.108690 0.690421 0.098347
Si Si8 0.564078 0.257036 0.465555
O O1 0.036485 0.361702 0.381694
O O2 0.273565 0.279550 0.298196
O O3 0.819434 0.279291 0.398433
O O4 0.981997 0.280669 0.466089
O O5 0.964150 0.999028 0.883018
O O6 0.748898 0.935281 0.010357
O O7 0.669171 0.038850 0.032822
O O8 0.000000 0.000000 0.000000
O O9 0.252735 0.941536 0.642542
O O10 0.000000 0.014072 0.750000
O O11 0.333322 0.044473 0.611287
O O12 0.008767 0.386059 0.503792
O O13 0.043240 0.370417 0.610845
O O14 0.461903 0.792395 0.816672
O O15 0.963863 0.725134 0.089135
O O16 0.377381 0.696705 0.016845
#
# Coordination Sequence:
#
# PCOD8134910 Si02
#       8
#     8   8   8   8   8   4   8   8
#     4  10  19  37  55  86 103 145 182 233 270 332
#     4   9  19  35  57  85 106 139 188 234 259 330
#     4   9  19  37  54  83 111 143 179 226 281 340
#     4   9  18  36  57  77 109 146 185 212 275 336
#     4   9  18  34  60  77 106 146 183 216 278 334
#     4  10  24  36  52  80 124 140 178 230 290 318
#     4  10  19  39  54  81 109 152 177 235 276 321
#     4   9  20  34  60  76 107 138 200 222 260 332
#
# _framework density 17.995097000000001
#
# number of rings (size 3 to 8) (size 9 to 14) (size 15 to 20)
#    0.000    2.667    1.333    1.600    2.800    0.533 
#    4.800    2.000    2.933    0.000    0.000    0.000 
#    0.000    0.000    0.000    0.000    0.000    0.000 
#
# Total GULP energy -371690.377439 kJ/mol
# GULP energy per Si atom -12389.679248 kJ/mol
# Density = 1.795414 g / cm^3
# Si number density = 17.995097 Si / 1000 Ang^3
#
#
#
# Elastic Constant Matrix: (Units=GPa)
#
#
# Indices 1 2 3 4 5 6 
#
# 1 115.6695 33.6676 42.1543 0.0000 -1.4470 0.0000
# 2 33.6676 104.6915 25.8116 0.0000 -0.4429 0.0000
# 3 42.1543 25.8116 79.2954 0.0000 2.1315 0.0000
# 4 0.0000 0.0000 0.0000 14.3914 0.0000 7.1161
# 5 -1.4470 -0.4429 2.1315 0.0000 28.4840 0.0000
# 6 0.0000 0.0000 0.0000 7.1161 0.0000 21.8630
#
#
#
# Elastic Compliance Matrix: (Units=1/GPa)
#
#
# Indices 1 2 3 4 5 6 
#
# 1 0.011244 -0.002318 -0.005248 0.000000 0.000928 0.000000
# 2 -0.002318 0.010868 -0.002311 0.000000 0.000224 0.000000
# 3 -0.005248 -0.002311 0.016194 0.000000 -0.001514 0.000000
# 4 0.000000 0.000000 0.000000 0.082814 0.000000 -0.026955
# 5 0.000928 0.000224 -0.001514 0.000000 0.035271 0.000000
# 6 0.000000 0.000000 0.000000 -0.026955 0.000000 0.054513
#
#
# Mechanical properties :
#
#
# Convention : Reuss Voigt Hill
#
# Bulk Modulus (GPa) = 53.90408 55.88037 54.89223
# Shear Modulus (GPa) = 21.11098 26.14923 23.63010
#
# Velocity S-wave (km/s) = 3.42885 3.81613 3.62766
# Velocity P-wave (km/s) = 6.75987 7.10898 6.93663
#
# Compressibility (1/GPa) = 0.01855147
#
# Stress axis : x y z
#
# Youngs Moduli (GPa) = 88.93469 92.01156 61.75137
#
# Poissons Ratio (x) = 0.21330 0.32406
# Poissons Ratio (y) = 0.20617 0.14273
# Poissons Ratio (z) = 0.46672 0.21267
#
# Static dielectric constant tensor:
#      x y z
#    x 3.009170 0.000000 0.344040 
#    y 0.000000 3.255110 0.000000 
#    z 0.344040 0.000000 3.396120 
# 
# 
# High freq. dielectric constant tensor:
#      x y z
#    x 1.696450 0.000000 0.003590 
#    y 0.000000 1.702010 0.000000 
#    z 0.003590 0.000000 1.675320 
# 
# From -- ./inp_files/266525.got.cif
#   From: 2010.06.25/outbox.cif.g09.slc.cpg/sg15_134_cif.got.tgz:266525.got - 2010.06.28 07:06:18.
