data_PCOD8134048
_publ_section_title
;
Structure prediction by ZEFSAII (Michael W. Deem and Ramdas Pophale) SiO2 
 PCOD8134048
Probable space group: C 2/C
;
_chemical_formula_sum "Si O2"
_cell_formula_units_Z 64
_cell_length_a 18.328770
_cell_length_b 30.546210
_cell_length_c 8.794944
_cell_angle_alpha 90.000000
_cell_angle_beta 140.666774
_cell_angle_gamma 90.000000
_cell_volume 3121.017431
_symmetry_space_group_name_H-M "C 2/C"
_symmetry_group_IT_number 15
_symmetry_cell_setting 'monoclinic'
loop_
_space_group_symop_operation_xyz
x,y,z
-x,y,1/2-z
-x,-y,-z
x,-y,1/2+z
1/2+x,1/2+y,z
1/2-x,1/2+y,1/2-z
1/2-x,1/2-y,-z
1/2+x,1/2-y,1/2+z
loop_
_atom_site_type_symbol
_atom_site_label
_atom_site_fract_x
_atom_site_fract_y
_atom_site_fract_z
Si Si1 0.498135 0.347133 0.573542
Si Si2 0.751991 0.627311 0.452929
Si Si3 0.121934 0.552454 0.004347
Si Si4 0.184191 0.291696 0.055612
Si Si5 0.424469 0.257052 0.389679
Si Si6 0.355622 0.216476 0.675749
Si Si7 0.763608 0.884947 0.220037
Si Si8 0.381071 0.039196 0.142218
O O1 0.500000 0.328918 0.750000
O O2 0.617176 0.366351 0.706446
O O3 0.468997 0.305751 0.418655
O O4 0.401303 0.385037 0.415086
O O5 0.788157 0.590619 0.389675
O O6 0.822407 0.672257 0.531254
O O7 0.771082 0.613132 0.658157
O O8 0.108955 0.541193 0.160410
O O9 0.158337 0.509075 0.971015
O O10 0.000000 0.570081 0.750000
O O11 0.299957 0.262134 0.270403
O O12 0.119540 0.294729 0.109181
O O13 0.215537 0.341413 0.059268
O O14 0.096729 0.270896 0.795634
O O15 0.516610 0.235441 0.656966
O O16 0.250000 0.250000 0.500000
O O17 0.717275 0.927587 0.064209
O O18 0.500000 0.051888 0.250000
#
# Coordination Sequence:
#
# PCOD8134048 Si02
#       8
#     8   8   8   8   8   8   8   8
#     4   9  18  36  59  80 115 162 207 249 301 359
#     4  10  20  39  58  88 123 158 207 257 301 362
#     4  11  23  41  63  96 123 156 196 247 308 367
#     4   9  21  36  52  78 115 156 205 247 302 358
#     4  10  19  35  54  79 112 158 204 253 299 358
#     4  11  21  35  55  80 114 162 205 248 304 346
#     4   9  19  37  63  84 113 160 205 248 304 363
#     4  11  22  41  68  91 124 158 194 242 308 375
#
# _framework density 20.506133999999999
#
# number of rings (size 3 to 8) (size 9 to 14) (size 15 to 20)
#    0.000    2.000    1.250    4.125    0.000    3.000 
#    9.000    1.250    0.000    0.000    0.000    0.000 
#    0.000    0.000    0.000    0.000    0.000    0.000 
#
# Total GULP energy -396566.120761 kJ/mol
# GULP energy per Si atom -12392.691274 kJ/mol
# Density = 2.045946 g / cm^3
# Si number density = 20.506134 Si / 1000 Ang^3
#
#
#
# Elastic Constant Matrix: (Units=GPa)
#
#
# Indices 1 2 3 4 5 6 
#
# 1 90.7945 55.8955 46.0641 0.0000 -5.6392 0.0000
# 2 55.8955 119.4532 54.4157 0.0000 9.9189 0.0000
# 3 46.0641 54.4157 105.3536 0.0000 17.2450 0.0000
# 4 0.0000 0.0000 0.0000 31.9768 0.0000 1.1052
# 5 -5.6392 9.9189 17.2450 0.0000 33.0127 0.0000
# 6 0.0000 0.0000 0.0000 1.1052 0.0000 30.3113
#
#
#
# Elastic Compliance Matrix: (Units=1/GPa)
#
#
# Indices 1 2 3 4 5 6 
#
# 1 0.018761 -0.006687 -0.006127 0.000000 0.008414 0.000000
# 2 -0.006687 0.013335 -0.003413 0.000000 -0.003366 0.000000
# 3 -0.006127 -0.003413 0.015240 0.000000 -0.007982 0.000000
# 4 0.000000 0.000000 0.000000 0.031312 0.000000 -0.001142
# 5 0.008414 -0.003366 -0.007982 0.000000 0.036910 0.000000
# 6 0.000000 0.000000 0.000000 -0.001142 0.000000 0.033033
#
#
# Mechanical properties :
#
#
# Convention : Reuss Voigt Hill
#
# Bulk Modulus (GPa) = 67.18843 69.81690 68.50266
# Shear Modulus (GPa) = 26.88120 29.67520 28.27820
#
# Velocity S-wave (km/s) = 3.62454 3.80825 3.71753
# Velocity P-wave (km/s) = 7.09596 7.31148 7.20453
#
# Compressibility (1/GPa) = 0.01488352
#
# Stress axis : x y z
#
# Youngs Moduli (GPa) = 53.30115 74.99331 65.61723
#
# Poissons Ratio (x) = 0.50146 0.40201
# Poissons Ratio (y) = 0.35641 0.22394
# Poissons Ratio (z) = 0.32656 0.25593
#
# Static dielectric constant tensor:
#      x y z
#    x 3.709410 0.000000 0.138390 
#    y 0.000000 3.603160 0.000000 
#    z 0.138390 0.000000 3.798370 
# 
# 
# High freq. dielectric constant tensor:
#      x y z
#    x 1.797360 0.000000 0.007520 
#    y 0.000000 1.789050 0.000000 
#    z 0.007520 0.000000 1.805750 
# 
# From -- ./inp_files/52855.got.cif
#   From: 2010.06.25/outbox.cif.g09.slc.cpg/sg15_27_cif.got.tgz:52855.got - 2010.06.28 07:06:18.
