data_PCOD8134746
_publ_section_title
;
Structure prediction by ZEFSAII (Michael W. Deem and Ramdas Pophale) SiO2 
 PCOD8134746
Probable space group: C 2/C
;
_chemical_formula_sum "Si O2"
_cell_formula_units_Z 56
_cell_length_a 21.315389
_cell_length_b 9.422452
_cell_length_c 15.151479
_cell_angle_alpha 90.000000
_cell_angle_beta 113.236228
_cell_angle_gamma 90.000000
_cell_volume 2796.236441
_symmetry_space_group_name_H-M "C 2/C"
_symmetry_group_IT_number 15
_symmetry_cell_setting 'monoclinic'
loop_
_space_group_symop_operation_xyz
x,y,z
-x,y,1/2-z
-x,-y,-z
x,-y,1/2+z
1/2+x,1/2+y,z
1/2-x,1/2+y,1/2-z
1/2-x,1/2-y,-z
1/2+x,1/2-y,1/2+z
loop_
_atom_site_type_symbol
_atom_site_label
_atom_site_fract_x
_atom_site_fract_y
_atom_site_fract_z
Si Si1 0.839981 0.016627 0.153044
Si Si2 0.130933 0.268170 0.212990
Si Si3 0.941918 0.120477 0.475424
Si Si4 0.781827 0.194153 0.758572
Si Si5 0.199565 0.970225 0.061569
Si Si6 0.656537 0.932565 0.806606
Si Si7 0.936676 0.766085 0.154255
O O1 0.872192 0.160060 0.207617
O O2 0.791831 0.943725 0.200791
O O3 0.901038 0.911863 0.162551
O O4 0.800149 0.065265 0.042448
O O5 0.067316 0.223463 0.114646
O O6 0.203463 0.256507 0.202358
O O7 0.122578 0.426258 0.247832
O O8 0.961449 0.222524 0.567299
O O9 0.868465 0.051655 0.449581
O O10 0.000000 0.000000 0.500000
O O11 0.794362 0.163973 0.869453
O O12 0.837198 0.314974 0.767210
O O13 0.267602 0.060288 0.113038
O O14 0.611850 0.870736 0.861934
O O15 0.000000 0.735793 0.250000
#
# Coordination Sequence:
#
# PCOD8134746 Si02
#       7
#     8   8   8   8   8   8   8
#     4  10  21  36  64  84 126 159 208 258 291 381
#     4  11  20  39  58  94 118 161 203 254 315 365
#     4  11  22  38  66  91 117 166 219 258 297 378
#     4  10  19  36  61  88 130 159 197 263 306 372
#     4  10  21  38  61  96 117 163 211 248 319 360
#     4  10  22  37  62  89 133 156 197 263 318 378
#     4  10  23  41  60  88 120 168 207 256 311 370
#
# _framework density 20.026918999999999
#
# number of rings (size 3 to 8) (size 9 to 14) (size 15 to 20)
#    0.000    1.714    2.857    1.714    4.000    4.000 
#    2.571    4.286    0.000    0.000    0.000    0.000 
#    0.000    0.000    0.000    0.000    0.000    0.000 
#
# Total GULP energy -347027.755946 kJ/mol
# GULP energy per Si atom -12393.848427 kJ/mol
# Density = 1.998134 g / cm^3
# Si number density = 20.026919 Si / 1000 Ang^3
#
#
#
# Elastic Constant Matrix: (Units=GPa)
#
#
# Indices 1 2 3 4 5 6 
#
# 1 68.1519 39.7041 48.3307 0.0000 2.2314 0.0000
# 2 39.7041 128.9348 69.0082 0.0000 -9.9240 0.0000
# 3 48.3307 69.0082 156.1717 0.0000 -6.2869 0.0000
# 4 0.0000 0.0000 0.0000 24.5407 0.0000 2.8690
# 5 2.2314 -9.9240 -6.2869 0.0000 32.5318 0.0000
# 6 0.0000 0.0000 0.0000 2.8690 0.0000 26.1665
#
#
#
# Elastic Compliance Matrix: (Units=1/GPa)
#
#
# Indices 1 2 3 4 5 6 
#
# 1 0.020484 -0.004076 -0.004681 0.000000 -0.003553 0.000000
# 2 -0.004076 0.011135 -0.003539 0.000000 0.002993 0.000000
# 3 -0.004681 -0.003539 0.009459 0.000000 0.001070 0.000000
# 4 0.000000 0.000000 0.000000 0.041278 0.000000 -0.004526
# 5 -0.003553 0.002993 0.001070 0.000000 0.032102 0.000000
# 6 0.000000 0.000000 0.000000 -0.004526 0.000000 0.038713
#
#
# Mechanical properties :
#
#
# Convention : Reuss Voigt Hill
#
# Bulk Modulus (GPa) = 60.65598 74.14939 67.40268
# Shear Modulus (GPa) = 27.28412 29.72884 28.50648
#
# Velocity S-wave (km/s) = 3.69504 3.85703 3.77690
# Velocity P-wave (km/s) = 6.96831 7.54591 7.26286
#
# Compressibility (1/GPa) = 0.01648642
#
# Stress axis : x y z
#
# Youngs Moduli (GPa) = 48.81956 89.80556 105.72459
#
# Poissons Ratio (x) = 0.36602 0.49491
# Poissons Ratio (y) = 0.19898 0.37411
# Poissons Ratio (z) = 0.22853 0.31778
#
# Static dielectric constant tensor:
#      x y z
#    x 3.591570 0.000000 -0.151500 
#    y 0.000000 3.578110 0.000000 
#    z -0.151500 0.000000 3.991640 
# 
# 
# High freq. dielectric constant tensor:
#      x y z
#    x 1.769660 0.000000 -0.006920 
#    y 0.000000 1.774330 0.000000 
#    z -0.006920 0.000000 1.786610 
# 
# From -- ./inp_files/172462.got.cif
#   From: 2010.06.25/outbox.cif.g09.slc.cpg/sg15_87_cif.got.tgz:172462.got - 2010.06.28 07:06:18.
