data_PCOD8134514
_publ_section_title
;
Structure prediction by ZEFSAII (Michael W. Deem and Ramdas Pophale) SiO2 
 PCOD8134514
Probable space group: C 2/C
;
_chemical_formula_sum "Si O2"
_cell_formula_units_Z 40
_cell_length_a 13.793775
_cell_length_b 9.664289
_cell_length_c 30.615690
_cell_angle_alpha 90.000000
_cell_angle_beta 29.084660
_cell_angle_gamma 90.000000
_cell_volume 1983.919253
_symmetry_space_group_name_H-M "C 2/C"
_symmetry_group_IT_number 15
_symmetry_cell_setting 'monoclinic'
loop_
_space_group_symop_operation_xyz
x,y,z
-x,y,1/2-z
-x,-y,-z
x,-y,1/2+z
1/2+x,1/2+y,z
1/2-x,1/2+y,1/2-z
1/2-x,1/2-y,-z
1/2+x,1/2-y,1/2+z
loop_
_atom_site_type_symbol
_atom_site_label
_atom_site_fract_x
_atom_site_fract_y
_atom_site_fract_z
Si Si1 0.227228 0.594650 0.236876
Si Si2 0.235628 0.805472 0.160800
Si Si3 0.788579 0.106785 0.311497
Si Si4 0.619508 0.606023 0.892687
Si Si5 0.264671 0.085449 0.407703
O O1 0.299300 0.725985 0.179986
O O2 0.328407 0.600780 0.244039
O O3 0.304724 0.455322 0.183026
O O4 0.988243 0.594953 0.337185
O O5 0.312805 0.721881 0.088164
O O6 0.000000 0.806163 0.250000
O O7 0.313276 0.963184 0.131953
O O8 0.639578 0.228975 0.383081
O O9 0.000000 0.134705 0.250000
O O10 0.753317 0.545068 0.879387
O O11 0.386471 0.568157 0.992198
#
# Coordination Sequence:
#
# PCOD8134514 Si02
#       5
#     8   8   8   8   8
#     4  10  19  36  57  76 108 148 179 212 265 327
#     4   8  17  33  52  75 106 140 173 214 263 314
#     4  11  21  33  53  80 109 142 180 224 265 303
#     4  10  20  35  59  83 105 137 180 226 266 314
#     4   9  19  37  57  79 106 142 181 214 265 330
#
# _framework density 20.162112
#
# number of rings (size 3 to 8) (size 9 to 14) (size 15 to 20)
#    0.000    2.400    0.000    4.200    0.000    1.600 
#    0.000    2.000    0.000    8.400    0.000    0.000 
#    0.000    0.000    0.000    0.000    0.000    0.000 
#
# Total GULP energy -247980.266651 kJ/mol
# GULP energy per Si atom -12399.013333 kJ/mol
# Density = 2.011622 g / cm^3
# Si number density = 20.162112 Si / 1000 Ang^3
#
#
#
# Elastic Constant Matrix: (Units=GPa)
#
#
# Indices 1 2 3 4 5 6 
#
# 1 111.5846 22.7411 40.9866 0.0026 10.2670 -0.0013
# 2 22.7411 142.9717 22.8636 0.0030 7.1783 0.0006
# 3 40.9866 22.8636 82.6809 0.0115 1.0201 -0.0095
# 4 0.0026 0.0030 0.0115 12.3605 -0.0081 1.1864
# 5 10.2670 7.1783 1.0201 -0.0081 17.7213 0.0069
# 6 -0.0013 0.0006 -0.0095 1.1864 0.0069 9.8369
#
#
#
# Elastic Compliance Matrix: (Units=1/GPa)
#
#
# Indices 1 2 3 4 5 6 
#
# 1 0.011702 -0.000664 -0.005541 -0.000001 -0.006192 0.000001
# 2 -0.000664 0.007502 -0.001714 -0.000002 -0.002555 0.000000
# 3 -0.005541 -0.001714 0.015278 -0.000012 0.003025 0.000013
# 4 -0.000001 -0.000002 -0.000012 0.081850 0.000043 -0.009872
# 5 -0.006192 -0.002555 0.003025 0.000043 0.060877 -0.000046
# 6 0.000001 0.000000 0.000013 -0.009872 -0.000046 0.102849
#
#
# Mechanical properties :
#
#
# Convention : Reuss Voigt Hill
#
# Bulk Modulus (GPa) = 53.63500 56.71330 55.17415
# Shear Modulus (GPa) = 16.55016 24.69349 20.62182
#
# Velocity S-wave (km/s) = 2.86816 3.50344 3.20160
# Velocity P-wave (km/s) = 6.13418 6.67496 6.41027
#
# Compressibility (1/GPa) = 0.01864454
#
# Stress axis : x y z
#
# Youngs Moduli (GPa) = 85.45435 133.29018 65.45364
#
# Poissons Ratio (x) = 0.08856 0.36267
# Poissons Ratio (y) = 0.05678 0.11217
# Poissons Ratio (z) = 0.47349 0.22843
#
# Static dielectric constant tensor:
#      x y z
#    x 3.459290 0.000000 0.136790 
#    y 0.000000 4.129560 -0.000010 
#    z 0.136790 -0.000010 3.394010 
# 
# 
# High freq. dielectric constant tensor:
#      x y z
#    x 1.771000 0.000000 0.012120 
#    y 0.000000 1.798740 0.000000 
#    z 0.012120 0.000000 1.765580 
# 
# From -- ./inp_files/150679.got.cif
#   From: 2010.06.25/outbox.cif.g09.slc.cpg/sg15_76_cif.got.tgz:150679.got - 2010.06.28 07:06:18.
