data_PCOD8134118
_publ_section_title
;
Structure prediction by ZEFSAII (Michael W. Deem and Ramdas Pophale) SiO2 
 PCOD8134118
Probable space group: C 2/C
;
_chemical_formula_sum "Si O2"
_cell_formula_units_Z 64
_cell_length_a 14.153157
_cell_length_b 17.871191
_cell_length_c 22.421910
_cell_angle_alpha 90.000000
_cell_angle_beta 142.840237
_cell_angle_gamma 90.000000
_cell_volume 3425.664511
_symmetry_space_group_name_H-M "C 2/C"
_symmetry_group_IT_number 15
_symmetry_cell_setting 'monoclinic'
loop_
_space_group_symop_operation_xyz
x,y,z
-x,y,1/2-z
-x,-y,-z
x,-y,1/2+z
1/2+x,1/2+y,z
1/2-x,1/2+y,1/2-z
1/2-x,1/2-y,-z
1/2+x,1/2-y,1/2+z
loop_
_atom_site_type_symbol
_atom_site_label
_atom_site_fract_x
_atom_site_fract_y
_atom_site_fract_z
Si Si1 0.332919 0.170725 0.980700
Si Si2 0.789972 0.368404 0.742394
Si Si3 0.455553 0.322799 0.084487
Si Si4 0.245778 0.196546 0.805028
Si Si5 0.065658 0.525282 0.344760
Si Si6 0.503791 0.922535 0.083181
Si Si7 0.384897 0.928576 0.904105
Si Si8 0.887252 0.932257 0.953964
O O1 0.205130 0.151275 0.965726
O O2 0.242945 0.196168 0.875261
O O3 0.448438 0.235332 0.063551
O O4 0.437437 0.097887 0.022560
O O5 0.765925 0.281224 0.722331
O O6 0.760270 0.387739 0.797745
O O7 0.663429 0.408177 0.637443
O O8 0.963447 0.401531 0.813277
O O9 0.594765 0.342976 0.200164
O O10 0.481384 0.367235 0.035664
O O11 0.401503 0.154677 0.858810
O O12 0.060523 0.455587 0.387727
O O13 0.243597 0.548314 0.424867
O O14 0.000000 0.492732 0.250000
O O15 0.622119 0.982610 0.111978
O O16 0.362100 0.909666 0.963236
O O17 0.000000 0.000000 0.000000
#
# Coordination Sequence:
#
# PCOD8134118 Si02
#       8
#     8   8   8   8   8   8   8   8
#     4  10  20  33  49  80 114 151 180 220 280 339
#     4  10  19  35  56  84 113 150 183 224 287 335
#     4  11  21  30  51  78 117 147 179 226 284 332
#     4  11  21  32  53  85 118 144 181 228 276 346
#     4   9  20  36  59  80 112 153 190 229 279 340
#     4   9  19  33  56  80 106 145 196 222 265 327
#     4   9  17  34  53  75 107 149 188 224 259 337
#     4  11  24  37  57  83 114 146 191 241 284 327
#
# _framework density 18.682507000000001
#
# number of rings (size 3 to 8) (size 9 to 14) (size 15 to 20)
#    0.000    2.000    2.500    1.875    7.000    1.000 
#    0.000    0.000    0.000    0.750    0.000    0.000 
#    0.000    0.000    0.000    0.000    0.000    0.000 
#
# Total GULP energy -396557.242453 kJ/mol
# GULP energy per Si atom -12392.413827 kJ/mol
# Density = 1.863998 g / cm^3
# Si number density = 18.682507 Si / 1000 Ang^3
#
#
#
# Elastic Constant Matrix: (Units=GPa)
#
#
# Indices 1 2 3 4 5 6 
#
# 1 54.7905 38.3165 32.1128 0.0002 -29.2229 0.0000
# 2 38.3165 93.6156 34.7566 0.0001 -10.2591 0.0000
# 3 32.1128 34.7566 107.9052 0.0002 -34.3880 0.0002
# 4 0.0002 0.0001 0.0002 28.4458 0.0001 -9.1185
# 5 -29.2229 -10.2591 -34.3880 0.0001 34.1706 0.0001
# 6 0.0000 0.0000 0.0002 -9.1185 0.0001 27.7379
#
#
#
# Elastic Compliance Matrix: (Units=1/GPa)
#
#
# Indices 1 2 3 4 5 6 
#
# 1 0.050652 -0.017608 0.004001 -0.000001 0.042058 0.000000
# 2 -0.017608 0.018258 -0.005436 0.000000 -0.015048 0.000000
# 3 0.004001 -0.005436 0.015307 0.000000 0.017194 0.000000
# 4 -0.000001 0.000000 0.000000 0.039295 -0.000001 0.012918
# 5 0.042058 -0.015048 0.017194 -0.000001 0.078019 -0.000001
# 6 0.000000 0.000000 0.000000 0.012918 -0.000001 0.040298
#
#
# Mechanical properties :
#
#
# Convention : Reuss Voigt Hill
#
# Bulk Modulus (GPa) = 21.67777 51.85367 36.76572
# Shear Modulus (GPa) = 16.93228 28.14590 22.53909
#
# Velocity S-wave (km/s) = 3.01378 3.88562 3.47713
# Velocity P-wave (km/s) = 4.87226 6.92432 5.98687
#
# Compressibility (1/GPa) = 0.04613020
#
# Stress axis : x y z
#
# Youngs Moduli (GPa) = 19.74255 54.77004 65.32802
#
# Poissons Ratio (x) = 0.96439 -0.26136
# Poissons Ratio (y) = 0.34763 0.35515
# Poissons Ratio (z) = -0.07898 0.29775
#
# Static dielectric constant tensor:
#      x y z
#    x 3.391790 0.000000 -0.686880 
#    y 0.000000 3.310750 0.000000 
#    z -0.686880 0.000000 4.048310 
# 
# 
# High freq. dielectric constant tensor:
#      x y z
#    x 1.687660 0.000000 -0.048770 
#    y 0.000000 1.720110 0.000000 
#    z -0.048770 0.000000 1.737960 
# 
# From -- ./inp_files/274856.got.cif
#   From: 2010.06.25/outbox.cif.g09.slc.cpg/sg15_138_cif.got.tgz:274856.got - 2010.06.28 07:06:18.
