data_PCOD8134088
_publ_section_title
;
Structure prediction by ZEFSAII (Michael W. Deem and Ramdas Pophale) SiO2 
 PCOD8134088
Probable space group: C 2/C
;
_chemical_formula_sum "Si O2"
_cell_formula_units_Z 40
_cell_length_a 30.925953
_cell_length_b 12.091855
_cell_length_c 13.466201
_cell_angle_alpha 90.000000
_cell_angle_beta 26.595198
_cell_angle_gamma 90.000000
_cell_volume 2254.409626
_symmetry_space_group_name_H-M "C 2/C"
_symmetry_group_IT_number 15
_symmetry_cell_setting 'monoclinic'
loop_
_space_group_symop_operation_xyz
x,y,z
-x,y,1/2-z
-x,-y,-z
x,-y,1/2+z
1/2+x,1/2+y,z
1/2-x,1/2+y,1/2-z
1/2-x,1/2-y,-z
1/2+x,1/2-y,1/2+z
loop_
_atom_site_type_symbol
_atom_site_label
_atom_site_fract_x
_atom_site_fract_y
_atom_site_fract_z
Si Si1 0.757167 0.950842 0.873971
Si Si2 0.192233 0.421221 0.227673
Si Si3 0.387586 0.881341 0.495760
Si Si4 0.393311 0.277925 0.506465
Si Si5 0.725490 0.672223 0.756276
O O1 0.853501 0.888139 0.640765
O O2 0.774599 0.082909 0.832023
O O3 0.736913 0.917395 0.027742
O O4 0.665225 0.915323 0.997543
O O5 0.145700 0.540262 0.345607
O O6 0.110146 0.325261 0.408614
O O7 0.278169 0.394397 0.130633
O O8 0.500000 0.896838 0.250000
O O9 0.365191 0.754014 0.569735
O O10 0.500000 0.302150 0.250000
O O11 0.324312 0.246082 0.553963
#
# Coordination Sequence:
#
# PCOD8134088 Si02
#       5
#     8   8   8   8   8
#     4  10  19  35  56  74 106 138 168 214 254 305
#     4   9  19  33  56  79 100 132 181 206 257 302
#     4  10  20  35  52  77 107 137 168 214 258 301
#     4   9  18  33  53  77 101 131 176 209 251 303
#     4   8  20  34  53  73 107 136 165 217 255 298
#
# _framework density 17.743003000000002
#
# number of rings (size 3 to 8) (size 9 to 14) (size 15 to 20)
#    1.200    1.600    0.000    1.200    0.000    2.400 
#    0.000    0.000    0.000   12.000    0.000    0.000 
#    0.000    0.000    0.000    0.000    0.000    0.000 
#
# Total GULP energy -247835.162258 kJ/mol
# GULP energy per Si atom -12391.758113 kJ/mol
# Density = 1.770262 g / cm^3
# Si number density = 17.743003 Si / 1000 Ang^3
#
#
#
# Elastic Constant Matrix: (Units=GPa)
#
#
# Indices 1 2 3 4 5 6 
#
# 1 37.9182 16.3978 41.7108 0.0000 2.1459 0.0000
# 2 16.3978 112.5344 62.2606 0.0000 -10.7678 0.0000
# 3 41.7108 62.2606 131.2433 0.0000 3.5394 0.0000
# 4 0.0000 0.0000 0.0000 20.3683 0.0000 -0.0538
# 5 2.1459 -10.7678 3.5394 0.0000 10.4652 0.0000
# 6 0.0000 0.0000 0.0000 -0.0538 0.0000 11.2152
#
#
#
# Elastic Compliance Matrix: (Units=1/GPa)
#
#
# Indices 1 2 3 4 5 6 
#
# 1 0.040829 0.001298 -0.013525 0.000000 -0.002462 0.000000
# 2 0.001298 0.014734 -0.007876 0.000000 0.017558 0.000000
# 3 -0.013525 -0.007876 0.015943 0.000000 -0.010722 0.000000
# 4 0.000000 0.000000 0.000000 0.049096 0.000000 0.000236
# 5 -0.002462 0.017558 -0.010722 0.000000 0.117752 0.000000
# 6 0.000000 0.000000 0.000000 0.000236 0.000000 0.089166
#
#
# Mechanical properties :
#
#
# Convention : Reuss Voigt Hill
#
# Bulk Modulus (GPa) = 31.94864 58.04824 44.99844
# Shear Modulus (GPa) = 13.22192 19.16487 16.19339
#
# Velocity S-wave (km/s) = 2.73278 3.29011 3.02431
# Velocity P-wave (km/s) = 5.29177 6.87170 6.13283
#
# Compressibility (1/GPa) = 0.03130023
#
# Stress axis : x y z
#
# Youngs Moduli (GPa) = 24.49264 67.86806 62.72201
#
# Poissons Ratio (x) = -0.08810 0.84833
# Poissons Ratio (y) = -0.03179 0.49400
# Poissons Ratio (z) = 0.33127 0.53453
#
# Static dielectric constant tensor:
#      x y z
#    x 2.981690 0.000000 0.000420 
#    y 0.000000 3.511750 0.000000 
#    z 0.000420 0.000000 2.908030 
# 
# 
# High freq. dielectric constant tensor:
#      x y z
#    x 1.651090 0.000000 0.003270 
#    y 0.000000 1.704140 0.000000 
#    z 0.003270 0.000000 1.663900 
# 
# From -- ./inp_files/126347.got.cif
#   From: 2010.06.25/outbox.cif.g09.slc.cpg/sg15_64_cif.got.tgz:126347.got - 2010.06.28 07:06:18.
