data_PCOD8134599
_publ_section_title
;
Structure prediction by ZEFSAII (Michael W. Deem and Ramdas Pophale) SiO2 
 PCOD8134599
Probable space group: C 2/C
;
_chemical_formula_sum "Si O2"
_cell_formula_units_Z 56
_cell_length_a 16.592273
_cell_length_b 11.651005
_cell_length_c 14.733809
_cell_angle_alpha 90.000000
_cell_angle_beta 75.345298
_cell_angle_gamma 90.000000
_cell_volume 2755.630292
_symmetry_space_group_name_H-M "C 2/C"
_symmetry_group_IT_number 15
_symmetry_cell_setting 'monoclinic'
loop_
_space_group_symop_operation_xyz
x,y,z
-x,y,1/2-z
-x,-y,-z
x,-y,1/2+z
1/2+x,1/2+y,z
1/2-x,1/2+y,1/2-z
1/2-x,1/2-y,-z
1/2+x,1/2-y,1/2+z
loop_
_atom_site_type_symbol
_atom_site_label
_atom_site_fract_x
_atom_site_fract_y
_atom_site_fract_z
Si Si1 0.679865 0.201731 0.880214
Si Si2 0.193599 0.080811 0.273591
Si Si3 0.631746 0.647599 0.721392
Si Si4 0.596547 0.268653 0.422914
Si Si5 0.417037 0.338363 0.456574
Si Si6 0.800302 0.029641 0.543088
Si Si7 0.177674 0.455005 0.911829
O O1 0.651292 0.295702 0.811724
O O2 0.778355 0.181478 0.844619
O O3 0.639773 0.074122 0.882227
O O4 0.652047 0.248793 0.986479
O O5 0.263554 0.105633 0.179312
O O6 0.128305 0.987106 0.252920
O O7 0.234059 0.026455 0.353712
O O8 0.606139 0.727277 0.811571
O O9 0.569135 0.670285 0.655935
O O10 0.505875 0.314258 0.478572
O O11 0.670866 0.339523 0.449625
O O12 0.604386 0.136004 0.452245
O O13 0.384778 0.465352 0.488642
O O14 0.728297 0.019479 0.489413
#
# Coordination Sequence:
#
# PCOD8134599 Si02
#       7
#     8   8   8   8   8   8   8
#     4  10  20  35  61  81 114 155 202 234 290 367
#     4   9  19  34  59  88 107 144 207 248 276 348
#     4  10  19  36  58  86 110 153 201 247 288 354
#     4  11  23  36  55  90 124 148 193 257 300 344
#     4  11  21  36  60  86 118 153 197 250 300 346
#     4  10  21  37  60  86 114 158 200 244 293 357
#     4  11  21  37  60  87 119 157 199 243 297 353
#
# _framework density 20.322028
#
# number of rings (size 3 to 8) (size 9 to 14) (size 15 to 20)
#    0.000    1.714    4.286    1.714    2.000    0.571 
#    0.000    0.000    0.000    0.000    0.000    0.000 
#    0.000    0.000    0.000    0.000    0.000    0.000 
#
# Total GULP energy -346988.168043 kJ/mol
# GULP energy per Si atom -12392.434573 kJ/mol
# Density = 2.027577 g / cm^3
# Si number density = 20.322028 Si / 1000 Ang^3
#
#
#
# Elastic Constant Matrix: (Units=GPa)
#
#
# Indices 1 2 3 4 5 6 
#
# 1 56.3394 26.7942 14.1863 0.0000 7.2136 0.0000
# 2 26.7942 137.3919 21.2323 0.0000 7.2002 0.0000
# 3 14.1863 21.2323 87.5634 0.0000 11.4385 0.0000
# 4 0.0000 0.0000 0.0000 23.8099 0.0000 -6.8055
# 5 7.2136 7.2002 11.4385 0.0000 11.2015 0.0000
# 6 0.0000 0.0000 0.0000 -6.8055 0.0000 23.9746
#
#
#
# Elastic Compliance Matrix: (Units=1/GPa)
#
#
# Indices 1 2 3 4 5 6 
#
# 1 0.020954 -0.003365 -0.001268 0.000000 -0.010037 0.000000
# 2 -0.003365 0.008219 -0.001201 0.000000 -0.001890 0.000000
# 3 -0.001268 -0.001201 0.013512 0.000000 -0.012209 0.000000
# 4 0.000000 0.000000 0.000000 0.045708 0.000000 0.012975
# 5 -0.010037 -0.001890 -0.012209 0.000000 0.109420 0.000000
# 6 0.000000 0.000000 0.000000 0.012975 0.000000 0.045394
#
#
# Mechanical properties :
#
#
# Convention : Reuss Voigt Hill
#
# Bulk Modulus (GPa) = 32.23899 45.08002 38.65951
# Shear Modulus (GPa) = 18.85280 26.40267 22.62773
#
# Velocity S-wave (km/s) = 3.04913 3.60837 3.34047
# Velocity P-wave (km/s) = 5.31928 6.29217 5.82607
#
# Compressibility (1/GPa) = 0.03101834
#
# Stress axis : x y z
#
# Youngs Moduli (GPa) = 47.72347 121.66545 74.00933
#
# Poissons Ratio (x) = 0.40935 0.09383
# Poissons Ratio (y) = 0.16057 0.08888
# Poissons Ratio (z) = 0.06051 0.14612
#
# Static dielectric constant tensor:
#      x y z
#    x 3.209930 0.000000 0.003670 
#    y 0.000000 3.989670 0.000000 
#    z 0.003670 0.000000 3.842200 
# 
# 
# High freq. dielectric constant tensor:
#      x y z
#    x 1.739990 0.000000 -0.002590 
#    y 0.000000 1.803170 0.000000 
#    z -0.002590 0.000000 1.802650 
# 
# From -- ./inp_files/160811.got.cif
#   From: 2010.06.25/outbox.cif.g09.slc.cpg/sg15_81_cif.got.tgz:160811.got - 2010.06.28 07:06:18.
