data_PCOD8134112
_publ_section_title
;
Structure prediction by ZEFSAII (Michael W. Deem and Ramdas Pophale) SiO2 
 PCOD8134112
Probable space group: C 2/C
;
_chemical_formula_sum "Si O2"
_cell_formula_units_Z 56
_cell_length_a 14.131409
_cell_length_b 9.404006
_cell_length_c 28.958910
_cell_angle_alpha 90.000000
_cell_angle_beta 45.881329
_cell_angle_gamma 90.000000
_cell_volume 2762.766715
_symmetry_space_group_name_H-M "C 2/C"
_symmetry_group_IT_number 15
_symmetry_cell_setting 'monoclinic'
loop_
_space_group_symop_operation_xyz
x,y,z
-x,y,1/2-z
-x,-y,-z
x,-y,1/2+z
1/2+x,1/2+y,z
1/2-x,1/2+y,1/2-z
1/2-x,1/2-y,-z
1/2+x,1/2-y,1/2+z
loop_
_atom_site_type_symbol
_atom_site_label
_atom_site_fract_x
_atom_site_fract_y
_atom_site_fract_z
Si Si1 0.364594 0.225485 0.422415
Si Si2 0.254285 0.764753 0.602916
Si Si3 0.763315 0.535023 0.717316
Si Si4 0.232139 0.096864 0.626930
Si Si5 0.434136 0.916206 0.391639
Si Si6 0.983819 0.641899 0.976270
Si Si7 0.337786 0.724570 0.671635
O O1 0.250000 0.250000 0.500000
O O2 0.361033 0.324957 0.378081
O O3 0.509615 0.251369 0.394954
O O4 0.362339 0.064813 0.404234
O O5 0.131839 0.705332 0.616478
O O6 0.396356 0.735852 0.530428
O O7 0.256517 0.693865 0.652554
O O8 0.245611 0.935121 0.605977
O O9 0.689186 0.589200 0.695559
O O10 0.677326 0.591141 0.789233
O O11 0.773032 0.364428 0.716691
O O12 0.911383 0.592828 0.671602
O O13 0.366160 0.191630 0.581652
O O14 0.409654 0.891444 0.453820
O O15 0.000000 0.500000 0.000000
#
# Coordination Sequence:
#
# PCOD8134112 Si02
#       7
#     8   8   8   8   8   8   8
#     4  11  21  37  58  86 114 146 182 230 288 338
#     4  10  19  35  56  83 109 148 189 232 280 327
#     4   9  21  40  56  79 108 151 192 227 280 334
#     4   9  19  35  57  78 110 149 188 230 278 342
#     4  10  21  35  57  83 113 144 184 234 280 332
#     4   9  16  33  56  78 108 147 183 220 274 337
#     4  10  22  39  60  79 114 151 188 232 276 334
#
# _framework density 20.269535999999999
#
# number of rings (size 3 to 8) (size 9 to 14) (size 15 to 20)
#    0.000    2.286    0.000    5.571    0.000    3.429 
#    0.000   11.429    0.000    0.000    0.000    0.000 
#    0.000    0.000    0.000    0.000    0.000    0.000 
#
# Total GULP energy -346939.642199 kJ/mol
# GULP energy per Si atom -12390.701507 kJ/mol
# Density = 2.022340 g / cm^3
# Si number density = 20.269536 Si / 1000 Ang^3
#
#
#
# Elastic Constant Matrix: (Units=GPa)
#
#
# Indices 1 2 3 4 5 6 
#
# 1 115.7911 37.7939 26.7405 0.0000 25.2285 0.0000
# 2 37.7939 50.6039 27.7905 0.0000 7.6104 0.0000
# 3 26.7405 27.7905 81.2457 0.0000 10.2635 0.0000
# 4 0.0000 0.0000 0.0000 27.4837 0.0000 -2.5460
# 5 25.2285 7.6104 10.2635 0.0000 29.5284 0.0000
# 6 0.0000 0.0000 0.0000 -2.5460 0.0000 36.7146
#
#
#
# Elastic Compliance Matrix: (Units=1/GPa)
#
#
# Indices 1 2 3 4 5 6 
#
# 1 0.013503 -0.008493 -0.000375 0.000000 -0.009218 0.000000
# 2 -0.008493 0.030031 -0.007757 0.000000 0.002212 0.000000
# 3 -0.000375 -0.007757 0.015471 0.000000 -0.003058 0.000000
# 4 0.000000 0.000000 0.000000 0.036621 0.000000 0.002539
# 5 -0.009218 0.002212 -0.003058 0.000000 0.042234 0.000000
# 6 0.000000 0.000000 0.000000 0.002539 0.000000 0.027413
#
#
# Mechanical properties :
#
#
# Convention : Reuss Voigt Hill
#
# Bulk Modulus (GPa) = 38.82408 48.03226 43.42817
# Shear Modulus (GPa) = 24.14205 29.09972 26.62088
#
# Velocity S-wave (km/s) = 3.45490 3.79309 3.62794
# Velocity P-wave (km/s) = 5.92542 6.55222 6.24669
#
# Compressibility (1/GPa) = 0.02575721
#
# Stress axis : x y z
#
# Youngs Moduli (GPa) = 74.05647 33.29861 64.63621
#
# Poissons Ratio (x) = 0.28280 0.02423
# Poissons Ratio (y) = 0.62895 0.50135
# Poissons Ratio (z) = 0.02776 0.25828
#
# Static dielectric constant tensor:
#      x y z
#    x 3.746310 0.000000 -0.004670 
#    y 0.000000 3.401220 0.000000 
#    z -0.004670 0.000000 3.747430 
# 
# 
# High freq. dielectric constant tensor:
#      x y z
#    x 1.799690 0.000000 0.007900 
#    y 0.000000 1.763720 0.000000 
#    z 0.007900 0.000000 1.787800 
# 
# From -- ./inp_files/312854.got.cif
#   From: 2010.06.25/outbox.cif.g09.slc.cpg/sg15_157_cif.got.tgz:312854.got - 2010.06.28 07:06:18.
