data_PCOD8134194
_publ_section_title
;
Structure prediction by ZEFSAII (Michael W. Deem and Ramdas Pophale) SiO2 
 PCOD8134194
Probable space group: C 2/C
;
_chemical_formula_sum "Si O2"
_cell_formula_units_Z 56
_cell_length_a 18.310819
_cell_length_b 17.541717
_cell_length_c 14.072530
_cell_angle_alpha 90.000000
_cell_angle_beta 140.886315
_cell_angle_gamma 90.000000
_cell_volume 2851.581800
_symmetry_space_group_name_H-M "C 2/C"
_symmetry_group_IT_number 15
_symmetry_cell_setting 'monoclinic'
loop_
_space_group_symop_operation_xyz
x,y,z
-x,y,1/2-z
-x,-y,-z
x,-y,1/2+z
1/2+x,1/2+y,z
1/2-x,1/2+y,1/2-z
1/2-x,1/2-y,-z
1/2+x,1/2-y,1/2+z
loop_
_atom_site_type_symbol
_atom_site_label
_atom_site_fract_x
_atom_site_fract_y
_atom_site_fract_z
Si Si1 0.752131 0.746506 0.315541
Si Si2 0.235313 0.507254 0.727269
Si Si3 0.341435 0.365359 0.918582
Si Si4 0.872512 0.792889 0.138744
Si Si5 0.593348 0.360834 0.122634
Si Si6 0.892751 0.616663 0.768996
Si Si7 0.656624 0.102643 0.992136
O O1 0.722548 0.711048 0.182381
O O2 0.863566 0.801383 0.414514
O O3 0.647098 0.797935 0.247151
O O4 0.769187 0.677561 0.406890
O O5 0.259056 0.437492 0.822024
O O6 0.350056 0.556844 0.832606
O O7 0.135484 0.558705 0.673740
O O8 0.199120 0.474033 0.587888
O O9 0.372302 0.360080 0.060442
O O10 0.457337 0.373418 0.972570
O O11 0.869612 0.828434 0.238708
O O12 0.000000 0.749470 0.250000
O O13 0.750000 0.750000 0.000000
O O14 0.834537 0.588213 0.611652
O O15 0.028789 0.621069 0.897556
#
# Coordination Sequence:
#
# PCOD8134194 Si02
#       7
#     8   8   8   8   8   8   8
#     4  10  19  35  58  80 106 136 183 226 283 326
#     4  10  22  36  56  78 112 144 184 218 278 330
#     4  10  20  35  56  79 110 144 183 229 277 330
#     4  10  20  36  56  84 114 149 190 235 284 333
#     4  10  20  35  56  79 110 144 183 229 277 330
#     4  10  21  37  56  80 109 143 182 227 275 330
#     4  10  21  37  56  80 109 143 182 227 275 330
#
# _framework density 19.638224000000001
#
# number of rings (size 3 to 8) (size 9 to 14) (size 15 to 20)
#    0.000    2.000    1.429    2.143    2.000    0.000 
#    0.000    1.429    0.000    5.143    0.000    0.000 
#    0.000    0.000    0.000    0.000    0.000    0.000 
#
# Total GULP energy -347051.586921 kJ/mol
# GULP energy per Si atom -12394.699533 kJ/mol
# Density = 1.959353 g / cm^3
# Si number density = 19.638224 Si / 1000 Ang^3
#
#
#
# Elastic Constant Matrix: (Units=GPa)
#
#
# Indices 1 2 3 4 5 6 
#
# 1 38.4778 25.3561 -5.2795 0.0000 9.6631 0.0000
# 2 25.3561 103.0654 22.3367 0.0000 0.6809 0.0000
# 3 -5.2795 22.3367 54.8588 0.0000 3.8937 0.0000
# 4 0.0000 0.0000 0.0000 11.0106 0.0000 8.2851
# 5 9.6631 0.6809 3.8937 0.0000 31.4823 0.0000
# 6 0.0000 0.0000 0.0000 8.2851 0.0000 15.6331
#
#
#
# Elastic Compliance Matrix: (Units=1/GPa)
#
#
# Indices 1 2 3 4 5 6 
#
# 1 0.037713 -0.011159 0.009057 0.000000 -0.012454 0.000000
# 2 -0.011159 0.013946 -0.007036 0.000000 0.003994 0.000000
# 3 0.009057 -0.007036 0.022348 0.000000 -0.005392 0.000000
# 4 0.000000 0.000000 0.000000 0.151062 0.000000 -0.080058
# 5 -0.012454 0.003994 -0.005392 0.000000 0.036167 0.000000
# 6 0.000000 0.000000 0.000000 -0.080058 0.000000 0.106395
#
#
# Mechanical properties :
#
#
# Convention : Reuss Voigt Hill
#
# Bulk Modulus (GPa) = 17.94324 31.24764 24.59544
# Shear Modulus (GPa) = 12.36146 21.89112 17.12629
#
# Velocity S-wave (km/s) = 2.51162 3.34236 2.95632
# Velocity P-wave (km/s) = 4.19139 5.55350 4.91981
#
# Compressibility (1/GPa) = 0.05573129
#
# Stress axis : x y z
#
# Youngs Moduli (GPa) = 26.51633 71.70394 44.74746
#
# Poissons Ratio (x) = 0.80011 -0.40527
# Poissons Ratio (y) = 0.29588 0.31483
# Poissons Ratio (z) = -0.24015 0.50449
#
# Static dielectric constant tensor:
#      x y z
#    x 3.661050 0.000000 0.045320 
#    y 0.000000 3.427370 0.000000 
#    z 0.045320 0.000000 3.659480 
# 
# 
# High freq. dielectric constant tensor:
#      x y z
#    x 1.769220 0.000000 0.004130 
#    y 0.000000 1.756770 0.000000 
#    z 0.004130 0.000000 1.767160 
# 
# From -- ./inp_files/163108.got.cif
#   From: 2010.06.25/outbox.cif.g09.slc.cpg/sg15_82_cif.got.tgz:163108.got - 2010.06.28 07:06:18.
