data_PCOD8134689
_publ_section_title
;
Structure prediction by ZEFSAII (Michael W. Deem and Ramdas Pophale) SiO2 
 PCOD8134689
Probable space group: C 2/C
;
_chemical_formula_sum "Si O2"
_cell_formula_units_Z 56
_cell_length_a 11.619432
_cell_length_b 19.555994
_cell_length_c 12.773862
_cell_angle_alpha 90.000000
_cell_angle_beta 86.513540
_cell_angle_gamma 90.000000
_cell_volume 2897.226680
_symmetry_space_group_name_H-M "C 2/C"
_symmetry_group_IT_number 15
_symmetry_cell_setting 'monoclinic'
loop_
_space_group_symop_operation_xyz
x,y,z
-x,y,1/2-z
-x,-y,-z
x,-y,1/2+z
1/2+x,1/2+y,z
1/2-x,1/2+y,1/2-z
1/2-x,1/2-y,-z
1/2+x,1/2-y,1/2+z
loop_
_atom_site_type_symbol
_atom_site_label
_atom_site_fract_x
_atom_site_fract_y
_atom_site_fract_z
Si Si1 0.501127 0.871134 0.035501
Si Si2 0.392070 0.029479 0.682983
Si Si3 0.230566 0.273365 0.675820
Si Si4 0.306212 0.847976 0.310421
Si Si5 0.315501 0.883304 0.654697
Si Si6 0.090803 0.232673 0.500678
Si Si7 0.332007 0.316450 0.997898
O O1 0.440176 0.943528 0.067518
O O2 0.576045 0.846653 0.130308
O O3 0.404876 0.813357 0.026838
O O4 0.573145 0.873794 0.924896
O O5 0.500000 0.010840 0.750000
O O6 0.309293 0.088505 0.732017
O O7 0.310518 0.963453 0.680696
O O8 0.296409 0.224415 0.752992
O O9 0.173168 0.336890 0.741688
O O10 0.133289 0.228805 0.619282
O O11 0.321023 0.303452 0.585063
O O12 0.197699 0.857739 0.394483
O O13 0.197851 0.863083 0.600838
O O14 0.965606 0.200800 0.492830
O O15 0.250000 0.250000 0.000000
#
# Coordination Sequence:
#
# PCOD8134689 Si02
#       7
#     8   8   8   8   8   8   8
#     4  10  19  36  60  86 124 152 195 244 308 366
#     4  10  22  35  59  90 126 159 190 249 313 359
#     4  11  23  36  59  88 124 156 200 253 289 352
#     4  10  19  38  58  87 116 160 194 233 308 362
#     4  11  22  36  57  93 119 155 196 245 308 359
#     4  11  22  37  58  91 119 155 200 250 300 348
#     4  11  20  37  61  87 118 156 201 247 294 359
#
# _framework density 19.328828999999999
#
# number of rings (size 3 to 8) (size 9 to 14) (size 15 to 20)
#    0.000    1.429    5.714    0.429    2.000    3.429 
#    0.000    0.000    0.000    5.143    0.000    0.000 
#    0.000    0.000    0.000    0.000    0.000    0.000 
#
# Total GULP energy -347086.577411 kJ/mol
# GULP energy per Si atom -12395.949193 kJ/mol
# Density = 1.928484 g / cm^3
# Si number density = 19.328829 Si / 1000 Ang^3
#
#
#
# Elastic Constant Matrix: (Units=GPa)
#
#
# Indices 1 2 3 4 5 6 
#
# 1 96.3074 35.3473 38.0675 0.0000 -5.2220 0.0000
# 2 35.3473 110.8312 42.0793 0.0000 -7.7040 0.0000
# 3 38.0675 42.0793 112.9042 0.0000 -18.9492 0.0000
# 4 0.0000 0.0000 0.0000 29.7846 0.0000 -2.3155
# 5 -5.2220 -7.7040 -18.9492 0.0000 23.6977 0.0000
# 6 0.0000 0.0000 0.0000 -2.3155 0.0000 30.2198
#
#
#
# Elastic Compliance Matrix: (Units=1/GPa)
#
#
# Indices 1 2 3 4 5 6 
#
# 1 0.012709 -0.002832 -0.003366 0.000000 -0.000811 0.000000
# 2 -0.002832 0.011143 -0.003113 0.000000 0.000510 0.000000
# 3 -0.003366 -0.003113 0.012541 0.000000 0.008274 0.000000
# 4 0.000000 0.000000 0.000000 0.033776 0.000000 0.002588
# 5 -0.000811 0.000510 0.008274 0.000000 0.048801 0.000000
# 6 0.000000 0.000000 0.000000 0.002588 0.000000 0.033289
#
#
# Mechanical properties :
#
#
# Convention : Reuss Voigt Hill
#
# Bulk Modulus (GPa) = 56.26761 61.22565 58.74663
# Shear Modulus (GPa) = 28.27990 30.37701 29.32846
#
# Velocity S-wave (km/s) = 3.82919 3.96863 3.89953
# Velocity P-wave (km/s) = 6.98027 7.26255 7.12281
#
# Compressibility (1/GPa) = 0.01777222
#
# Stress axis : x y z
#
# Youngs Moduli (GPa) = 78.68309 89.74161 79.74010
#
# Poissons Ratio (x) = 0.25413 0.26840
# Poissons Ratio (y) = 0.22282 0.24821
# Poissons Ratio (z) = 0.26484 0.27934
#
# Static dielectric constant tensor:
#      x y z
#    x 3.447510 0.000000 -0.104460 
#    y 0.000000 3.515080 0.000000 
#    z -0.104460 0.000000 4.001250 
# 
# 
# High freq. dielectric constant tensor:
#      x y z
#    x 1.730840 0.000000 -0.004020 
#    y 0.000000 1.728400 0.000000 
#    z -0.004020 0.000000 1.773010 
# 
# From -- ./inp_files/88978.got.cif
#   From: 2010.06.25/outbox.cif.g09.slc.cpg/sg15_45_cif.got.tgz:88978.got - 2010.06.28 07:06:18.
