data_PCOD8134530
_publ_section_title
;
Structure prediction by ZEFSAII (Michael W. Deem and Ramdas Pophale) SiO2 
 PCOD8134530
Probable space group: C 2/C
;
_chemical_formula_sum "Si O2"
_cell_formula_units_Z 48
_cell_length_a 12.824690
_cell_length_b 22.881310
_cell_length_c 9.150929
_cell_angle_alpha 90.000000
_cell_angle_beta 109.477576
_cell_angle_gamma 90.000000
_cell_volume 2531.626605
_symmetry_space_group_name_H-M "C 2/C"
_symmetry_group_IT_number 15
_symmetry_cell_setting 'monoclinic'
loop_
_space_group_symop_operation_xyz
x,y,z
-x,y,1/2-z
-x,-y,-z
x,-y,1/2+z
1/2+x,1/2+y,z
1/2-x,1/2+y,1/2-z
1/2-x,1/2-y,-z
1/2+x,1/2-y,1/2+z
loop_
_atom_site_type_symbol
_atom_site_label
_atom_site_fract_x
_atom_site_fract_y
_atom_site_fract_z
Si Si1 0.878621 0.781014 0.149699
Si Si2 0.625204 0.291628 0.843241
Si Si3 0.760254 0.323725 0.166779
Si Si4 0.384177 0.059353 0.119177
Si Si5 0.742018 0.170165 0.349998
Si Si6 0.615686 0.939785 0.232179
O O1 0.779988 0.813768 0.187991
O O2 0.864387 0.711395 0.167190
O O3 0.000000 0.801369 0.250000
O O4 0.853405 0.802103 0.974271
O O5 0.500000 0.309429 0.750000
O O6 0.642087 0.221845 0.829079
O O7 0.719701 0.328464 0.800257
O O8 0.650633 0.310659 0.020363
O O9 0.799873 0.390063 0.178001
O O10 0.500000 0.077404 0.250000
O O11 0.289068 0.105683 0.113023
O O12 0.342159 0.999439 0.173376
O O13 0.397059 0.053572 0.949640
O O14 0.500000 0.922471 0.250000
#
# Coordination Sequence:
#
# PCOD8134530 Si02
#       6
#     8   8   8   8   8   8
#     4  10  19  36  57  84 114 150 186 233 282 338
#     4  10  21  36  57  88 118 152 189 230 286 339
#     4  10  21  37  58  85 118 152 187 236 284 339
#     4  11  23  39  60  88 113 150 189 237 289 340
#     4  10  21  35  58  85 116 146 189 231 284 340
#     4  11  23  39  61  86 115 149 190 236 289 339
#
# _framework density 18.960142000000001
#
# number of rings (size 3 to 8) (size 9 to 14) (size 15 to 20)
#    0.000    1.667    1.667    4.000    4.667    0.000 
#    6.000    0.000    0.000    6.000    0.000    0.000 
#    0.000    0.000    0.000    0.000    0.000    0.000 
#
# Total GULP energy -297487.094867 kJ/mol
# GULP energy per Si atom -12395.295619 kJ/mol
# Density = 1.891699 g / cm^3
# Si number density = 18.960142 Si / 1000 Ang^3
#
#
#
# Elastic Constant Matrix: (Units=GPa)
#
#
# Indices 1 2 3 4 5 6 
#
# 1 54.7696 45.7352 26.3386 0.0000 11.5282 0.0000
# 2 45.7352 122.5222 30.6608 0.0000 1.2109 0.0000
# 3 26.3386 30.6608 77.9069 0.0000 -5.2834 0.0000
# 4 0.0000 0.0000 0.0000 21.4769 0.0000 -1.5928
# 5 11.5282 1.2109 -5.2834 0.0000 30.3180 0.0000
# 6 0.0000 0.0000 0.0000 -1.5928 0.0000 24.7914
#
#
#
# Elastic Compliance Matrix: (Units=1/GPa)
#
#
# Indices 1 2 3 4 5 6 
#
# 1 0.033892 -0.010438 -0.008294 0.000000 -0.013916 0.000000
# 2 -0.010438 0.012298 -0.001088 0.000000 0.003288 0.000000
# 3 -0.008294 -0.001088 0.016480 0.000000 0.006069 0.000000
# 4 0.000000 0.000000 0.000000 0.046785 0.000000 0.003006
# 5 -0.013916 0.003288 0.006069 0.000000 0.039201 0.000000
# 6 0.000000 0.000000 0.000000 0.003006 0.000000 0.040530
#
#
# Mechanical properties :
#
#
# Convention : Reuss Voigt Hill
#
# Bulk Modulus (GPa) = 43.42253 51.18533 47.30393
# Shear Modulus (GPa) = 21.14139 25.48151 23.31145
#
# Velocity S-wave (km/s) = 3.34285 3.66997 3.51022
# Velocity P-wave (km/s) = 6.15234 6.70918 6.43678
#
# Compressibility (1/GPa) = 0.02302952
#
# Stress axis : x y z
#
# Youngs Moduli (GPa) = 29.50507 81.31409 60.68116
#
# Poissons Ratio (x) = 0.84879 0.50328
# Poissons Ratio (y) = 0.30798 0.06602
# Poissons Ratio (z) = 0.24471 0.08847
#
# Static dielectric constant tensor:
#      x y z
#    x 3.139920 0.000000 -0.182150 
#    y 0.000000 3.349680 0.000000 
#    z -0.182150 0.000000 3.624070 
# 
# 
# High freq. dielectric constant tensor:
#      x y z
#    x 1.720890 0.000000 -0.013650 
#    y 0.000000 1.722520 0.000000 
#    z -0.013650 0.000000 1.759290 
# 
# From -- ./inp_files/32554.got.cif
#   From: 2010.06.25/outbox.cif.g09.slc.cpg/sg15_17_cif.got.tgz:32554.got - 2010.06.28 07:06:18.
