data_PCOD8134119
_publ_section_title
;
Structure prediction by ZEFSAII (Michael W. Deem and Ramdas Pophale) SiO2 
 PCOD8134119
Probable space group: C 2/C
;
_chemical_formula_sum "Si O2"
_cell_formula_units_Z 56
_cell_length_a 22.819115
_cell_length_b 9.885429
_cell_length_c 14.968821
_cell_angle_alpha 90.000000
_cell_angle_beta 121.352719
_cell_angle_gamma 90.000000
_cell_volume 2883.565635
_symmetry_space_group_name_H-M "C 2/C"
_symmetry_group_IT_number 15
_symmetry_cell_setting 'monoclinic'
loop_
_space_group_symop_operation_xyz
x,y,z
-x,y,1/2-z
-x,-y,-z
x,-y,1/2+z
1/2+x,1/2+y,z
1/2-x,1/2+y,1/2-z
1/2-x,1/2-y,-z
1/2+x,1/2-y,1/2+z
loop_
_atom_site_type_symbol
_atom_site_label
_atom_site_fract_x
_atom_site_fract_y
_atom_site_fract_z
Si Si1 0.629289 0.516415 0.748352
Si Si2 0.747283 0.603551 0.113231
Si Si3 0.987728 0.047053 0.088614
Si Si4 0.432584 0.302269 0.155148
Si Si5 0.851490 0.130240 0.928812
Si Si6 0.678012 0.874068 0.004022
Si Si7 0.274938 0.100771 0.340112
O O1 0.561816 0.415132 0.692110
O O2 0.622370 0.629618 0.820130
O O3 0.633978 0.604656 0.663106
O O4 0.696997 0.424185 0.813470
O O5 0.682161 0.503624 0.054148
O O6 0.798104 0.565376 0.072717
O O7 0.781732 0.588238 0.238339
O O8 0.727185 0.759264 0.083774
O O9 0.961416 0.917108 0.116750
O O10 0.925149 0.157365 0.038256
O O11 0.000000 0.000000 0.000000
O O12 0.500000 0.231433 0.250000
O O13 0.397323 0.186641 0.068467
O O14 0.799450 0.254728 0.896549
O O15 0.674911 0.990584 0.075932
#
# Coordination Sequence:
#
# PCOD8134119 Si02
#       7
#     8   8   8   8   8   8   8
#     4   9  19  35  57  85 108 155 200 239 273 344
#     4  10  20  37  58  85 116 156 206 237 280 358
#     4   9  18  34  57  80 107 147 197 244 276 334
#     4  10  19  36  62  83 109 154 215 239 273 354
#     4  10  19  35  56  84 117 149 189 246 294 339
#     4  11  21  36  61  85 117 158 197 244 296 344
#     4  11  22  34  58  92 127 148 188 250 309 345
#
# _framework density 19.420400000000001
#
# number of rings (size 3 to 8) (size 9 to 14) (size 15 to 20)
#    0.000    2.000    1.429    4.286    0.000    0.571 
#    0.000    0.000    3.143    8.571    0.000    0.000 
#    0.000    0.000    0.000    0.000    0.000    0.000 
#
# Total GULP energy -346917.419120 kJ/mol
# GULP energy per Si atom -12389.907826 kJ/mol
# Density = 1.937620 g / cm^3
# Si number density = 19.420400 Si / 1000 Ang^3
#
#
#
# Elastic Constant Matrix: (Units=GPa)
#
#
# Indices 1 2 3 4 5 6 
#
# 1 75.3749 28.4691 37.7878 0.0000 11.3259 0.0000
# 2 28.4691 66.4434 30.7727 0.0000 9.4652 0.0000
# 3 37.7878 30.7727 95.6102 0.0000 18.4375 0.0000
# 4 0.0000 0.0000 0.0000 37.5322 0.0000 1.4779
# 5 11.3259 9.4652 18.4375 0.0000 46.1086 0.0000
# 6 0.0000 0.0000 0.0000 1.4779 0.0000 13.1138
#
#
#
# Elastic Compliance Matrix: (Units=1/GPa)
#
#
# Indices 1 2 3 4 5 6 
#
# 1 0.018011 -0.005114 -0.005225 0.000000 -0.001285 0.000000
# 2 -0.005114 0.019231 -0.003954 0.000000 -0.001110 0.000000
# 3 -0.005225 -0.003954 0.014512 0.000000 -0.003708 0.000000
# 4 0.000000 0.000000 0.000000 0.026763 0.000000 -0.003016
# 5 -0.001285 -0.001110 -0.003708 0.000000 0.023714 0.000000
# 6 0.000000 0.000000 0.000000 -0.003016 0.000000 0.076596
#
#
# Mechanical properties :
#
#
# Convention : Reuss Voigt Hill
#
# Bulk Modulus (GPa) = 43.16358 47.94308 45.55333
# Shear Modulus (GPa) = 23.24117 28.71084 25.97600
#
# Velocity S-wave (km/s) = 3.46315 3.84915 3.66124
# Velocity P-wave (km/s) = 6.18590 6.67047 6.43275
#
# Compressibility (1/GPa) = 0.02316768
#
# Stress axis : x y z
#
# Youngs Moduli (GPa) = 55.52137 51.99848 68.90986
#
# Poissons Ratio (x) = 0.26594 0.36002
# Poissons Ratio (y) = 0.28396 0.27248
# Poissons Ratio (z) = 0.29007 0.20561
#
# Static dielectric constant tensor:
#      x y z
#    x 4.231950 0.000000 0.436390 
#    y 0.000000 3.213950 0.000000 
#    z 0.436390 0.000000 4.052320 
# 
# 
# High freq. dielectric constant tensor:
#      x y z
#    x 1.758970 0.000000 0.000250 
#    y 0.000000 1.709180 0.000000 
#    z 0.000250 0.000000 1.775650 
# 
# From -- ./inp_files/218335.got.cif
#   From: 2010.06.25/outbox.cif.g09.slc.cpg/sg15_110_cif.got.tgz:218335.got - 2010.06.28 07:06:18.
