data_PCOD8134536
_publ_section_title
;
Structure prediction by ZEFSAII (Michael W. Deem and Ramdas Pophale) SiO2 
 PCOD8134536
Probable space group: C 2/C
;
_chemical_formula_sum "Si O2"
_cell_formula_units_Z 56
_cell_length_a 8.007897
_cell_length_b 15.253850
_cell_length_c 25.158612
_cell_angle_alpha 90.000000
_cell_angle_beta 59.545031
_cell_angle_gamma 90.000000
_cell_volume 2649.145997
_symmetry_space_group_name_H-M "C 2/C"
_symmetry_group_IT_number 15
_symmetry_cell_setting 'monoclinic'
loop_
_space_group_symop_operation_xyz
x,y,z
-x,y,1/2-z
-x,-y,-z
x,-y,1/2+z
1/2+x,1/2+y,z
1/2-x,1/2+y,1/2-z
1/2-x,1/2-y,-z
1/2+x,1/2-y,1/2+z
loop_
_atom_site_type_symbol
_atom_site_label
_atom_site_fract_x
_atom_site_fract_y
_atom_site_fract_z
Si Si1 0.986704 0.503017 0.106685
Si Si2 0.696947 0.310262 0.787662
Si Si3 0.160976 0.890178 0.608297
Si Si4 0.628821 0.580161 0.993830
Si Si5 0.872937 0.787797 0.094229
Si Si6 0.039200 0.321769 0.654398
Si Si7 0.000852 0.626152 0.807334
O O1 0.799678 0.528528 0.101473
O O2 0.089289 0.589768 0.114201
O O3 0.905056 0.442003 0.166959
O O4 0.143542 0.445659 0.048619
O O5 0.521953 0.380352 0.821995
O O6 0.832371 0.339156 0.716927
O O7 0.621723 0.214838 0.784953
O O8 0.802444 0.300752 0.827211
O O9 0.081372 0.899108 0.562118
O O10 0.280553 0.801488 0.589442
O O11 0.550756 0.662042 0.970654
O O12 0.500000 0.500000 0.000000
O O13 0.029620 0.760832 0.114526
O O14 0.721704 0.856062 0.142905
O O15 0.000000 0.580061 0.750000
#
# Coordination Sequence:
#
# PCOD8134536 Si02
#       7
#     8   8   8   8   8   8   8
#     4  10  23  37  59  85 117 159 194 250 303 350
#     4  10  21  36  61  84 119 155 194 244 289 367
#     4  10  21  40  60  84 116 158 203 232 295 364
#     4  11  22  39  59  87 119 152 199 257 295 344
#     4   9  20  37  62  81 113 155 194 233 295 354
#     4  10  20  39  58  89 118 154 199 238 301 361
#     4  10  19  36  57  85 116 151 189 239 303 355
#
# _framework density 21.138887
#
# number of rings (size 3 to 8) (size 9 to 14) (size 15 to 20)
#    0.000    2.000    1.429    1.714    2.000    1.143 
#    0.000   10.714    0.000    0.000    0.000    0.000 
#    0.000    0.000    0.000    0.000    0.000    0.000 
#
# Total GULP energy -347104.238226 kJ/mol
# GULP energy per Si atom -12396.579937 kJ/mol
# Density = 2.109077 g / cm^3
# Si number density = 21.138887 Si / 1000 Ang^3
#
#
#
# Elastic Constant Matrix: (Units=GPa)
#
#
# Indices 1 2 3 4 5 6 
#
# 1 65.8704 10.0276 12.0525 -0.0003 10.0823 0.0002
# 2 10.0276 59.6366 23.9223 -0.0003 2.4161 0.0003
# 3 12.0525 23.9223 68.7017 -0.0001 14.6171 0.0003
# 4 -0.0003 -0.0003 -0.0001 30.0512 0.0001 11.1239
# 5 10.0823 2.4161 14.6171 0.0001 35.0254 -0.0001
# 6 0.0002 0.0003 0.0003 11.1239 -0.0001 28.6684
#
#
#
# Elastic Compliance Matrix: (Units=1/GPa)
#
#
# Indices 1 2 3 4 5 6 
#
# 1 0.016348 -0.002068 -0.001292 0.000000 -0.004024 0.000000
# 2 -0.002068 0.019838 -0.007002 0.000000 0.002149 0.000000
# 3 -0.001292 -0.007002 0.018699 0.000000 -0.006949 0.000000
# 4 0.000000 0.000000 0.000000 0.038858 0.000000 -0.015078
# 5 -0.004024 0.002149 -0.006949 0.000000 0.032461 0.000000
# 6 0.000000 0.000000 0.000000 -0.015078 0.000000 0.040732
#
#
# Mechanical properties :
#
#
# Convention : Reuss Voigt Hill
#
# Bulk Modulus (GPa) = 29.27246 31.80149 30.53698
# Shear Modulus (GPa) = 25.11984 28.62942 26.87463
#
# Velocity S-wave (km/s) = 3.45095 3.68414 3.56945
# Velocity P-wave (km/s) = 5.45495 5.75968 5.60938
#
# Compressibility (1/GPa) = 0.03416180
#
# Stress axis : x y z
#
# Youngs Moduli (GPa) = 61.16793 50.40934 53.47908
#
# Poissons Ratio (x) = 0.10423 0.06909
# Poissons Ratio (y) = 0.12647 0.37446
# Poissons Ratio (z) = 0.07902 0.35297
#
# Static dielectric constant tensor:
#      x y z
#    x 3.607260 0.000000 -0.207420 
#    y 0.000000 3.785510 0.000000 
#    z -0.207420 0.000000 3.573860 
# 
# 
# High freq. dielectric constant tensor:
#      x y z
#    x 1.821980 0.000000 0.016160 
#    y 0.000000 1.821430 0.000000 
#    z 0.016160 0.000000 1.834910 
# 
# From -- ./inp_files/264390.got.cif
#   From: 2010.06.25/outbox.cif.g09.slc.cpg/sg15_133_cif.got.tgz:264390.got - 2010.06.28 07:06:18.
