data_PCOD8134906
_publ_section_title
;
Structure prediction by ZEFSAII (Michael W. Deem and Ramdas Pophale) SiO2 
 PCOD8134906
Probable space group: C 2/C
;
_chemical_formula_sum "Si O2"
_cell_formula_units_Z 64
_cell_length_a 27.168266
_cell_length_b 15.276662
_cell_length_c 9.254008
_cell_angle_alpha 90.000000
_cell_angle_beta 56.923399
_cell_angle_gamma 90.000000
_cell_volume 3218.355752
_symmetry_space_group_name_H-M "C 2/C"
_symmetry_group_IT_number 15
_symmetry_cell_setting 'monoclinic'
loop_
_space_group_symop_operation_xyz
x,y,z
-x,y,1/2-z
-x,-y,-z
x,-y,1/2+z
1/2+x,1/2+y,z
1/2-x,1/2+y,1/2-z
1/2-x,1/2-y,-z
1/2+x,1/2-y,1/2+z
loop_
_atom_site_type_symbol
_atom_site_label
_atom_site_fract_x
_atom_site_fract_y
_atom_site_fract_z
Si Si1 0.935826 0.782589 0.886911
Si Si2 0.771805 0.810559 0.271282
Si Si3 0.765917 0.044127 0.009059
Si Si4 0.880324 0.736089 0.257595
Si Si5 0.171683 0.182966 0.409802
Si Si6 0.167644 0.866416 0.595030
Si Si7 0.370231 0.041683 0.228317
Si Si8 0.431459 0.915096 0.337443
O O1 0.892884 0.858780 0.897745
O O2 0.923203 0.689229 0.830002
O O3 0.000000 0.818002 0.750000
O O4 0.930940 0.769529 0.068000
O O5 0.770661 0.904785 0.349753
O O6 0.818264 0.746861 0.273680
O O7 0.791760 0.730210 0.612970
O O8 0.784362 0.816722 0.079763
O O9 0.790840 0.098644 0.104492
O O10 0.698915 0.017354 0.150996
O O11 0.810244 0.964072 0.917094
O O12 0.884287 0.797662 0.395336
O O13 0.886084 0.632933 0.284245
O O14 0.155589 0.178542 0.268367
O O15 0.408488 0.962907 0.231455
O O16 0.389805 0.050006 0.031509
O O17 0.500000 0.937800 0.250000
#
# Coordination Sequence:
#
# PCOD8134906 Si02
#       8
#     8   8   8   8   8   8   8   8
#     4   9  21  44  62  79 112 164 203 240 301 355
#     4  10  19  37  55  79 123 165 189 224 303 364
#     4  11  22  36  56  88 126 160 185 239 311 358
#     4   9  18  36  60  80 112 164 192 230 296 358
#     4  11  20  37  58  86 125 154 195 234 300 359
#     4  11  24  33  59  91 120 145 203 261 284 342
#     4  11  21  35  59  84 117 157 199 239 296 353
#     4  10  23  39  58  83 119 159 205 247 286 342
#
# _framework density 19.885930999999999
#
# number of rings (size 3 to 8) (size 9 to 14) (size 15 to 20)
#    0.000    1.750    2.500    2.250    3.500    2.000 
#    0.000    0.625    0.000   12.000    0.000    0.000 
#    0.000    0.000    0.000    0.000    0.000    0.000 
#
# Total GULP energy -396715.223062 kJ/mol
# GULP energy per Si atom -12397.350721 kJ/mol
# Density = 1.984067 g / cm^3
# Si number density = 19.885931 Si / 1000 Ang^3
#
#
#
# Elastic Constant Matrix: (Units=GPa)
#
#
# Indices 1 2 3 4 5 6 
#
# 1 47.0040 30.0127 26.7384 0.0000 -17.3087 0.0000
# 2 30.0127 80.8288 26.9026 0.0000 -2.8732 0.0000
# 3 26.7384 26.9026 114.4456 0.0000 -0.9359 0.0000
# 4 0.0000 0.0000 0.0000 19.8531 0.0000 2.6910
# 5 -17.3087 -2.8732 -0.9359 0.0000 37.0315 0.0000
# 6 0.0000 0.0000 0.0000 2.6910 0.0000 25.5440
#
#
#
# Elastic Compliance Matrix: (Units=1/GPa)
#
#
# Indices 1 2 3 4 5 6 
#
# 1 0.038381 -0.011622 -0.006097 0.000000 0.016884 0.000000
# 2 -0.011622 0.016975 -0.001309 0.000000 -0.004148 0.000000
# 3 -0.006097 -0.001309 0.010448 0.000000 -0.002687 0.000000
# 4 0.000000 0.000000 0.000000 0.051100 0.000000 -0.005383
# 5 0.016884 -0.004148 -0.002687 0.000000 0.034506 0.000000
# 6 0.000000 0.000000 0.000000 -0.005383 0.000000 0.039715
#
#
# Mechanical properties :
#
#
# Convention : Reuss Voigt Hill
#
# Bulk Modulus (GPa) = 36.03806 45.50955 40.77380
# Shear Modulus (GPa) = 20.97041 27.06068 24.01554
#
# Velocity S-wave (km/s) = 3.25088 3.69290 3.47892
# Velocity P-wave (km/s) = 5.67915 6.41236 6.05686
#
# Compressibility (1/GPa) = 0.02774844
#
# Stress axis : x y z
#
# Youngs Moduli (GPa) = 26.05442 58.90864 95.71187
#
# Poissons Ratio (x) = 0.68463 0.58357
# Poissons Ratio (y) = 0.30280 0.12529
# Poissons Ratio (z) = 0.15886 0.07711
#
# Static dielectric constant tensor:
#      x y z
#    x 3.261590 0.000000 -0.090560 
#    y 0.000000 3.522440 0.000000 
#    z -0.090560 0.000000 3.930290 
# 
# 
# High freq. dielectric constant tensor:
#      x y z
#    x 1.737010 0.000000 -0.004840 
#    y 0.000000 1.766920 0.000000 
#    z -0.004840 0.000000 1.797140 
# 
# From -- ./inp_files/66198.got.cif
#   From: 2010.06.25/outbox.cif.g09.slc.cpg/sg15_34_cif.got.tgz:66198.got - 2010.06.28 07:06:18.
