data_PCOD8134518
_publ_section_title
;
Structure prediction by ZEFSAII (Michael W. Deem and Ramdas Pophale) SiO2 
 PCOD8134518
Probable space group: C 2/C
;
_chemical_formula_sum "Si O2"
_cell_formula_units_Z 56
_cell_length_a 15.832824
_cell_length_b 14.744241
_cell_length_c 14.793323
_cell_angle_alpha 90.000000
_cell_angle_beta 118.574544
_cell_angle_gamma 90.000000
_cell_volume 3032.758199
_symmetry_space_group_name_H-M "C 2/C"
_symmetry_group_IT_number 15
_symmetry_cell_setting 'monoclinic'
loop_
_space_group_symop_operation_xyz
x,y,z
-x,y,1/2-z
-x,-y,-z
x,-y,1/2+z
1/2+x,1/2+y,z
1/2-x,1/2+y,1/2-z
1/2-x,1/2-y,-z
1/2+x,1/2-y,1/2+z
loop_
_atom_site_type_symbol
_atom_site_label
_atom_site_fract_x
_atom_site_fract_y
_atom_site_fract_z
Si Si1 0.061932 0.438898 0.889592
Si Si2 0.127312 0.478185 0.257179
Si Si3 0.000000 0.279487 0.750000
Si Si4 0.180063 0.865201 0.904453
Si Si5 0.368106 0.368120 0.252403
Si Si6 0.702391 0.020521 0.606926
Si Si7 0.500000 0.480937 0.750000
Si Si8 0.752866 0.185068 0.867843
O O1 0.141530 0.454663 0.850493
O O2 0.983432 0.519187 0.834715
O O3 0.015365 0.340491 0.847832
O O4 0.104724 0.441459 0.011866
O O5 0.190019 0.512096 0.204096
O O6 0.160672 0.378938 0.304891
O O7 0.907929 0.217921 0.719871
O O8 0.203449 0.784436 0.845180
O O9 0.077285 0.913879 0.836193
O O10 0.265407 0.936730 0.936603
O O11 0.186635 0.830193 0.009877
O O12 0.279413 0.398954 0.144785
O O13 0.445566 0.452520 0.295012
O O14 0.332788 0.333916 0.332073
#
# Coordination Sequence:
#
# PCOD8134518 Si02
#       8
#     8   8   4   8   8   8   4   8
#     4  10  20  33  56  82 107 143 181 231 274 332
#     4   9  19  34  52  80 111 142 179 226 279 326
#     4   9  20  36  53  80 108 146 183 234 272 321
#     4  10  21  35  57  80 113 146 188 230 282 330
#     4   9  20  38  58  76 114 147 188 227 278 331
#     4  10  19  36  57  79 110 148 184 225 279 336
#     4   9  20  40  57  80 108 156 183 236 278 341
#     4  10  20  36  54  84 109 147 184 233 276 337
#
# _framework density 18.465039000000001
#
# number of rings (size 3 to 8) (size 9 to 14) (size 15 to 20)
#    0.000    2.571    1.429    0.429    4.000    2.286 
#    0.000    1.429    0.000    0.000    0.000    0.000 
#    0.000    0.000    0.000    0.000    0.000    0.000 
#
# Total GULP energy -346883.307627 kJ/mol
# GULP energy per Si atom -12388.689558 kJ/mol
# Density = 1.842301 g / cm^3
# Si number density = 18.465039 Si / 1000 Ang^3
#
#
#
# Elastic Constant Matrix: (Units=GPa)
#
#
# Indices 1 2 3 4 5 6 
#
# 1 87.9164 44.1331 34.5383 0.0000 4.2073 0.0000
# 2 44.1331 94.3358 39.9240 0.0000 10.0794 0.0000
# 3 34.5383 39.9240 76.6858 0.0000 6.6424 0.0000
# 4 0.0000 0.0000 0.0000 21.7545 0.0000 0.1168
# 5 4.2073 10.0794 6.6424 0.0000 26.9462 0.0000
# 6 0.0000 0.0000 0.0000 0.1168 0.0000 28.6281
#
#
#
# Elastic Compliance Matrix: (Units=1/GPa)
#
#
# Indices 1 2 3 4 5 6 
#
# 1 0.015870 -0.005706 -0.004238 0.000000 0.000701 0.000000
# 2 -0.005706 0.015962 -0.005416 0.000000 -0.003745 0.000000
# 3 -0.004238 -0.005416 0.017918 0.000000 -0.001729 0.000000
# 4 0.000000 0.000000 0.000000 0.045969 0.000000 -0.000188
# 5 0.000701 -0.003745 -0.001729 0.000000 0.038829 0.000000
# 6 0.000000 0.000000 0.000000 -0.000188 0.000000 0.034931
#
#
# Mechanical properties :
#
#
# Convention : Reuss Voigt Hill
#
# Bulk Modulus (GPa) = 52.54538 55.12542 53.83540
# Shear Modulus (GPa) = 24.20818 24.82193 24.51506
#
# Velocity S-wave (km/s) = 3.62474 3.67040 3.64764
# Velocity P-wave (km/s) = 6.78504 6.91963 6.85266
#
# Compressibility (1/GPa) = 0.01903117
#
# Stress axis : x y z
#
# Youngs Moduli (GPa) = 63.01188 62.64881 55.80900
#
# Poissons Ratio (x) = 0.35747 0.23651
# Poissons Ratio (y) = 0.35954 0.30225
# Poissons Ratio (z) = 0.26703 0.33930
#
# Static dielectric constant tensor:
#      x y z
#    x 3.587950 0.000000 -0.079840 
#    y 0.000000 3.458060 0.000000 
#    z -0.079840 0.000000 3.224590 
# 
# 
# High freq. dielectric constant tensor:
#      x y z
#    x 1.720620 0.000000 -0.003960 
#    y 0.000000 1.714300 0.000000 
#    z -0.003960 0.000000 1.702770 
# 
# From -- ./inp_files/162034.got.cif
#   From: 2010.06.25/outbox.cif.g09.slc.cpg/sg15_82_cif.got.tgz:162034.got - 2010.06.28 07:06:18.
