data_PCOD8134971
_publ_section_title
;
Structure prediction by ZEFSAII (Michael W. Deem and Ramdas Pophale) SiO2 
 PCOD8134971
Probable space group: C 2/C
;
_chemical_formula_sum "Si O2"
_cell_formula_units_Z 64
_cell_length_a 15.569037
_cell_length_b 20.462512
_cell_length_c 16.932440
_cell_angle_alpha 90.000000
_cell_angle_beta 145.027138
_cell_angle_gamma 90.000000
_cell_volume 3091.986741
_symmetry_space_group_name_H-M "C 2/C"
_symmetry_group_IT_number 15
_symmetry_cell_setting 'monoclinic'
loop_
_space_group_symop_operation_xyz
x,y,z
-x,y,1/2-z
-x,-y,-z
x,-y,1/2+z
1/2+x,1/2+y,z
1/2-x,1/2+y,1/2-z
1/2-x,1/2-y,-z
1/2+x,1/2-y,1/2+z
loop_
_atom_site_type_symbol
_atom_site_label
_atom_site_fract_x
_atom_site_fract_y
_atom_site_fract_z
Si Si1 0.732439 0.916612 0.045816
Si Si2 0.608785 0.296000 0.397405
Si Si3 0.762016 0.485160 0.596658
Si Si4 0.731529 0.399050 0.723979
Si Si5 0.993688 0.203429 0.505372
Si Si6 0.528492 0.853927 0.019632
Si Si7 0.080119 0.016096 0.680281
Si Si8 0.741341 0.603741 0.680498
O O1 0.619466 0.869444 0.008030
O O2 0.646328 0.960202 0.912575
O O3 0.849306 0.870329 0.088962
O O4 0.820931 0.964417 0.170454
O O5 0.500000 0.266375 0.250000
O O6 0.750000 0.250000 0.500000
O O7 0.513540 0.297272 0.405620
O O8 0.794409 0.438394 0.695549
O O9 0.594337 0.477209 0.436112
O O10 0.792018 0.561441 0.641695
O O11 0.653179 0.331810 0.639775
O O12 0.612677 0.441122 0.683312
O O13 0.865769 0.384793 0.885660
O O14 0.986429 0.277751 0.471965
O O15 0.150923 0.170908 0.593953
O O16 0.609498 0.885778 0.155931
O O17 0.119151 0.060283 0.634135
#
# Coordination Sequence:
#
# PCOD8134971 Si02
#       8
#     8   8   8   8   8   8   8   8
#     4  11  22  37  56  86 119 152 195 238 301 351
#     4  12  24  35  52  79 121 160 187 228 282 355
#     4  11  19  36  60  82 111 155 201 252 283 350
#     4  11  22  37  58  82 116 153 203 244 290 349
#     4  12  21  39  59  80 119 162 201 231 280 363
#     4  11  25  36  55  89 121 157 188 242 302 354
#     4  10  19  37  59  80 111 152 202 250 287 344
#     4  10  20  37  58  82 111 154 206 241 289 337
#
# _framework density 20.698665999999999
#
# number of rings (size 3 to 8) (size 9 to 14) (size 15 to 20)
#    0.000    1.000    5.000    4.125    1.750    5.000 
#    0.000    0.000    0.000    0.000    0.000    5.250 
#    0.000    0.000    0.000    0.000    0.000    0.000 
#
# Total GULP energy -396771.364751 kJ/mol
# GULP energy per Si atom -12399.105148 kJ/mol
# Density = 2.065155 g / cm^3
# Si number density = 20.698666 Si / 1000 Ang^3
#
#
#
# Elastic Constant Matrix: (Units=GPa)
#
#
# Indices 1 2 3 4 5 6 
#
# 1 26.0574 30.9077 11.7912 0.0020 -10.1907 -0.0024
# 2 30.9077 127.2967 43.9807 -0.0003 -9.0256 -0.0021
# 3 11.7912 43.9807 111.8685 -0.0037 -0.5452 -0.0046
# 4 0.0020 -0.0003 -0.0037 26.9878 -0.0013 -4.6837
# 5 -10.1907 -9.0256 -0.5452 -0.0013 21.7249 -0.0026
# 6 -0.0024 -0.0021 -0.0046 -4.6837 -0.0026 29.7171
#
#
#
# Elastic Compliance Matrix: (Units=1/GPa)
#
#
# Indices 1 2 3 4 5 6 
#
# 1 0.064629 -0.013457 -0.001401 -0.000003 0.024690 0.000006
# 2 -0.013457 0.012198 -0.003384 0.000000 -0.001330 -0.000001
# 3 -0.001401 -0.003384 0.010408 0.000002 -0.001802 0.000001
# 4 -0.000003 0.000000 0.000002 0.038096 0.000002 0.006004
# 5 0.024690 -0.001330 -0.001802 0.000002 0.057014 0.000007
# 6 0.000006 -0.000001 0.000001 0.006004 0.000007 0.034597
#
#
# Mechanical properties :
#
#
# Convention : Reuss Voigt Hill
#
# Bulk Modulus (GPa) = 19.70403 48.73130 34.21766
# Shear Modulus (GPa) = 18.49507 27.58884 23.04195
#
# Velocity S-wave (km/s) = 2.99246 3.65482 3.34010
# Velocity P-wave (km/s) = 4.63464 6.43464 5.60734
#
# Compressibility (1/GPa) = 0.05075104
#
# Stress axis : x y z
#
# Youngs Moduli (GPa) = 15.47298 81.98178 96.07805
#
# Poissons Ratio (x) = 1.10325 0.13461
# Poissons Ratio (y) = 0.20822 0.32509
# Poissons Ratio (z) = 0.02168 0.27739
#
# Static dielectric constant tensor:
#      x y z
#    x 3.432520 -0.000020 -0.004930 
#    y -0.000020 4.002580 0.000020 
#    z -0.004930 0.000020 3.682080 
# 
# 
# High freq. dielectric constant tensor:
#      x y z
#    x 1.762800 0.000000 -0.002440 
#    y 0.000000 1.814040 0.000000 
#    z -0.002440 0.000000 1.824130 
# 
# From -- ./inp_files/212001.got.cif
#   From: 2010.06.25/outbox.cif.g09.slc.cpg/sg15_107_cif.got.tgz:212001.got - 2010.06.28 07:06:18.
