data_PCOD8134286
_publ_section_title
;
Structure prediction by ZEFSAII (Michael W. Deem and Ramdas Pophale) SiO2 
 PCOD8134286
Probable space group: C 2/C
;
_chemical_formula_sum "Si O2"
_cell_formula_units_Z 48
_cell_length_a 18.948476
_cell_length_b 21.580452
_cell_length_c 9.292188
_cell_angle_alpha 90.000000
_cell_angle_beta 34.574196
_cell_angle_gamma 90.000000
_cell_volume 2156.244452
_symmetry_space_group_name_H-M "C 2/C"
_symmetry_group_IT_number 15
_symmetry_cell_setting 'monoclinic'
loop_
_space_group_symop_operation_xyz
x,y,z
-x,y,1/2-z
-x,-y,-z
x,-y,1/2+z
1/2+x,1/2+y,z
1/2-x,1/2+y,1/2-z
1/2-x,1/2-y,-z
1/2+x,1/2-y,1/2+z
loop_
_atom_site_type_symbol
_atom_site_label
_atom_site_fract_x
_atom_site_fract_y
_atom_site_fract_z
Si Si1 0.543849 0.268014 0.341454
Si Si2 0.463856 0.398545 0.553986
Si Si3 0.241357 0.268433 0.294064
Si Si4 0.391248 0.806671 0.319777
Si Si5 0.119180 0.009811 0.951709
Si Si6 0.260620 0.611206 0.604310
O O1 0.509049 0.340045 0.388147
O O2 0.659851 0.252990 0.249145
O O3 0.432067 0.227637 0.601694
O O4 0.600156 0.250935 0.084786
O O5 0.357415 0.440735 0.650509
O O6 0.583830 0.441787 0.383586
O O7 0.399346 0.375320 0.809441
O O8 0.244170 0.342047 0.264848
O O9 0.280722 0.231865 0.082382
O O10 0.500000 0.818745 0.250000
O O11 0.340421 0.873761 0.350693
O O12 0.238065 0.039759 0.838070
O O13 0.000000 0.001357 0.250000
#
# Coordination Sequence:
#
# PCOD8134286 Si02
#       6
#     8   8   8   8   8   8
#     4  10  20  35  58  91 136 161 205 251 312 387
#     4  10  19  35  59  88 125 163 200 258 311 377
#     4  10  20  34  57  94 125 174 199 247 321 382
#     4  10  22  38  57  87 124 169 209 252 317 372
#     4   9  20  35  57  88 120 164 206 252 323 364
#     4  11  20  37  61  86 126 166 207 254 317 380
#
# _framework density 22.260926000000001
#
# number of rings (size 3 to 8) (size 9 to 14) (size 15 to 20)
#    0.000    2.000    3.333    0.500    0.000    2.000 
#    0.000    0.000    0.000    1.000    0.000    0.000 
#    0.000    0.000    0.000    0.000    0.000    0.000 
#
# Total GULP energy -297393.519974 kJ/mol
# GULP energy per Si atom -12391.396666 kJ/mol
# Density = 2.221026 g / cm^3
# Si number density = 22.260926 Si / 1000 Ang^3
#
#
#
# Elastic Constant Matrix: (Units=GPa)
#
#
# Indices 1 2 3 4 5 6 
#
# 1 103.4804 45.0211 54.2775 0.0005 13.9044 -0.0002
# 2 45.0211 129.5946 56.2390 0.0003 1.9523 -0.0002
# 3 54.2775 56.2390 131.9021 0.0022 7.1749 -0.0013
# 4 0.0005 0.0003 0.0022 24.1835 -0.0013 -2.7832
# 5 13.9044 1.9523 7.1749 -0.0013 34.2750 0.0008
# 6 -0.0002 -0.0002 -0.0013 -2.7832 0.0008 41.1325
#
#
#
# Elastic Compliance Matrix: (Units=1/GPa)
#
#
# Indices 1 2 3 4 5 6 
#
# 1 0.013713 -0.002888 -0.004165 0.000000 -0.004527 0.000000
# 2 -0.002888 0.010080 -0.003178 0.000000 0.001263 0.000000
# 3 -0.004165 -0.003178 0.010670 -0.000001 -0.000363 0.000000
# 4 0.000000 0.000000 -0.000001 0.041675 0.000002 0.002820
# 5 -0.004527 0.001263 -0.000363 0.000002 0.031016 -0.000001
# 6 0.000000 0.000000 0.000000 0.002820 -0.000001 0.024502
#
#
# Mechanical properties :
#
#
# Convention : Reuss Voigt Hill
#
# Bulk Modulus (GPa) = 71.42707 75.11693 73.27200
# Shear Modulus (GPa) = 31.89052 33.88084 32.88568
#
# Velocity S-wave (km/s) = 3.78905 3.90550 3.84771
# Velocity P-wave (km/s) = 7.16229 7.35896 7.26129
#
# Compressibility (1/GPa) = 0.01400029
#
# Stress axis : x y z
#
# Youngs Moduli (GPa) = 72.92218 99.20830 93.71978
#
# Poissons Ratio (x) = 0.28653 0.39037
# Poissons Ratio (y) = 0.21061 0.29783
# Poissons Ratio (z) = 0.30374 0.31528
#
# Static dielectric constant tensor:
#      x y z
#    x 4.473160 0.000000 0.155570 
#    y 0.000000 4.017570 0.000000 
#    z 0.155570 0.000000 4.155630 
# 
# 
# High freq. dielectric constant tensor:
#      x y z
#    x 1.911840 0.000000 0.017330 
#    y 0.000000 1.850130 0.000000 
#    z 0.017330 0.000000 1.861360 
# 
# From -- ./inp_files/119378.got.cif
#   From: 2010.06.25/outbox.cif.g09.slc.cpg/sg15_60_cif.got.tgz:119378.got - 2010.06.28 07:06:18.
