data_PCOD8134100
_publ_section_title
;
Structure prediction by ZEFSAII (Michael W. Deem and Ramdas Pophale) SiO2 
 PCOD8134100
Probable space group: C 2/C
;
_chemical_formula_sum "Si O2"
_cell_formula_units_Z 52
_cell_length_a 25.857159
_cell_length_b 11.628405
_cell_length_c 16.238410
_cell_angle_alpha 90.000000
_cell_angle_beta 37.181699
_cell_angle_gamma 90.000000
_cell_volume 2950.727800
_symmetry_space_group_name_H-M "C 2/C"
_symmetry_group_IT_number 15
_symmetry_cell_setting 'monoclinic'
loop_
_space_group_symop_operation_xyz
x,y,z
-x,y,1/2-z
-x,-y,-z
x,-y,1/2+z
1/2+x,1/2+y,z
1/2-x,1/2+y,1/2-z
1/2-x,1/2-y,-z
1/2+x,1/2-y,1/2+z
loop_
_atom_site_type_symbol
_atom_site_label
_atom_site_fract_x
_atom_site_fract_y
_atom_site_fract_z
Si Si1 0.224528 0.096831 0.913619
Si Si2 0.589935 0.245596 0.674197
Si Si3 0.798140 0.461081 0.486834
Si Si4 0.500000 0.320723 0.250000
Si Si5 0.175945 0.717910 0.030474
Si Si6 0.662142 0.696141 0.248891
Si Si7 0.130998 0.891844 0.961643
O O1 0.293697 0.181494 0.783659
O O2 0.181009 0.013205 0.902052
O O3 0.157033 0.178295 0.041719
O O4 0.264303 0.019968 0.936588
O O5 0.500000 0.273214 0.750000
O O6 0.614742 0.112542 0.629404
O O7 0.591019 0.279082 0.769405
O O8 0.818783 0.584156 0.499921
O O9 0.730308 0.396406 0.630271
O O10 0.578922 0.244775 0.187212
O O11 0.460697 0.399724 0.373806
O O12 0.250000 0.750000 0.000000
O O13 0.189424 0.793062 0.930495
O O14 0.614772 0.643071 0.388006
#
# Coordination Sequence:
#
# PCOD8134100 Si02
#       7
#     8   8   8   4   8   8   8
#     4   9  18  35  55  78 107 144 186 224 279 340
#     4   9  19  33  58  77 108 146 184 229 283 330
#     4   9  17  35  56  78 104 145 189 222 277 337
#     4   8  22  32  50  82 112 150 182 224 274 336
#     4  10  19  35  56  80 108 153 186 218 279 341
#     4   9  20  35  55  84 109 144 186 237 276 329
#     4  10  20  34  55  79 116 143 181 240 275 329
#
# _framework density 17.622769999999999
#
# number of rings (size 3 to 8) (size 9 to 14) (size 15 to 20)
#    0.923    1.846    1.538    1.846    4.308    0.000 
#    0.000    3.846    0.000    2.769    0.000    0.000 
#    0.000    0.000    0.000    0.000    0.000    0.000 
#
# Total GULP energy -322124.517355 kJ/mol
# GULP energy per Si atom -12389.404514 kJ/mol
# Density = 1.758266 g / cm^3
# Si number density = 17.622770 Si / 1000 Ang^3
#
#
#
# Elastic Constant Matrix: (Units=GPa)
#
#
# Indices 1 2 3 4 5 6 
#
# 1 94.4686 28.9322 38.5175 0.0000 -0.8060 0.0000
# 2 28.9322 95.8502 14.7203 -0.0001 7.1337 -0.0001
# 3 38.5175 14.7203 76.1310 -0.0001 11.1498 0.0000
# 4 0.0000 -0.0001 -0.0001 -2.9858 0.0000 16.9086
# 5 -0.8060 7.1337 11.1498 0.0000 31.2501 0.0000
# 6 0.0000 -0.0001 0.0000 16.9086 0.0000 9.8234
#
#
#
# Elastic Compliance Matrix: (Units=1/GPa)
#
#
# Indices 1 2 3 4 5 6 
#
# 1 0.014695 -0.003598 -0.007296 0.000000 0.003804 0.000000
# 2 -0.003598 0.011731 -0.000044 0.000000 -0.002755 0.000000
# 3 -0.007296 -0.000044 0.017791 0.000000 -0.006526 0.000000
# 4 0.000000 0.000000 0.000000 -0.031163 0.000000 0.053639
# 5 0.003804 -0.002755 -0.006526 0.000000 0.035055 0.000000
# 6 0.000000 0.000000 0.000000 0.053639 0.000000 0.009472
#
#
# Mechanical properties :
#
#
# Convention : Reuss Voigt Hill
#
# Bulk Modulus (GPa) = 44.76351 47.86552 46.31451
# Shear Modulus (GPa) = 57.53471 19.90287 38.71879
#
# Velocity S-wave (km/s) = 5.72004 3.36428 4.69240
# Velocity P-wave (km/s) = 8.31151 6.50471 7.46299
#
# Compressibility (1/GPa) = 0.02233963
#
# Stress axis : x y z
#
# Youngs Moduli (GPa) = 68.05171 85.24504 56.20874
#
# Poissons Ratio (x) = 0.30673 0.41009
# Poissons Ratio (y) = 0.24486 0.00249
# Poissons Ratio (z) = 0.49650 0.00378
#
# Static dielectric constant tensor:
#      x y z
#    x 2.326490 0.000000 0.328320 
#    y 0.000000 3.344400 0.000000 
#    z 0.328320 0.000000 2.786600 
# 
# 
# High freq. dielectric constant tensor:
#      x y z
#    x 1.669840 0.000000 -0.003450 
#    y 0.000000 1.689300 0.000000 
#    z -0.003450 0.000000 1.651660 
# 
# From -- ./inp_files/167570.got.cif
#   From: 2010.06.25/outbox.cif.g09.slc.cpg/sg15_84_cif.got.tgz:167570.got - 2010.06.28 07:06:18.
