data_PCOD8134721
_publ_section_title
;
Structure prediction by ZEFSAII (Michael W. Deem and Ramdas Pophale) SiO2 
 PCOD8134721
Probable space group: C 2/C
;
_chemical_formula_sum "Si O2"
_cell_formula_units_Z 48
_cell_length_a 22.059478
_cell_length_b 7.682333
_cell_length_c 15.315289
_cell_angle_alpha 90.000000
_cell_angle_beta 123.539504
_cell_angle_gamma 90.000000
_cell_volume 2163.325182
_symmetry_space_group_name_H-M "C 2/C"
_symmetry_group_IT_number 15
_symmetry_cell_setting 'monoclinic'
loop_
_space_group_symop_operation_xyz
x,y,z
-x,y,1/2-z
-x,-y,-z
x,-y,1/2+z
1/2+x,1/2+y,z
1/2-x,1/2+y,1/2-z
1/2-x,1/2-y,-z
1/2+x,1/2-y,1/2+z
loop_
_atom_site_type_symbol
_atom_site_label
_atom_site_fract_x
_atom_site_fract_y
_atom_site_fract_z
Si Si1 0.847867 0.129978 0.825487
Si Si2 0.321273 0.258180 0.612135
Si Si3 0.580203 0.047655 0.294981
Si Si4 0.082886 0.535563 0.092005
Si Si5 0.807505 0.241501 0.309616
Si Si6 0.581449 0.568374 0.796547
O O1 0.886001 0.277189 0.918559
O O2 0.773572 0.208153 0.723424
O O3 0.905168 0.075100 0.796662
O O4 0.827455 0.952231 0.861372
O O5 0.250000 0.250000 0.500000
O O6 0.306357 0.259216 0.703457
O O7 0.364156 0.431081 0.616602
O O8 0.365720 0.088016 0.617906
O O9 0.500000 0.978472 0.250000
O O10 0.592179 0.055368 0.201995
O O11 0.592911 0.238987 0.346958
O O12 0.134011 0.375814 0.102469
O O13 0.000000 0.500000 0.000000
O O14 0.500000 0.503019 0.750000
#
# Coordination Sequence:
#
# PCOD8134721 Si02
#       6
#     8   8   8   8   8   8
#     4  10  19  36  61  82 114 152 189 234 293 343
#     4  10  21  35  56  85 112 149 192 232 283 343
#     4   9  19  37  56  76 112 150 181 232 288 331
#     4  10  21  36  57  86 114 148 197 240 286 347
#     4  10  20  37  58  83 117 155 188 239 295 346
#     4   9  19  37  60  79 110 152 188 232 287 339
#
# _framework density 22.188065000000002
#
# number of rings (size 3 to 8) (size 9 to 14) (size 15 to 20)
#    0.000    2.333    1.667    0.500    0.000    2.667 
#    0.000    5.000    0.000    0.000    0.000    0.000 
#    0.000    0.000    0.000    0.000    0.000    0.000 
#
# Total GULP energy -297482.073810 kJ/mol
# GULP energy per Si atom -12395.086409 kJ/mol
# Density = 2.213756 g / cm^3
# Si number density = 22.188065 Si / 1000 Ang^3
#
#
#
# Elastic Constant Matrix: (Units=GPa)
#
#
# Indices 1 2 3 4 5 6 
#
# 1 73.2532 26.5883 23.8574 0.0000 34.7492 0.0000
# 2 26.5883 189.4803 80.6370 0.0000 33.2037 0.0000
# 3 23.8574 80.6370 121.7246 0.0000 44.7488 0.0000
# 4 0.0000 0.0000 0.0000 22.8284 0.0000 23.1952
# 5 34.7492 33.2037 44.7488 0.0000 37.8577 0.0000
# 6 0.0000 0.0000 0.0000 23.1952 0.0000 29.9255
#
#
#
# Elastic Compliance Matrix: (Units=1/GPa)
#
#
# Indices 1 2 3 4 5 6 
#
# 1 0.027217 -0.001299 0.007589 0.000000 -0.032813 0.000000
# 2 -0.001299 0.007444 -0.004801 0.000000 0.000338 0.000000
# 3 0.007589 -0.004801 0.019314 0.000000 -0.025584 0.000000
# 4 0.000000 0.000000 0.000000 0.206191 0.000000 -0.159818
# 5 -0.032813 0.000338 -0.025584 0.000000 0.086477 0.000000
# 6 0.000000 0.000000 0.000000 -0.159818 0.000000 0.157291
#
#
# Mechanical properties :
#
#
# Convention : Reuss Voigt Hill
#
# Bulk Modulus (GPa) = 17.55859 71.84705 44.70282
# Shear Modulus (GPa) = 9.61651 35.01402 22.31527
#
# Velocity S-wave (km/s) = 2.08411 3.97679 3.17477
# Velocity P-wave (km/s) = 3.70433 7.31694 5.79913
#
# Compressibility (1/GPa) = 0.05695219
#
# Stress axis : x y z
#
# Youngs Moduli (GPa) = 36.74238 134.34221 51.77699
#
# Poissons Ratio (x) = 0.17446 -0.39292
# Poissons Ratio (y) = 0.04772 0.24858
# Poissons Ratio (z) = -0.27883 0.64496
#
# Static dielectric constant tensor:
#      x y z
#    x 4.117680 0.000000 0.445890 
#    y 0.000000 4.814160 0.000000 
#    z 0.445890 0.000000 3.507080 
# 
# 
# High freq. dielectric constant tensor:
#      x y z
#    x 1.870930 0.000000 0.037930 
#    y 0.000000 1.902870 0.000000 
#    z 0.037930 0.000000 1.826070 
# 
# From -- ./inp_files/254913.got.cif
#   From: 2010.06.25/outbox.cif.g09.slc.cpg/sg15_128_cif.got.tgz:254913.got - 2010.06.28 07:06:18.
