data_PCOD8134052
_publ_section_title
;
Structure prediction by ZEFSAII (Michael W. Deem and Ramdas Pophale) SiO2 
 PCOD8134052
Probable space group: C 2/C
;
_chemical_formula_sum "Si O2"
_cell_formula_units_Z 48
_cell_length_a 11.230047
_cell_length_b 15.101256
_cell_length_c 13.514031
_cell_angle_alpha 90.000000
_cell_angle_beta 85.640066
_cell_angle_gamma 90.000000
_cell_volume 2285.182831
_symmetry_space_group_name_H-M "C 2/C"
_symmetry_group_IT_number 15
_symmetry_cell_setting 'monoclinic'
loop_
_space_group_symop_operation_xyz
x,y,z
-x,y,1/2-z
-x,-y,-z
x,-y,1/2+z
1/2+x,1/2+y,z
1/2-x,1/2+y,1/2-z
1/2-x,1/2-y,-z
1/2+x,1/2-y,1/2+z
loop_
_atom_site_type_symbol
_atom_site_label
_atom_site_fract_x
_atom_site_fract_y
_atom_site_fract_z
Si Si1 0.453610 0.746804 0.488834
Si Si2 0.273589 0.477172 0.914677
Si Si3 0.588999 0.076550 0.030596
Si Si4 0.272301 0.986074 0.803361
Si Si5 0.752841 0.343702 0.409066
Si Si6 0.023053 0.087942 0.360623
O O1 0.537407 0.825539 0.521527
O O2 0.375131 0.706691 0.585331
O O3 0.361826 0.774893 0.407244
O O4 0.533297 0.671143 0.433516
O O5 0.212481 0.567337 0.959240
O O6 0.218479 0.456238 0.810128
O O7 0.417779 0.481239 0.899204
O O8 0.234253 0.398294 0.989091
O O9 0.619260 0.060191 0.144441
O O10 0.500000 0.000000 0.000000
O O11 0.147195 0.962318 0.863668
O O12 0.274359 0.093365 0.813052
O O13 0.000000 0.120373 0.250000
#
# Coordination Sequence:
#
# PCOD8134052 Si02
#       6
#     8   8   8   8   8   8
#     4  10  19  35  54  80 116 144 185 233 271 335
#     4   9  19  36  58  82 111 147 191 230 272 342
#     4  11  21  36  55  88 112 146 190 230 278 336
#     4  10  20  37  59  81 111 152 187 233 280 327
#     4   9  19  36  58  80 112 155 186 219 281 341
#     4   9  20  37  58  83 112 148 190 231 279 334
#
# _framework density 21.004883
#
# number of rings (size 3 to 8) (size 9 to 14) (size 15 to 20)
#    0.000    2.333    3.333    0.000    0.000    8.667 
#    0.000    0.000    0.000   18.000    0.000    0.000 
#    0.000    0.000    0.000    0.000    0.000    0.000 
#
# Total GULP energy -297450.428377 kJ/mol
# GULP energy per Si atom -12393.767849 kJ/mol
# Density = 2.095707 g / cm^3
# Si number density = 21.004883 Si / 1000 Ang^3
#
#
#
# Elastic Constant Matrix: (Units=GPa)
#
#
# Indices 1 2 3 4 5 6 
#
# 1 65.1241 25.2168 16.7339 0.0000 8.7595 0.0000
# 2 25.2168 86.4479 4.9401 0.0000 0.1366 0.0000
# 3 16.7339 4.9401 57.3368 0.0000 5.9892 0.0000
# 4 0.0000 0.0000 0.0000 16.2657 0.0000 0.6987
# 5 8.7595 0.1366 5.9892 0.0000 27.5796 0.0000
# 6 0.0000 0.0000 0.0000 0.6987 0.0000 42.7840
#
#
#
# Elastic Compliance Matrix: (Units=1/GPa)
#
#
# Indices 1 2 3 4 5 6 
#
# 1 0.019309 -0.005359 -0.004641 0.000000 -0.005098 0.000000
# 2 -0.005359 0.013113 0.000269 0.000000 0.001579 0.000000
# 3 -0.004641 0.000269 0.019050 0.000000 -0.002664 0.000000
# 4 0.000000 0.000000 0.000000 0.061522 0.000000 -0.001005
# 5 -0.005098 0.001579 -0.002664 0.000000 0.038449 0.000000
# 6 0.000000 0.000000 0.000000 -0.001005 0.000000 0.023390
#
#
# Mechanical properties :
#
#
# Convention : Reuss Voigt Hill
#
# Bulk Modulus (GPa) = 31.23963 33.63225 32.43594
# Shear Modulus (GPa) = 24.39451 28.12705 26.26078
#
# Velocity S-wave (km/s) = 3.41159 3.66330 3.53968
# Velocity P-wave (km/s) = 5.51574 5.82576 5.67287
#
# Compressibility (1/GPa) = 0.03201062
#
# Stress axis : x y z
#
# Youngs Moduli (GPa) = 51.79025 76.26014 52.49233
#
# Poissons Ratio (x) = 0.40868 0.24362
# Poissons Ratio (y) = 0.27755 -0.01414
# Poissons Ratio (z) = 0.24036 -0.02054
#
# Static dielectric constant tensor:
#      x y z
#    x 4.072670 0.000000 -0.121660 
#    y 0.000000 3.762670 0.000000 
#    z -0.121660 0.000000 3.609200 
# 
# 
# High freq. dielectric constant tensor:
#      x y z
#    x 1.830870 0.000000 -0.003130 
#    y 0.000000 1.807820 0.000000 
#    z -0.003130 0.000000 1.802520 
# 
# From -- ./inp_files/143628.got.cif
#   From: 2010.06.25/outbox.cif.g09.slc.cpg/sg15_72_cif.got.tgz:143628.got - 2010.06.28 07:06:18.
