data_PCOD8134208
_publ_section_title
;
Structure prediction by ZEFSAII (Michael W. Deem and Ramdas Pophale) SiO2 
 PCOD8134208
Probable space group: C 2/C
;
_chemical_formula_sum "Si O2"
_cell_formula_units_Z 56
_cell_length_a 15.295628
_cell_length_b 10.311152
_cell_length_c 23.678752
_cell_angle_alpha 90.000000
_cell_angle_beta 56.167452
_cell_angle_gamma 90.000000
_cell_volume 3102.136892
_symmetry_space_group_name_H-M "C 2/C"
_symmetry_group_IT_number 15
_symmetry_cell_setting 'monoclinic'
loop_
_space_group_symop_operation_xyz
x,y,z
-x,y,1/2-z
-x,-y,-z
x,-y,1/2+z
1/2+x,1/2+y,z
1/2-x,1/2+y,1/2-z
1/2-x,1/2-y,-z
1/2+x,1/2-y,1/2+z
loop_
_atom_site_type_symbol
_atom_site_label
_atom_site_fract_x
_atom_site_fract_y
_atom_site_fract_z
Si Si1 0.517124 0.630634 0.308030
Si Si2 0.127914 0.750249 0.554687
Si Si3 0.125163 0.112898 0.825153
Si Si4 0.833283 0.478952 0.390818
Si Si5 0.899164 0.911972 0.037156
Si Si6 0.638439 0.895588 0.246850
Si Si7 0.010166 0.349286 0.809841
O O1 0.500000 0.581850 0.250000
O O2 0.408380 0.651861 0.381843
O O3 0.581048 0.523367 0.319684
O O4 0.579445 0.765350 0.285732
O O5 0.250000 0.750000 0.500000
O O6 0.106374 0.603498 0.582334
O O7 0.075013 0.791744 0.514324
O O8 0.117813 0.137353 0.894213
O O9 0.247677 0.114426 0.764659
O O10 0.060023 0.231611 0.824698
O O11 0.706862 0.488994 0.445216
O O12 0.857658 0.407828 0.322334
O O13 0.889895 0.619200 0.373345
O O14 0.000000 0.000000 0.000000
O O15 0.579931 0.021505 0.292419
O O16 0.000000 0.301230 0.750000
#
# Coordination Sequence:
#
# PCOD8134208 Si02
#       7
#     8   8   8   8   8   8   8
#     4  12  20  35  61  85 107 144 197 234 269 329
#     4  10  19  35  59  82 106 143 197 230 261 327
#     4  11  23  34  53  86 119 141 178 239 289 322
#     4   9  18  35  60  78 102 148 190 223 267 335
#     4  10  20  36  56  79 110 149 185 224 279 335
#     4  10  19  35  58  83 106 146 188 228 274 330
#     4  10  19  37  55  80 115 146 179 227 290 337
#
# _framework density 18.052071000000002
#
# number of rings (size 3 to 8) (size 9 to 14) (size 15 to 20)
#    0.000    1.714    4.286    1.714    0.000    0.000 
#    0.000    1.429    0.000    0.000    0.000    0.000 
#    0.000    0.000    0.000    0.000    0.000    0.000 
#
# Total GULP energy -346907.808158 kJ/mol
# GULP energy per Si atom -12389.564577 kJ/mol
# Density = 1.801098 g / cm^3
# Si number density = 18.052071 Si / 1000 Ang^3
#
#
#
# Elastic Constant Matrix: (Units=GPa)
#
#
# Indices 1 2 3 4 5 6 
#
# 1 110.7481 51.8085 41.6483 0.0000 -8.8074 0.0000
# 2 51.8085 88.4580 24.4132 0.0000 -5.0128 0.0000
# 3 41.6483 24.4132 86.4030 0.0000 -6.5203 0.0000
# 4 0.0000 0.0000 0.0000 10.4612 0.0000 -1.2578
# 5 -8.8074 -5.0128 -6.5203 0.0000 31.6420 0.0000
# 6 0.0000 0.0000 0.0000 -1.2578 0.0000 32.6899
#
#
#
# Elastic Compliance Matrix: (Units=1/GPa)
#
#
# Indices 1 2 3 4 5 6 
#
# 1 0.014190 -0.006893 -0.004750 0.000000 0.001879 0.000000
# 2 -0.006893 0.015658 -0.001076 0.000000 0.000340 0.000000
# 3 -0.004750 -0.001076 0.014277 0.000000 0.001449 0.000000
# 4 0.000000 0.000000 0.000000 0.096036 0.000000 0.003695
# 5 0.001879 0.000340 0.001449 0.000000 0.032479 0.000000
# 6 0.000000 0.000000 0.000000 0.003695 0.000000 0.030733
#
#
# Mechanical properties :
#
#
# Convention : Reuss Voigt Hill
#
# Bulk Modulus (GPa) = 53.51612 57.92766 55.72189
# Shear Modulus (GPa) = 21.27292 26.14124 23.70708
#
# Velocity S-wave (km/s) = 3.43654 3.80952 3.62783
# Velocity P-wave (km/s) = 6.74212 7.17696 6.96294
#
# Compressibility (1/GPa) = 0.01868596
#
# Stress axis : x y z
#
# Youngs Moduli (GPa) = 70.47136 63.86370 70.04352
#
# Poissons Ratio (x) = 0.44024 0.33274
# Poissons Ratio (y) = 0.48579 0.07535
# Poissons Ratio (z) = 0.33477 0.06870
#
# Static dielectric constant tensor:
#      x y z
#    x 3.637360 0.000000 -0.140850 
#    y 0.000000 3.034500 0.000000 
#    z -0.140850 0.000000 3.909260 
# 
# 
# High freq. dielectric constant tensor:
#      x y z
#    x 1.700660 0.000000 -0.010680 
#    y 0.000000 1.680110 0.000000 
#    z -0.010680 0.000000 1.707590 
# 
# From -- ./inp_files/273033.got.cif
#   From: 2010.06.25/outbox.cif.g09.slc.cpg/sg15_137_cif.got.tgz:273033.got - 2010.06.28 07:06:18.
