data_PCOD8134360
_publ_section_title
;
Structure prediction by ZEFSAII (Michael W. Deem and Ramdas Pophale) SiO2 
 PCOD8134360
Probable space group: C 2/C
;
_chemical_formula_sum "Si O2"
_cell_formula_units_Z 56
_cell_length_a 7.528740
_cell_length_b 32.079585
_cell_length_c 19.140122
_cell_angle_alpha 90.000000
_cell_angle_beta 142.032689
_cell_angle_gamma 90.000000
_cell_volume 2843.939758
_symmetry_space_group_name_H-M "C 2/C"
_symmetry_group_IT_number 15
_symmetry_cell_setting 'monoclinic'
loop_
_space_group_symop_operation_xyz
x,y,z
-x,y,1/2-z
-x,-y,-z
x,-y,1/2+z
1/2+x,1/2+y,z
1/2-x,1/2+y,1/2-z
1/2-x,1/2-y,-z
1/2+x,1/2-y,1/2+z
loop_
_atom_site_type_symbol
_atom_site_label
_atom_site_fract_x
_atom_site_fract_y
_atom_site_fract_z
Si Si1 0.281395 0.650888 0.884824
Si Si2 0.760050 0.298403 0.987334
Si Si3 0.818507 0.702081 0.010844
Si Si4 0.611253 0.435379 0.496737
Si Si5 0.826219 0.009566 0.349184
Si Si6 0.755113 0.579027 0.280782
Si Si7 0.289883 0.332710 0.750508
O O1 0.186976 0.673624 0.927454
O O2 0.517441 0.677303 0.915268
O O3 0.409261 0.604888 0.938254
O O4 0.000000 0.646609 0.750000
O O5 0.009046 0.307887 0.007363
O O6 0.750000 0.250000 0.000000
O O7 0.439429 0.308224 0.859806
O O8 0.750000 0.750000 0.000000
O O9 0.992695 0.688614 0.134195
O O10 0.515908 0.467601 0.405945
O O11 0.582297 0.459620 0.560566
O O12 0.944900 0.425554 0.584367
O O13 0.500000 0.993886 0.250000
O O14 0.853995 0.036926 0.288613
O O15 0.500000 0.593151 0.250000
O O16 0.785530 0.620704 0.242865
O O17 0.500000 0.331981 0.750000
#
# Coordination Sequence:
#
# PCOD8134360 Si02
#       7
#     8   8   8   8   8   8   8
#     4  12  26  42  63  89 132 172 211 257 320 376
#     4  11  24  41  64  95 121 166 213 261 319 372
#     4  11  23  42  65  94 127 164 210 268 316 371
#     4  10  20  39  59  87 119 163 204 250 312 373
#     4   9  19  35  62  87 118 154 206 251 304 381
#     4  10  19  35  61  91 119 155 199 259 316 370
#     4   9  20  38  63  89 125 156 209 262 310 377
#
# _framework density 19.690992000000001
#
# number of rings (size 3 to 8) (size 9 to 14) (size 15 to 20)
#    0.000    1.714    2.857    1.286    2.000    1.714 
#    0.000    0.000    3.143    0.000    0.000    0.000 
#    0.000    0.000    0.000    0.000    0.000    0.000 
#
# Total GULP energy -346962.959174 kJ/mol
# GULP energy per Si atom -12391.534256 kJ/mol
# Density = 1.964617 g / cm^3
# Si number density = 19.690992 Si / 1000 Ang^3
#
#
#
# Elastic Constant Matrix: (Units=GPa)
#
#
# Indices 1 2 3 4 5 6 
#
# 1 83.7474 34.7313 43.1503 0.0000 8.0364 0.0000
# 2 34.7313 166.5602 84.3311 0.0000 10.5039 0.0000
# 3 43.1503 84.3311 150.8715 -0.0003 10.2684 0.0000
# 4 0.0000 0.0000 -0.0003 45.0276 -0.0001 5.9809
# 5 8.0364 10.5039 10.2684 -0.0001 27.7304 0.0000
# 6 0.0000 0.0000 0.0000 5.9809 0.0000 28.0797
#
#
#
# Elastic Compliance Matrix: (Units=1/GPa)
#
#
# Indices 1 2 3 4 5 6 
#
# 1 0.014358 -0.001176 -0.003279 0.000000 -0.002501 0.000000
# 2 -0.001176 0.008529 -0.004344 0.000000 -0.001281 0.000000
# 3 -0.003279 -0.004344 0.010071 0.000000 -0.001134 0.000000
# 4 0.000000 0.000000 0.000000 0.022855 0.000000 -0.004868
# 5 -0.002501 -0.001281 -0.001134 0.000000 0.037692 0.000000
# 6 0.000000 0.000000 0.000000 -0.004868 0.000000 0.036650
#
#
# Mechanical properties :
#
#
# Convention : Reuss Voigt Hill
#
# Bulk Modulus (GPa) = 65.10159 80.62271 72.86215
# Shear Modulus (GPa) = 32.70695 36.09863 34.40279
#
# Velocity S-wave (km/s) = 4.07997 4.28630 4.18441
# Velocity P-wave (km/s) = 7.43830 8.09502 7.77360
#
# Compressibility (1/GPa) = 0.01536061
#
# Stress axis : x y z
#
# Youngs Moduli (GPa) = 69.64844 117.24352 99.29339
#
# Poissons Ratio (x) = 0.13789 0.32556
# Poissons Ratio (y) = 0.08191 0.43132
# Poissons Ratio (z) = 0.22836 0.50930
#
# Static dielectric constant tensor:
#      x y z
#    x 3.390870 0.000000 0.123810 
#    y 0.000000 3.877620 0.000000 
#    z 0.123810 0.000000 3.866600 
# 
# 
# High freq. dielectric constant tensor:
#      x y z
#    x 1.747960 0.000000 0.013310 
#    y 0.000000 1.788870 0.000000 
#    z 0.013310 0.000000 1.774080 
# 
# From -- ./inp_files/234980.got.cif
#   From: 2010.06.25/outbox.cif.g09.slc.cpg/sg15_118_cif.got.tgz:234980.got - 2010.06.28 07:06:18.
