data_PCOD8134713
_publ_section_title
;
Structure prediction by ZEFSAII (Michael W. Deem and Ramdas Pophale) SiO2 
 PCOD8134713
Probable space group: C 2/C
;
_chemical_formula_sum "Si O2"
_cell_formula_units_Z 60
_cell_length_a 11.751382
_cell_length_b 14.869379
_cell_length_c 17.459249
_cell_angle_alpha 90.000000
_cell_angle_beta 104.097417
_cell_angle_gamma 90.000000
_cell_volume 2958.875418
_symmetry_space_group_name_H-M "C 2/C"
_symmetry_group_IT_number 15
_symmetry_cell_setting 'monoclinic'
loop_
_space_group_symop_operation_xyz
x,y,z
-x,y,1/2-z
-x,-y,-z
x,-y,1/2+z
1/2+x,1/2+y,z
1/2-x,1/2+y,1/2-z
1/2-x,1/2-y,-z
1/2+x,1/2-y,1/2+z
loop_
_atom_site_type_symbol
_atom_site_label
_atom_site_fract_x
_atom_site_fract_y
_atom_site_fract_z
Si Si1 0.872887 0.986866 0.693471
Si Si2 0.688175 0.848575 0.694853
Si Si3 0.534998 0.135886 0.031550
Si Si4 0.135092 0.814408 0.283245
Si Si5 0.378738 0.983423 0.081240
Si Si6 0.500000 0.036380 0.250000
Si Si7 0.377511 0.486068 0.021997
Si Si8 0.869854 0.779982 0.051346
O O1 0.808861 0.084447 0.699939
O O2 0.873118 0.962872 0.602867
O O3 0.000000 0.985216 0.750000
O O4 0.806085 0.905662 0.725679
O O5 0.653549 0.854558 0.600075
O O6 0.697808 0.744870 0.726651
O O7 0.585365 0.896490 0.722422
O O8 0.475240 0.233485 0.021913
O O9 0.436749 0.068752 0.049234
O O10 0.574105 0.106458 0.953116
O O11 0.138553 0.754350 0.360507
O O12 0.000000 0.834910 0.250000
O O13 0.424295 0.976680 0.176721
O O14 0.236338 0.990266 0.049754
O O15 0.384109 0.384044 0.046181
O O16 0.500000 0.500000 0.000000
O O17 0.750000 0.750000 0.000000
#
# Coordination Sequence:
#
# PCOD8134713 Si02
#       8
#     8   8   8   8   8   4   8   8
#     4  10  24  39  61  94 127 169 212 259 319 380
#     4  11  19  38  66  91 125 165 212 264 319 373
#     4  10  19  36  64  91 122 158 210 270 314 368
#     4  10  19  36  60  92 121 157 214 256 300 375
#     4  10  20  37  59  93 124 162 212 261 324 374
#     4  10  22  32  64  92 118 166 212 266 316 366
#     4  11  24  40  61  92 129 167 210 260 317 383
#     4  11  21  35  62  95 120 156 211 259 304 372
#
# _framework density 20.277975000000001
#
# number of rings (size 3 to 8) (size 9 to 14) (size 15 to 20)
#    0.000    1.600    4.667    0.800    1.867    0.000 
#    0.000    0.667    4.400    0.000    0.000    0.000 
#    0.000    0.000    0.000    0.000    0.000    0.000 
#
# Total GULP energy -371719.366860 kJ/mol
# GULP energy per Si atom -12390.645562 kJ/mol
# Density = 2.023182 g / cm^3
# Si number density = 20.277975 Si / 1000 Ang^3
#
#
#
# Elastic Constant Matrix: (Units=GPa)
#
#
# Indices 1 2 3 4 5 6 
#
# 1 95.8647 32.2459 30.3869 0.0000 14.8654 0.0000
# 2 32.2459 55.2511 15.0417 0.0000 -4.3398 0.0000
# 3 30.3869 15.0417 115.4956 0.0000 22.2702 0.0000
# 4 0.0000 0.0000 0.0000 23.6113 0.0000 -5.7940
# 5 14.8654 -4.3398 22.2702 0.0000 28.4072 0.0000
# 6 0.0000 0.0000 0.0000 -5.7940 0.0000 29.7216
#
#
#
# Elastic Compliance Matrix: (Units=1/GPa)
#
#
# Indices 1 2 3 4 5 6 
#
# 1 0.015217 -0.009226 -0.001172 0.000000 -0.008454 0.000000
# 2 -0.009226 0.025156 -0.002970 0.000000 0.010999 0.000000
# 3 -0.001172 -0.002970 0.010983 0.000000 -0.008451 0.000000
# 4 0.000000 0.000000 0.000000 0.044480 0.000000 0.008671
# 5 -0.008454 0.010999 -0.008451 0.000000 0.047931 0.000000
# 6 0.000000 0.000000 0.000000 0.008671 0.000000 0.035336
#
#
# Mechanical properties :
#
#
# Convention : Reuss Voigt Hill
#
# Bulk Modulus (GPa) = 40.61639 46.88451 43.75045
# Shear Modulus (GPa) = 23.35944 28.94382 26.15163
#
# Velocity S-wave (km/s) = 3.39774 3.78213 3.59508
# Velocity P-wave (km/s) = 5.95534 6.49952 6.23337
#
# Compressibility (1/GPa) = 0.02462060
#
# Stress axis : x y z
#
# Youngs Moduli (GPa) = 65.71562 39.75174 91.05044
#
# Poissons Ratio (x) = 0.36675 0.10671
# Poissons Ratio (y) = 0.60629 0.27040
# Poissons Ratio (z) = 0.07702 0.11805
#
# Static dielectric constant tensor:
#      x y z
#    x 3.840740 0.000000 -0.064640 
#    y 0.000000 3.630390 0.000000 
#    z -0.064640 0.000000 4.450460 
# 
# 
# High freq. dielectric constant tensor:
#      x y z
#    x 1.777180 0.000000 0.015510 
#    y 0.000000 1.778810 0.000000 
#    z 0.015510 0.000000 1.797120 
# 
# From -- ./inp_files/197917.got.cif
#   From: 2010.06.25/outbox.cif.g09.slc.cpg/sg15_99_cif.got.tgz:197917.got - 2010.06.28 07:06:18.
