data_PCOD8134190
_publ_section_title
;
Structure prediction by ZEFSAII (Michael W. Deem and Ramdas Pophale) SiO2 
 PCOD8134190
Probable space group: C 2/C
;
_chemical_formula_sum "Si O2"
_cell_formula_units_Z 40
_cell_length_a 14.793771
_cell_length_b 13.008652
_cell_length_c 12.766752
_cell_angle_alpha 90.000000
_cell_angle_beta 119.881038
_cell_angle_gamma 90.000000
_cell_volume 2130.304086
_symmetry_space_group_name_H-M "C 2/C"
_symmetry_group_IT_number 15
_symmetry_cell_setting 'monoclinic'
loop_
_space_group_symop_operation_xyz
x,y,z
-x,y,1/2-z
-x,-y,-z
x,-y,1/2+z
1/2+x,1/2+y,z
1/2-x,1/2+y,1/2-z
1/2-x,1/2-y,-z
1/2+x,1/2-y,1/2+z
loop_
_atom_site_type_symbol
_atom_site_label
_atom_site_fract_x
_atom_site_fract_y
_atom_site_fract_z
Si Si1 0.930187 0.874666 0.528373
Si Si2 0.072171 0.045083 0.697952
Si Si3 0.943644 0.354858 0.015696
Si Si4 0.750939 0.028843 0.060513
Si Si5 0.548096 0.061166 0.384820
O O1 0.949748 0.756779 0.572634
O O2 0.824901 0.920528 0.516230
O O3 0.027966 0.936568 0.630422
O O4 0.922780 0.877907 0.397419
O O5 0.186693 0.026464 0.810309
O O6 0.000000 0.090204 0.750000
O O7 0.821145 0.382962 0.928320
O O8 0.006907 0.355577 0.944010
O O9 0.995531 0.444928 0.117419
O O10 0.675148 0.944184 0.960390
O O11 0.500000 0.101126 0.250000
#
# Coordination Sequence:
#
# PCOD8134190 Si02
#       5
#     8   8   8   8   8
#     4  10  19  35  58  76 109 141 176 222 268 317
#     4   9  20  36  54  76 107 139 174 221 268 320
#     4   9  20  35  51  85 104 140 181 221 260 327
#     4   9  19  34  54  81 103 138 183 216 264 319
#     4   9  20  35  53  76 114 143 169 225 272 312
#
# _framework density 18.776662000000002
#
# number of rings (size 3 to 8) (size 9 to 14) (size 15 to 20)
#    1.200    1.600    0.000    0.600    2.800    3.200 
#    3.600    0.000    0.000    4.800    0.000    0.000 
#    0.000    0.000    0.000    0.000    0.000    0.000 
#
# Total GULP energy -247802.552787 kJ/mol
# GULP energy per Si atom -12390.127639 kJ/mol
# Density = 1.873393 g / cm^3
# Si number density = 18.776662 Si / 1000 Ang^3
#
#
#
# Elastic Constant Matrix: (Units=GPa)
#
#
# Indices 1 2 3 4 5 6 
#
# 1 86.5851 13.5459 30.3707 0.0000 5.8781 0.0000
# 2 13.5459 34.0894 -6.2368 0.0000 7.1616 0.0000
# 3 30.3707 -6.2368 86.3116 0.0000 5.5703 0.0000
# 4 0.0000 0.0000 0.0000 12.2595 0.0000 -3.5636
# 5 5.8781 7.1616 5.5703 0.0000 35.4170 0.0000
# 6 0.0000 0.0000 0.0000 -3.5636 0.0000 13.8510
#
#
#
# Elastic Compliance Matrix: (Units=1/GPa)
#
#
# Indices 1 2 3 4 5 6 
#
# 1 0.014592 -0.006791 -0.005615 0.000000 -0.000166 0.000000
# 2 -0.006791 0.034404 0.005306 0.000000 -0.006664 0.000000
# 3 -0.005615 0.005306 0.014097 0.000000 -0.002358 0.000000
# 4 0.000000 0.000000 0.000000 0.088163 0.000000 0.022683
# 5 -0.000166 -0.006664 -0.002358 0.000000 0.029981 0.000000
# 6 0.000000 0.000000 0.000000 0.022683 0.000000 0.078033
#
#
# Mechanical properties :
#
#
# Convention : Reuss Voigt Hill
#
# Bulk Modulus (GPa) = 20.45269 31.37175 25.91222
# Shear Modulus (GPa) = 17.25517 23.59257 20.42387
#
# Velocity S-wave (km/s) = 3.03474 3.54854 3.30165
# Velocity P-wave (km/s) = 4.81620 5.79082 5.32585
#
# Compressibility (1/GPa) = 0.04889332
#
# Stress axis : x y z
#
# Youngs Moduli (GPa) = 68.52885 29.06656 70.93640
#
# Poissons Ratio (x) = 0.19739 0.39828
# Poissons Ratio (y) = 0.46537 -0.37636
# Poissons Ratio (z) = 0.38477 -0.15422
#
# Static dielectric constant tensor:
#      x y z
#    x 3.456090 0.000000 -0.082260 
#    y 0.000000 3.036920 0.000000 
#    z -0.082260 0.000000 3.309620 
# 
# 
# High freq. dielectric constant tensor:
#      x y z
#    x 1.732520 0.000000 -0.007010 
#    y 0.000000 1.699520 0.000000 
#    z -0.007010 0.000000 1.719660 
# 
# From -- ./inp_files/95762.got.cif
#   From: 2010.06.25/outbox.cif.g09.slc.cpg/sg15_48_cif.got.tgz:95762.got - 2010.06.28 07:06:18.
