data_PCOD8134011
_publ_section_title
;
Structure prediction by ZEFSAII (Michael W. Deem and Ramdas Pophale) SiO2 
 PCOD8134011
Probable space group: C 2/C
;
_chemical_formula_sum "Si O2"
_cell_formula_units_Z 64
_cell_length_a 26.265501
_cell_length_b 20.416474
_cell_length_c 9.375336
_cell_angle_alpha 90.000000
_cell_angle_beta 135.650185
_cell_angle_gamma 90.000000
_cell_volume 3514.419515
_symmetry_space_group_name_H-M "C 2/C"
_symmetry_group_IT_number 15
_symmetry_cell_setting 'monoclinic'
loop_
_space_group_symop_operation_xyz
x,y,z
-x,y,1/2-z
-x,-y,-z
x,-y,1/2+z
1/2+x,1/2+y,z
1/2-x,1/2+y,1/2-z
1/2-x,1/2-y,-z
1/2+x,1/2-y,1/2+z
loop_
_atom_site_type_symbol
_atom_site_label
_atom_site_fract_x
_atom_site_fract_y
_atom_site_fract_z
Si Si1 0.913960 0.765566 0.575941
Si Si2 0.273650 0.055070 0.139698
Si Si3 0.028874 0.552624 0.660916
Si Si4 0.835051 0.274898 0.501833
Si Si5 0.811631 0.834074 0.171702
Si Si6 0.303427 0.068281 0.519483
Si Si7 0.825650 0.284085 0.158327
Si Si8 0.590684 0.146002 0.133862
O O1 0.877218 0.827872 0.419572
O O2 0.883424 0.753411 0.673368
O O3 0.890787 0.699067 0.449557
O O4 0.000000 0.778279 0.750000
O O5 0.259249 0.058039 0.282007
O O6 0.353015 0.086222 0.269923
O O7 0.271911 0.980504 0.077875
O O8 0.209628 0.093250 0.924778
O O9 0.113863 0.551814 0.844520
O O10 0.000000 0.526734 0.750000
O O11 0.000000 0.500000 0.500000
O O12 0.993357 0.623298 0.550331
O O13 0.835176 0.203381 0.574045
O O14 0.756510 0.304287 0.380627
O O15 0.855210 0.274460 0.376896
O O16 0.899180 0.320332 0.693374
O O17 0.304698 0.141637 0.579376
O O18 0.750000 0.250000 0.000000
#
# Coordination Sequence:
#
# PCOD8134011 Si02
#       8
#     8   8   8   8   8   8   8   8
#     4  11  21  38  61  85 117 156 190 240 305 357
#     4  11  22  36  54  77 115 152 199 237 283 338
#     4  12  21  35  48  71 112 161 193 223 272 335
#     4   9  19  33  59  78 106 149 196 238 286 333
#     4   9  19  39  57  80 111 154 189 242 307 338
#     4  12  24  35  53  83 114 156 197 238 283 341
#     4  12  22  36  58  90 114 144 204 253 281 334
#     4  10  19  35  52  72 114 159 188 228 284 339
#
# _framework density 18.21069
#
# number of rings (size 3 to 8) (size 9 to 14) (size 15 to 20)
#    0.000    1.250    5.000    2.625    3.500    1.000 
#    0.000    5.000    0.000    0.000    0.000    3.500 
#    0.000    0.000    0.000    0.000    0.000    0.000 
#
# Total GULP energy -396536.969982 kJ/mol
# GULP energy per Si atom -12391.780312 kJ/mol
# Density = 1.816924 g / cm^3
# Si number density = 18.210690 Si / 1000 Ang^3
#
#
#
# Elastic Constant Matrix: (Units=GPa)
#
#
# Indices 1 2 3 4 5 6 
#
# 1 87.9332 28.6016 53.9418 0.0000 -23.3518 0.0000
# 2 28.6016 65.0909 33.2311 0.0000 -5.5322 0.0000
# 3 53.9418 33.2311 112.6402 0.0000 -23.4002 0.0000
# 4 0.0000 0.0000 0.0000 34.3423 0.0000 4.7141
# 5 -23.3518 -5.5322 -23.4002 0.0000 33.9925 0.0000
# 6 0.0000 0.0000 0.0000 4.7141 0.0000 15.9642
#
#
#
# Elastic Compliance Matrix: (Units=1/GPa)
#
#
# Indices 1 2 3 4 5 6 
#
# 1 0.018569 -0.004459 -0.005925 0.000000 0.007952 0.000000
# 2 -0.004459 0.019179 -0.004097 0.000000 -0.002762 0.000000
# 3 -0.005925 -0.004097 0.013932 0.000000 0.004854 0.000000
# 4 0.000000 0.000000 0.000000 0.030349 0.000000 -0.008962
# 5 0.007952 -0.002762 0.004854 0.000000 0.037773 0.000000
# 6 0.000000 0.000000 0.000000 -0.008962 0.000000 0.065286
#
#
# Mechanical properties :
#
#
# Convention : Reuss Voigt Hill
#
# Bulk Modulus (GPa) = 44.01538 55.24592 49.63065
# Shear Modulus (GPa) = 22.56092 26.85245 24.70669
#
# Velocity S-wave (km/s) = 3.52360 3.84414 3.68735
# Velocity P-wave (km/s) = 6.38568 7.07857 6.74103
#
# Compressibility (1/GPa) = 0.02271933
#
# Stress axis : x y z
#
# Youngs Moduli (GPa) = 53.85356 52.14001 71.77598
#
# Poissons Ratio (x) = 0.23247 0.42528
# Poissons Ratio (y) = 0.24011 0.29405
# Poissons Ratio (z) = 0.31909 0.21361
#
# Static dielectric constant tensor:
#      x y z
#    x 3.157970 0.000000 -0.128880 
#    y 0.000000 3.463240 0.000000 
#    z -0.128880 0.000000 3.343710 
# 
# 
# High freq. dielectric constant tensor:
#      x y z
#    x 1.684510 0.000000 -0.022000 
#    y 0.000000 1.687280 0.000000 
#    z -0.022000 0.000000 1.716380 
# 
# From -- ./inp_files/63427.got.cif
#   From: 2010.06.25/outbox.cif.g09.slc.cpg/sg15_32_cif.got.tgz:63427.got - 2010.06.28 07:06:18.
