data_PCOD8134782
_publ_section_title
;
Structure prediction by ZEFSAII (Michael W. Deem and Ramdas Pophale) SiO2 
 PCOD8134782
Probable space group: C 2/C
;
_chemical_formula_sum "Si O2"
_cell_formula_units_Z 56
_cell_length_a 21.805691
_cell_length_b 11.273813
_cell_length_c 17.545114
_cell_angle_alpha 90.000000
_cell_angle_beta 139.122713
_cell_angle_gamma 90.000000
_cell_volume 2822.717789
_symmetry_space_group_name_H-M "C 2/C"
_symmetry_group_IT_number 15
_symmetry_cell_setting 'monoclinic'
loop_
_space_group_symop_operation_xyz
x,y,z
-x,y,1/2-z
-x,-y,-z
x,-y,1/2+z
1/2+x,1/2+y,z
1/2-x,1/2+y,1/2-z
1/2-x,1/2-y,-z
1/2+x,1/2-y,1/2+z
loop_
_atom_site_type_symbol
_atom_site_label
_atom_site_fract_x
_atom_site_fract_y
_atom_site_fract_z
Si Si1 0.357715 0.051231 0.917656
Si Si2 0.588250 0.417355 0.486621
Si Si3 0.260560 0.740653 0.421373
Si Si4 0.089542 0.779634 0.162146
Si Si5 0.485212 0.633709 0.326045
Si Si6 0.162000 0.969957 0.713044
Si Si7 0.497517 0.143146 0.555791
O O1 0.318202 0.148552 0.939791
O O2 0.398508 0.113534 0.879237
O O3 0.274346 0.957696 0.818843
O O4 0.443704 0.975367 0.035269
O O5 0.683069 0.381486 0.534251
O O6 0.505612 0.325801 0.386728
O O7 0.563309 0.551060 0.439363
O O8 0.607764 0.400114 0.595307
O O9 0.250000 0.750000 0.500000
O O10 0.158131 0.721098 0.288655
O O11 0.142871 0.892549 0.178031
O O12 0.067107 0.689124 0.074038
O O13 0.500000 0.635558 0.250000
O O14 0.382668 0.578835 0.249858
O O15 0.494267 0.766397 0.366596
#
# Coordination Sequence:
#
# PCOD8134782 Si02
#       7
#     8   8   8   8   8   8   8
#     4  10  23  38  66  89 123 164 206 262 304 371
#     4  11  20  39  64  89 121 164 216 252 304 375
#     4  11  24  37  59  94 127 159 205 257 315 368
#     4  10  19  36  62  87 115 161 204 255 299 361
#     4  11  23  38  65  93 126 160 202 266 319 368
#     4  10  19  39  64  92 117 160 217 251 299 376
#     4  11  20  43  62  89 123 163 214 253 311 372
#
# _framework density 19.839036
#
# number of rings (size 3 to 8) (size 9 to 14) (size 15 to 20)
#    0.000    1.429    4.286    1.714    6.000    1.143 
#    0.000    5.000    0.000    0.000    0.000    0.000 
#    0.000    0.000    0.000    0.000    0.000    0.000 
#
# Total GULP energy -347060.104025 kJ/mol
# GULP energy per Si atom -12395.003715 kJ/mol
# Density = 1.979388 g / cm^3
# Si number density = 19.839036 Si / 1000 Ang^3
#
#
#
# Elastic Constant Matrix: (Units=GPa)
#
#
# Indices 1 2 3 4 5 6 
#
# 1 140.2526 41.7084 73.7187 0.0000 -2.4088 0.0000
# 2 41.7084 66.9046 17.4073 0.0000 5.0045 0.0000
# 3 73.7187 17.4073 86.3586 0.0000 10.6663 0.0000
# 4 0.0000 0.0000 0.0000 19.3005 0.0000 6.4938
# 5 -2.4088 5.0045 10.6663 0.0000 34.7093 0.0000
# 6 0.0000 0.0000 0.0000 6.4938 0.0000 28.9873
#
#
#
# Elastic Compliance Matrix: (Units=1/GPa)
#
#
# Indices 1 2 3 4 5 6 
#
# 1 0.016370 -0.007215 -0.013293 0.000000 0.006261 0.000000
# 2 -0.007215 0.019015 0.002834 0.000000 -0.004113 0.000000
# 3 -0.013293 0.002834 0.023409 0.000000 -0.008525 0.000000
# 4 0.000000 0.000000 0.000000 0.056036 0.000000 -0.012553
# 5 0.006261 -0.004113 -0.008525 0.000000 0.032458 0.000000
# 6 0.000000 0.000000 0.000000 -0.012553 0.000000 0.037310
#
#
# Mechanical properties :
#
#
# Convention : Reuss Voigt Hill
#
# Bulk Modulus (GPa) = 42.65167 62.13163 52.39165
# Shear Modulus (GPa) = 21.95286 27.31154 24.63220
#
# Velocity S-wave (km/s) = 3.33009 3.71436 3.52746
# Velocity P-wave (km/s) = 6.02757 7.05557 6.56173
#
# Compressibility (1/GPa) = 0.02344574
#
# Stress axis : x y z
#
# Youngs Moduli (GPa) = 61.08653 52.59087 42.71889
#
# Poissons Ratio (x) = 0.37944 0.56787
# Poissons Ratio (y) = 0.44073 -0.12107
# Poissons Ratio (z) = 0.81204 -0.14905
#
# Static dielectric constant tensor:
#      x y z
#    x 3.373180 0.000000 0.374770 
#    y 0.000000 3.887280 0.000000 
#    z 0.374770 0.000000 3.675450 
# 
# 
# High freq. dielectric constant tensor:
#      x y z
#    x 1.768410 0.000000 0.024070 
#    y 0.000000 1.776260 0.000000 
#    z 0.024070 0.000000 1.756920 
# 
# From -- ./inp_files/219180.got.cif
#   From: 2010.06.25/outbox.cif.g09.slc.cpg/sg15_110_cif.got.tgz:219180.got - 2010.06.28 07:06:18.
