data_PCOD8134335
_publ_section_title
;
Structure prediction by ZEFSAII (Michael W. Deem and Ramdas Pophale) SiO2 
 PCOD8134335
Probable space group: C 2/C
;
_chemical_formula_sum "Si O2"
_cell_formula_units_Z 56
_cell_length_a 28.970755
_cell_length_b 15.096898
_cell_length_c 12.085619
_cell_angle_alpha 90.000000
_cell_angle_beta 29.830875
_cell_angle_gamma 90.000000
_cell_volume 2629.410841
_symmetry_space_group_name_H-M "C 2/C"
_symmetry_group_IT_number 15
_symmetry_cell_setting 'monoclinic'
loop_
_space_group_symop_operation_xyz
x,y,z
-x,y,1/2-z
-x,-y,-z
x,-y,1/2+z
1/2+x,1/2+y,z
1/2-x,1/2+y,1/2-z
1/2-x,1/2-y,-z
1/2+x,1/2-y,1/2+z
loop_
_atom_site_type_symbol
_atom_site_label
_atom_site_fract_x
_atom_site_fract_y
_atom_site_fract_z
Si Si1 0.663441 0.183192 0.680109
Si Si2 0.083050 0.127459 0.643646
Si Si3 0.274093 0.089024 0.166671
Si Si4 0.527866 0.714550 0.958176
Si Si5 0.701203 0.242525 0.218744
Si Si6 0.444768 0.433155 0.756233
Si Si7 0.260942 0.892595 0.262465
O O1 0.750000 0.250000 0.500000
O O2 0.674979 0.118667 0.550661
O O3 0.560202 0.222951 0.883092
O O4 0.666616 0.132018 0.790678
O O5 0.163754 0.106620 0.387734
O O6 0.000000 0.171751 0.750000
O O7 0.048842 0.037626 0.773452
O O8 0.100085 0.200980 0.703967
O O9 0.298627 0.145517 0.225472
O O10 0.296050 0.984890 0.135791
O O11 0.489460 0.616340 0.059943
O O12 0.590334 0.745185 0.931505
O O13 0.751325 0.314713 0.192614
O O14 0.750000 0.250000 0.000000
O O15 0.500000 0.402405 0.750000
O O16 0.338651 0.403662 0.976567
#
# Coordination Sequence:
#
# PCOD8134335 Si02
#       7
#     8   8   8   8   8   8   8
#     4  12  24  43  70 100 135 182 231 275 338 410
#     4  10  22  36  58  98 136 167 213 281 357 409
#     4  11  25  44  67  98 139 180 226 283 339 406
#     4  12  23  39  67  94 133 176 224 279 345 398
#     4  12  25  44  68 101 136 181 229 283 345 405
#     4  10  19  35  60  97 128 163 210 278 350 411
#     4  11  25  43  69  98 137 181 229 278 342 405
#
# _framework density 21.297547000000002
#
# number of rings (size 3 to 8) (size 9 to 14) (size 15 to 20)
#    0.000    0.857    5.714    1.286    2.000    0.000 
#    0.000    0.714    3.143    0.000    0.000    0.000 
#    0.000    0.000    0.000    0.000    0.000    0.000 
#
# Total GULP energy -346891.805947 kJ/mol
# GULP energy per Si atom -12388.993070 kJ/mol
# Density = 2.124907 g / cm^3
# Si number density = 21.297547 Si / 1000 Ang^3
#
#
#
# Elastic Constant Matrix: (Units=GPa)
#
#
# Indices 1 2 3 4 5 6 
#
# 1 132.3598 48.8542 42.6589 0.0000 0.4992 0.0000
# 2 48.8542 86.7189 27.8059 0.0000 5.3042 0.0000
# 3 42.6589 27.8059 59.1867 0.0000 10.9172 0.0000
# 4 0.0000 0.0000 0.0000 7.7482 0.0000 3.0430
# 5 0.4992 5.3042 10.9172 0.0000 33.1335 0.0000
# 6 0.0000 0.0000 0.0000 3.0430 0.0000 33.7455
#
#
#
# Elastic Compliance Matrix: (Units=1/GPa)
#
#
# Indices 1 2 3 4 5 6 
#
# 1 0.011291 -0.004423 -0.006558 0.000000 0.002699 0.000000
# 2 -0.004423 0.015310 -0.003795 0.000000 -0.001134 0.000000
# 3 -0.006558 -0.003795 0.024781 0.000000 -0.007459 0.000000
# 4 0.000000 0.000000 0.000000 0.133801 0.000000 -0.012066
# 5 0.002699 -0.001134 -0.007459 0.000000 0.032779 0.000000
# 6 0.000000 0.000000 0.000000 -0.012066 0.000000 0.030722
#
#
# Mechanical properties :
#
#
# Convention : Reuss Voigt Hill
#
# Bulk Modulus (GPa) = 45.81042 57.43372 51.62207
# Shear Modulus (GPa) = 17.51234 25.52187 21.51711
#
# Velocity S-wave (km/s) = 2.87064 3.46547 3.18198
# Velocity P-wave (km/s) = 5.70472 6.56037 6.14745
#
# Compressibility (1/GPa) = 0.02182910
#
# Stress axis : x y z
#
# Youngs Moduli (GPa) = 88.56431 65.31787 40.35340
#
# Poissons Ratio (x) = 0.28893 0.26463
# Poissons Ratio (y) = 0.39175 0.15315
# Poissons Ratio (z) = 0.58079 0.24790
#
# Static dielectric constant tensor:
#      x y z
#    x 4.196770 0.000000 -0.043720 
#    y 0.000000 3.951080 0.000000 
#    z -0.043720 0.000000 3.764820 
# 
# 
# High freq. dielectric constant tensor:
#      x y z
#    x 1.849410 0.000000 0.003000 
#    y 0.000000 1.827810 0.000000 
#    z 0.003000 0.000000 1.828160 
# 
# From -- ./inp_files/126962.got.cif
#   From: 2010.06.25/outbox.cif.g09.slc.cpg/sg15_64_cif.got.tgz:126962.got - 2010.06.28 07:06:18.
