data_PCOD8134851
_publ_section_title
;
Structure prediction by ZEFSAII (Michael W. Deem and Ramdas Pophale) SiO2 
 PCOD8134851
Probable space group: C 2/C
;
_chemical_formula_sum "Si O2"
_cell_formula_units_Z 56
_cell_length_a 10.938841
_cell_length_b 20.660558
_cell_length_c 12.434810
_cell_angle_alpha 90.000000
_cell_angle_beta 104.467497
_cell_angle_gamma 90.000000
_cell_volume 2721.182957
_symmetry_space_group_name_H-M "C 2/C"
_symmetry_group_IT_number 15
_symmetry_cell_setting 'monoclinic'
loop_
_space_group_symop_operation_xyz
x,y,z
-x,y,1/2-z
-x,-y,-z
x,-y,1/2+z
1/2+x,1/2+y,z
1/2-x,1/2+y,1/2-z
1/2-x,1/2-y,-z
1/2+x,1/2-y,1/2+z
loop_
_atom_site_type_symbol
_atom_site_label
_atom_site_fract_x
_atom_site_fract_y
_atom_site_fract_z
Si Si1 0.160339 0.855090 0.196610
Si Si2 0.266026 0.230858 0.384004
Si Si3 0.382790 0.322816 0.077277
Si Si4 0.237069 0.406716 0.886772
Si Si5 0.358662 0.468216 0.470687
Si Si6 0.141493 0.894414 0.809496
Si Si7 0.468448 0.807780 0.625747
O O1 0.255646 0.796811 0.188362
O O2 0.171650 0.860201 0.328807
O O3 0.175278 0.924591 0.142004
O O4 0.032270 0.827653 0.118872
O O5 0.250000 0.250000 0.500000
O O6 0.154645 0.182543 0.325193
O O7 0.399058 0.190983 0.407322
O O8 0.363654 0.244592 0.060525
O O9 0.338712 0.356982 0.959083
O O10 0.254020 0.475521 0.947015
O O11 0.263910 0.415519 0.765700
O O12 0.097289 0.378634 0.881975
O O13 0.500000 0.500000 0.500000
O O14 0.327642 0.429543 0.571903
O O15 0.000000 0.913965 0.750000
O O16 0.500000 0.780846 0.750000
#
# Coordination Sequence:
#
# PCOD8134851 Si02
#       7
#     8   8   8   8   8   8   8
#     4  10  19  37  62  89 125 171 202 258 334 376
#     4  11  22  42  68  92 128 168 214 268 329 394
#     4  10  19  36  64  93 123 160 211 268 321 379
#     4  12  25  38  63  95 132 168 221 268 317 401
#     4  12  24  38  58  93 134 170 213 266 326 385
#     4  12  24  40  66  97 125 167 219 276 329 381
#     4  11  21  41  65  93 128 175 211 264 331 393
#
# _framework density 20.579284999999999
#
# number of rings (size 3 to 8) (size 9 to 14) (size 15 to 20)
#    0.000    0.857    8.571    0.429    4.000    0.000 
#    0.000    0.714    0.000    0.857    0.000    0.000 
#    0.000    0.000    0.000    0.000    0.000    0.000 
#
# Total GULP energy -346911.803204 kJ/mol
# GULP energy per Si atom -12389.707257 kJ/mol
# Density = 2.053245 g / cm^3
# Si number density = 20.579285 Si / 1000 Ang^3
#
#
#
# Elastic Constant Matrix: (Units=GPa)
#
#
# Indices 1 2 3 4 5 6 
#
# 1 55.9345 22.6374 11.8248 0.0000 -17.7321 0.0000
# 2 22.6374 126.9312 16.6856 0.0000 -7.0308 0.0000
# 3 11.8248 16.6856 74.4723 0.0000 -22.3643 0.0000
# 4 0.0000 0.0000 0.0000 30.3030 0.0000 2.2509
# 5 -17.7321 -7.0308 -22.3643 0.0000 23.9132 0.0000
# 6 0.0000 0.0000 0.0000 2.2509 0.0000 31.7444
#
#
#
# Elastic Compliance Matrix: (Units=1/GPa)
#
#
# Indices 1 2 3 4 5 6 
#
# 1 0.025232 -0.003760 0.002952 0.000000 0.020365 0.000000
# 2 -0.003760 0.008693 -0.001975 0.000000 -0.002079 0.000000
# 3 0.002952 -0.001975 0.019307 0.000000 0.019664 0.000000
# 4 0.000000 0.000000 0.000000 0.033175 0.000000 -0.002352
# 5 0.020365 -0.002079 0.019664 0.000000 0.074698 0.000000
# 6 0.000000 0.000000 0.000000 -0.002352 0.000000 0.031668
#
#
# Mechanical properties :
#
#
# Convention : Reuss Voigt Hill
#
# Bulk Modulus (GPa) = 20.97963 39.95930 30.46946
# Shear Modulus (GPa) = 23.33956 30.93814 27.13885
#
# Velocity S-wave (km/s) = 3.37134 3.88153 3.63539
# Velocity P-wave (km/s) = 5.03698 6.28870 5.69732
#
# Compressibility (1/GPa) = 0.04766529
#
# Stress axis : x y z
#
# Youngs Moduli (GPa) = 39.63267 115.03092 51.79475
#
# Poissons Ratio (x) = 0.43251 -0.15289
# Poissons Ratio (y) = 0.14902 0.10230
# Poissons Ratio (z) = -0.11699 0.22721
#
# Static dielectric constant tensor:
#      x y z
#    x 3.438470 0.000000 -0.131580 
#    y 0.000000 3.829080 0.000000 
#    z -0.131580 0.000000 3.817970 
# 
# 
# High freq. dielectric constant tensor:
#      x y z
#    x 1.770610 0.000000 -0.012210 
#    y 0.000000 1.811790 0.000000 
#    z -0.012210 0.000000 1.809970 
# 
# From -- ./inp_files/89030.got.cif
#   From: 2010.06.25/outbox.cif.g09.slc.cpg/sg15_45_cif.got.tgz:89030.got - 2010.06.28 07:06:18.
