data_PCOD8134116
_publ_section_title
;
Structure prediction by ZEFSAII (Michael W. Deem and Ramdas Pophale) SiO2 
 PCOD8134116
Probable space group: C 2/C
;
_chemical_formula_sum "Si O2"
_cell_formula_units_Z 64
_cell_length_a 18.620899
_cell_length_b 19.844311
_cell_length_c 18.669803
_cell_angle_alpha 90.000000
_cell_angle_beta 30.453949
_cell_angle_gamma 90.000000
_cell_volume 3496.649867
_symmetry_space_group_name_H-M "C 2/C"
_symmetry_group_IT_number 15
_symmetry_cell_setting 'monoclinic'
loop_
_space_group_symop_operation_xyz
x,y,z
-x,y,1/2-z
-x,-y,-z
x,-y,1/2+z
1/2+x,1/2+y,z
1/2-x,1/2+y,1/2-z
1/2-x,1/2-y,-z
1/2+x,1/2-y,1/2+z
loop_
_atom_site_type_symbol
_atom_site_label
_atom_site_fract_x
_atom_site_fract_y
_atom_site_fract_z
Si Si1 0.104657 0.473929 0.102341
Si Si2 0.064227 0.688761 0.393037
Si Si3 0.876212 0.809057 0.572144
Si Si4 0.395504 0.362833 0.399096
Si Si5 0.886684 0.446383 0.567652
Si Si6 0.414243 0.872651 0.889791
Si Si7 0.584956 0.483379 0.609266
Si Si8 0.426662 0.445361 0.612095
O O1 0.047502 0.548783 0.134137
O O2 0.000000 0.438615 0.250000
O O3 0.111038 0.437848 0.020231
O O4 0.251014 0.472136 0.018701
O O5 0.216415 0.711130 0.230901
O O6 0.079019 0.628263 0.435759
O O7 0.987715 0.751138 0.498527
O O8 0.957700 0.666406 0.422826
O O9 0.886009 0.817881 0.477986
O O10 0.921969 0.875645 0.574273
O O11 0.500000 0.330882 0.250000
O O12 0.250096 0.364287 0.481624
O O13 0.446041 0.437594 0.378777
O O14 0.730976 0.469176 0.728729
O O15 0.000000 0.500000 0.500000
O O16 0.500000 0.841308 0.750000
O O17 0.500000 0.456882 0.750000
O O18 0.529096 0.437933 0.592230
O O19 0.500000 0.500000 0.500000
#
# Coordination Sequence:
#
# PCOD8134116 Si02
#       8
#     8   8   8   8   8   8   8   8
#     4  10  21  35  61  91 121 150 191 246 306 354
#     4  11  25  41  59  81 122 162 202 242 291 351
#     4  11  25  42  56  84 120 164 200 243 294 347
#     4  10  21  33  56  87 119 151 197 234 286 356
#     4  11  23  39  61  93 121 156 198 249 303 354
#     4  10  19  35  56  83 119 157 193 237 284 348
#     4  10  19  37  59  90 120 151 193 249 298 353
#     4  11  23  38  64  90 121 156 201 250 298 353
#
# _framework density 18.303235000000001
#
# number of rings (size 3 to 8) (size 9 to 14) (size 15 to 20)
#    0.000    1.500    5.000    0.000    3.500    2.000 
#    0.000    0.000    0.000    1.500    0.000    0.000 
#    0.000    0.000    0.000    0.000    0.000    0.000 
#
# Total GULP energy -396779.068352 kJ/mol
# GULP energy per Si atom -12399.345886 kJ/mol
# Density = 1.826158 g / cm^3
# Si number density = 18.303235 Si / 1000 Ang^3
#
#
#
# Elastic Constant Matrix: (Units=GPa)
#
#
# Indices 1 2 3 4 5 6 
#
# 1 101.7795 41.2005 52.4155 -0.0007 5.6406 0.0034
# 2 41.2005 70.3584 54.5422 0.0143 -0.2535 -0.0161
# 3 52.4155 54.5422 148.1591 0.0058 6.7418 -0.0023
# 4 -0.0007 0.0143 0.0058 29.6444 -0.0086 -7.4101
# 5 5.6406 -0.2535 6.7418 -0.0086 28.6772 0.0133
# 6 0.0034 -0.0161 -0.0023 -7.4101 0.0133 27.5684
#
#
#
# Elastic Compliance Matrix: (Units=1/GPa)
#
#
# Indices 1 2 3 4 5 6 
#
# 1 0.013700 -0.006086 -0.002508 0.000002 -0.002159 -0.000004
# 2 -0.006086 0.022697 -0.006334 -0.000006 0.002887 0.000010
# 3 -0.002508 -0.006334 0.010056 0.000000 -0.001927 -0.000002
# 4 0.000002 -0.000006 0.000000 0.036163 0.000006 0.009720
# 5 -0.002159 0.002887 -0.001927 0.000006 0.035774 -0.000014
# 6 -0.000004 0.000010 -0.000002 0.009720 -0.000014 0.038886
#
#
# Mechanical properties :
#
#
# Convention : Reuss Voigt Hill
#
# Bulk Modulus (GPa) = 60.24967 68.51259 64.38113
# Shear Modulus (GPa) = 25.95177 28.65390 27.30284
#
# Velocity S-wave (km/s) = 3.76956 3.96095 3.86644
# Velocity P-wave (km/s) = 7.20660 7.64408 7.42856
#
# Compressibility (1/GPa) = 0.01659760
#
# Stress axis : x y z
#
# Youngs Moduli (GPa) = 72.99231 44.05834 99.44129
#
# Poissons Ratio (x) = 0.26814 0.24941
# Poissons Ratio (y) = 0.44423 0.62985
# Poissons Ratio (z) = 0.18307 0.27906
#
# Static dielectric constant tensor:
#      x y z
#    x 4.563190 0.000020 -0.214400 
#    y 0.000020 3.212470 0.000020 
#    z -0.214400 0.000020 3.676660 
# 
# 
# High freq. dielectric constant tensor:
#      x y z
#    x 1.713160 0.000000 -0.002420 
#    y 0.000000 1.677870 0.000000 
#    z -0.002420 0.000000 1.729730 
# 
# From -- ./inp_files/63441.got.cif
#   From: 2010.06.25/outbox.cif.g09.slc.cpg/sg15_32_cif.got.tgz:63441.got - 2010.06.28 07:06:18.
