data_PCOD8134240
_publ_section_title
;
Structure prediction by ZEFSAII (Michael W. Deem and Ramdas Pophale) SiO2 
 PCOD8134240
Probable space group: C 2/C
;
_chemical_formula_sum "Si O2"
_cell_formula_units_Z 64
_cell_length_a 16.075030
_cell_length_b 8.937405
_cell_length_c 32.788736
_cell_angle_alpha 90.000000
_cell_angle_beta 43.013114
_cell_angle_gamma 90.000000
_cell_volume 3213.496325
_symmetry_space_group_name_H-M "C 2/C"
_symmetry_group_IT_number 15
_symmetry_cell_setting 'monoclinic'
loop_
_space_group_symop_operation_xyz
x,y,z
-x,y,1/2-z
-x,-y,-z
x,-y,1/2+z
1/2+x,1/2+y,z
1/2-x,1/2+y,1/2-z
1/2-x,1/2-y,-z
1/2+x,1/2-y,1/2+z
loop_
_atom_site_type_symbol
_atom_site_label
_atom_site_fract_x
_atom_site_fract_y
_atom_site_fract_z
Si Si1 0.985967 0.175588 0.641137
Si Si2 0.962827 0.847623 0.681027
Si Si3 0.292027 0.205840 0.878289
Si Si4 0.148465 0.576376 0.099837
Si Si5 0.448644 0.711013 0.490372
Si Si6 0.274161 0.836582 0.683020
Si Si7 0.457849 0.897414 0.116754
Si Si8 0.084858 0.122568 0.519390
O O1 0.847435 0.235852 0.689535
O O2 0.066342 0.280697 0.642679
O O3 0.042122 0.199978 0.576113
O O4 0.992960 0.006469 0.651354
O O5 0.859505 0.866914 0.751904
O O6 0.919129 0.735031 0.661435
O O7 0.085354 0.797788 0.659484
O O8 0.193050 0.246729 0.948709
O O9 0.235778 0.240049 0.854581
O O10 0.320897 0.027299 0.871745
O O11 0.074386 0.480303 0.093335
O O12 0.270258 0.635022 0.035038
O O13 0.502740 0.834437 0.441009
O O14 0.526871 0.717343 0.503494
O O15 0.460994 0.548628 0.465212
O O16 0.342410 0.994133 0.651406
#
# Coordination Sequence:
#
# PCOD8134240 Si02
#       8
#     8   8   8   8   8   8   8   8
#     4  11  21  39  61  90 117 157 200 245 303 353
#     4  11  23  39  64  85 119 160 204 255 292 356
#     4  10  22  40  60  86 120 160 197 248 304 360
#     4   9  22  36  59  88 123 150 194 243 302 367
#     4  10  20  36  61  90 125 155 195 246 308 365
#     4  11  23  42  59  86 120 161 210 242 299 361
#     4  10  22  39  60  90 119 157 201 249 297 359
#     4  10  19  35  58  91 124 154 189 241 304 367
#
# _framework density 19.916001000000001
#
# number of rings (size 3 to 8) (size 9 to 14) (size 15 to 20)
#    0.000    1.750    2.500    1.500    1.750    3.000 
#    0.000    0.000    0.000    4.500    0.000    0.000 
#    0.000    0.000    0.000    0.000    0.000    0.000 
#
# Total GULP energy -396851.462891 kJ/mol
# GULP energy per Si atom -12401.608215 kJ/mol
# Density = 1.987067 g / cm^3
# Si number density = 19.916001 Si / 1000 Ang^3
#
#
#
# Elastic Constant Matrix: (Units=GPa)
#
#
# Indices 1 2 3 4 5 6 
#
# 1 77.7363 45.9595 41.6520 -0.0020 -15.6514 -0.0038
# 2 45.9595 93.3677 25.5926 -0.0037 -9.2180 -0.0064
# 3 41.6520 25.5926 88.2456 -0.0004 -18.2851 -0.0018
# 4 -0.0020 -0.0037 -0.0004 19.0053 -0.0012 -4.1784
# 5 -15.6514 -9.2180 -18.2851 -0.0012 29.0939 -0.0018
# 6 -0.0038 -0.0064 -0.0018 -4.1784 -0.0018 32.6276
#
#
#
# Elastic Compliance Matrix: (Units=1/GPa)
#
#
# Indices 1 2 3 4 5 6 
#
# 1 0.022974 -0.008828 -0.007246 0.000001 0.005008 0.000001
# 2 -0.008828 0.015110 -0.000238 0.000003 -0.000112 0.000002
# 3 -0.007246 -0.000238 0.016094 0.000000 0.006141 0.000000
# 4 0.000001 0.000003 0.000000 0.054141 0.000004 0.006934
# 5 0.005008 -0.000112 0.006141 0.000004 0.040890 0.000004
# 6 0.000001 0.000002 0.000000 0.006934 0.000004 0.031537
#
#
# Mechanical properties :
#
#
# Convention : Reuss Voigt Hill
#
# Bulk Modulus (GPa) = 46.39664 53.97309 50.18487
# Shear Modulus (GPa) = 22.67001 25.88839 24.27920
#
# Velocity S-wave (km/s) = 3.37750 3.60929 3.49532
# Velocity P-wave (km/s) = 6.20941 6.67297 6.44536
#
# Compressibility (1/GPa) = 0.02155328
#
# Stress axis : x y z
#
# Youngs Moduli (GPa) = 43.52704 66.17985 62.13636
#
# Poissons Ratio (x) = 0.58426 0.45022
# Poissons Ratio (y) = 0.38427 0.01481
# Poissons Ratio (z) = 0.31539 0.01578
#
# Static dielectric constant tensor:
#      x y z
#    x 3.711110 0.000000 -0.181610 
#    y 0.000000 3.698050 0.000000 
#    z -0.181610 0.000000 3.503430 
# 
# 
# High freq. dielectric constant tensor:
#      x y z
#    x 1.780650 0.000000 -0.018320 
#    y 0.000000 1.780510 0.000000 
#    z -0.018320 0.000000 1.766810 
# 
# From -- ./inp_files/313146.got.cif
#   From: 2010.06.25/outbox.cif.g09.slc.cpg/sg15_157_cif.got.tgz:313146.got - 2010.06.28 07:06:18.
