data_PCOD8134370
_publ_section_title
;
Structure prediction by ZEFSAII (Michael W. Deem and Ramdas Pophale) SiO2 
 PCOD8134370
Probable space group: C 2/C
;
_chemical_formula_sum "Si O2"
_cell_formula_units_Z 48
_cell_length_a 8.227678
_cell_length_b 15.578720
_cell_length_c 24.519362
_cell_angle_alpha 90.000000
_cell_angle_beta 134.841352
_cell_angle_gamma 90.000000
_cell_volume 2228.447636
_symmetry_space_group_name_H-M "C 2/C"
_symmetry_group_IT_number 15
_symmetry_cell_setting 'monoclinic'
loop_
_space_group_symop_operation_xyz
x,y,z
-x,y,1/2-z
-x,-y,-z
x,-y,1/2+z
1/2+x,1/2+y,z
1/2-x,1/2+y,1/2-z
1/2-x,1/2-y,-z
1/2+x,1/2-y,1/2+z
loop_
_atom_site_type_symbol
_atom_site_label
_atom_site_fract_x
_atom_site_fract_y
_atom_site_fract_z
Si Si1 0.612225 0.116100 0.984980
Si Si2 0.298747 0.569201 0.535844
Si Si3 0.743724 0.004793 0.822325
Si Si4 0.999088 0.763358 0.610745
Si Si5 0.812424 0.857115 0.750698
Si Si6 0.804821 0.636022 0.102554
O O1 0.375418 0.099991 0.959534
O O2 0.564353 0.163848 0.915721
O O3 0.772906 0.177178 0.059542
O O4 0.742529 0.027774 0.003411
O O5 0.552957 0.573938 0.622657
O O6 0.286669 0.630658 0.480756
O O7 0.500000 0.049981 0.750000
O O8 0.805304 0.937614 0.789545
O O9 0.721562 0.955040 0.874094
O O10 0.123914 0.772644 0.698516
O O11 0.161709 0.790856 0.599022
O O12 0.571907 0.838096 0.664873
O O13 0.000000 0.877813 0.750000
#
# Coordination Sequence:
#
# PCOD8134370 Si02
#       6
#     8   8   8   8   8   8
#     4  10  22  34  62  85 126 149 201 254 304 356
#     4  11  20  37  61  98 117 155 204 254 299 368
#     4   9  19  35  57  90 122 158 196 249 304 360
#     4  10  20  40  56  88 117 166 196 252 307 366
#     4  10  19  35  62  84 114 165 214 242 296 375
#     4  10  20  33  65  85 119 162 204 244 300 366
#
# _framework density 21.539657999999999
#
# number of rings (size 3 to 8) (size 9 to 14) (size 15 to 20)
#    0.000    2.000    3.333    3.000    2.333    0.667 
#    0.000    0.000   14.667    2.000    0.000    0.000 
#    0.000    0.000    0.000    0.000    0.000    0.000 
#
# Total GULP energy -297591.961620 kJ/mol
# GULP energy per Si atom -12399.665067 kJ/mol
# Density = 2.149063 g / cm^3
# Si number density = 21.539658 Si / 1000 Ang^3
#
#
#
# Elastic Constant Matrix: (Units=GPa)
#
#
# Indices 1 2 3 4 5 6 
#
# 1 87.8596 12.6624 59.2093 0.0001 21.5981 0.0001
# 2 12.6624 55.1363 30.6188 0.0000 5.7836 0.0000
# 3 59.2093 30.6188 147.5582 0.0000 23.2383 0.0000
# 4 0.0001 0.0000 0.0000 27.5579 0.0000 -2.4011
# 5 21.5981 5.7836 23.2383 0.0000 45.6381 0.0001
# 6 0.0001 0.0000 0.0000 -2.4011 0.0001 10.6944
#
#
#
# Elastic Compliance Matrix: (Units=1/GPa)
#
#
# Indices 1 2 3 4 5 6 
#
# 1 0.016525 -0.000032 -0.005864 0.000000 -0.004831 0.000000
# 2 -0.000032 0.020508 -0.004170 0.000000 -0.000460 0.000000
# 3 -0.005864 -0.004170 0.010301 0.000000 -0.001942 0.000000
# 4 0.000000 0.000000 0.000000 0.037011 0.000000 0.008310
# 5 -0.004831 -0.000460 -0.001942 0.000000 0.025245 0.000000
# 6 0.000000 0.000000 0.000000 0.008310 0.000000 0.095373
#
#
# Mechanical properties :
#
#
# Convention : Reuss Voigt Hill
#
# Bulk Modulus (GPa) = 36.76071 55.05946 45.91009
# Shear Modulus (GPa) = 21.35263 29.31565 25.33414
#
# Velocity S-wave (km/s) = 3.15193 3.69319 3.43324
# Velocity P-wave (km/s) = 5.50907 6.61843 6.08906
#
# Compressibility (1/GPa) = 0.02720295
#
# Stress axis : x y z
#
# Youngs Moduli (GPa) = 60.51255 48.76059 97.07893
#
# Poissons Ratio (x) = 0.00157 0.56923
# Poissons Ratio (y) = 0.00195 0.40483
# Poissons Ratio (z) = 0.35482 0.20334
#
# Static dielectric constant tensor:
#      x y z
#    x 3.815310 0.000000 0.265930 
#    y 0.000000 3.541860 0.000000 
#    z 0.265930 0.000000 4.170160 
# 
# 
# High freq. dielectric constant tensor:
#      x y z
#    x 1.850920 0.000000 0.017470 
#    y 0.000000 1.804830 0.000000 
#    z 0.017470 0.000000 1.853740 
# 
# From -- ./inp_files/265348.got.cif
#   From: 2010.06.25/outbox.cif.g09.slc.cpg/sg15_133_cif.got.tgz:265348.got - 2010.06.28 07:06:18.
