data_PCOD8134739
_publ_section_title
;
Structure prediction by ZEFSAII (Michael W. Deem and Ramdas Pophale) SiO2 
 PCOD8134739
Probable space group: C 2/C
;
_chemical_formula_sum "Si O2"
_cell_formula_units_Z 44
_cell_length_a 5.178939
_cell_length_b 26.044435
_cell_length_c 18.159759
_cell_angle_alpha 90.000000
_cell_angle_beta 120.487479
_cell_angle_gamma 90.000000
_cell_volume 2110.775751
_symmetry_space_group_name_H-M "C 2/C"
_symmetry_group_IT_number 15
_symmetry_cell_setting 'monoclinic'
loop_
_space_group_symop_operation_xyz
x,y,z
-x,y,1/2-z
-x,-y,-z
x,-y,1/2+z
1/2+x,1/2+y,z
1/2-x,1/2+y,1/2-z
1/2-x,1/2-y,-z
1/2+x,1/2-y,1/2+z
loop_
_atom_site_type_symbol
_atom_site_label
_atom_site_fract_x
_atom_site_fract_y
_atom_site_fract_z
Si Si1 0.368462 0.375849 0.569232
Si Si2 0.979223 0.360135 0.129708
Si Si3 0.500000 0.056584 0.750000
Si Si4 0.556500 0.701757 0.885355
Si Si5 0.404117 0.185527 0.084700
Si Si6 0.831517 0.958749 0.800978
O O1 0.172127 0.379785 0.467304
O O2 0.658011 0.340507 0.600364
O O3 0.474759 0.433236 0.605611
O O4 0.185653 0.351825 0.611377
O O5 0.754310 0.327092 0.146908
O O6 0.075997 0.409982 0.189343
O O7 0.270913 0.325195 0.157419
O O8 0.788944 0.020090 0.809175
O O9 0.492589 0.761817 0.860278
O O10 0.772160 0.698497 0.986183
O O11 0.500000 0.932862 0.750000
O O12 0.000000 0.948206 0.750000
#
# Coordination Sequence:
#
# PCOD8134739 Si02
#       6
#     8   8   4   8   8   8
#     4  10  19  36  61  88 111 150 197 233 283 353
#     4  10  21  35  60  85 116 153 193 235 281 349
#     4  10  26  40  60  78 120 158 188 250 302 322
#     4   9  18  33  56  89 115 147 185 225 286 345
#     4   9  17  32  59  88 117 144 181 235 281 340
#     4  10  23  40  59  81 110 156 190 246 301 337
#
# _framework density 20.845417000000001
#
# number of rings (size 3 to 8) (size 9 to 14) (size 15 to 20)
#    0.545    1.818    0.000    2.182    2.545    5.091 
#    0.000    0.909   20.000    0.000    0.000    0.000 
#    0.000    0.000    0.000    0.000    0.000    0.000 
#
# Total GULP energy -272732.993783 kJ/mol
# GULP energy per Si atom -12396.954263 kJ/mol
# Density = 2.079797 g / cm^3
# Si number density = 20.845417 Si / 1000 Ang^3
#
#
#
# Elastic Constant Matrix: (Units=GPa)
#
#
# Indices 1 2 3 4 5 6 
#
# 1 134.8443 39.2321 31.6584 0.0000 -15.1528 0.0000
# 2 39.2321 146.2250 54.4599 0.0000 1.8579 0.0000
# 3 31.6584 54.4599 42.7487 0.0000 -3.7968 0.0000
# 4 0.0000 0.0000 0.0000 17.6167 0.0000 9.1537
# 5 -15.1528 1.8579 -3.7968 0.0000 16.7486 0.0000
# 6 0.0000 0.0000 0.0000 9.1537 0.0000 15.6678
#
#
#
# Elastic Compliance Matrix: (Units=1/GPa)
#
#
# Indices 1 2 3 4 5 6 
#
# 1 0.009813 -0.000521 -0.005929 0.000000 0.007591 0.000000
# 2 -0.000521 0.013520 -0.017363 0.000000 -0.005907 0.000000
# 3 -0.005929 -0.017363 0.050617 0.000000 0.008036 0.000000
# 4 0.000000 0.000000 0.000000 0.081508 0.000000 -0.047620
# 5 0.007591 -0.005907 0.008036 0.000000 0.069052 0.000000
# 6 0.000000 0.000000 0.000000 -0.047620 0.000000 0.091647
#
#
# Mechanical properties :
#
#
# Convention : Reuss Voigt Hill
#
# Bulk Modulus (GPa) = 37.98855 63.83542 50.91198
# Shear Modulus (GPa) = 13.42077 23.23777 18.32927
#
# Velocity S-wave (km/s) = 2.54012 3.34243 2.96851
# Velocity P-wave (km/s) = 5.18328 6.75171 6.01880
#
# Compressibility (1/GPa) = 0.02632372
#
# Stress axis : x y z
#
# Youngs Moduli (GPa) = 101.90982 73.96284 19.75626
#
# Poissons Ratio (x) = 0.03853 0.11713
# Poissons Ratio (y) = 0.05310 0.34303
# Poissons Ratio (z) = 0.60422 1.28422
#
# Static dielectric constant tensor:
#      x y z
#    x 3.891880 0.000000 -0.078680 
#    y 0.000000 3.816860 0.000000 
#    z -0.078680 0.000000 3.441080 
# 
# 
# High freq. dielectric constant tensor:
#      x y z
#    x 1.830530 0.000000 -0.010460 
#    y 0.000000 1.814530 0.000000 
#    z -0.010460 0.000000 1.785680 
# 
# From -- ./inp_files/184978.got.cif
#   From: 2010.06.25/outbox.cif.g09.slc.cpg/sg15_93_cif.got.tgz:184978.got - 2010.06.28 07:06:18.
