data_PCOD8134879
_publ_section_title
;
Structure prediction by ZEFSAII (Michael W. Deem and Ramdas Pophale) SiO2 
 PCOD8134879
Probable space group: C 2/C
;
_chemical_formula_sum "Si O2"
_cell_formula_units_Z 48
_cell_length_a 13.751506
_cell_length_b 12.197272
_cell_length_c 13.936582
_cell_angle_alpha 90.000000
_cell_angle_beta 120.851195
_cell_angle_gamma 90.000000
_cell_volume 2006.829949
_symmetry_space_group_name_H-M "C 2/C"
_symmetry_group_IT_number 15
_symmetry_cell_setting 'monoclinic'
loop_
_space_group_symop_operation_xyz
x,y,z
-x,y,1/2-z
-x,-y,-z
x,-y,1/2+z
1/2+x,1/2+y,z
1/2-x,1/2+y,1/2-z
1/2-x,1/2-y,-z
1/2+x,1/2-y,1/2+z
loop_
_atom_site_type_symbol
_atom_site_label
_atom_site_fract_x
_atom_site_fract_y
_atom_site_fract_z
Si Si1 0.801773 0.338229 0.894121
Si Si2 0.152398 0.807455 0.507879
Si Si3 0.870470 0.971814 0.159858
Si Si4 0.780843 0.314439 0.291697
Si Si5 0.006612 0.633029 0.144942
Si Si6 0.981568 0.610269 0.632753
O O1 0.698370 0.415838 0.870989
O O2 0.753784 0.219600 0.834542
O O3 0.868391 0.386775 0.835015
O O4 0.885502 0.320823 0.027859
O O5 0.250000 0.750000 0.500000
O O6 0.132398 0.927356 0.452283
O O7 0.192287 0.802317 0.639208
O O8 0.043432 0.728885 0.445703
O O9 0.819742 0.881926 0.208006
O O10 0.000000 0.997451 0.250000
O O11 0.895496 0.385150 0.354758
O O12 0.000000 0.677474 0.250000
O O13 0.940145 0.516812 0.107923
O O14 0.000000 0.653957 0.750000
#
# Coordination Sequence:
#
# PCOD8134879 Si02
#       6
#     8   8   8   8   8   8
#     4  12  24  42  70 100 143 181 228 295 343 408
#     4  10  19  36  67 101 136 172 229 281 339 401
#     4  11  24  43  67 106 142 178 231 292 347 403
#     4  11  23  42  69 101 137 186 229 280 351 411
#     4  11  20  38  69 105 132 177 229 283 342 399
#     4  11  24  42  69 100 136 181 237 282 340 420
#
# _framework density 23.918320999999999
#
# number of rings (size 3 to 8) (size 9 to 14) (size 15 to 20)
#    0.000    1.000    3.333    6.000    0.000    2.667 
#    0.000    0.833    0.000    0.000    0.000    0.000 
#    0.000    0.000    0.000    0.000    0.000    0.000 
#
# Total GULP energy -297385.527577 kJ/mol
# GULP energy per Si atom -12391.063649 kJ/mol
# Density = 2.386388 g / cm^3
# Si number density = 23.918321 Si / 1000 Ang^3
#
#
#
# Elastic Constant Matrix: (Units=GPa)
#
#
# Indices 1 2 3 4 5 6 
#
# 1 112.1003 18.4499 46.2273 0.0000 18.7840 0.0000
# 2 18.4499 58.9761 32.2173 0.0000 8.3223 0.0000
# 3 46.2273 32.2173 142.9663 0.0000 6.0271 0.0000
# 4 0.0000 0.0000 0.0000 23.6233 0.0000 -0.6242
# 5 18.7840 8.3223 6.0271 0.0000 42.0498 0.0000
# 6 0.0000 0.0000 0.0000 -0.6242 0.0000 32.2245
#
#
#
# Elastic Compliance Matrix: (Units=1/GPa)
#
#
# Indices 1 2 3 4 5 6 
#
# 1 0.011132 -0.001151 -0.003159 0.000000 -0.004292 0.000000
# 2 -0.001151 0.019899 -0.003992 0.000000 -0.002852 0.000000
# 3 -0.003159 -0.003992 0.008877 0.000000 0.000929 0.000000
# 4 0.000000 0.000000 0.000000 0.042353 0.000000 0.000820
# 5 -0.004292 -0.002852 0.000929 0.000000 0.026130 0.000000
# 6 0.000000 0.000000 0.000000 0.000820 0.000000 0.031048
#
#
# Mechanical properties :
#
#
# Convention : Reuss Voigt Hill
#
# Bulk Modulus (GPa) = 42.91166 56.42574 49.66870
# Shear Modulus (GPa) = 30.52304 34.05606 32.28955
#
# Velocity S-wave (km/s) = 3.57618 3.77749 3.67821
# Velocity P-wave (km/s) = 5.91878 6.53208 6.23298
#
# Compressibility (1/GPa) = 0.02330369
#
# Stress axis : x y z
#
# Youngs Moduli (GPa) = 89.83126 50.25317 112.65648
#
# Poissons Ratio (x) = 0.05784 0.35590
# Poissons Ratio (y) = 0.10340 0.44971
# Poissons Ratio (z) = 0.28379 0.20060
#
# Static dielectric constant tensor:
#      x y z
#    x 4.206650 0.000000 -0.182840 
#    y 0.000000 3.793030 0.000000 
#    z -0.182840 0.000000 4.772650 
# 
# 
# High freq. dielectric constant tensor:
#      x y z
#    x 1.952960 0.000000 0.005910 
#    y 0.000000 1.911310 0.000000 
#    z 0.005910 0.000000 1.954810 
# 
# From -- ./inp_files/152735.got.cif
#   From: 2010.06.25/outbox.cif.g09.slc.cpg/sg15_77_cif.got.tgz:152735.got - 2010.06.28 07:06:18.
