data_PCOD8134593
_publ_section_title
;
Structure prediction by ZEFSAII (Michael W. Deem and Ramdas Pophale) SiO2 
 PCOD8134593
Probable space group: C 2/C
;
_chemical_formula_sum "Si O2"
_cell_formula_units_Z 48
_cell_length_a 25.814477
_cell_length_b 12.523197
_cell_length_c 14.849848
_cell_angle_alpha 90.000000
_cell_angle_beta 29.483297
_cell_angle_gamma 90.000000
_cell_volume 2362.737764
_symmetry_space_group_name_H-M "C 2/C"
_symmetry_group_IT_number 15
_symmetry_cell_setting 'monoclinic'
loop_
_space_group_symop_operation_xyz
x,y,z
-x,y,1/2-z
-x,-y,-z
x,-y,1/2+z
1/2+x,1/2+y,z
1/2-x,1/2+y,1/2-z
1/2-x,1/2-y,-z
1/2+x,1/2-y,1/2+z
loop_
_atom_site_type_symbol
_atom_site_label
_atom_site_fract_x
_atom_site_fract_y
_atom_site_fract_z
Si Si1 0.366966 0.872611 0.795928
Si Si2 0.203713 0.402495 0.110881
Si Si3 0.119424 0.765371 0.061024
Si Si4 0.191183 0.356523 0.806297
Si Si5 0.876664 0.247436 0.416945
Si Si6 0.602021 0.918550 0.452003
O O1 0.339466 0.774102 0.903510
O O2 0.377087 0.826134 0.679132
O O3 0.477201 0.928216 0.654530
O O4 0.282786 0.970492 0.928945
O O5 0.144862 0.347235 0.116063
O O6 0.128462 0.384375 0.310496
O O7 0.320030 0.354823 0.956271
O O8 0.000000 0.804990 0.250000
O O9 0.188736 0.860852 0.914255
O O10 0.142204 0.667293 0.961176
O O11 0.158331 0.471281 0.894094
O O12 0.177231 0.269201 0.904997
O O13 0.000000 0.226879 0.250000
#
# Coordination Sequence:
#
# PCOD8134593 Si02
#       6
#     8   8   8   8   8   8
#     4  10  20  35  59  83 111 148 193 243 283 342
#     4  10  20  35  54  84 114 145 193 237 288 337
#     4  10  21  37  58  87 115 150 193 237 292 349
#     4  11  20  35  59  83 115 148 188 241 287 338
#     4  11  21  34  56  85 115 150 190 237 290 348
#     4  10  19  36  58  85 113 147 193 242 285 344
#
# _framework density 20.315415000000002
#
# number of rings (size 3 to 8) (size 9 to 14) (size 15 to 20)
#    0.000    1.667    1.667    5.500    0.000    1.333 
#    0.000    3.333    0.000    1.000    0.000    0.000 
#    0.000    0.000    0.000    0.000    0.000    0.000 
#
# Total GULP energy -297436.222997 kJ/mol
# GULP energy per Si atom -12393.175958 kJ/mol
# Density = 2.026918 g / cm^3
# Si number density = 20.315415 Si / 1000 Ang^3
#
#
#
# Elastic Constant Matrix: (Units=GPa)
#
#
# Indices 1 2 3 4 5 6 
#
# 1 100.0440 21.4614 20.1316 0.0000 -5.5233 0.0000
# 2 21.4614 11.5906 15.1737 0.0000 -7.5312 0.0000
# 3 20.1316 15.1737 95.9197 0.0000 -13.2536 0.0000
# 4 0.0000 0.0000 0.0000 28.0794 0.0000 -1.0724
# 5 -5.5233 -7.5312 -13.2536 0.0000 37.6062 0.0000
# 6 0.0000 0.0000 0.0000 -1.0724 0.0000 26.0360
#
#
#
# Elastic Compliance Matrix: (Units=1/GPa)
#
#
# Indices 1 2 3 4 5 6 
#
# 1 0.017399 -0.037152 0.001630 0.000000 -0.004310 0.000000
# 2 -0.037152 0.198878 -0.019882 0.000000 0.027365 0.000000
# 3 0.001630 -0.019882 0.013362 0.000000 0.000967 0.000000
# 4 0.000000 0.000000 0.000000 0.035669 0.000000 0.001469
# 5 -0.004310 0.027365 0.000967 0.000000 0.031779 0.000000
# 6 0.000000 0.000000 0.000000 0.001469 0.000000 0.038469
#
#
# Mechanical properties :
#
#
# Convention : Reuss Voigt Hill
#
# Bulk Modulus (GPa) = 8.41533 35.67641 22.04587
# Shear Modulus (GPa) = 10.28859 28.39683 19.34271
#
# Velocity S-wave (km/s) = 2.25287 3.74277 3.08899
# Velocity P-wave (km/s) = 3.30432 6.02305 4.85776
#
# Compressibility (1/GPa) = 0.11883082
#
# Stress axis : x y z
#
# Youngs Moduli (GPa) = 57.47317 5.02822 74.83809
#
# Poissons Ratio (x) = 0.18681 -0.12196
# Poissons Ratio (y) = 2.13522 1.48796
# Poissons Ratio (z) = -0.09366 0.09997
#
# Static dielectric constant tensor:
#      x y z
#    x 3.967540 0.000000 0.098700 
#    y 0.000000 3.487810 0.000000 
#    z 0.098700 0.000000 3.709080 
# 
# 
# High freq. dielectric constant tensor:
#      x y z
#    x 1.812020 0.000000 0.011520 
#    y 0.000000 1.767850 0.000000 
#    z 0.011520 0.000000 1.788820 
# 
# From -- ./inp_files/152475.got.cif
#   From: 2010.06.25/outbox.cif.g09.slc.cpg/sg15_77_cif.got.tgz:152475.got - 2010.06.28 07:06:18.
