data_PCOD8134038
_publ_section_title
;
Structure prediction by ZEFSAII (Michael W. Deem and Ramdas Pophale) SiO2 
 PCOD8134038
Probable space group: C 2/C
;
_chemical_formula_sum "Si O2"
_cell_formula_units_Z 56
_cell_length_a 8.974679
_cell_length_b 27.842771
_cell_length_c 15.217668
_cell_angle_alpha 90.000000
_cell_angle_beta 127.684696
_cell_angle_gamma 90.000000
_cell_volume 3009.319589
_symmetry_space_group_name_H-M "C 2/C"
_symmetry_group_IT_number 15
_symmetry_cell_setting 'monoclinic'
loop_
_space_group_symop_operation_xyz
x,y,z
-x,y,1/2-z
-x,-y,-z
x,-y,1/2+z
1/2+x,1/2+y,z
1/2-x,1/2+y,1/2-z
1/2-x,1/2-y,-z
1/2+x,1/2-y,1/2+z
loop_
_atom_site_type_symbol
_atom_site_label
_atom_site_fract_x
_atom_site_fract_y
_atom_site_fract_z
Si Si1 0.301538 0.827674 0.223006
Si Si2 0.446279 0.490035 0.880947
Si Si3 0.190868 0.079690 0.774893
Si Si4 0.295412 0.732534 0.648484
Si Si5 0.105798 0.181083 0.990359
Si Si6 0.802927 0.586643 0.137287
Si Si7 0.673590 0.973778 0.024276
O O1 0.500000 0.817710 0.250000
O O2 0.293984 0.882195 0.251780
O O3 0.302291 0.792386 0.305248
O O4 0.121945 0.819627 0.094199
O O5 0.328565 0.532891 0.794023
O O6 0.328514 0.439912 0.836151
O O7 0.646774 0.489829 0.902023
O O8 0.500000 0.500000 0.000000
O O9 0.313344 0.070682 0.904934
O O10 0.000000 0.100287 0.750000
O O11 0.500000 0.752089 0.750000
O O12 0.165830 0.777699 0.579208
O O13 0.310471 0.693783 0.575198
O O14 0.187423 0.130197 0.052417
O O15 0.000000 0.604875 0.250000
O O16 0.853329 0.546267 0.083307
O O17 0.500000 0.000000 0.000000
#
# Coordination Sequence:
#
# PCOD8134038 Si02
#       7
#     8   8   8   8   8   8   8
#     4  11  22  34  56  86 111 138 175 225 282 330
#     4   9  19  33  50  74 107 140 178 226 270 315
#     4  10  19  35  54  73 103 143 187 222 259 324
#     4   9  19  38  61  82 103 138 184 225 271 328
#     4  10  20  37  59  79 107 143 183 227 269 330
#     4  11  21  34  53  80 110 143 184 228 278 327
#     4  10  20  33  52  75 105 145 184 227 271 319
#
# _framework density 18.608858000000001
#
# number of rings (size 3 to 8) (size 9 to 14) (size 15 to 20)
#    0.000    2.000    0.000    6.000    0.000    4.571 
#    0.000    0.000    0.000    4.286    0.000    0.000 
#    0.000    0.000    0.000    0.000    0.000    0.000 
#
# Total GULP energy -346978.411133 kJ/mol
# GULP energy per Si atom -12392.086112 kJ/mol
# Density = 1.856650 g / cm^3
# Si number density = 18.608858 Si / 1000 Ang^3
#
#
#
# Elastic Constant Matrix: (Units=GPa)
#
#
# Indices 1 2 3 4 5 6 
#
# 1 122.7946 69.4536 54.7258 0.0000 17.1064 0.0000
# 2 69.4536 93.7040 40.2232 0.0000 10.1298 0.0000
# 3 54.7258 40.2232 99.7488 0.0000 11.3873 0.0000
# 4 0.0000 0.0000 0.0000 24.6885 0.0000 -8.4866
# 5 17.1064 10.1298 11.3873 0.0000 27.9416 0.0000
# 6 0.0000 0.0000 0.0000 -8.4866 0.0000 18.7225
#
#
#
# Elastic Compliance Matrix: (Units=1/GPa)
#
#
# Indices 1 2 3 4 5 6 
#
# 1 0.016217 -0.009588 -0.004504 0.000000 -0.004617 0.000000
# 2 -0.009588 0.018769 -0.002309 0.000000 0.000006 0.000000
# 3 -0.004504 -0.002309 0.013652 0.000000 -0.001969 0.000000
# 4 0.000000 0.000000 0.000000 0.047981 0.000000 0.021749
# 5 -0.004617 0.000006 -0.001969 0.000000 0.039416 0.000000
# 6 0.000000 0.000000 0.000000 0.021749 0.000000 0.063270
#
#
# Mechanical properties :
#
#
# Convention : Reuss Voigt Hill
#
# Bulk Modulus (GPa) = 63.14473 71.67251 67.40862
# Shear Modulus (GPa) = 21.06289 24.39352 22.72820
#
# Velocity S-wave (km/s) = 3.36798 3.62450 3.49859
# Velocity P-wave (km/s) = 7.00933 7.49099 7.25416
#
# Compressibility (1/GPa) = 0.01583663
#
# Stress axis : x y z
#
# Youngs Moduli (GPa) = 61.66389 53.28025 73.24842
#
# Poissons Ratio (x) = 0.51083 0.32991
# Poissons Ratio (y) = 0.59120 0.16913
# Poissons Ratio (z) = 0.27773 0.12303
#
# Static dielectric constant tensor:
#      x y z
#    x 3.496170 0.000000 -0.028060 
#    y 0.000000 3.329320 0.000000 
#    z -0.028060 0.000000 3.722720 
# 
# 
# High freq. dielectric constant tensor:
#      x y z
#    x 1.710460 0.000000 0.000960 
#    y 0.000000 1.711420 0.000000 
#    z 0.000960 0.000000 1.737580 
# 
# From -- ./inp_files/139569.got.cif
#   From: 2010.06.25/outbox.cif.g09.slc.cpg/sg15_70_cif.got.tgz:139569.got - 2010.06.28 07:06:18.
