data_PCOD8134889
_publ_section_title
;
Structure prediction by ZEFSAII (Michael W. Deem and Ramdas Pophale) SiO2 
 PCOD8134889
Probable space group: C 2/C
;
_chemical_formula_sum "Si O2"
_cell_formula_units_Z 48
_cell_length_a 8.521510
_cell_length_b 29.263084
_cell_length_c 14.914017
_cell_angle_alpha 90.000000
_cell_angle_beta 37.476222
_cell_angle_gamma 90.000000
_cell_volume 2262.785708
_symmetry_space_group_name_H-M "C 2/C"
_symmetry_group_IT_number 15
_symmetry_cell_setting 'monoclinic'
loop_
_space_group_symop_operation_xyz
x,y,z
-x,y,1/2-z
-x,-y,-z
x,-y,1/2+z
1/2+x,1/2+y,z
1/2-x,1/2+y,1/2-z
1/2-x,1/2-y,-z
1/2+x,1/2-y,1/2+z
loop_
_atom_site_type_symbol
_atom_site_label
_atom_site_fract_x
_atom_site_fract_y
_atom_site_fract_z
Si Si1 0.196183 0.883328 0.386132
Si Si2 0.882606 0.122290 0.208351
Si Si3 0.010093 0.807633 0.146999
Si Si4 0.494358 0.524402 0.907767
Si Si5 0.559167 0.205765 0.322218
Si Si6 0.063444 0.463848 0.824801
O O1 0.500000 0.889736 0.250000
O O2 0.074253 0.923184 0.381975
O O3 0.092329 0.884340 0.534805
O O4 0.123074 0.836480 0.370389
O O5 0.790056 0.174783 0.255495
O O6 0.638685 0.089045 0.303495
O O7 0.000000 0.108439 0.250000
O O8 0.000000 0.830840 0.250000
O O9 0.858545 0.758994 0.216764
O O10 0.310979 0.800186 0.995860
O O11 0.699169 0.497054 0.752058
O O12 0.500000 0.500000 0.000000
O O13 0.200924 0.523914 0.001026
O O14 0.500000 0.187299 0.250000
O O15 0.000000 0.472668 0.750000
#
# Coordination Sequence:
#
# PCOD8134889 Si02
#       6
#     8   8   8   8   8   8
#     4  12  24  41  62  94 133 170 208 266 326 373
#     4  12  25  40  63  93 131 172 216 258 314 388
#     4  10  23  40  66  96 122 159 216 270 321 382
#     4  10  19  36  69  92 121 167 219 258 318 379
#     4  10  20  43  68  89 121 168 216 262 318 385
#     4  10  19  38  65  93 120 170 215 262 314 381
#
# _framework density 21.212789999999998
#
# number of rings (size 3 to 8) (size 9 to 14) (size 15 to 20)
#    0.000    1.333    5.000    3.000    2.333    0.667 
#    0.000    3.333    0.000    0.000    0.000    0.000 
#    0.000    0.000    0.000    0.000    0.000    0.000 
#
# Total GULP energy -297564.169468 kJ/mol
# GULP energy per Si atom -12398.507061 kJ/mol
# Density = 2.116451 g / cm^3
# Si number density = 21.212790 Si / 1000 Ang^3
#
#
#
# Elastic Constant Matrix: (Units=GPa)
#
#
# Indices 1 2 3 4 5 6 
#
# 1 68.3302 28.1628 64.6708 0.0000 -12.9871 0.0000
# 2 28.1628 106.9675 45.1738 0.0000 -17.0448 0.0000
# 3 64.6708 45.1738 107.7406 0.0000 -20.4738 0.0000
# 4 0.0000 0.0000 0.0000 24.8786 0.0000 -8.9470
# 5 -12.9871 -17.0448 -20.4738 0.0000 45.9120 0.0000
# 6 0.0000 0.0000 0.0000 -8.9470 0.0000 15.7475
#
#
#
# Elastic Compliance Matrix: (Units=1/GPa)
#
#
# Indices 1 2 3 4 5 6 
#
# 1 0.033909 -0.000356 -0.020111 0.000000 0.000491 0.000000
# 2 -0.000356 0.011588 -0.004203 0.000000 0.002327 0.000000
# 3 -0.020111 -0.004203 0.023750 0.000000 0.003342 0.000000
# 4 0.000000 0.000000 0.000000 0.050517 0.000000 0.028702
# 5 0.000491 0.002327 0.003342 0.000000 0.024274 0.000000
# 6 0.000000 0.000000 0.000000 0.028702 0.000000 0.079809
#
#
# Mechanical properties :
#
#
# Convention : Reuss Voigt Hill
#
# Bulk Modulus (GPa) = 50.23198 62.11704 56.17451
# Shear Modulus (GPa) = 17.86842 26.97635 22.42239
#
# Velocity S-wave (km/s) = 2.90546 3.56996 3.25471
# Velocity P-wave (km/s) = 5.91499 6.80729 6.37677
#
# Compressibility (1/GPa) = 0.01990764
#
# Stress axis : x y z
#
# Youngs Moduli (GPa) = 29.49074 86.29560 42.10486
#
# Poissons Ratio (x) = 0.03074 0.84677
# Poissons Ratio (y) = 0.01051 0.17695
# Poissons Ratio (z) = 0.59309 0.36267
#
# Static dielectric constant tensor:
#      x y z
#    x 3.592150 0.000000 -0.272120 
#    y 0.000000 4.119630 0.000000 
#    z -0.272120 0.000000 4.071970 
# 
# 
# High freq. dielectric constant tensor:
#      x y z
#    x 1.803860 0.000000 -0.011450 
#    y 0.000000 1.841690 0.000000 
#    z -0.011450 0.000000 1.837730 
# 
# From -- ./inp_files/138932.got.cif
#   From: 2010.06.25/outbox.cif.g09.slc.cpg/sg15_70_cif.got.tgz:138932.got - 2010.06.28 07:06:18.
