data_PCOD8134097
_publ_section_title
;
Structure prediction by ZEFSAII (Michael W. Deem and Ramdas Pophale) SiO2 
 PCOD8134097
Probable space group: C 2/C
;
_chemical_formula_sum "Si O2"
_cell_formula_units_Z 64
_cell_length_a 8.793697
_cell_length_b 22.747271
_cell_length_c 18.408578
_cell_angle_alpha 90.000000
_cell_angle_beta 61.996482
_cell_angle_gamma 90.000000
_cell_volume 3251.185791
_symmetry_space_group_name_H-M "C 2/C"
_symmetry_group_IT_number 15
_symmetry_cell_setting 'monoclinic'
loop_
_space_group_symop_operation_xyz
x,y,z
-x,y,1/2-z
-x,-y,-z
x,-y,1/2+z
1/2+x,1/2+y,z
1/2-x,1/2+y,1/2-z
1/2-x,1/2-y,-z
1/2+x,1/2-y,1/2+z
loop_
_atom_site_type_symbol
_atom_site_label
_atom_site_fract_x
_atom_site_fract_y
_atom_site_fract_z
Si Si1 0.512700 0.554474 0.832520
Si Si2 0.105440 0.331257 0.423965
Si Si3 0.865004 0.467279 0.081896
Si Si4 0.175315 0.347046 0.749005
Si Si5 0.671153 0.982889 0.750607
Si Si6 0.018312 0.239314 0.330714
Si Si7 0.992680 0.813860 0.336691
Si Si8 0.648352 0.787786 0.898417
O O1 0.500000 0.544311 0.750000
O O2 0.328417 0.536042 0.909597
O O3 0.668574 0.514346 0.825422
O O4 0.569023 0.621481 0.834200
O O5 0.071087 0.400387 0.420727
O O6 0.296631 0.316019 0.407012
O O7 0.068620 0.300967 0.355190
O O8 0.991131 0.301668 0.510799
O O9 0.852252 0.502695 0.159561
O O10 0.000000 0.500000 0.000000
O O11 0.207319 0.414903 0.726246
O O12 0.337504 0.309639 0.682557
O O13 0.158518 0.341494 0.839656
O O14 0.000000 0.324531 0.750000
O O15 0.500000 0.004934 0.750000
O O16 0.829956 0.218646 0.400083
O O17 0.000000 0.250695 0.250000
O O18 0.000000 0.796457 0.250000
O O19 0.103314 0.769594 0.360442
#
# Coordination Sequence:
#
# PCOD8134097 Si02
#       8
#     8   8   8   8   8   8   8   8
#     4   8  18  35  56  79 106 144 187 222 265 324
#     4  11  22  36  55  82 113 145 179 221 272 324
#     4  10  21  37  58  81 111 147 182 219 270 327
#     4  10  21  37  57  80 110 145 182 221 269 326
#     4  10  21  37  58  82 105 140 186 229 268 314
#     4  10  22  37  56  82 109 143 182 224 270 319
#     4  10  19  35  56  79 108 146 184 220 266 325
#     4  11  21  34  55  83 112 142 179 224 272 319
#
# _framework density 19.685126
#
# number of rings (size 3 to 8) (size 9 to 14) (size 15 to 20)
#    0.000    2.000    0.000    4.875    0.000    7.000 
#    0.000    1.875    0.000    0.000    0.000    0.000 
#    0.000    0.000    0.000    0.000    0.000    0.000 
#
# Total GULP energy -396709.835693 kJ/mol
# GULP energy per Si atom -12397.182365 kJ/mol
# Density = 1.964032 g / cm^3
# Si number density = 19.685126 Si / 1000 Ang^3
#
#
#
# Elastic Constant Matrix: (Units=GPa)
#
#
# Indices 1 2 3 4 5 6 
#
# 1 125.8064 71.3599 32.7647 0.0000 -27.4127 0.0000
# 2 71.3599 118.7219 45.6441 0.0000 -20.5990 0.0000
# 3 32.7647 45.6441 83.7283 0.0000 -28.7599 0.0000
# 4 0.0000 0.0000 0.0000 27.4403 0.0000 -7.3397
# 5 -27.4127 -20.5990 -28.7599 0.0000 29.1374 0.0000
# 6 0.0000 0.0000 0.0000 -7.3397 0.0000 25.0482
#
#
#
# Elastic Compliance Matrix: (Units=1/GPa)
#
#
# Indices 1 2 3 4 5 6 
#
# 1 0.013680 -0.007295 0.001926 0.000000 0.009614 0.000000
# 2 -0.007295 0.014691 -0.005967 0.000000 -0.002367 0.000000
# 3 0.001926 -0.005967 0.020600 0.000000 0.017927 0.000000
# 4 0.000000 0.000000 0.000000 0.039542 0.000000 0.011587
# 5 0.009614 -0.002367 0.017927 0.000000 0.059386 0.000000
# 6 0.000000 0.000000 0.000000 0.011587 0.000000 0.043318
#
#
# Mechanical properties :
#
#
# Convention : Reuss Voigt Hill
#
# Bulk Modulus (GPa) = 38.02432 69.75491 53.88961
# Shear Modulus (GPa) = 22.45611 28.22436 25.34024
#
# Velocity S-wave (km/s) = 3.38119 3.79065 3.59176
# Velocity P-wave (km/s) = 5.88230 7.39398 6.68103
#
# Compressibility (1/GPa) = 0.02629896
#
# Stress axis : x y z
#
# Youngs Moduli (GPa) = 73.10098 68.06793 48.54259
#
# Poissons Ratio (x) = 0.49654 -0.09348
# Poissons Ratio (y) = 0.53326 0.28966
# Poissons Ratio (z) = -0.14077 0.40617
#
# Static dielectric constant tensor:
#      x y z
#    x 3.932140 0.000000 -0.408350 
#    y 0.000000 3.626400 0.000000 
#    z -0.408350 0.000000 3.610920 
# 
# 
# High freq. dielectric constant tensor:
#      x y z
#    x 1.769630 0.000000 -0.025990 
#    y 0.000000 1.775300 0.000000 
#    z -0.025990 0.000000 1.754920 
# 
# From -- ./inp_files/233826.got.cif
#   From: 2010.06.25/outbox.cif.g09.slc.cpg/sg15_117_cif.got.tgz:233826.got - 2010.06.28 07:06:18.
