data_PCOD8134598
_publ_section_title
;
Structure prediction by ZEFSAII (Michael W. Deem and Ramdas Pophale) SiO2 
 PCOD8134598
Probable space group: C 2/C
;
_chemical_formula_sum "Si O2"
_cell_formula_units_Z 56
_cell_length_a 7.091066
_cell_length_b 19.211829
_cell_length_c 23.069304
_cell_angle_alpha 90.000000
_cell_angle_beta 62.141677
_cell_angle_gamma 90.000000
_cell_volume 2778.554735
_symmetry_space_group_name_H-M "C 2/C"
_symmetry_group_IT_number 15
_symmetry_cell_setting 'monoclinic'
loop_
_space_group_symop_operation_xyz
x,y,z
-x,y,1/2-z
-x,-y,-z
x,-y,1/2+z
1/2+x,1/2+y,z
1/2-x,1/2+y,1/2-z
1/2-x,1/2-y,-z
1/2+x,1/2-y,1/2+z
loop_
_atom_site_type_symbol
_atom_site_label
_atom_site_fract_x
_atom_site_fract_y
_atom_site_fract_z
Si Si1 0.531005 0.070883 0.897208
Si Si2 0.965398 0.136652 0.818674
Si Si3 0.789447 0.828426 0.010439
Si Si4 0.702235 0.969671 0.184642
Si Si5 0.658631 0.317686 0.045160
Si Si6 0.035899 0.061305 0.419303
Si Si7 0.196150 0.544570 0.013809
O O1 0.772033 0.080938 0.841557
O O2 0.438536 0.141166 0.939013
O O3 0.372263 0.052141 0.868344
O O4 0.514924 0.006240 0.947133
O O5 0.907226 0.193531 0.877364
O O6 0.000000 0.172038 0.750000
O O7 0.181025 0.095682 0.802674
O O8 0.945961 0.839384 0.042222
O O9 0.750000 0.750000 0.000000
O O10 0.891563 0.868562 0.939643
O O11 0.500000 0.993877 0.250000
O O12 0.862131 0.036743 0.156762
O O13 0.750000 0.250000 0.000000
O O14 0.827828 0.383824 0.020894
O O15 0.236684 0.073718 0.432936
O O16 0.893750 0.997207 0.460323
#
# Coordination Sequence:
#
# PCOD8134598 Si02
#       7
#     8   8   8   8   8   8   8
#     4  10  20  35  59  85 116 152 196 248 303 355
#     4  12  23  36  57  93 119 153 207 251 302 380
#     4  10  19  36  58  85 122 155 198 252 311 356
#     4  11  19  36  58  83 119 157 193 246 304 363
#     4  11  21  36  57  87 125 157 202 256 303 364
#     4   8  15  31  56  82 112 150 190 244 295 350
#     4   8  15  32  55  81 116 146 185 245 306 342
#
# _framework density 20.154363
#
# number of rings (size 3 to 8) (size 9 to 14) (size 15 to 20)
#    0.000    2.000    4.286    2.571    0.000    0.571 
#    2.571    0.000    0.000   13.714    0.000    2.000 
#    0.000    0.000    0.000    0.000    0.000    0.000 
#
# Total GULP energy -346886.175329 kJ/mol
# GULP energy per Si atom -12388.791976 kJ/mol
# Density = 2.010849 g / cm^3
# Si number density = 20.154363 Si / 1000 Ang^3
#
#
#
# Elastic Constant Matrix: (Units=GPa)
#
#
# Indices 1 2 3 4 5 6 
#
# 1 59.4792 10.4183 25.1302 0.0000 -6.5632 0.0000
# 2 10.4183 126.1180 56.1045 0.0000 -4.8235 0.0000
# 3 25.1302 56.1045 142.2964 0.0000 -3.5765 0.0000
# 4 0.0000 0.0000 0.0000 25.6810 0.0000 -2.5287
# 5 -6.5632 -4.8235 -3.5765 0.0000 32.2571 0.0000
# 6 0.0000 0.0000 0.0000 -2.5287 0.0000 23.7306
#
#
#
# Elastic Compliance Matrix: (Units=1/GPa)
#
#
# Indices 1 2 3 4 5 6 
#
# 1 0.018537 0.000021 -0.003196 0.000000 0.003420 0.000000
# 2 0.000021 0.009649 -0.003782 0.000000 0.001028 0.000000
# 3 -0.003196 -0.003782 0.009078 0.000000 -0.000209 0.000000
# 4 0.000000 0.000000 0.000000 0.039352 0.000000 0.004193
# 5 0.003420 0.001028 -0.000209 0.000000 0.031827 0.000000
# 6 0.000000 0.000000 0.000000 0.004193 0.000000 0.042587
#
#
# Mechanical properties :
#
#
# Convention : Reuss Voigt Hill
#
# Bulk Modulus (GPa) = 42.82719 56.79993 49.81356
# Shear Modulus (GPa) = 28.94730 32.08312 30.51521
#
# Velocity S-wave (km/s) = 3.79394 3.99415 3.89533
# Velocity P-wave (km/s) = 6.36299 7.03666 6.70829
#
# Compressibility (1/GPa) = 0.02334965
#
# Stress axis : x y z
#
# Youngs Moduli (GPa) = 53.94716 103.63471 110.15508
#
# Poissons Ratio (x) = -0.00221 0.35207
# Poissons Ratio (y) = -0.00115 0.41666
# Poissons Ratio (z) = 0.17242 0.39199
#
# Static dielectric constant tensor:
#      x y z
#    x 3.979790 0.000000 0.092670 
#    y 0.000000 3.474790 0.000000 
#    z 0.092670 0.000000 3.803150 
# 
# 
# High freq. dielectric constant tensor:
#      x y z
#    x 1.813020 0.000000 0.003050 
#    y 0.000000 1.749260 0.000000 
#    z 0.003050 0.000000 1.773370 
# 
# From -- ./inp_files/265157.got.cif
#   From: 2010.06.25/outbox.cif.g09.slc.cpg/sg15_133_cif.got.tgz:265157.got - 2010.06.28 07:06:18.
