data_PCOD8134266
_publ_section_title
;
Structure prediction by ZEFSAII (Michael W. Deem and Ramdas Pophale) SiO2 
 PCOD8134266
Probable space group: C 2/C
;
_chemical_formula_sum "Si O2"
_cell_formula_units_Z 48
_cell_length_a 12.620818
_cell_length_b 27.058225
_cell_length_c 9.059065
_cell_angle_alpha 90.000000
_cell_angle_beta 129.726249
_cell_angle_gamma 90.000000
_cell_volume 2379.341910
_symmetry_space_group_name_H-M "C 2/C"
_symmetry_group_IT_number 15
_symmetry_cell_setting 'monoclinic'
loop_
_space_group_symop_operation_xyz
x,y,z
-x,y,1/2-z
-x,-y,-z
x,-y,1/2+z
1/2+x,1/2+y,z
1/2-x,1/2+y,1/2-z
1/2-x,1/2-y,-z
1/2+x,1/2-y,1/2+z
loop_
_atom_site_type_symbol
_atom_site_label
_atom_site_fract_x
_atom_site_fract_y
_atom_site_fract_z
Si Si1 0.759323 0.553074 0.185152
Si Si2 0.741757 0.547431 0.831228
Si Si3 0.120123 0.805307 0.971894
Si Si4 0.999907 0.117667 0.590311
Si Si5 0.997640 0.400781 0.424419
Si Si6 0.613500 0.801993 0.465256
O O1 0.711999 0.503473 0.222242
O O2 0.899283 0.564466 0.395973
O O3 0.792673 0.540579 0.044733
O O4 0.649450 0.598481 0.100735
O O5 0.590018 0.569207 0.693302
O O6 0.845409 0.585317 0.842474
O O7 0.151005 0.750936 0.075633
O O8 0.000000 0.801529 0.750000
O O9 0.074563 0.844383 0.051085
O O10 0.255725 0.824401 0.006495
O O11 0.000000 0.144681 0.750000
O O12 0.045804 0.344431 0.508610
O O13 0.000000 0.408032 0.250000
O O14 0.500000 0.785315 0.250000
#
# Coordination Sequence:
#
# PCOD8134266 Si02
#       6
#     8   8   8   8   8   8
#     4  11  23  39  57  81 111 147 189 232 280 333
#     4  11  23  39  57  80 112 147 188 233 279 333
#     4  10  19  35  59  85 112 145 187 232 274 328
#     4  10  22  38  57  83 115 147 183 231 283 333
#     4  11  21  37  59  83 111 147 187 229 279 331
#     4   9  19  34  57  85 112 144 187 230 273 326
#
# _framework density 20.173643999999999
#
# number of rings (size 3 to 8) (size 9 to 14) (size 15 to 20)
#    0.000    1.667    0.000    5.500    0.000    1.333 
#    0.000    1.667    0.000   13.000    0.000    0.000 
#    0.000    0.000    0.000    0.000    0.000    0.000 
#
# Total GULP energy -297337.587425 kJ/mol
# GULP energy per Si atom -12389.066143 kJ/mol
# Density = 2.012773 g / cm^3
# Si number density = 20.173644 Si / 1000 Ang^3
#
#
#
# Elastic Constant Matrix: (Units=GPa)
#
#
# Indices 1 2 3 4 5 6 
#
# 1 85.7603 26.9972 31.9724 0.0000 0.6400 0.0000
# 2 26.9972 87.7306 16.9861 0.0000 -21.8511 0.0000
# 3 31.9724 16.9861 84.3012 0.0000 -8.5674 0.0000
# 4 0.0000 0.0000 0.0000 15.2563 0.0000 -2.9700
# 5 0.6400 -21.8511 -8.5674 0.0000 35.7949 0.0000
# 6 0.0000 0.0000 0.0000 -2.9700 0.0000 34.7296
#
#
#
# Elastic Compliance Matrix: (Units=1/GPa)
#
#
# Indices 1 2 3 4 5 6 
#
# 1 0.015139 -0.004746 -0.005235 0.000000 -0.004421 0.000000
# 2 -0.004746 0.015241 -0.000325 0.000000 0.009311 0.000000
# 3 -0.005235 -0.000325 0.014249 0.000000 0.003306 0.000000
# 4 0.000000 0.000000 0.000000 0.066657 0.000000 0.005700
# 5 -0.004421 0.009311 0.003306 0.000000 0.034491 0.000000
# 6 0.000000 0.000000 0.000000 0.005700 0.000000 0.029281
#
#
# Mechanical properties :
#
#
# Convention : Reuss Voigt Hill
#
# Bulk Modulus (GPa) = 41.63553 45.52261 43.57907
# Shear Modulus (GPa) = 24.54888 29.27859 26.91374
#
# Velocity S-wave (km/s) = 3.49216 3.81376 3.65650
# Velocity P-wave (km/s) = 6.07813 6.48131 6.28296
#
# Compressibility (1/GPa) = 0.02401795
#
# Stress axis : x y z
#
# Youngs Moduli (GPa) = 66.05427 65.61213 70.18079
#
# Poissons Ratio (x) = 0.31142 0.36737
# Poissons Ratio (y) = 0.31352 0.02278
# Poissons Ratio (z) = 0.34577 0.02130
#
# Static dielectric constant tensor:
#      x y z
#    x 3.666880 0.000000 0.064390 
#    y 0.000000 3.861650 0.000000 
#    z 0.064390 0.000000 3.801300 
# 
# 
# High freq. dielectric constant tensor:
#      x y z
#    x 1.790900 0.000000 0.021190 
#    y 0.000000 1.795970 0.000000 
#    z 0.021190 0.000000 1.781120 
# 
# From -- ./inp_files/33772.got.cif
#   From: 2010.06.25/outbox.cif.g09.slc.cpg/sg15_17_cif.got.tgz:33772.got - 2010.06.28 07:06:18.
