data_PCOD8134900
_publ_section_title
;
Structure prediction by ZEFSAII (Michael W. Deem and Ramdas Pophale) SiO2 
 PCOD8134900
Probable space group: C 2/C
;
_chemical_formula_sum "Si O2"
_cell_formula_units_Z 64
_cell_length_a 22.673205
_cell_length_b 21.404394
_cell_length_c 9.820429
_cell_angle_alpha 90.000000
_cell_angle_beta 129.700526
_cell_angle_gamma 90.000000
_cell_volume 3666.865093
_symmetry_space_group_name_H-M "C 2/C"
_symmetry_group_IT_number 15
_symmetry_cell_setting 'monoclinic'
loop_
_space_group_symop_operation_xyz
x,y,z
-x,y,1/2-z
-x,-y,-z
x,-y,1/2+z
1/2+x,1/2+y,z
1/2-x,1/2+y,1/2-z
1/2-x,1/2-y,-z
1/2+x,1/2-y,1/2+z
loop_
_atom_site_type_symbol
_atom_site_label
_atom_site_fract_x
_atom_site_fract_y
_atom_site_fract_z
Si Si1 0.498102 0.249147 0.906645
Si Si2 0.159017 0.801300 0.760974
Si Si3 0.162503 0.563986 0.338249
Si Si4 0.360188 0.055058 0.882270
Si Si5 0.239229 0.669888 0.844907
Si Si6 0.164246 0.778371 0.240229
Si Si7 0.006446 0.367260 0.607411
Si Si8 0.729436 0.333979 0.596206
O O1 0.500000 0.232991 0.750000
O O2 0.431522 0.299021 0.842471
O O3 0.576254 0.281665 0.068227
O O4 0.483598 0.185034 0.965396
O O5 0.186457 0.730134 0.787650
O O6 0.178124 0.841849 0.655433
O O7 0.201267 0.837104 0.944726
O O8 0.166017 0.542753 0.500850
O O9 0.153340 0.506091 0.225125
O O10 0.092503 0.610760 0.208087
O O11 0.241334 0.599357 0.415216
O O12 0.313312 0.109600 0.740313
O O13 0.449735 0.073503 0.011379
O O14 0.286413 0.673397 0.775117
O O15 0.195887 0.708471 0.262801
O O16 0.173192 0.798683 0.409108
O O17 0.000000 0.338204 0.750000
#
# Coordination Sequence:
#
# PCOD8134900 Si02
#       8
#     8   8   8   8   8   8   8   8
#     4  12  22  34  55  89 117 155 182 227 289 349
#     4  10  22  33  56  84 113 143 188 228 290 337
#     4  11  23  39  56  82 112 156 197 231 279 330
#     4  11  23  38  58  79 115 157 196 234 275 329
#     4  10  19  37  53  81 114 145 182 240 279 329
#     4  10  20  35  57  80 114 145 185 233 287 336
#     4  10  23  37  54  80 118 154 196 227 269 335
#     4  10  21  35  57  83 108 148 189 238 277 334
#
# _framework density 17.453602
#
# number of rings (size 3 to 8) (size 9 to 14) (size 15 to 20)
#    0.000    1.500    5.000    0.375    3.500    1.000 
#    0.000    0.000    0.000    0.000    0.000    5.250 
#    0.000    0.000    0.000    0.000    0.000    0.000 
#
# Total GULP energy -396872.945019 kJ/mol
# GULP energy per Si atom -12402.279532 kJ/mol
# Density = 1.741388 g / cm^3
# Si number density = 17.453602 Si / 1000 Ang^3
#
#
#
# Elastic Constant Matrix: (Units=GPa)
#
#
# Indices 1 2 3 4 5 6 
#
# 1 76.4070 30.8577 47.0831 0.0000 -2.7858 0.0000
# 2 30.8577 43.4874 23.8959 0.0000 -9.3107 0.0000
# 3 47.0831 23.8959 105.8587 0.0000 -5.9823 0.0000
# 4 0.0000 0.0000 0.0000 27.6039 0.0000 -3.7703
# 5 -2.7858 -9.3107 -5.9823 0.0000 32.7576 0.0000
# 6 0.0000 0.0000 0.0000 -3.7703 0.0000 14.7168
#
#
#
# Elastic Compliance Matrix: (Units=1/GPa)
#
#
# Indices 1 2 3 4 5 6 
#
# 1 0.022637 -0.012652 -0.007383 0.000000 -0.003019 0.000000
# 2 -0.012652 0.034743 -0.001736 0.000000 0.008482 0.000000
# 3 -0.007383 -0.001736 0.013195 0.000000 0.001288 0.000000
# 4 0.000000 0.000000 0.000000 0.037540 0.000000 0.009617
# 5 -0.003019 0.008482 0.001288 0.000000 0.032917 0.000000
# 6 0.000000 0.000000 0.000000 0.009617 0.000000 0.070413
#
#
# Mechanical properties :
#
#
# Convention : Reuss Voigt Hill
#
# Bulk Modulus (GPa) = 36.99248 47.71404 42.35326
# Shear Modulus (GPa) = 18.93957 23.27676 21.10817
#
# Velocity S-wave (km/s) = 3.29772 3.65586 3.48140
# Velocity P-wave (km/s) = 5.97835 6.72439 6.36232
#
# Compressibility (1/GPa) = 0.02703252
#
# Stress axis : x y z
#
# Youngs Moduli (GPa) = 44.17573 28.78301 75.78679
#
# Poissons Ratio (x) = 0.36417 0.55952
# Poissons Ratio (y) = 0.55892 0.13156
# Poissons Ratio (z) = 0.32614 0.04996
#
# Static dielectric constant tensor:
#      x y z
#    x 3.343200 0.000000 -0.100540 
#    y 0.000000 2.877400 0.000000 
#    z -0.100540 0.000000 3.361210 
# 
# 
# High freq. dielectric constant tensor:
#      x y z
#    x 1.680040 0.000000 -0.009980 
#    y 0.000000 1.635010 0.000000 
#    z -0.009980 0.000000 1.688700 
# 
# From -- ./inp_files/58616.got.cif
#   From: 2010.06.25/outbox.cif.g09.slc.cpg/sg15_30_cif.got.tgz:58616.got - 2010.06.28 07:06:18.
