data_PCOD8134047
_publ_section_title
;
Structure prediction by ZEFSAII (Michael W. Deem and Ramdas Pophale) SiO2 
 PCOD8134047
Probable space group: C 2/C
;
_chemical_formula_sum "Si O2"
_cell_formula_units_Z 64
_cell_length_a 11.276025
_cell_length_b 17.168117
_cell_length_c 17.152011
_cell_angle_alpha 90.000000
_cell_angle_beta 82.792108
_cell_angle_gamma 90.000000
_cell_volume 3294.185603
_symmetry_space_group_name_H-M "C 2/C"
_symmetry_group_IT_number 15
_symmetry_cell_setting 'monoclinic'
loop_
_space_group_symop_operation_xyz
x,y,z
-x,y,1/2-z
-x,-y,-z
x,-y,1/2+z
1/2+x,1/2+y,z
1/2-x,1/2+y,1/2-z
1/2-x,1/2-y,-z
1/2+x,1/2-y,1/2+z
loop_
_atom_site_type_symbol
_atom_site_label
_atom_site_fract_x
_atom_site_fract_y
_atom_site_fract_z
Si Si1 0.716680 0.093648 0.871444
Si Si2 0.471507 0.686175 0.524137
Si Si3 0.593680 0.713098 0.677937
Si Si4 0.749425 0.093498 0.571363
Si Si5 0.335295 0.569398 0.017843
Si Si6 0.380918 0.120304 0.370408
Si Si7 0.369436 0.036657 0.774404
Si Si8 0.012813 0.641022 0.513087
O O1 0.779370 0.169215 0.826989
O O2 0.697474 0.031060 0.803504
O O3 0.589807 0.113115 0.920214
O O4 0.806378 0.059030 0.928426
O O5 0.539834 0.699609 0.598052
O O6 0.332629 0.667536 0.549341
O O7 0.538313 0.612885 0.476915
O O8 0.475438 0.765912 0.474679
O O9 0.500000 0.682458 0.750000
O O10 0.615691 0.805220 0.686358
O O11 0.703361 0.095151 0.663882
O O12 0.635385 0.095788 0.523404
O O13 0.831213 0.016514 0.554325
O O14 0.238412 0.624280 0.067807
O O15 0.488884 0.118515 0.424644
O O16 0.384728 0.047058 0.313164
O O17 0.500000 0.073503 0.750000
#
# Coordination Sequence:
#
# PCOD8134047 Si02
#       8
#     8   8   8   8   8   8   8   8
#     4  10  20  35  56  79 107 141 178 222 274 322
#     4  10  20  36  55  79 108 147 183 221 272 329
#     4  10  19  35  54  79 108 142 180 222 263 327
#     4  11  21  34  54  82 110 143 182 227 270 327
#     4   9  20  35  57  80 108 139 185 227 273 323
#     4   9  20  34  56  81 106 137 179 226 273 315
#     4  11  21  33  52  78 110 138 173 218 277 322
#     4  10  20  35  56  81 110 140 183 230 273 322
#
# _framework density 19.428170999999999
#
# number of rings (size 3 to 8) (size 9 to 14) (size 15 to 20)
#    0.000    2.000    1.250    2.625    1.750    4.500 
#    0.000    0.000    0.000    0.000    0.000    0.000 
#    0.000    0.000    0.000    0.000    0.000    0.000 
#
# Total GULP energy -396716.041295 kJ/mol
# GULP energy per Si atom -12397.376290 kJ/mol
# Density = 1.938395 g / cm^3
# Si number density = 19.428171 Si / 1000 Ang^3
#
#
#
# Elastic Constant Matrix: (Units=GPa)
#
#
# Indices 1 2 3 4 5 6 
#
# 1 72.5608 26.2867 16.3356 0.0000 -9.6080 0.0000
# 2 26.2867 72.1629 30.5999 0.0000 -3.1977 0.0000
# 3 16.3356 30.5999 81.0203 0.0000 -7.1232 0.0000
# 4 0.0000 0.0000 0.0000 17.6914 0.0000 -9.8980
# 5 -9.6080 -3.1977 -7.1232 0.0000 20.9899 0.0000
# 6 0.0000 0.0000 0.0000 -9.8980 0.0000 21.9154
#
#
#
# Elastic Compliance Matrix: (Units=1/GPa)
#
#
# Indices 1 2 3 4 5 6 
#
# 1 0.016823 -0.005529 -0.000722 0.000000 0.006613 0.000000
# 2 -0.005529 0.018320 -0.005960 0.000000 -0.001762 0.000000
# 3 -0.000722 -0.005960 0.015080 0.000000 0.003879 0.000000
# 4 0.000000 0.000000 0.000000 0.075637 0.000000 0.034161
# 5 0.006613 -0.001762 0.003879 0.000000 0.051717 0.000000
# 6 0.000000 0.000000 0.000000 0.034161 0.000000 0.061059
#
#
# Mechanical properties :
#
#
# Convention : Reuss Voigt Hill
#
# Bulk Modulus (GPa) = 38.75643 41.35426 40.05534
# Shear Modulus (GPa) = 18.40549 22.28745 20.34647
#
# Velocity S-wave (km/s) = 3.08126 3.39067 3.23966
# Velocity P-wave (km/s) = 5.71409 6.05481 5.88692
#
# Compressibility (1/GPa) = 0.02580217
#
# Stress axis : x y z
#
# Youngs Moduli (GPa) = 59.44346 54.58389 66.31267
#
# Poissons Ratio (x) = 0.30177 0.04790
# Poissons Ratio (y) = 0.32864 0.39519
# Poissons Ratio (z) = 0.04294 0.32529
#
# Static dielectric constant tensor:
#      x y z
#    x 3.647430 0.000000 -0.187100 
#    y 0.000000 3.537560 0.000000 
#    z -0.187100 0.000000 3.585970 
# 
# 
# High freq. dielectric constant tensor:
#      x y z
#    x 1.755420 0.000000 -0.015100 
#    y 0.000000 1.747960 0.000000 
#    z -0.015100 0.000000 1.749960 
# 
# From -- ./inp_files/199192.got.cif
#   From: 2010.06.25/outbox.cif.g09.slc.cpg/sg15_100_cif.got.tgz:199192.got - 2010.06.28 07:06:18.
