data_PCOD8134361
_publ_section_title
;
Structure prediction by ZEFSAII (Michael W. Deem and Ramdas Pophale) SiO2 
 PCOD8134361
Probable space group: C 2/C
;
_chemical_formula_sum "Si O2"
_cell_formula_units_Z 60
_cell_length_a 11.371189
_cell_length_b 15.245951
_cell_length_c 23.052386
_cell_angle_alpha 90.000000
_cell_angle_beta 132.198482
_cell_angle_gamma 90.000000
_cell_volume 2960.672582
_symmetry_space_group_name_H-M "C 2/C"
_symmetry_group_IT_number 15
_symmetry_cell_setting 'monoclinic'
loop_
_space_group_symop_operation_xyz
x,y,z
-x,y,1/2-z
-x,-y,-z
x,-y,1/2+z
1/2+x,1/2+y,z
1/2-x,1/2+y,1/2-z
1/2-x,1/2-y,-z
1/2+x,1/2-y,1/2+z
loop_
_atom_site_type_symbol
_atom_site_label
_atom_site_fract_x
_atom_site_fract_y
_atom_site_fract_z
Si Si1 0.956192 0.372036 0.999180
Si Si2 0.444798 0.248197 0.671153
Si Si3 0.413941 0.313800 0.453451
Si Si4 0.964986 0.079036 0.863309
Si Si5 0.622286 0.395428 0.939991
Si Si6 0.397425 0.933904 0.269780
Si Si7 0.500000 0.558304 0.750000
Si Si8 0.157393 0.504859 0.130522
O O1 0.007228 0.271602 0.007595
O O2 0.811903 0.383952 0.996821
O O3 0.898240 0.404984 0.916698
O O4 0.108510 0.424330 0.072172
O O5 0.500000 0.291936 0.750000
O O6 0.266293 0.213200 0.619995
O O7 0.462798 0.319683 0.626403
O O8 0.559173 0.165236 0.696402
O O9 0.506308 0.351018 0.427401
O O10 0.420998 0.385568 0.506871
O O11 0.781465 0.057252 0.811437
O O12 0.994661 0.116730 0.807547
O O13 0.070274 0.991459 0.902790
O O14 0.500000 0.968171 0.250000
O O15 0.425835 0.996519 0.334437
O O16 0.653132 0.495258 0.800358
#
# Coordination Sequence:
#
# PCOD8134361 Si02
#       8
#     8   8   8   8   8   8   4   8
#     4  10  21  37  63  89 117 158 210 250 301 368
#     4  10  19  35  61  91 120 153 202 265 305 356
#     4  11  21  38  58  92 121 154 199 263 314 355
#     4  11  22  37  59  90 124 161 198 258 306 373
#     4  11  22  35  60  93 123 152 202 256 317 364
#     4  10  19  36  58  88 120 155 199 252 314 353
#     4  10  22  40  60  86 120 162 210 242 304 372
#     4  10  20  38  63  86 116 163 204 251 297 374
#
# _framework density 20.265664999999998
#
# number of rings (size 3 to 8) (size 9 to 14) (size 15 to 20)
#    0.000    1.600    4.000    3.600    0.933    1.067 
#    0.000    0.667    1.467    0.000    0.000    0.000 
#    0.000    0.000    0.000    0.000    0.000    0.000 
#
# Total GULP energy -371908.400253 kJ/mol
# GULP energy per Si atom -12396.946675 kJ/mol
# Density = 2.021954 g / cm^3
# Si number density = 20.265665 Si / 1000 Ang^3
#
#
#
# Elastic Constant Matrix: (Units=GPa)
#
#
# Indices 1 2 3 4 5 6 
#
# 1 108.1722 32.8587 34.9249 0.0000 -36.3993 0.0000
# 2 32.8587 75.7972 17.6723 0.0000 -12.3398 0.0000
# 3 34.9249 17.6723 81.3575 0.0000 -18.6598 0.0000
# 4 0.0000 0.0000 0.0000 21.7209 0.0000 -8.2719
# 5 -36.3993 -12.3398 -18.6598 0.0000 43.6682 0.0000
# 6 0.0000 0.0000 0.0000 -8.2719 0.0000 32.9725
#
#
#
# Elastic Compliance Matrix: (Units=1/GPa)
#
#
# Indices 1 2 3 4 5 6 
#
# 1 0.014834 -0.004077 -0.003227 0.000000 0.009834 0.000000
# 2 -0.004077 0.015363 -0.001519 0.000000 0.000293 0.000000
# 3 -0.003227 -0.001519 0.014735 0.000000 0.003178 0.000000
# 4 0.000000 0.000000 0.000000 0.050902 0.000000 0.012770
# 5 0.009834 0.000293 0.003178 0.000000 0.032537 0.000000
# 6 0.000000 0.000000 0.000000 0.012770 0.000000 0.033532
#
#
# Mechanical properties :
#
#
# Convention : Reuss Voigt Hill
#
# Bulk Modulus (GPa) = 36.65040 48.47097 42.56069
# Shear Modulus (GPa) = 26.50479 31.66371 29.08425
#
# Velocity S-wave (km/s) = 3.62037 3.95705 3.79245
# Velocity P-wave (km/s) = 5.96660 6.69682 6.34223
#
# Compressibility (1/GPa) = 0.02728483
#
# Stress axis : x y z
#
# Youngs Moduli (GPa) = 67.41344 65.09280 67.86354
#
# Poissons Ratio (x) = 0.26541 0.21898
# Poissons Ratio (y) = 0.27487 0.10312
# Poissons Ratio (z) = 0.21753 0.09891
#
# Static dielectric constant tensor:
#      x y z
#    x 3.684710 0.000000 -0.237690 
#    y 0.000000 3.552630 0.000000 
#    z -0.237690 0.000000 3.953000 
# 
# 
# High freq. dielectric constant tensor:
#      x y z
#    x 1.778390 0.000000 -0.018040 
#    y 0.000000 1.760890 0.000000 
#    z -0.018040 0.000000 1.810800 
# 
# From -- ./inp_files/198293.got.cif
#   From: 2010.06.25/outbox.cif.g09.slc.cpg/sg15_100_cif.got.tgz:198293.got - 2010.06.28 07:06:18.
