data_PCOD8134855
_publ_section_title
;
Structure prediction by ZEFSAII (Michael W. Deem and Ramdas Pophale) SiO2 
 PCOD8134855
Probable space group: C 2/C
;
_chemical_formula_sum "Si O2"
_cell_formula_units_Z 64
_cell_length_a 7.983564
_cell_length_b 22.118464
_cell_length_c 22.561557
_cell_angle_alpha 90.000000
_cell_angle_beta 50.686795
_cell_angle_gamma 90.000000
_cell_volume 3082.408487
_symmetry_space_group_name_H-M "C 2/C"
_symmetry_group_IT_number 15
_symmetry_cell_setting 'monoclinic'
loop_
_space_group_symop_operation_xyz
x,y,z
-x,y,1/2-z
-x,-y,-z
x,-y,1/2+z
1/2+x,1/2+y,z
1/2-x,1/2+y,1/2-z
1/2-x,1/2-y,-z
1/2+x,1/2-y,1/2+z
loop_
_atom_site_type_symbol
_atom_site_label
_atom_site_fract_x
_atom_site_fract_y
_atom_site_fract_z
Si Si1 0.650219 0.701596 0.160129
Si Si2 0.236640 0.403473 0.173493
Si Si3 0.092642 0.394986 0.080171
Si Si4 0.266546 0.041401 0.287111
Si Si5 0.674458 0.583501 0.092757
Si Si6 0.068104 0.788769 0.327749
Si Si7 0.777188 0.989181 0.321553
Si Si8 0.151292 0.724068 0.850388
O O1 0.500000 0.687531 0.250000
O O2 0.760040 0.639585 0.112879
O O3 0.836921 0.748230 0.139468
O O4 0.516036 0.723284 0.131444
O O5 0.256015 0.395510 0.098436
O O6 0.275321 0.472678 0.182016
O O7 0.429842 0.359570 0.153399
O O8 0.000000 0.380997 0.250000
O O9 0.903047 0.439323 0.142097
O O10 0.993577 0.329530 0.090788
O O11 0.214911 0.418999 0.995395
O O12 0.500000 0.067908 0.250000
O O13 0.259646 0.043143 0.217427
O O14 0.087906 0.086281 0.355125
O O15 0.720883 0.519520 0.114341
O O16 0.227923 0.791253 0.236779
O O17 0.831385 0.762807 0.361501
O O18 0.000000 0.957093 0.250000
#
# Coordination Sequence:
#
# PCOD8134855 Si02
#       8
#     8   8   8   8   8   8   8   8
#     4  10  20  44  63  86 126 170 219 258 306 381
#     4  11  18  36  63  91 124 159 205 268 322 366
#     4  12  22  38  62  96 132 161 205 267 333 379
#     4  10  20  40  63  87 115 167 218 254 301 380
#     4  11  26  40  59  90 134 175 197 258 328 380
#     4  10  19  36  64  97 118 156 220 271 309 361
#     4  10  21  39  63  88 120 167 211 255 303 377
#     4  10  21  34  64  96 117 159 216 271 310 366
#
# _framework density 20.762986000000001
#
# number of rings (size 3 to 8) (size 9 to 14) (size 15 to 20)
#    0.000    1.500    5.000    1.875    5.250    1.000 
#    6.750    0.625    0.000    0.000    0.000    0.000 
#    0.000    0.000    0.000    0.000    0.000    0.000 
#
# Total GULP energy -396540.951192 kJ/mol
# GULP energy per Si atom -12391.904725 kJ/mol
# Density = 2.071573 g / cm^3
# Si number density = 20.762986 Si / 1000 Ang^3
#
#
#
# Elastic Constant Matrix: (Units=GPa)
#
#
# Indices 1 2 3 4 5 6 
#
# 1 115.4084 16.8303 21.0273 0.0000 5.5662 0.0000
# 2 16.8303 58.8616 9.7455 0.0000 0.6315 0.0000
# 3 21.0273 9.7455 83.2083 0.0000 8.4956 0.0000
# 4 0.0000 0.0000 0.0000 22.6161 0.0000 4.4646
# 5 5.5662 0.6315 8.4956 0.0000 22.2777 0.0000
# 6 0.0000 0.0000 0.0000 4.4646 0.0000 26.5095
#
#
#
# Elastic Compliance Matrix: (Units=1/GPa)
#
#
# Indices 1 2 3 4 5 6 
#
# 1 0.009439 -0.002359 -0.001951 0.000000 -0.001548 0.000000
# 2 -0.002359 0.017917 -0.001572 0.000000 0.000681 0.000000
# 3 -0.001951 -0.001572 0.013153 0.000000 -0.004484 0.000000
# 4 0.000000 0.000000 0.000000 0.045737 0.000000 -0.007703
# 5 -0.001548 0.000681 -0.004484 0.000000 0.046965 0.000000
# 6 0.000000 0.000000 0.000000 -0.007703 0.000000 0.039020
#
#
# Mechanical properties :
#
#
# Convention : Reuss Voigt Hill
#
# Bulk Modulus (GPa) = 34.78929 39.18718 36.98824
# Shear Modulus (GPa) = 25.82970 28.27234 27.05102
#
# Velocity S-wave (km/s) = 3.53090 3.69409 3.61341
# Velocity P-wave (km/s) = 5.78056 6.09176 5.93820
#
# Compressibility (1/GPa) = 0.02874448
#
# Stress axis : x y z
#
# Youngs Moduli (GPa) = 105.94294 55.81446 76.02863
#
# Poissons Ratio (x) = 0.13168 0.14833
# Poissons Ratio (y) = 0.24995 0.11950
# Poissons Ratio (z) = 0.20669 0.08773
#
# Static dielectric constant tensor:
#      x y z
#    x 4.233560 0.000000 0.080690 
#    y 0.000000 3.559060 0.000000 
#    z 0.080690 0.000000 3.427960 
# 
# 
# High freq. dielectric constant tensor:
#      x y z
#    x 1.821610 0.000000 0.014280 
#    y 0.000000 1.803020 0.000000 
#    z 0.014280 0.000000 1.779720 
# 
# From -- ./inp_files/266067.got.cif
#   From: 2010.06.25/outbox.cif.g09.slc.cpg/sg15_134_cif.got.tgz:266067.got - 2010.06.28 07:06:18.
