data_PCOD8134018
_publ_section_title
;
Structure prediction by ZEFSAII (Michael W. Deem and Ramdas Pophale) SiO2 
 PCOD8134018
Probable space group: C 2/C
;
_chemical_formula_sum "Si O2"
_cell_formula_units_Z 52
_cell_length_a 11.746727
_cell_length_b 24.228774
_cell_length_c 14.513943
_cell_angle_alpha 90.000000
_cell_angle_beta 137.216435
_cell_angle_gamma 90.000000
_cell_volume 2805.763782
_symmetry_space_group_name_H-M "C 2/C"
_symmetry_group_IT_number 15
_symmetry_cell_setting 'monoclinic'
loop_
_space_group_symop_operation_xyz
x,y,z
-x,y,1/2-z
-x,-y,-z
x,-y,1/2+z
1/2+x,1/2+y,z
1/2-x,1/2+y,1/2-z
1/2-x,1/2-y,-z
1/2+x,1/2-y,1/2+z
loop_
_atom_site_type_symbol
_atom_site_label
_atom_site_fract_x
_atom_site_fract_y
_atom_site_fract_z
Si Si1 0.000000 0.089004 0.750000
Si Si2 0.339575 0.498946 0.534095
Si Si3 0.201085 0.011486 0.191147
Si Si4 0.865325 0.426208 0.947664
Si Si5 0.304637 0.198330 0.643998
Si Si6 0.766517 0.390956 0.276250
Si Si7 0.805946 0.819223 0.619799
O O1 0.870229 0.049970 0.619023
O O2 0.874676 0.127542 0.733746
O O3 0.261684 0.525220 0.393740
O O4 0.517437 0.468137 0.617081
O O5 0.211770 0.456366 0.507733
O O6 0.345101 0.035516 0.344342
O O7 0.194065 0.945104 0.184732
O O8 0.772084 0.369161 0.868957
O O9 0.056474 0.408882 0.075950
O O10 0.500000 0.205643 0.750000
O O11 0.271414 0.160754 0.711922
O O12 0.230604 0.169686 0.509574
O O13 0.227977 0.260441 0.607722
O O14 0.000000 0.820455 0.750000
#
# Coordination Sequence:
#
# PCOD8134018 Si02
#       7
#     4   8   8   8   8   8   8
#     4  10  22  40  52  78 116 160 200 234 278 362
#     4  10  19  35  52  79 125 147 193 232 286 358
#     4  10  21  32  54  86 115 160 185 230 298 356
#     4  12  20  36  57  89 118 154 196 245 292 356
#     4  10  20  39  56  91 116 154 196 240 303 357
#     4  11  22  37  58  79 119 158 200 238 294 352
#     4  10  21  33  60  89 122 146 186 254 304 345
#
# _framework density 18.533277999999999
#
# number of rings (size 3 to 8) (size 9 to 14) (size 15 to 20)
#    0.000    1.538    4.615    2.308    0.000    2.462 
#    0.000    0.000    0.000    0.923    0.000    0.000 
#    0.000    0.000    0.000    0.000    0.000    0.000 
#
# Total GULP energy -322209.596355 kJ/mol
# GULP energy per Si atom -12392.676783 kJ/mol
# Density = 1.849110 g / cm^3
# Si number density = 18.533278 Si / 1000 Ang^3
#
#
#
# Elastic Constant Matrix: (Units=GPa)
#
#
# Indices 1 2 3 4 5 6 
#
# 1 97.7374 50.8290 39.0737 0.0000 -5.0711 0.0000
# 2 50.8290 92.7660 22.2523 0.0000 -11.9835 0.0000
# 3 39.0737 22.2523 106.5765 0.0000 -11.3045 0.0000
# 4 0.0000 0.0000 0.0000 24.9400 0.0000 -2.5486
# 5 -5.0711 -11.9835 -11.3045 0.0000 29.9973 0.0000
# 6 0.0000 0.0000 0.0000 -2.5486 0.0000 16.4009
#
#
#
# Elastic Compliance Matrix: (Units=1/GPa)
#
#
# Indices 1 2 3 4 5 6 
#
# 1 0.016065 -0.008015 -0.004446 0.000000 -0.002162 0.000000
# 2 -0.008015 0.015777 0.000176 0.000000 0.005014 0.000000
# 3 -0.004446 0.000176 0.011358 0.000000 0.003599 0.000000
# 4 0.000000 0.000000 0.000000 0.040743 0.000000 0.006331
# 5 -0.002162 0.005014 0.003599 0.000000 0.036330 0.000000
# 6 0.000000 0.000000 0.000000 0.006331 0.000000 0.061956
#
#
# Mechanical properties :
#
#
# Convention : Reuss Voigt Hill
#
# Bulk Modulus (GPa) = 53.67481 57.93221 55.80351
# Shear Modulus (GPa) = 23.47322 26.59598 25.03460
#
# Velocity S-wave (km/s) = 3.56272 3.79230 3.67930
# Velocity P-wave (km/s) = 6.77850 7.10646 6.94442
#
# Compressibility (1/GPa) = 0.01863071
#
# Stress axis : x y z
#
# Youngs Moduli (GPa) = 62.24710 63.38329 88.04578
#
# Poissons Ratio (x) = 0.50803 0.39141
# Poissons Ratio (y) = 0.49893 -0.01553
# Poissons Ratio (z) = 0.27672 -0.01118
#
# Static dielectric constant tensor:
#      x y z
#    x 3.398480 0.000000 -0.015880 
#    y 0.000000 3.656440 0.000000 
#    z -0.015880 0.000000 3.540140 
# 
# 
# High freq. dielectric constant tensor:
#      x y z
#    x 1.699320 0.000000 0.002690 
#    y 0.000000 1.701840 0.000000 
#    z 0.002690 0.000000 1.734890 
# 
# From -- ./inp_files/147917.got.cif
#   From: 2010.06.25/outbox.cif.g09.slc.cpg/sg15_74_cif.got.tgz:147917.got - 2010.06.28 07:06:18.
