data_PCOD8134201
_publ_section_title
;
Structure prediction by ZEFSAII (Michael W. Deem and Ramdas Pophale) SiO2 
 PCOD8134201
Probable space group: C 2/C
;
_chemical_formula_sum "Si O2"
_cell_formula_units_Z 48
_cell_length_a 32.855484
_cell_length_b 9.216406
_cell_length_c 19.241078
_cell_angle_alpha 90.000000
_cell_angle_beta 155.515099
_cell_angle_gamma 90.000000
_cell_volume 2414.763508
_symmetry_space_group_name_H-M "C 2/C"
_symmetry_group_IT_number 15
_symmetry_cell_setting 'monoclinic'
loop_
_space_group_symop_operation_xyz
x,y,z
-x,y,1/2-z
-x,-y,-z
x,-y,1/2+z
1/2+x,1/2+y,z
1/2-x,1/2+y,1/2-z
1/2-x,1/2-y,-z
1/2+x,1/2-y,1/2+z
loop_
_atom_site_type_symbol
_atom_site_label
_atom_site_fract_x
_atom_site_fract_y
_atom_site_fract_z
Si Si1 0.217174 0.313081 0.835750
Si Si2 0.663129 0.042924 0.490689
Si Si3 0.080587 0.039208 0.815690
Si Si4 0.939519 0.308729 0.791208
Si Si5 0.070514 0.282972 0.293480
Si Si6 0.416568 0.964061 0.984029
O O1 0.156848 0.333395 0.812418
O O2 0.162191 0.385902 0.686145
O O3 0.319528 0.395287 0.999493
O O4 0.237199 0.139694 0.855830
O O5 0.667389 0.882058 0.461447
O O6 0.634672 0.020185 0.525987
O O7 0.578845 0.125720 0.314890
O O8 0.040763 0.137057 0.689399
O O9 0.000000 0.033821 0.750000
O O10 0.103828 0.877935 0.823777
O O11 0.033657 0.389745 0.971712
O O12 0.000000 0.279952 0.250000
O O13 0.006095 0.350937 0.131571
#
# Coordination Sequence:
#
# PCOD8134201 Si02
#       6
#     8   8   8   8   8   8
#     4  11  22  35  57  87 111 142 191 241 281 330
#     4   9  18  35  57  79 109 151 188 221 276 343
#     4  10  19  35  58  82 108 148 193 228 271 343
#     4  10  19  37  57  81 114 152 186 227 284 347
#     4   8  17  34  55  77 106 144 184 228 277 331
#     4  10  20  36  57  82 113 149 187 235 284 330
#
# _framework density 19.877723
#
# number of rings (size 3 to 8) (size 9 to 14) (size 15 to 20)
#    0.000    2.333    0.000    6.000    0.000    4.667 
#    0.000   10.000    0.000    4.000    0.000    0.000 
#    0.000    0.000    0.000    0.000    0.000    0.000 
#
# Total GULP energy -297314.603495 kJ/mol
# GULP energy per Si atom -12388.108479 kJ/mol
# Density = 1.983248 g / cm^3
# Si number density = 19.877723 Si / 1000 Ang^3
#
#
#
# Elastic Constant Matrix: (Units=GPa)
#
#
# Indices 1 2 3 4 5 6 
#
# 1 63.4513 41.0596 25.4332 0.0000 3.9684 0.0000
# 2 41.0596 188.2641 66.2488 0.0000 1.1364 0.0000
# 3 25.4332 66.2488 87.5678 0.0000 2.8191 0.0000
# 4 0.0000 0.0000 0.0000 18.0913 0.0000 -7.0429
# 5 3.9684 1.1364 2.8191 0.0000 19.1361 0.0000
# 6 0.0000 0.0000 0.0000 -7.0429 0.0000 7.4748
#
#
#
# Elastic Compliance Matrix: (Units=1/GPa)
#
#
# Indices 1 2 3 4 5 6 
#
# 1 0.019214 -0.003059 -0.003159 0.000000 -0.003338 0.000000
# 2 -0.003059 0.007728 -0.004988 0.000000 0.000910 0.000000
# 3 -0.003159 -0.004988 0.016157 0.000000 -0.001429 0.000000
# 4 0.000000 0.000000 0.000000 0.087296 0.000000 0.082253
# 5 -0.003338 0.000910 -0.001429 0.000000 0.053106 0.000000
# 6 0.000000 0.000000 0.000000 0.082253 0.000000 0.211285
#
#
# Mechanical properties :
#
#
# Convention : Reuss Voigt Hill
#
# Bulk Modulus (GPa) = 48.33658 67.19629 57.76643
# Shear Modulus (GPa) = 11.78984 22.70986 17.24985
#
# Velocity S-wave (km/s) = 2.43804 3.38372 2.94904
# Velocity P-wave (km/s) = 5.68288 7.01030 6.38120
#
# Compressibility (1/GPa) = 0.02068827
#
# Stress axis : x y z
#
# Youngs Moduli (GPa) = 52.04407 129.39142 61.89356
#
# Poissons Ratio (x) = 0.39578 0.19553
# Poissons Ratio (y) = 0.15919 0.30872
# Poissons Ratio (z) = 0.16441 0.64538
#
# Static dielectric constant tensor:
#      x y z
#    x 3.368390 0.000000 0.035910 
#    y 0.000000 4.398080 0.000000 
#    z 0.035910 0.000000 3.457870 
# 
# 
# High freq. dielectric constant tensor:
#      x y z
#    x 1.759290 0.000000 0.003790 
#    y 0.000000 1.793460 0.000000 
#    z 0.003790 0.000000 1.744680 
# 
# From -- ./inp_files/224683.got.cif
#   From: 2010.06.25/outbox.cif.g09.slc.cpg/sg15_113_cif.got.tgz:224683.got - 2010.06.28 07:06:18.
