data_PCOD8134157
_publ_section_title
;
Structure prediction by ZEFSAII (Michael W. Deem and Ramdas Pophale) SiO2 
 PCOD8134157
Probable space group: C 2/C
;
_chemical_formula_sum "Si O2"
_cell_formula_units_Z 64
_cell_length_a 14.273011
_cell_length_b 12.357242
_cell_length_c 29.884813
_cell_angle_alpha 90.000000
_cell_angle_beta 39.475153
_cell_angle_gamma 90.000000
_cell_volume 3350.963121
_symmetry_space_group_name_H-M "C 2/C"
_symmetry_group_IT_number 15
_symmetry_cell_setting 'monoclinic'
loop_
_space_group_symop_operation_xyz
x,y,z
-x,y,1/2-z
-x,-y,-z
x,-y,1/2+z
1/2+x,1/2+y,z
1/2-x,1/2+y,1/2-z
1/2-x,1/2-y,-z
1/2+x,1/2-y,1/2+z
loop_
_atom_site_type_symbol
_atom_site_label
_atom_site_fract_x
_atom_site_fract_y
_atom_site_fract_z
Si Si1 0.529649 0.654868 0.969104
Si Si2 0.852432 0.298381 0.500398
Si Si3 0.633957 0.172348 0.021050
Si Si4 0.826059 0.502624 0.563232
Si Si5 0.642121 0.198911 0.225821
Si Si6 0.847461 0.398793 0.146232
Si Si7 0.769480 0.036510 0.110015
Si Si8 0.506957 0.946709 0.846258
O O1 0.603068 0.693887 0.987756
O O2 0.503240 0.757752 0.947075
O O3 0.644078 0.570208 0.904811
O O4 0.371355 0.599958 0.036889
O O5 0.750000 0.250000 0.500000
O O6 0.768778 0.389257 0.562476
O O7 0.997055 0.350801 0.426244
O O8 0.571182 0.088536 0.079436
O O9 0.750000 0.250000 0.000000
O O10 0.718751 0.105646 0.950899
O O11 0.774980 0.526225 0.633290
O O12 0.000000 0.500000 0.500000
O O13 0.500000 0.233045 0.250000
O O14 0.735864 0.304925 0.200489
O O15 0.738931 0.109600 0.164388
O O16 0.592822 0.152137 0.291780
O O17 0.873639 0.464032 0.182714
O O18 0.615349 0.005418 0.142770
#
# Coordination Sequence:
#
# PCOD8134157 Si02
#       8
#     8   8   8   8   8   8   8   8
#     4  11  20  33  60  85 124 145 194 252 301 344
#     4  11  20  33  59  93 120 153 185 239 321 358
#     4  12  21  34  57  91 117 149 198 249 298 356
#     4  10  19  35  57  82 117 153 182 239 310 343
#     4  10  23  41  60  79 114 169 206 239 297 357
#     4  11  20  41  60  81 125 153 199 251 291 361
#     4  10  21  37  55  86 117 156 191 250 297 355
#     4  11  22  37  61  85 116 159 203 237 301 361
#
# _framework density 19.098987000000001
#
# number of rings (size 3 to 8) (size 9 to 14) (size 15 to 20)
#    0.000    1.250    7.500    0.750    1.750    1.000 
#    0.000    1.250    0.000    0.000    0.000    0.000 
#    0.000    0.000    0.000    0.000    0.000    0.000 
#
# Total GULP energy -396744.440639 kJ/mol
# GULP energy per Si atom -12398.263770 kJ/mol
# Density = 1.905552 g / cm^3
# Si number density = 19.098987 Si / 1000 Ang^3
#
#
#
# Elastic Constant Matrix: (Units=GPa)
#
#
# Indices 1 2 3 4 5 6 
#
# 1 106.5823 53.5879 22.0482 0.0000 -0.4336 0.0000
# 2 53.5879 100.1327 17.6839 0.0000 -8.0029 0.0000
# 3 22.0482 17.6839 46.9437 0.0000 -4.3376 0.0000
# 4 0.0000 0.0000 0.0000 27.4278 0.0000 0.7245
# 5 -0.4336 -8.0029 -4.3376 0.0000 16.3921 0.0000
# 6 0.0000 0.0000 0.0000 0.7245 0.0000 46.1540
#
#
#
# Elastic Compliance Matrix: (Units=1/GPa)
#
#
# Indices 1 2 3 4 5 6 
#
# 1 0.013722 -0.006929 -0.004217 0.000000 -0.004136 0.000000
# 2 -0.006929 0.014496 -0.001609 0.000000 0.006468 0.000000
# 3 -0.004217 -0.001609 0.024402 0.000000 0.005560 0.000000
# 4 0.000000 0.000000 0.000000 0.036475 0.000000 -0.000573
# 5 -0.004136 0.006468 0.005560 0.000000 0.065525 0.000000
# 6 0.000000 0.000000 0.000000 -0.000573 0.000000 0.021676
#
#
# Mechanical properties :
#
#
# Convention : Reuss Voigt Hill
#
# Bulk Modulus (GPa) = 36.88512 48.92208 42.90360
# Shear Modulus (GPa) = 23.71452 28.68403 26.19927
#
# Velocity S-wave (km/s) = 3.52755 3.87959 3.70775
# Velocity P-wave (km/s) = 5.99550 6.76305 6.39081
#
# Compressibility (1/GPa) = 0.02711120
#
# Stress axis : x y z
#
# Youngs Moduli (GPa) = 72.87643 68.98364 40.97982
#
# Poissons Ratio (x) = 0.47801 0.17280
# Poissons Ratio (y) = 0.50499 0.06592
# Poissons Ratio (z) = 0.30729 0.11096
#
# Static dielectric constant tensor:
#      x y z
#    x 3.620250 0.000000 0.039020 
#    y 0.000000 2.431390 0.000000 
#    z 0.039020 0.000000 3.170000 
# 
# 
# High freq. dielectric constant tensor:
#      x y z
#    x 1.749070 0.000000 0.009970 
#    y 0.000000 1.753290 0.000000 
#    z 0.009970 0.000000 1.704290 
# 
# From -- ./inp_files/313595.got.cif
#   From: 2010.06.25/outbox.cif.g09.slc.cpg/sg15_157_cif.got.tgz:313595.got - 2010.06.28 07:06:18.
