data_PCOD8134159
_publ_section_title
;
Structure prediction by ZEFSAII (Michael W. Deem and Ramdas Pophale) SiO2 
 PCOD8134159
Probable space group: C 2/C
;
_chemical_formula_sum "Si O2"
_cell_formula_units_Z 44
_cell_length_a 11.352061
_cell_length_b 18.763479
_cell_length_c 11.665483
_cell_angle_alpha 90.000000
_cell_angle_beta 68.011624
_cell_angle_gamma 90.000000
_cell_volume 2304.051886
_symmetry_space_group_name_H-M "C 2/C"
_symmetry_group_IT_number 15
_symmetry_cell_setting 'monoclinic'
loop_
_space_group_symop_operation_xyz
x,y,z
-x,y,1/2-z
-x,-y,-z
x,-y,1/2+z
1/2+x,1/2+y,z
1/2-x,1/2+y,1/2-z
1/2-x,1/2-y,-z
1/2+x,1/2-y,1/2+z
loop_
_atom_site_type_symbol
_atom_site_label
_atom_site_fract_x
_atom_site_fract_y
_atom_site_fract_z
Si Si1 0.848349 0.421373 0.569088
Si Si2 0.351580 0.846492 0.801320
Si Si3 0.325715 0.320813 0.997778
Si Si4 0.255515 0.797950 0.236649
Si Si5 0.000000 0.229772 0.250000
Si Si6 0.643445 0.086414 0.962122
O O1 0.805330 0.390157 0.707198
O O2 0.760920 0.388445 0.502136
O O3 0.824338 0.505101 0.575761
O O4 0.994424 0.400226 0.493407
O O5 0.500000 0.832888 0.750000
O O6 0.286656 0.769103 0.824676
O O7 0.314147 0.893340 0.924871
O O8 0.454357 0.319932 0.874099
O O9 0.250000 0.250000 0.000000
O O10 0.349155 0.319138 0.127066
O O11 0.388335 0.780931 0.249153
O O12 0.271394 0.866208 0.151727
#
# Coordination Sequence:
#
# PCOD8134159 Si02
#       6
#     8   8   8   8   4   8
#     4  10  20  38  55  87 119 144 195 233 292 335
#     4  10  21  37  56  82 118 150 185 239 283 337
#     4  10  19  35  57  83 110 149 191 238 266 339
#     4  11  21  36  60  87 112 147 199 232 282 343
#     4  10  20  34  62  84 114 150 190 238 280 328
#     4  10  22  34  59  85 118 154 178 242 295 338
#
# _framework density 19.096792000000001
#
# number of rings (size 3 to 8) (size 9 to 14) (size 15 to 20)
#    0.000    1.818    3.636    2.727    5.091    0.000 
#    1.636    0.000    2.000    2.182    0.000    0.000 
#    0.000    0.000    0.000    0.000    0.000    0.000 
#
# Total GULP energy -272746.681160 kJ/mol
# GULP energy per Si atom -12397.576416 kJ/mol
# Density = 1.905333 g / cm^3
# Si number density = 19.096792 Si / 1000 Ang^3
#
#
#
# Elastic Constant Matrix: (Units=GPa)
#
#
# Indices 1 2 3 4 5 6 
#
# 1 29.4579 16.5266 10.8574 0.0000 7.0588 0.0000
# 2 16.5266 123.4400 59.9228 0.0000 3.4519 0.0000
# 3 10.8574 59.9228 124.5562 0.0000 -4.2883 0.0000
# 4 0.0000 0.0000 0.0000 31.8613 0.0000 0.8322
# 5 7.0588 3.4519 -4.2883 0.0000 21.5401 0.0000
# 6 0.0000 0.0000 0.0000 0.8322 0.0000 29.2669
#
#
#
# Elastic Compliance Matrix: (Units=1/GPa)
#
#
# Indices 1 2 3 4 5 6 
#
# 1 0.040026 -0.004032 -0.001992 0.000000 -0.012867 0.000000
# 2 -0.004032 0.011137 -0.005057 0.000000 -0.001470 0.000000
# 3 -0.001992 -0.005057 0.010759 0.000000 0.003605 0.000000
# 4 0.000000 0.000000 0.000000 0.031409 0.000000 -0.000893
# 5 -0.012867 -0.001470 0.003605 0.000000 0.051595 0.000000
# 6 0.000000 0.000000 0.000000 -0.000893 0.000000 0.034194
#
#
# Mechanical properties :
#
#
# Convention : Reuss Voigt Hill
#
# Bulk Modulus (GPa) = 25.15090 50.22973 37.69032
# Shear Modulus (GPa) = 23.30606 29.21016 26.25811
#
# Velocity S-wave (km/s) = 3.49724 3.91523 3.71212
# Velocity P-wave (km/s) = 5.43198 6.84095 6.17677
#
# Compressibility (1/GPa) = 0.03976001
#
# Stress axis : x y z
#
# Youngs Moduli (GPa) = 24.98348 89.79161 92.94390
#
# Poissons Ratio (x) = 0.36203 0.18518
# Poissons Ratio (y) = 0.10073 0.47002
# Poissons Ratio (z) = 0.04978 0.45408
#
# Static dielectric constant tensor:
#      x y z
#    x 3.016890 0.000000 -0.458930 
#    y 0.000000 3.808340 0.000000 
#    z -0.458930 0.000000 3.244740 
# 
# 
# High freq. dielectric constant tensor:
#      x y z
#    x 1.711910 0.000000 0.009930 
#    y 0.000000 1.735650 0.000000 
#    z 0.009930 0.000000 1.757430 
# 
# From -- ./inp_files/87198.got.cif
#   From: 2010.06.25/outbox.cif.g09.slc.cpg/sg15_44_cif.got.tgz:87198.got - 2010.06.28 07:06:18.
