data_PCOD8134826
_publ_section_title
;
Structure prediction by ZEFSAII (Michael W. Deem and Ramdas Pophale) SiO2 
 PCOD8134826
Probable space group: C 2/C
;
_chemical_formula_sum "Si O2"
_cell_formula_units_Z 36
_cell_length_a 8.690576
_cell_length_b 22.371011
_cell_length_c 8.140014
_cell_angle_alpha 90.000000
_cell_angle_beta 82.468208
_cell_angle_gamma 90.000000
_cell_volume 1568.903015
_symmetry_space_group_name_H-M "C 2/C"
_symmetry_group_IT_number 15
_symmetry_cell_setting 'monoclinic'
loop_
_space_group_symop_operation_xyz
x,y,z
-x,y,1/2-z
-x,-y,-z
x,-y,1/2+z
1/2+x,1/2+y,z
1/2-x,1/2+y,1/2-z
1/2-x,1/2-y,-z
1/2+x,1/2-y,1/2+z
loop_
_atom_site_type_symbol
_atom_site_label
_atom_site_fract_x
_atom_site_fract_y
_atom_site_fract_z
Si Si1 0.000000 0.277937 0.750000
Si Si2 0.092330 0.178441 0.980644
Si Si3 0.158298 0.466132 0.823917
Si Si4 0.665784 0.085296 0.676318
Si Si5 0.792022 0.150510 0.188774
O O1 0.920436 0.240191 0.615950
O O2 0.869779 0.320802 0.849707
O O3 0.199772 0.134239 0.858418
O O4 0.160411 0.187486 0.153311
O O5 0.916404 0.154273 0.024713
O O6 0.219674 0.534520 0.799405
O O7 0.282537 0.419298 0.734205
O O8 0.000000 0.457218 0.750000
O O9 0.131568 0.451947 0.016949
O O10 0.500000 0.115358 0.750000
#
# Coordination Sequence:
#
# PCOD8134826 Si02
#       5
#     4   8   8   8   8
#     4  12  22  42  66  90 122 168 206 252 304 372
#     4  10  24  41  60  94 125 159 208 257 302 364
#     4  10  19  36  63  91 122 164 201 247 307 370
#     4  10  21  38  61  92 126 160 202 253 306 364
#     4  10  22  43  63  90 128 161 205 253 312 360
#
# _framework density 22.945969000000002
#
# number of rings (size 3 to 8) (size 9 to 14) (size 15 to 20)
#    0.000    1.778    1.111    4.000    0.000    4.444 
#   12.000    2.222    0.000    0.000    0.000    0.000 
#    0.000    0.000    0.000    0.000    0.000    0.000 
#
# Total GULP energy -223136.547913 kJ/mol
# GULP energy per Si atom -12396.474884 kJ/mol
# Density = 2.289374 g / cm^3
# Si number density = 22.945969 Si / 1000 Ang^3
#
#
#
# Elastic Constant Matrix: (Units=GPa)
#
#
# Indices 1 2 3 4 5 6 
#
# 1 118.1018 59.3668 37.0925 0.0000 -45.7145 0.0000
# 2 59.3668 91.1070 29.5312 0.0000 -31.8641 0.0000
# 3 37.0925 29.5312 74.4598 0.0000 -34.8163 0.0000
# 4 0.0000 0.0000 0.0000 15.2804 0.0000 18.2706
# 5 -45.7145 -31.8641 -34.8163 0.0000 55.6001 0.0000
# 6 0.0000 0.0000 0.0000 18.2706 0.0000 10.1465
#
#
#
# Elastic Compliance Matrix: (Units=1/GPa)
#
#
# Indices 1 2 3 4 5 6 
#
# 1 0.015364 -0.006834 -0.001227 0.000000 0.007947 0.000000
# 2 -0.006834 0.017104 -0.002012 0.000000 0.002923 0.000000
# 3 -0.001227 -0.002012 0.019554 0.000000 0.010082 0.000000
# 4 0.000000 0.000000 0.000000 -0.056757 0.000000 0.102200
# 5 0.007947 0.002923 0.010082 0.000000 0.032508 0.000000
# 6 0.000000 0.000000 0.000000 0.102200 0.000000 -0.085474
#
#
# Mechanical properties :
#
#
# Convention : Reuss Voigt Hill
#
# Bulk Modulus (GPa) = 31.37302 59.51661 45.44481
# Shear Modulus (GPa) = -185.68376 26.71729 -79.48323
#
# Velocity S-wave (km/s) = -9.00543 3.41597 -5.89190
# Velocity P-wave (km/s) = 9.71742 6.44612 5.14178
#
# Compressibility (1/GPa) = 0.03187453
#
# Stress axis : x y z
#
# Youngs Moduli (GPa) = 65.08538 58.46590 51.14111
#
# Poissons Ratio (x) = 0.39958 0.06276
# Poissons Ratio (y) = 0.44482 0.10291
# Poissons Ratio (z) = 0.07987 0.11765
#
# Static dielectric constant tensor:
#      x y z
#    x 4.085680 0.000000 -0.174340 
#    y 0.000000 4.214750 0.000000 
#    z -0.174340 0.000000 4.211980 
# 
# 
# High freq. dielectric constant tensor:
#      x y z
#    x 1.901890 0.000000 -0.012310 
#    y 0.000000 1.901290 0.000000 
#    z -0.012310 0.000000 1.909350 
# 
# From -- ./inp_files/23320.got.cif
#   From: 2010.06.25/outbox.cif.g09.slc.cpg/sg15_12_cif.got.tgz:23320.got - 2010.06.28 07:06:18.
