data_PCOD8134358
_publ_section_title
;
Structure prediction by ZEFSAII (Michael W. Deem and Ramdas Pophale) SiO2 
 PCOD8134358
Probable space group: C 2/C
;
_chemical_formula_sum "Si O2"
_cell_formula_units_Z 40
_cell_length_a 17.787506
_cell_length_b 11.774089
_cell_length_c 9.656783
_cell_angle_alpha 90.000000
_cell_angle_beta 91.224495
_cell_angle_gamma 90.000000
_cell_volume 2021.974429
_symmetry_space_group_name_H-M "C 2/C"
_symmetry_group_IT_number 15
_symmetry_cell_setting 'monoclinic'
loop_
_space_group_symop_operation_xyz
x,y,z
-x,y,1/2-z
-x,-y,-z
x,-y,1/2+z
1/2+x,1/2+y,z
1/2-x,1/2+y,1/2-z
1/2-x,1/2-y,-z
1/2+x,1/2-y,1/2+z
loop_
_atom_site_type_symbol
_atom_site_label
_atom_site_fract_x
_atom_site_fract_y
_atom_site_fract_z
Si Si1 0.701291 0.004634 0.382216
Si Si2 0.450272 0.450543 0.117173
Si Si3 0.794117 0.068102 0.143247
Si Si4 0.297163 0.209913 0.779638
Si Si5 0.354003 0.246519 0.074722
O O1 0.727106 0.971880 0.537930
O O2 0.666471 0.901682 0.290912
O O3 0.776702 0.036415 0.301937
O O4 0.644237 0.112686 0.382714
O O5 0.500000 0.476803 0.250000
O O6 0.373894 0.520822 0.103714
O O7 0.430508 0.315097 0.111457
O O8 0.500000 0.500000 0.000000
O O9 0.795690 0.204821 0.148967
O O10 0.213956 0.189022 0.845136
O O11 0.347406 0.254581 0.908279
#
# Coordination Sequence:
#
# PCOD8134358 Si02
#       5
#     8   8   8   8   8
#     4  11  19  36  61  92 122 146 188 262 311 346
#     4  12  24  40  60  83 122 165 200 238 283 359
#     4  11  21  35  59  92 120 151 201 241 307 352
#     4  10  19  35  61  90 121 147 189 261 307 349
#     4  10  20  37  57  88 124 149 198 246 302 344
#
# _framework density 19.782644999999999
#
# number of rings (size 3 to 8) (size 9 to 14) (size 15 to 20)
#    0.000    1.200    4.000    5.400    0.000    0.000 
#    0.000    0.000    0.000    6.000    0.000    0.000 
#    0.000    0.000    0.000    0.000    0.000    0.000 
#
# Total GULP energy -247764.246299 kJ/mol
# GULP energy per Si atom -12388.212315 kJ/mol
# Density = 1.973762 g / cm^3
# Si number density = 19.782645 Si / 1000 Ang^3
#
#
#
# Elastic Constant Matrix: (Units=GPa)
#
#
# Indices 1 2 3 4 5 6 
#
# 1 53.7282 26.4971 29.1112 0.0000 -5.0795 0.0000
# 2 26.4971 123.2002 54.5167 0.0000 -14.2635 0.0000
# 3 29.1112 54.5167 107.9717 0.0000 4.5907 0.0000
# 4 0.0000 0.0000 0.0000 38.7230 0.0000 1.1746
# 5 -5.0795 -14.2635 4.5907 0.0000 20.8877 0.0000
# 6 0.0000 0.0000 0.0000 1.1746 0.0000 10.3972
#
#
#
# Elastic Compliance Matrix: (Units=1/GPa)
#
#
# Indices 1 2 3 4 5 6 
#
# 1 0.023042 -0.001884 -0.005496 0.000000 0.005525 0.000000
# 2 -0.001884 0.012292 -0.006093 0.000000 0.009275 0.000000
# 3 -0.005496 -0.006093 0.014186 0.000000 -0.008615 0.000000
# 4 0.000000 0.000000 0.000000 0.025913 0.000000 -0.002927
# 5 0.005525 0.009275 -0.008615 0.000000 0.057445 0.000000
# 6 0.000000 0.000000 0.000000 -0.002927 0.000000 0.096510
#
#
# Mechanical properties :
#
#
# Convention : Reuss Voigt Hill
#
# Bulk Modulus (GPa) = 44.29884 56.12780 50.21332
# Shear Modulus (GPa) = 18.94952 25.65325 22.30138
#
# Velocity S-wave (km/s) = 3.09833 3.60496 3.36120
# Velocity P-wave (km/s) = 5.93641 6.76472 6.36405
#
# Compressibility (1/GPa) = 0.02257395
#
# Stress axis : x y z
#
# Youngs Moduli (GPa) = 43.39990 81.35415 70.49117
#
# Poissons Ratio (x) = 0.15327 0.38743
# Poissons Ratio (y) = 0.08176 0.42949
# Poissons Ratio (z) = 0.23853 0.49567
#
# Static dielectric constant tensor:
#      x y z
#    x 3.077460 0.000000 -0.021600 
#    y 0.000000 4.186040 0.000000 
#    z -0.021600 0.000000 3.709610 
# 
# 
# High freq. dielectric constant tensor:
#      x y z
#    x 1.700980 0.000000 0.003730 
#    y 0.000000 1.797430 0.000000 
#    z 0.003730 0.000000 1.789330 
# 
# From -- ./inp_files/46072.got.cif
#   From: 2010.06.25/outbox.cif.g09.slc.cpg/sg15_24_cif.got.tgz:46072.got - 2010.06.28 07:06:18.
