data_PCOD8134588
_publ_section_title
;
Structure prediction by ZEFSAII (Michael W. Deem and Ramdas Pophale) SiO2 
 PCOD8134588
Probable space group: C 2/C
;
_chemical_formula_sum "Si O2"
_cell_formula_units_Z 32
_cell_length_a 8.345068
_cell_length_b 11.624111
_cell_length_c 27.889811
_cell_angle_alpha 90.000000
_cell_angle_beta 146.073715
_cell_angle_gamma 90.000000
_cell_volume 1509.966523
_symmetry_space_group_name_H-M "C 2/C"
_symmetry_group_IT_number 15
_symmetry_cell_setting 'monoclinic'
loop_
_space_group_symop_operation_xyz
x,y,z
-x,y,1/2-z
-x,-y,-z
x,-y,1/2+z
1/2+x,1/2+y,z
1/2-x,1/2+y,1/2-z
1/2-x,1/2-y,-z
1/2+x,1/2-y,1/2+z
loop_
_atom_site_type_symbol
_atom_site_label
_atom_site_fract_x
_atom_site_fract_y
_atom_site_fract_z
Si Si1 0.846294 0.091002 0.995402
Si Si2 0.918020 0.759260 0.429367
Si Si3 0.315871 0.006350 0.406639
Si Si4 0.813676 0.976927 0.341615
O O1 0.877634 0.214791 0.976862
O O2 0.018029 0.079677 0.088388
O O3 0.504143 0.062638 0.914134
O O4 0.000000 0.000000 0.000000
O O5 0.770231 0.638963 0.379243
O O6 0.776802 0.860467 0.363070
O O7 0.250000 0.750000 0.500000
O O8 0.500000 0.000000 0.500000
O O9 0.002099 0.951937 0.339972
O O10 0.500000 0.022469 0.250000
#
# Coordination Sequence:
#
# PCOD8134588 Si02
#       4
#     8   8   8   8
#     4   9  18  35  61  81 109 148 196 229 276 349
#     4  11  19  38  62  84 109 153 201 229 284 347
#     4  10  19  36  58  85 110 149 197 230 285 343
#     4  10  22  40  53  85 126 143 188 250 287 333
#
# _framework density 21.192523000000001
#
# number of rings (size 3 to 8) (size 9 to 14) (size 15 to 20)
#    0.000    2.000    7.500    0.000    0.000    4.000 
#    4.500    5.000    0.000    0.000    0.000    0.000 
#    0.000    0.000    0.000    0.000    0.000    0.000 
#
# Total GULP energy -198240.826333 kJ/mol
# GULP energy per Si atom -12390.051646 kJ/mol
# Density = 2.114429 g / cm^3
# Si number density = 21.192523 Si / 1000 Ang^3
#
#
#
# Elastic Constant Matrix: (Units=GPa)
#
#
# Indices 1 2 3 4 5 6 
#
# 1 143.5519 23.1444 48.0458 0.0000 37.3449 0.0000
# 2 23.1444 80.7431 18.7873 0.0000 -1.6558 0.0000
# 3 48.0458 18.7873 88.7197 0.0002 29.4453 0.0001
# 4 0.0000 0.0000 0.0002 17.9896 0.0000 -0.7294
# 5 37.3449 -1.6558 29.4453 0.0000 32.7601 0.0000
# 6 0.0000 0.0000 0.0001 -0.7294 0.0000 40.6995
#
#
#
# Elastic Compliance Matrix: (Units=1/GPa)
#
#
# Indices 1 2 3 4 5 6 
#
# 1 0.010865 -0.002981 -0.001556 0.000000 -0.011137 0.000000
# 2 -0.002981 0.014321 -0.003971 0.000000 0.007691 0.000000
# 3 -0.001556 -0.003971 0.017719 0.000000 -0.014352 0.000000
# 4 0.000000 0.000000 0.000000 0.055628 0.000000 0.000997
# 5 -0.011137 0.007691 -0.014352 0.000000 0.056510 0.000000
# 6 0.000000 0.000000 0.000000 0.000997 0.000000 0.024588
#
#
# Mechanical properties :
#
#
# Convention : Reuss Voigt Hill
#
# Bulk Modulus (GPa) = 38.62690 54.77441 46.70066
# Shear Modulus (GPa) = 24.35745 33.15898 28.75822
#
# Velocity S-wave (km/s) = 3.39387 3.95986 3.68774
# Velocity P-wave (km/s) = 5.79863 6.84175 6.34167
#
# Compressibility (1/GPa) = 0.02588869
#
# Stress axis : x y z
#
# Youngs Moduli (GPa) = 92.03935 69.82745 56.43792
#
# Poissons Ratio (x) = 0.20813 0.08783
# Poissons Ratio (y) = 0.27433 0.22411
# Poissons Ratio (z) = 0.14324 0.27728
#
# Static dielectric constant tensor:
#      x y z
#    x 5.481880 0.000000 0.247220 
#    y 0.000000 4.747500 0.000000 
#    z 0.247220 0.000000 3.512760 
# 
# 
# High freq. dielectric constant tensor:
#      x y z
#    x 1.861550 0.000000 0.023070 
#    y 0.000000 1.817180 0.000000 
#    z 0.023070 0.000000 1.772100 
# 
# From -- ./inp_files/131727.got.cif
#   From: 2010.06.25/outbox.cif.g09.slc.cpg/sg15_66_cif.got.tgz:131727.got - 2010.06.28 07:06:18.
