data_PCOD8134997
_publ_section_title
;
Structure prediction by ZEFSAII (Michael W. Deem and Ramdas Pophale) SiO2 
 PCOD8134997
Probable space group: C 2/C
;
_chemical_formula_sum "Si O2"
_cell_formula_units_Z 48
_cell_length_a 25.376658
_cell_length_b 9.363261
_cell_length_c 20.043157
_cell_angle_alpha 90.000000
_cell_angle_beta 150.907529
_cell_angle_gamma 90.000000
_cell_volume 2315.586460
_symmetry_space_group_name_H-M "C 2/C"
_symmetry_group_IT_number 15
_symmetry_cell_setting 'monoclinic'
loop_
_space_group_symop_operation_xyz
x,y,z
-x,y,1/2-z
-x,-y,-z
x,-y,1/2+z
1/2+x,1/2+y,z
1/2-x,1/2+y,1/2-z
1/2-x,1/2-y,-z
1/2+x,1/2-y,1/2+z
loop_
_atom_site_type_symbol
_atom_site_label
_atom_site_fract_x
_atom_site_fract_y
_atom_site_fract_z
Si Si1 0.275445 0.831608 0.356892
Si Si2 0.876945 0.149508 0.117148
Si Si3 0.127608 0.688726 0.673262
Si Si4 0.429637 0.620667 0.956120
Si Si5 0.721147 0.482931 0.600813
Si Si6 0.239850 0.377403 0.589843
O O1 0.366790 0.834077 0.400283
O O2 0.157086 0.831686 0.194118
O O3 0.286899 0.686192 0.410175
O O4 0.292353 0.960941 0.427868
O O5 0.844790 0.145872 0.159028
O O6 0.000000 0.103077 0.250000
O O7 0.800062 0.031653 0.997949
O O8 0.859581 0.301175 0.059332
O O9 0.159106 0.538169 0.743520
O O10 0.223976 0.800537 0.800990
O O11 0.007908 0.744601 0.561044
O O12 0.372311 0.556206 0.957556
O O13 0.500000 0.500000 0.000000
#
# Coordination Sequence:
#
# PCOD8134997 Si02
#       6
#     8   8   8   8   8   8
#     4  11  21  35  59  92 124 148 194 258 307 352
#     4  10  22  40  63  81 111 165 212 238 293 371
#     4  10  19  37  59  88 119 159 195 236 306 368
#     4  11  19  35  62  84 122 166 193 235 314 377
#     4  10  22  36  58  90 120 152 204 256 299 355
#     4  10  21  39  61  84 119 157 199 251 296 358
#
# _framework density 20.729089999999999
#
# number of rings (size 3 to 8) (size 9 to 14) (size 15 to 20)
#    0.000    1.667    3.333    2.000    0.000    1.333 
#    0.000    5.833    0.000    0.000    0.000    0.000 
#    0.000    0.000    0.000    0.000    0.000    0.000 
#
# Total GULP energy -297508.893097 kJ/mol
# GULP energy per Si atom -12396.203879 kJ/mol
# Density = 2.068191 g / cm^3
# Si number density = 20.729090 Si / 1000 Ang^3
#
#
#
# Elastic Constant Matrix: (Units=GPa)
#
#
# Indices 1 2 3 4 5 6 
#
# 1 62.6657 34.6425 17.4634 0.0000 -6.0689 0.0000
# 2 34.6425 147.4197 19.7215 0.0000 -18.2477 0.0000
# 3 17.4634 19.7215 43.7778 0.0000 -5.4159 0.0000
# 4 0.0000 0.0000 0.0000 24.9969 0.0000 0.2033
# 5 -6.0689 -18.2477 -5.4159 0.0000 24.0334 0.0000
# 6 0.0000 0.0000 0.0000 0.2033 0.0000 26.5109
#
#
#
# Elastic Compliance Matrix: (Units=1/GPa)
#
#
# Indices 1 2 3 4 5 6 
#
# 1 0.019806 -0.003739 -0.006120 0.000000 0.000784 0.000000
# 2 -0.003739 0.008528 -0.001714 0.000000 0.005145 0.000000
# 3 -0.006120 -0.001714 0.026441 0.000000 0.003112 0.000000
# 4 0.000000 0.000000 0.000000 0.040007 0.000000 -0.000307
# 5 0.000784 0.005145 0.003112 0.000000 0.046414 0.000000
# 6 0.000000 0.000000 0.000000 -0.000307 0.000000 0.037723
#
#
# Mechanical properties :
#
#
# Convention : Reuss Voigt Hill
#
# Bulk Modulus (GPa) = 31.61509 44.16866 37.89187
# Shear Modulus (GPa) = 23.51764 27.24396 25.38080
#
# Velocity S-wave (km/s) = 3.37192 3.62924 3.50295
# Velocity P-wave (km/s) = 5.51765 6.23824 5.88898
#
# Compressibility (1/GPa) = 0.03163047
#
# Stress axis : x y z
#
# Youngs Moduli (GPa) = 50.49063 117.26108 37.82024
#
# Poissons Ratio (x) = 0.43838 0.23144
# Poissons Ratio (y) = 0.18876 0.06482
# Poissons Ratio (z) = 0.30898 0.20098
#
# Static dielectric constant tensor:
#      x y z
#    x 3.850070 0.000000 0.111060 
#    y 0.000000 3.773050 0.000000 
#    z 0.111060 0.000000 3.785240 
# 
# 
# High freq. dielectric constant tensor:
#      x y z
#    x 1.806160 0.000000 -0.004030 
#    y 0.000000 1.803510 0.000000 
#    z -0.004030 0.000000 1.799730 
# 
# From -- ./inp_files/257243.got.cif
#   From: 2010.06.25/outbox.cif.g09.slc.cpg/sg15_129_cif.got.tgz:257243.got - 2010.06.28 07:06:18.
