data_PCOD8134610
_publ_section_title
;
Structure prediction by ZEFSAII (Michael W. Deem and Ramdas Pophale) SiO2 
 PCOD8134610
Probable space group: C 2/C
;
_chemical_formula_sum "Si O2"
_cell_formula_units_Z 40
_cell_length_a 23.767283
_cell_length_b 8.815425
_cell_length_c 9.347630
_cell_angle_alpha 90.000000
_cell_angle_beta 76.678292
_cell_angle_gamma 90.000000
_cell_volume 1905.803186
_symmetry_space_group_name_H-M "C 2/C"
_symmetry_group_IT_number 15
_symmetry_cell_setting 'monoclinic'
loop_
_space_group_symop_operation_xyz
x,y,z
-x,y,1/2-z
-x,-y,-z
x,-y,1/2+z
1/2+x,1/2+y,z
1/2-x,1/2+y,1/2-z
1/2-x,1/2-y,-z
1/2+x,1/2-y,1/2+z
loop_
_atom_site_type_symbol
_atom_site_label
_atom_site_fract_x
_atom_site_fract_y
_atom_site_fract_z
Si Si1 0.457629 0.448871 0.145656
Si Si2 0.849131 0.859758 0.663692
Si Si3 0.367794 0.196056 0.219114
Si Si4 0.160611 0.442561 0.478490
Si Si5 0.205948 0.945642 0.095158
O O1 0.500000 0.436497 0.250000
O O2 0.409462 0.578650 0.189684
O O3 0.426791 0.285057 0.147469
O O4 0.500000 0.500000 0.000000
O O5 0.854252 0.681035 0.634788
O O6 0.832424 0.944255 0.525553
O O7 0.801919 0.895374 0.815180
O O8 0.375778 0.086682 0.354360
O O9 0.316068 0.313286 0.284697
O O10 0.352699 0.104262 0.083697
O O11 0.227533 0.422423 0.483186
#
# Coordination Sequence:
#
# PCOD8134610 Si02
#       5
#     8   8   8   8   8
#     4  11  23  44  64  81 110 154 205 258 298 341
#     4  10  21  36  59  88 115 156 205 238 285 355
#     4  10  23  37  58  89 121 158 198 237 295 356
#     4  11  20  37  58  91 131 156 185 241 293 355
#     4  10  19  36  58  89 128 164 189 228 288 359
#
# _framework density 20.988526
#
# number of rings (size 3 to 8) (size 9 to 14) (size 15 to 20)
#    0.000    1.600    0.000    8.400    0.000    4.800 
#    0.000   12.000    0.000    0.000    0.000    0.000 
#    0.000    0.000    0.000    0.000    0.000    0.000 
#
# Total GULP energy -247913.442840 kJ/mol
# GULP energy per Si atom -12395.672142 kJ/mol
# Density = 2.094076 g / cm^3
# Si number density = 20.988526 Si / 1000 Ang^3
#
#
#
# Elastic Constant Matrix: (Units=GPa)
#
#
# Indices 1 2 3 4 5 6 
#
# 1 115.6521 53.2131 25.6283 0.0000 -0.3773 0.0000
# 2 53.2131 59.7766 34.2699 0.0000 1.8029 0.0000
# 3 25.6283 34.2699 75.3847 0.0000 -18.5889 0.0000
# 4 0.0000 0.0000 0.0000 39.2253 0.0000 -3.3691
# 5 -0.3773 1.8029 -18.5889 0.0000 33.9330 0.0000
# 6 0.0000 0.0000 0.0000 -3.3691 0.0000 32.6281
#
#
#
# Elastic Compliance Matrix: (Units=1/GPa)
#
#
# Indices 1 2 3 4 5 6 
#
# 1 0.014848 -0.014436 0.002017 0.000000 0.002037 0.000000
# 2 -0.014436 0.038656 -0.015275 0.000000 -0.010582 0.000000
# 3 0.002017 -0.015275 0.022810 0.000000 0.013330 0.000000
# 4 0.000000 0.000000 0.000000 0.025722 0.000000 0.002656
# 5 0.002037 -0.010582 0.013330 0.000000 0.037357 0.000000
# 6 0.000000 0.000000 0.000000 0.002656 0.000000 0.030923
#
#
# Mechanical properties :
#
#
# Convention : Reuss Voigt Hill
#
# Bulk Modulus (GPa) = 47.78398 53.00399 50.39399
# Shear Modulus (GPa) = 21.48885 30.33741 25.91313
#
# Velocity S-wave (km/s) = 3.20322 3.80600 3.51755
# Velocity P-wave (km/s) = 6.04127 6.68003 6.36866
#
# Compressibility (1/GPa) = 0.02092751
#
# Stress axis : x y z
#
# Youngs Moduli (GPa) = 67.34726 25.86944 43.83962
#
# Poissons Ratio (x) = 0.37344 -0.08841
# Poissons Ratio (y) = 0.97220 0.66963
# Poissons Ratio (z) = -0.13582 0.39514
#
# Static dielectric constant tensor:
#      x y z
#    x 3.898960 0.000000 -0.274340 
#    y 0.000000 3.789180 0.000000 
#    z -0.274340 0.000000 4.036610 
# 
# 
# High freq. dielectric constant tensor:
#      x y z
#    x 1.808880 0.000000 0.003870 
#    y 0.000000 1.815580 0.000000 
#    z 0.003870 0.000000 1.831200 
# 
# From -- ./inp_files/59915.got.cif
#   From: 2010.06.25/outbox.cif.g09.slc.cpg/sg15_30_cif.got.tgz:59915.got - 2010.06.28 07:06:18.
