data_PCOD8134216
_publ_section_title
;
Structure prediction by ZEFSAII (Michael W. Deem and Ramdas Pophale) SiO2 
 PCOD8134216
Probable space group: C 2/C
;
_chemical_formula_sum "Si O2"
_cell_formula_units_Z 56
_cell_length_a 29.649903
_cell_length_b 9.223091
_cell_length_c 17.872776
_cell_angle_alpha 90.000000
_cell_angle_beta 142.518123
_cell_angle_gamma 90.000000
_cell_volume 2974.129181
_symmetry_space_group_name_H-M "C 2/C"
_symmetry_group_IT_number 15
_symmetry_cell_setting 'monoclinic'
loop_
_space_group_symop_operation_xyz
x,y,z
-x,y,1/2-z
-x,-y,-z
x,-y,1/2+z
1/2+x,1/2+y,z
1/2-x,1/2+y,1/2-z
1/2-x,1/2-y,-z
1/2+x,1/2-y,1/2+z
loop_
_atom_site_type_symbol
_atom_site_label
_atom_site_fract_x
_atom_site_fract_y
_atom_site_fract_z
Si Si1 0.578999 0.727395 0.468277
Si Si2 0.152282 0.594468 0.945160
Si Si3 0.715442 0.347401 0.235984
Si Si4 0.290931 0.664670 0.217794
Si Si5 0.701244 0.223670 0.508059
Si Si6 0.417045 0.473576 0.143559
Si Si7 0.089466 0.204281 0.240429
O O1 0.595588 0.866573 0.437761
O O2 0.634478 0.719673 0.611721
O O3 0.592497 0.585065 0.436618
O O4 0.495930 0.740908 0.388888
O O5 0.153913 0.422489 0.937624
O O6 0.126837 0.662898 0.833594
O O7 0.233388 0.655607 0.073155
O O8 0.712751 0.521162 0.236007
O O9 0.772569 0.302628 0.245485
O O10 0.741640 0.280880 0.348430
O O11 0.372088 0.684549 0.289327
O O12 0.750000 0.250000 0.500000
O O13 0.642834 0.349874 0.444883
O O14 0.500000 0.407618 0.250000
O O15 0.403300 0.555727 0.203659
#
# Coordination Sequence:
#
# PCOD8134216 Si02
#       7
#     8   8   8   8   8   8   8
#     4   9  19  36  58  79 109 143 177 220 264 317
#     4   9  19  34  55  81 110 143 177 217 264 315
#     4  10  21  36  53  79 109 142 177 218 274 316
#     4  10  20  34  55  78 108 141 178 221 263 318
#     4  11  22  36  56  80 108 141 181 224 265 318
#     4   9  18  33  55  82 110 139 175 223 271 308
#     4  10  19  35  58  84 105 139 185 218 258 317
#
# _framework density 18.829041
#
# number of rings (size 3 to 8) (size 9 to 14) (size 15 to 20)
#    0.000    2.286    0.000    4.286    0.000    5.143 
#    0.000    1.429    0.000    8.571    0.000    0.000 
#    0.000    0.000    0.000    0.000    0.000    0.000 
#
# Total GULP energy -347257.243659 kJ/mol
# GULP energy per Si atom -12402.044416 kJ/mol
# Density = 1.878619 g / cm^3
# Si number density = 18.829041 Si / 1000 Ang^3
#
#
#
# Elastic Constant Matrix: (Units=GPa)
#
#
# Indices 1 2 3 4 5 6 
#
# 1 146.4725 64.9538 60.2062 0.0000 19.1842 0.0000
# 2 64.9538 114.2993 50.9559 0.0000 9.6820 0.0000
# 3 60.2062 50.9559 97.6151 0.0000 4.5101 0.0000
# 4 0.0000 0.0000 0.0000 29.1393 0.0000 1.8771
# 5 19.1842 9.6820 4.5101 0.0000 26.8860 0.0000
# 6 0.0000 0.0000 0.0000 1.8771 0.0000 17.9581
#
#
#
# Elastic Compliance Matrix: (Units=1/GPa)
#
#
# Indices 1 2 3 4 5 6 
#
# 1 0.011182 -0.003787 -0.004650 0.000000 -0.005835 0.000000
# 2 -0.003787 0.012953 -0.004369 0.000000 -0.001229 0.000000
# 3 -0.004650 -0.004369 0.015286 0.000000 0.002327 0.000000
# 4 0.000000 0.000000 0.000000 0.034551 0.000000 -0.003612
# 5 -0.005835 -0.001229 0.002327 0.000000 0.041410 0.000000
# 6 0.000000 0.000000 0.000000 -0.003612 0.000000 0.056063
#
#
# Mechanical properties :
#
#
# Convention : Reuss Voigt Hill
#
# Bulk Modulus (GPa) = 72.42227 78.95765 75.68996
# Shear Modulus (GPa) = 24.79419 26.94810 25.87114
#
# Velocity S-wave (km/s) = 3.63272 3.78722 3.71077
# Velocity P-wave (km/s) = 7.49280 7.81979 7.65804
#
# Compressibility (1/GPa) = 0.01380791
#
# Stress axis : x y z
#
# Youngs Moduli (GPa) = 89.42556 77.20210 65.42079
#
# Poissons Ratio (x) = 0.29238 0.30424
# Poissons Ratio (y) = 0.33868 0.28582
# Poissons Ratio (z) = 0.41587 0.33729
#
# Static dielectric constant tensor:
#      x y z
#    x 3.361010 0.000000 0.143490 
#    y 0.000000 3.428980 0.000000 
#    z 0.143490 0.000000 3.646970 
# 
# 
# High freq. dielectric constant tensor:
#      x y z
#    x 1.724670 0.000000 0.006360 
#    y 0.000000 1.724360 0.000000 
#    z 0.006360 0.000000 1.734150 
# 
# From -- ./inp_files/218663.got.cif
#   From: 2010.06.25/outbox.cif.g09.slc.cpg/sg15_110_cif.got.tgz:218663.got - 2010.06.28 07:06:18.
