data_PCOD8134262
_publ_section_title
;
Structure prediction by ZEFSAII (Michael W. Deem and Ramdas Pophale) SiO2 
 PCOD8134262
Probable space group: C 2/C
;
_chemical_formula_sum "Si O2"
_cell_formula_units_Z 64
_cell_length_a 11.682836
_cell_length_b 17.933091
_cell_length_c 16.247088
_cell_angle_alpha 90.000000
_cell_angle_beta 92.361925
_cell_angle_gamma 90.000000
_cell_volume 3401.025186
_symmetry_space_group_name_H-M "C 2/C"
_symmetry_group_IT_number 15
_symmetry_cell_setting 'monoclinic'
loop_
_space_group_symop_operation_xyz
x,y,z
-x,y,1/2-z
-x,-y,-z
x,-y,1/2+z
1/2+x,1/2+y,z
1/2-x,1/2+y,1/2-z
1/2-x,1/2-y,-z
1/2+x,1/2-y,1/2+z
loop_
_atom_site_type_symbol
_atom_site_label
_atom_site_fract_x
_atom_site_fract_y
_atom_site_fract_z
Si Si1 0.231557 0.176644 0.447477
Si Si2 0.602155 0.064952 0.084590
Si Si3 0.632124 0.897242 0.278891
Si Si4 0.867363 0.775660 0.727754
Si Si5 0.057944 0.945005 0.938032
Si Si6 0.786588 0.997012 0.695442
Si Si7 0.338506 0.601084 0.345331
Si Si8 0.857188 0.484905 0.579650
O O1 0.250000 0.250000 0.500000
O O2 0.362402 0.146906 0.446498
O O3 0.172550 0.186567 0.357472
O O4 0.149844 0.111503 0.484848
O O5 0.471200 0.060581 0.107041
O O6 0.678326 0.053864 0.167849
O O7 0.636337 0.003571 0.016519
O O8 0.500000 0.910451 0.250000
O O9 0.662714 0.810556 0.283874
O O10 0.726468 0.924391 0.215374
O O11 0.652651 0.939631 0.366159
O O12 0.806334 0.818546 0.803027
O O13 0.000000 0.788405 0.750000
O O14 0.961130 0.894036 0.893040
O O15 0.122099 0.000185 0.875643
O O16 0.000000 0.000000 0.000000
O O17 0.848912 0.961655 0.775515
O O18 0.244070 0.574035 0.408267
#
# Coordination Sequence:
#
# PCOD8134262 Si02
#       8
#     8   8   8   8   8   8   8   8
#     4  11  22  38  60  85 120 157 200 245 302 362
#     4  10  19  36  55  86 114 151 192 246 294 356
#     4  10  20  33  56  84 113 148 190 247 292 346
#     4  11  20  36  57  84 117 155 199 238 294 363
#     4  11  22  38  62  87 117 157 200 247 298 357
#     4  10  19  35  59  84 114 147 198 246 288 349
#     4  11  19  36  59  86 113 154 196 243 292 357
#     4  10  21  34  58  85 117 145 197 244 301 345
#
# _framework density 18.817855999999999
#
# number of rings (size 3 to 8) (size 9 to 14) (size 15 to 20)
#    0.000    1.500    5.000    2.625    0.000    1.000 
#    0.000    1.250    0.000    3.750    0.000    0.000 
#    0.000    0.000    0.000    0.000    0.000    0.000 
#
# Total GULP energy -396477.389976 kJ/mol
# GULP energy per Si atom -12389.918437 kJ/mol
# Density = 1.877503 g / cm^3
# Si number density = 18.817856 Si / 1000 Ang^3
#
#
#
# Elastic Constant Matrix: (Units=GPa)
#
#
# Indices 1 2 3 4 5 6 
#
# 1 97.8029 39.4392 25.3209 0.0000 -10.5591 0.0000
# 2 39.4392 105.6510 14.7939 0.0000 -11.3798 0.0000
# 3 25.3209 14.7939 49.5204 0.0000 -5.8371 0.0000
# 4 0.0000 0.0000 0.0000 24.6586 0.0000 1.1223
# 5 -10.5591 -11.3798 -5.8371 0.0000 32.5381 0.0000
# 6 0.0000 0.0000 0.0000 1.1223 0.0000 31.1118
#
#
#
# Elastic Compliance Matrix: (Units=1/GPa)
#
#
# Indices 1 2 3 4 5 6 
#
# 1 0.013486 -0.004058 -0.005450 0.000000 0.001979 0.000000
# 2 -0.004058 0.011392 -0.001036 0.000000 0.002482 0.000000
# 3 -0.005450 -0.001036 0.023536 0.000000 0.002091 0.000000
# 4 0.000000 0.000000 0.000000 0.040620 0.000000 -0.001465
# 5 0.001979 0.002482 0.002091 0.000000 0.032619 0.000000
# 6 0.000000 0.000000 0.000000 -0.001465 0.000000 0.032195
#
#
# Mechanical properties :
#
#
# Convention : Reuss Voigt Hill
#
# Bulk Modulus (GPa) = 36.59413 45.78694 41.19053
# Shear Modulus (GPa) = 27.16727 29.22304 28.19515
#
# Velocity S-wave (km/s) = 3.80372 3.94501 3.87501
# Velocity P-wave (km/s) = 6.22734 6.71828 6.47746
#
# Compressibility (1/GPa) = 0.02732679
#
# Stress axis : x y z
#
# Youngs Moduli (GPa) = 74.15285 87.77886 42.48734
#
# Poissons Ratio (x) = 0.35619 0.23155
# Poissons Ratio (y) = 0.30090 0.04402
# Poissons Ratio (z) = 0.40413 0.09094
#
# Static dielectric constant tensor:
#      x y z
#    x 3.698720 0.000000 0.079810 
#    y 0.000000 3.486410 0.000000 
#    z 0.079810 0.000000 3.442540 
# 
# 
# High freq. dielectric constant tensor:
#      x y z
#    x 1.736430 0.000000 0.013630 
#    y 0.000000 1.715390 0.000000 
#    z 0.013630 0.000000 1.729150 
# 
# From -- ./inp_files/146092.got.cif
#   From: 2010.06.25/outbox.cif.g09.slc.cpg/sg15_74_cif.got.tgz:146092.got - 2010.06.28 07:06:18.
