data_PCOD8134375
_publ_section_title
;
Structure prediction by ZEFSAII (Michael W. Deem and Ramdas Pophale) SiO2 
 PCOD8134375
Probable space group: C 2/C
;
_chemical_formula_sum "Si O2"
_cell_formula_units_Z 60
_cell_length_a 4.983146
_cell_length_b 18.757938
_cell_length_c 29.019201
_cell_angle_alpha 90.000000
_cell_angle_beta 96.585738
_cell_angle_gamma 90.000000
_cell_volume 2694.628519
_symmetry_space_group_name_H-M "C 2/C"
_symmetry_group_IT_number 15
_symmetry_cell_setting 'monoclinic'
loop_
_space_group_symop_operation_xyz
x,y,z
-x,y,1/2-z
-x,-y,-z
x,-y,1/2+z
1/2+x,1/2+y,z
1/2-x,1/2+y,1/2-z
1/2-x,1/2-y,-z
1/2+x,1/2-y,1/2+z
loop_
_atom_site_type_symbol
_atom_site_label
_atom_site_fract_x
_atom_site_fract_y
_atom_site_fract_z
Si Si1 0.568343 0.736092 0.347720
Si Si2 0.097199 0.016029 0.855207
Si Si3 0.804862 0.438543 0.710243
Si Si4 0.576115 0.148377 0.371683
Si Si5 0.500000 0.315956 0.750000
Si Si6 0.395763 0.103539 0.619348
Si Si7 0.307223 0.053800 0.522398
Si Si8 0.480660 0.569945 0.435994
O O1 0.273410 0.707905 0.354449
O O2 0.617672 0.733081 0.293518
O O3 0.589533 0.815995 0.364628
O O4 0.791132 0.685855 0.377565
O O5 0.895408 0.074400 0.872433
O O6 0.379889 0.054907 0.850291
O O7 0.964783 0.984574 0.805646
O O8 0.140191 0.948186 0.891199
O O9 0.957415 0.417946 0.665086
O O10 0.735395 0.365179 0.734591
O O11 0.000000 0.480744 0.750000
O O12 0.715391 0.117912 0.421162
O O13 0.450656 0.101388 0.564841
O O14 0.167925 0.104254 0.480104
O O15 0.500000 0.000000 0.500000
O O16 0.089538 0.007899 0.546012
#
# Coordination Sequence:
#
# PCOD8134375 Si02
#       8
#     8   8   8   8   4   8   8   8
#     4  11  23  41  61  83 120 169 200 244 296 373
#     4  10  22  37  61  86 120 151 193 257 308 358
#     4  10  20  36  62  90 119 143 201 258 317 356
#     4  10  22  38  63  88 119 158 204 250 296 356
#     4  10  22  38  62  86 116 154 208 242 302 368
#     4  11  23  41  58  87 124 165 201 239 309 374
#     4  10  19  35  62  86 122 158 201 250 315 367
#     4   9  20  35  59  94 115 153 200 256 306 356
#
# _framework density 22.266521999999998
#
# number of rings (size 3 to 8) (size 9 to 14) (size 15 to 20)
#    0.000    1.867    2.667    0.800    3.733    3.200 
#    1.200    1.333    0.000    0.000    0.000    0.000 
#    0.000    0.000    0.000    0.000    0.000    0.000 
#
# Total GULP energy -371861.054179 kJ/mol
# GULP energy per Si atom -12395.368473 kJ/mol
# Density = 2.221584 g / cm^3
# Si number density = 22.266522 Si / 1000 Ang^3
#
#
#
# Elastic Constant Matrix: (Units=GPa)
#
#
# Indices 1 2 3 4 5 6 
#
# 1 44.4360 0.4010 10.7524 0.0000 15.5394 0.0000
# 2 0.4010 90.5738 52.4241 0.0000 20.1826 0.0000
# 3 10.7524 52.4241 166.4084 0.0000 36.7585 0.0000
# 4 0.0000 0.0000 0.0000 32.8471 0.0000 2.2786
# 5 15.5394 20.1826 36.7585 0.0000 36.0017 0.0000
# 6 0.0000 0.0000 0.0000 2.2786 0.0000 27.5343
#
#
#
# Elastic Compliance Matrix: (Units=1/GPa)
#
#
# Indices 1 2 3 4 5 6 
#
# 1 0.027152 0.002680 0.000416 0.000000 -0.013646 0.000000
# 2 0.002680 0.014269 -0.003416 0.000000 -0.005668 0.000000
# 3 0.000416 -0.003416 0.008619 0.000000 -0.007065 0.000000
# 4 0.000000 0.000000 0.000000 0.030620 0.000000 -0.002534
# 5 -0.013646 -0.005668 -0.007065 0.000000 0.044057 0.000000
# 6 0.000000 0.000000 0.000000 -0.002534 0.000000 0.036528
#
#
# Mechanical properties :
#
#
# Convention : Reuss Voigt Hill
#
# Bulk Modulus (GPa) = 20.24349 47.61927 33.93138
# Shear Modulus (GPa) = 28.03430 35.13267 31.58349
#
# Velocity S-wave (km/s) = 3.55214 3.97649 3.77029
# Velocity P-wave (km/s) = 5.09262 6.52041 5.85024
#
# Compressibility (1/GPa) = 0.04939859
#
# Stress axis : x y z
#
# Youngs Moduli (GPa) = 36.83018 70.08067 116.01908
#
# Poissons Ratio (x) = -0.18781 -0.04823
# Poissons Ratio (y) = -0.09870 0.39638
# Poissons Ratio (z) = -0.01531 0.23943
#
# Static dielectric constant tensor:
#      x y z
#    x 3.957400 0.000000 0.232270 
#    y 0.000000 3.642010 0.000000 
#    z 0.232270 0.000000 4.986870 
# 
# 
# High freq. dielectric constant tensor:
#      x y z
#    x 1.882900 0.000000 0.012190 
#    y 0.000000 1.828530 0.000000 
#    z 0.012190 0.000000 1.890060 
# 
# From -- ./inp_files/305696.got.cif
#   From: 2010.06.25/outbox.cif.g09.slc.cpg/sg15_153_cif.got.tgz:305696.got - 2010.06.28 07:06:18.
