data_PCOD8134010
_publ_section_title
;
Structure prediction by ZEFSAII (Michael W. Deem and Ramdas Pophale) SiO2 
 PCOD8134010
Probable space group: C 2/C
;
_chemical_formula_sum "Si O2"
_cell_formula_units_Z 56
_cell_length_a 14.064825
_cell_length_b 29.200833
_cell_length_c 14.154345
_cell_angle_alpha 90.000000
_cell_angle_beta 32.238304
_cell_angle_gamma 90.000000
_cell_volume 3101.033411
_symmetry_space_group_name_H-M "C 2/C"
_symmetry_group_IT_number 15
_symmetry_cell_setting 'monoclinic'
loop_
_space_group_symop_operation_xyz
x,y,z
-x,y,1/2-z
-x,-y,-z
x,-y,1/2+z
1/2+x,1/2+y,z
1/2-x,1/2+y,1/2-z
1/2-x,1/2-y,-z
1/2+x,1/2-y,1/2+z
loop_
_atom_site_type_symbol
_atom_site_label
_atom_site_fract_x
_atom_site_fract_y
_atom_site_fract_z
Si Si1 0.722609 0.428879 0.230124
Si Si2 0.167100 0.723991 0.657122
Si Si3 0.098907 0.896502 0.899171
Si Si4 0.511138 0.968490 0.348777
Si Si5 0.015953 0.813203 0.847296
Si Si6 0.469578 0.075828 0.167743
Si Si7 0.121557 0.025284 0.239989
O O1 0.564929 0.392757 0.387976
O O2 0.837188 0.439650 0.227254
O O3 0.620766 0.473243 0.275398
O O4 0.857878 0.408131 0.037931
O O5 0.250000 0.750000 0.500000
O O6 0.110602 0.763231 0.780485
O O7 0.319776 0.689233 0.563633
O O8 0.000000 0.696961 0.750000
O O9 0.120697 0.852208 0.814403
O O10 0.289199 0.899393 0.788978
O O11 0.044709 0.941358 0.884461
O O12 0.500000 0.953621 0.250000
O O13 0.321704 0.957339 0.554031
O O14 0.558111 0.021705 0.322106
O O15 0.000000 0.826525 0.750000
O O16 0.500000 0.089381 0.250000
O O17 0.000000 0.028891 0.250000
#
# Coordination Sequence:
#
# PCOD8134010 Si02
#       7
#     8   8   8   8   8   8   8
#     4  11  22  37  51  78 104 148 199 223 277 323
#     4   7  13  31  54  74 103 141 170 197 249 333
#     4  12  22  34  53  82 114 136 184 237 272 320
#     4  10  19  35  52  72 101 146 196 224 274 325
#     4   9  18  34  53  84 111 145 174 208 267 333
#     4  10  22  38  54  71 102 145 189 238 268 310
#     4  11  21  33  52  74 110 154 189 234 273 310
#
# _framework density 18.058496999999999
#
# number of rings (size 3 to 8) (size 9 to 14) (size 15 to 20)
#    0.000    2.286    2.857    2.571    6.000    0.000 
#    7.714    0.000    0.000    0.000    0.000    1.000 
#    0.000    0.000    0.000    0.000    0.000    0.000 
#
# Total GULP energy -346993.626526 kJ/mol
# GULP energy per Si atom -12392.629519 kJ/mol
# Density = 1.801739 g / cm^3
# Si number density = 18.058497 Si / 1000 Ang^3
#
#
#
# Elastic Constant Matrix: (Units=GPa)
#
#
# Indices 1 2 3 4 5 6 
#
# 1 105.7350 33.4816 46.8090 -0.0001 -9.4560 0.0001
# 2 33.4816 40.7844 32.3215 0.0000 -8.7702 0.0000
# 3 46.8090 32.3215 113.8282 -0.0002 -5.7513 0.0000
# 4 -0.0001 0.0000 -0.0002 14.7460 0.0001 1.4670
# 5 -9.4560 -8.7702 -5.7513 0.0001 31.4912 -0.0001
# 6 0.0001 0.0000 0.0000 1.4670 -0.0001 13.0351
#
#
#
# Elastic Compliance Matrix: (Units=1/GPa)
#
#
# Indices 1 2 3 4 5 6 
#
# 1 0.013629 -0.008443 -0.003148 0.000000 0.001166 0.000000
# 2 -0.008443 0.038592 -0.007137 0.000000 0.006909 0.000000
# 3 -0.003148 -0.007137 0.012070 0.000000 -0.000729 0.000000
# 4 0.000000 0.000000 0.000000 0.068583 0.000000 -0.007718
# 5 0.001166 0.006909 -0.000729 0.000000 0.033896 0.000000
# 6 0.000000 0.000000 0.000000 -0.007718 0.000000 0.077584
#
#
# Mechanical properties :
#
#
# Convention : Reuss Voigt Hill
#
# Bulk Modulus (GPa) = 37.26603 53.95240 45.60921
# Shear Modulus (GPa) = 17.19654 21.70351 19.45002
#
# Velocity S-wave (km/s) = 3.08923 3.47052 3.28541
# Velocity P-wave (km/s) = 5.77975 6.78238 6.30104
#
# Compressibility (1/GPa) = 0.02683409
#
# Stress axis : x y z
#
# Youngs Moduli (GPa) = 73.37199 25.91192 82.85244
#
# Poissons Ratio (x) = 0.21877 0.26085
# Poissons Ratio (y) = 0.61947 0.59134
# Poissons Ratio (z) = 0.23100 0.18494
#
# Static dielectric constant tensor:
#      x y z
#    x 3.735050 0.000000 -0.772720 
#    y 0.000000 3.288910 0.000000 
#    z -0.772720 0.000000 4.862470 
# 
# 
# High freq. dielectric constant tensor:
#      x y z
#    x 1.688130 0.000000 -0.014020 
#    y 0.000000 1.641810 0.000000 
#    z -0.014020 0.000000 1.722780 
# 
# From -- ./inp_files/157448.got.cif
#   From: 2010.06.25/outbox.cif.g09.slc.cpg/sg15_79_cif.got.tgz:157448.got - 2010.06.28 07:06:18.
