data_PCOD8134562
_publ_section_title
;
Structure prediction by ZEFSAII (Michael W. Deem and Ramdas Pophale) SiO2 
 PCOD8134562
Probable space group: C 2/C
;
_chemical_formula_sum "Si O2"
_cell_formula_units_Z 40
_cell_length_a 11.674417
_cell_length_b 23.724334
_cell_length_c 10.504261
_cell_angle_alpha 90.000000
_cell_angle_beta 39.277071
_cell_angle_gamma 90.000000
_cell_volume 1841.820287
_symmetry_space_group_name_H-M "C 2/C"
_symmetry_group_IT_number 15
_symmetry_cell_setting 'monoclinic'
loop_
_space_group_symop_operation_xyz
x,y,z
-x,y,1/2-z
-x,-y,-z
x,-y,1/2+z
1/2+x,1/2+y,z
1/2-x,1/2+y,1/2-z
1/2-x,1/2-y,-z
1/2+x,1/2-y,1/2+z
loop_
_atom_site_type_symbol
_atom_site_label
_atom_site_fract_x
_atom_site_fract_y
_atom_site_fract_z
Si Si1 0.245595 0.901946 0.206173
Si Si2 0.136625 0.894976 0.889540
Si Si3 0.799771 0.525289 0.432615
Si Si4 0.704429 0.815084 0.539656
Si Si5 0.598301 0.093021 0.552248
O O1 0.432571 0.925100 0.104048
O O2 0.079320 0.898793 0.450165
O O3 0.192042 0.945855 0.141291
O O4 0.266830 0.839781 0.126607
O O5 0.202249 0.956806 0.883943
O O6 0.170079 0.846955 0.966016
O O7 0.242507 0.878353 0.667488
O O8 0.811481 0.458795 0.447631
O O9 0.000000 0.552228 0.250000
O O10 0.500000 0.826042 0.750000
O O11 0.750000 0.750000 0.500000
O O12 0.500000 0.130799 0.750000
#
# Coordination Sequence:
#
# PCOD8134562 Si02
#       5
#     8   8   8   8   8
#     4  11  21  39  59  87 124 153 199 257 297 356
#     4  11  22  40  58  88 125 151 204 260 289 357
#     4  10  19  36  58  79 117 161 197 247 303 338
#     4  11  20  38  68  98 117 145 190 255 322 349
#     4  11  24  39  56  81 124 171 205 237 298 355
#
# _framework density 21.717644
#
# number of rings (size 3 to 8) (size 9 to 14) (size 15 to 20)
#    0.000    1.200    4.000    5.400    2.800    1.600 
#    7.200    0.000    0.000    1.200    0.000    0.000 
#    0.000    0.000    0.000    0.000    0.000    0.000 
#
# Total GULP energy -247791.213082 kJ/mol
# GULP energy per Si atom -12389.560654 kJ/mol
# Density = 2.166821 g / cm^3
# Si number density = 21.717644 Si / 1000 Ang^3
#
#
#
# Elastic Constant Matrix: (Units=GPa)
#
#
# Indices 1 2 3 4 5 6 
#
# 1 30.3836 19.1788 21.8929 0.0000 7.5010 0.0000
# 2 19.1788 77.8712 7.0349 0.0000 0.4695 0.0000
# 3 21.8929 7.0349 188.0776 0.0000 2.0923 0.0000
# 4 0.0000 0.0000 0.0000 21.7194 0.0000 -5.2222
# 5 7.5010 0.4695 2.0923 0.0000 41.2587 0.0000
# 6 0.0000 0.0000 0.0000 -5.2222 0.0000 9.6194
#
#
#
# Elastic Compliance Matrix: (Units=1/GPa)
#
#
# Indices 1 2 3 4 5 6 
#
# 1 0.044950 -0.010595 -0.004749 0.000000 -0.007811 0.000000
# 2 -0.010595 0.015383 0.000639 0.000000 0.001719 0.000000
# 3 -0.004749 0.000639 0.005840 0.000000 0.000560 0.000000
# 4 0.000000 0.000000 0.000000 0.052954 0.000000 0.028747
# 5 -0.007811 0.001719 0.000560 0.000000 0.025609 0.000000
# 6 0.000000 0.000000 0.000000 0.028747 0.000000 0.119563
#
#
# Mechanical properties :
#
#
# Convention : Reuss Voigt Hill
#
# Bulk Modulus (GPa) = 27.20136 43.61618 35.40877
# Shear Modulus (GPa) = 16.34182 31.06788 23.70485
#
# Velocity S-wave (km/s) = 2.74609 3.78635 3.30737
# Velocity P-wave (km/s) = 4.75467 6.26435 5.56098
#
# Compressibility (1/GPa) = 0.03676286
#
# Stress axis : x y z
#
# Youngs Moduli (GPa) = 22.24674 65.00691 171.24293
#
# Poissons Ratio (x) = 0.68872 0.81327
# Poissons Ratio (y) = 0.23570 -0.10938
# Poissons Ratio (z) = 0.10565 -0.04152
#
# Static dielectric constant tensor:
#      x y z
#    x 3.802160 0.000000 0.132530 
#    y 0.000000 3.388410 0.000000 
#    z 0.132530 0.000000 4.475750 
# 
# 
# High freq. dielectric constant tensor:
#      x y z
#    x 1.835970 0.000000 -0.004870 
#    y 0.000000 1.796120 0.000000 
#    z -0.004870 0.000000 1.884390 
# 
# From -- ./inp_files/90564.got.cif
#   From: 2010.06.25/outbox.cif.g09.slc.cpg/sg15_46_cif.got.tgz:90564.got - 2010.06.28 07:06:18.
