data_PCOD8134630
_publ_section_title
;
Structure prediction by ZEFSAII (Michael W. Deem and Ramdas Pophale) SiO2 
 PCOD8134630
Probable space group: C 2/C
;
_chemical_formula_sum "Si O2"
_cell_formula_units_Z 64
_cell_length_a 23.443156
_cell_length_b 10.805773
_cell_length_c 12.805854
_cell_angle_alpha 90.000000
_cell_angle_beta 93.441775
_cell_angle_gamma 90.000000
_cell_volume 3238.146020
_symmetry_space_group_name_H-M "C 2/C"
_symmetry_group_IT_number 15
_symmetry_cell_setting 'monoclinic'
loop_
_space_group_symop_operation_xyz
x,y,z
-x,y,1/2-z
-x,-y,-z
x,-y,1/2+z
1/2+x,1/2+y,z
1/2-x,1/2+y,1/2-z
1/2-x,1/2-y,-z
1/2+x,1/2-y,1/2+z
loop_
_atom_site_type_symbol
_atom_site_label
_atom_site_fract_x
_atom_site_fract_y
_atom_site_fract_z
Si Si1 0.828537 0.395478 0.858889
Si Si2 0.134561 0.901862 0.339812
Si Si3 0.758746 0.045751 0.510634
Si Si4 0.497710 0.833400 0.124819
Si Si5 0.664280 0.137350 0.370624
Si Si6 0.579106 0.981699 0.011633
Si Si7 0.159004 0.886434 0.113658
Si Si8 0.447804 0.573687 0.044432
O O1 0.781909 0.468948 0.918423
O O2 0.820379 0.429030 0.736512
O O3 0.817878 0.251236 0.873986
O O4 0.893462 0.427916 0.898870
O O5 0.191579 0.899207 0.414183
O O6 0.122983 0.754946 0.341936
O O7 0.146206 0.948254 0.224295
O O8 0.081836 0.983481 0.374458
O O9 0.723886 0.152242 0.442832
O O10 0.788559 0.957282 0.430476
O O11 0.500000 0.853420 0.250000
O O12 0.471506 0.698251 0.100873
O O13 0.465751 0.946546 0.065217
O O14 0.558504 0.856470 0.072325
O O15 0.628235 0.045684 0.435753
O O16 0.099649 0.890324 0.044479
O O17 0.500000 0.500000 0.000000
#
# Coordination Sequence:
#
# PCOD8134630 Si02
#       8
#     8   8   8   8   8   8   8   8
#     4  10  19  36  59  85 116 151 189 231 293 353
#     4  10  22  38  57  84 116 154 193 237 291 350
#     4  10  20  35  59  85 118 147 194 239 290 343
#     4  11  23  39  61  86 119 152 200 247 295 351
#     4  10  20  36  60  84 117 150 192 235 291 349
#     4  10  21  39  59  87 116 151 192 244 294 346
#     4  10  21  38  57  83 117 153 192 237 291 351
#     4  11  24  40  59  84 117 154 198 245 294 349
#
# _framework density 19.764396000000001
#
# number of rings (size 3 to 8) (size 9 to 14) (size 15 to 20)
#    0.000    1.750    1.250    3.000    1.750    0.000 
#    0.000    0.000    8.250    0.000    0.000    0.000 
#    0.000    0.000    0.000    0.000    0.000    0.000 
#
# Total GULP energy -396479.194581 kJ/mol
# GULP energy per Si atom -12389.974831 kJ/mol
# Density = 1.971941 g / cm^3
# Si number density = 19.764396 Si / 1000 Ang^3
#
#
#
# Elastic Constant Matrix: (Units=GPa)
#
#
# Indices 1 2 3 4 5 6 
#
# 1 76.8422 25.8695 40.9282 0.0000 -16.7681 0.0000
# 2 25.8695 72.2990 39.6114 0.0000 -10.8740 0.0000
# 3 40.9282 39.6114 142.2141 0.0000 -19.4012 0.0000
# 4 0.0000 0.0000 0.0000 29.4484 0.0000 0.9908
# 5 -16.7681 -10.8740 -19.4012 0.0000 27.3791 0.0000
# 6 0.0000 0.0000 0.0000 0.9908 0.0000 -116.1213
#
#
#
# Elastic Compliance Matrix: (Units=1/GPa)
#
#
# Indices 1 2 3 4 5 6 
#
# 1 0.017358 -0.003467 -0.003064 0.000000 0.007083 0.000000
# 2 -0.003467 0.017344 -0.003524 0.000000 0.002268 0.000000
# 3 -0.003064 -0.003524 0.009352 0.000000 0.003351 0.000000
# 4 0.000000 0.000000 0.000000 0.033948 0.000000 0.000290
# 5 0.007083 0.002268 0.003351 0.000000 0.044138 0.000000
# 6 0.000000 0.000000 0.000000 0.000290 0.000000 -0.008609
#
#
# Mechanical properties :
#
#
# Convention : Reuss Voigt Hill
#
# Bulk Modulus (GPa) = 41.76203 56.01930 48.89066
# Shear Modulus (GPa) = 35.30556 0.47099 17.88828
#
# Velocity S-wave (km/s) = 4.23107 0.48869 3.01171
# Velocity P-wave (km/s) = 6.71157 5.35943 6.07325
#
# Compressibility (1/GPa) = 0.02394520
#
# Stress axis : x y z
#
# Youngs Moduli (GPa) = 57.60926 57.65786 106.92972
#
# Poissons Ratio (x) = 0.19991 0.32759
# Poissons Ratio (y) = 0.19975 0.37677
# Poissons Ratio (z) = 0.17649 0.20316
#
# Static dielectric constant tensor:
#      x y z
#    x 3.795710 0.000000 0.059870 
#    y 0.000000 3.569130 0.000000 
#    z 0.059870 0.000000 3.884160 
# 
# 
# High freq. dielectric constant tensor:
#      x y z
#    x 1.775240 0.000000 -0.000220 
#    y 0.000000 1.766100 0.000000 
#    z -0.000220 0.000000 1.788530 
# 
# From -- ./inp_files/117620.got.cif
#   From: 2010.06.25/outbox.cif.g09.slc.cpg/sg15_59_cif.got.tgz:117620.got - 2010.06.28 07:06:18.
