data_PCOD8134125
_publ_section_title
;
Structure prediction by ZEFSAII (Michael W. Deem and Ramdas Pophale) SiO2 
 PCOD8134125
Probable space group: C 2/C
;
_chemical_formula_sum "Si O2"
_cell_formula_units_Z 48
_cell_length_a 18.966210
_cell_length_b 15.032056
_cell_length_c 8.455577
_cell_angle_alpha 90.000000
_cell_angle_beta 83.632444
_cell_angle_gamma 90.000000
_cell_volume 2395.822700
_symmetry_space_group_name_H-M "C 2/C"
_symmetry_group_IT_number 15
_symmetry_cell_setting 'monoclinic'
loop_
_space_group_symop_operation_xyz
x,y,z
-x,y,1/2-z
-x,-y,-z
x,-y,1/2+z
1/2+x,1/2+y,z
1/2-x,1/2+y,1/2-z
1/2-x,1/2-y,-z
1/2+x,1/2-y,1/2+z
loop_
_atom_site_type_symbol
_atom_site_label
_atom_site_fract_x
_atom_site_fract_y
_atom_site_fract_z
Si Si1 0.932414 0.782954 0.362788
Si Si2 0.648853 0.996120 0.343483
Si Si3 0.356124 0.294854 0.073149
Si Si4 0.295957 0.123629 0.931000
Si Si5 0.937211 0.417610 0.876535
Si Si6 0.004169 0.901018 0.563785
O O1 0.864437 0.784499 0.262814
O O2 0.947696 0.684211 0.422252
O O3 0.933815 0.848516 0.514183
O O4 0.000000 0.818327 0.250000
O O5 0.678396 0.907077 0.250335
O O6 0.576262 0.972954 0.459577
O O7 0.705290 0.039723 0.448898
O O8 0.632301 0.070236 0.215574
O O9 0.284451 0.346847 0.059081
O O10 0.349509 0.199459 0.985492
O O11 0.422597 0.350078 0.992787
O O12 0.000000 0.454743 0.750000
O O13 0.000000 0.905916 0.750000
O O14 0.000000 0.000000 0.500000
#
# Coordination Sequence:
#
# PCOD8134125 Si02
#       6
#     8   8   8   8   8   8
#     4   9  19  37  61  84 119 152 192 250 303 351
#     4  10  21  36  57  88 120 156 215 239 294 372
#     4  10  21  42  62  86 127 164 203 252 320 358
#     4  10  22  39  61  87 126 170 200 255 299 373
#     4  10  19  35  56  86 121 157 191 253 303 349
#     4  11  24  41  65  93 117 154 206 260 311 369
#
# _framework density 20.034870999999999
#
# number of rings (size 3 to 8) (size 9 to 14) (size 15 to 20)
#    0.000    2.000    1.667    2.000    2.333    2.667 
#    0.000    2.500    0.000    0.000    0.000    0.000 
#    0.000    0.000    0.000    0.000    0.000    0.000 
#
# Total GULP energy -297313.131152 kJ/mol
# GULP energy per Si atom -12388.047131 kJ/mol
# Density = 1.998927 g / cm^3
# Si number density = 20.034871 Si / 1000 Ang^3
#
#
#
# Elastic Constant Matrix: (Units=GPa)
#
#
# Indices 1 2 3 4 5 6 
#
# 1 78.3465 46.7462 39.7880 0.0000 12.9019 0.0000
# 2 46.7462 122.7545 70.5040 0.0000 7.9015 0.0000
# 3 39.7880 70.5040 132.5815 0.0000 11.4043 0.0000
# 4 0.0000 0.0000 0.0000 34.3382 0.0000 4.1449
# 5 12.9019 7.9015 11.4043 0.0000 29.8187 0.0000
# 6 0.0000 0.0000 0.0000 4.1449 0.0000 28.9029
#
#
#
# Elastic Compliance Matrix: (Units=1/GPa)
#
#
# Indices 1 2 3 4 5 6 
#
# 1 0.017870 -0.005244 -0.002098 0.000000 -0.005540 0.000000
# 2 -0.005244 0.013283 -0.005566 0.000000 0.000878 0.000000
# 3 -0.002098 -0.005566 0.011299 0.000000 -0.001939 0.000000
# 4 0.000000 0.000000 0.000000 0.029635 0.000000 -0.004250
# 5 -0.005540 0.000878 -0.001939 0.000000 0.036442 0.000000
# 6 0.000000 0.000000 0.000000 -0.004250 0.000000 0.035208
#
#
# Mechanical properties :
#
#
# Convention : Reuss Voigt Hill
#
# Bulk Modulus (GPa) = 60.10413 71.97322 66.03867
# Shear Modulus (GPa) = 28.55549 30.38823 29.47186
#
# Velocity S-wave (km/s) = 3.77940 3.89879 3.83956
# Velocity P-wave (km/s) = 7.00785 7.50129 7.25877
#
# Compressibility (1/GPa) = 0.01663779
#
# Stress axis : x y z
#
# Youngs Moduli (GPa) = 55.95896 75.28248 88.50687
#
# Poissons Ratio (x) = 0.39475 0.18568
# Poissons Ratio (y) = 0.29343 0.49260
# Poissons Ratio (z) = 0.11740 0.41900
#
# Static dielectric constant tensor:
#      x y z
#    x 3.442530 0.000000 0.290390 
#    y 0.000000 3.738710 0.000000 
#    z 0.290390 0.000000 4.021260 
# 
# 
# High freq. dielectric constant tensor:
#      x y z
#    x 1.756040 0.000000 0.024590 
#    y 0.000000 1.787780 0.000000 
#    z 0.024590 0.000000 1.791470 
# 
# From -- ./inp_files/47451.got.cif
#   From: 2010.06.25/outbox.cif.g09.slc.cpg/sg15_24_cif.got.tgz:47451.got - 2010.06.28 07:06:18.
