data_PCOD8134921
_publ_section_title
;
Structure prediction by ZEFSAII (Michael W. Deem and Ramdas Pophale) SiO2 
 PCOD8134921
Probable space group: C 2/C
;
_chemical_formula_sum "Si O2"
_cell_formula_units_Z 64
_cell_length_a 25.513154
_cell_length_b 28.955519
_cell_length_c 9.752834
_cell_angle_alpha 90.000000
_cell_angle_beta 28.914099
_cell_angle_gamma 90.000000
_cell_volume 3483.540280
_symmetry_space_group_name_H-M "C 2/C"
_symmetry_group_IT_number 15
_symmetry_cell_setting 'monoclinic'
loop_
_space_group_symop_operation_xyz
x,y,z
-x,y,1/2-z
-x,-y,-z
x,-y,1/2+z
1/2+x,1/2+y,z
1/2-x,1/2+y,1/2-z
1/2-x,1/2-y,-z
1/2+x,1/2-y,1/2+z
loop_
_atom_site_type_symbol
_atom_site_label
_atom_site_fract_x
_atom_site_fract_y
_atom_site_fract_z
Si Si1 0.409884 0.308973 0.342086
Si Si2 0.912968 0.545273 0.837232
Si Si3 0.584815 0.182418 0.834514
Si Si4 0.136836 0.641535 0.187546
Si Si5 0.785267 0.368114 0.687482
Si Si6 0.792142 0.285321 0.180323
Si Si7 0.439543 0.056914 0.256804
Si Si8 0.043634 0.775605 0.801657
O O1 0.500000 0.307339 0.250000
O O2 0.342117 0.356797 0.505030
O O3 0.329512 0.265086 0.544046
O O4 0.472249 0.311075 0.054028
O O5 0.881178 0.491614 0.931799
O O6 0.000000 0.562151 0.750000
O O7 0.964155 0.549521 0.571376
O O8 0.807461 0.578449 0.096607
O O9 0.677045 0.165523 0.520679
O O10 0.630146 0.194753 0.880000
O O11 0.520869 0.226095 0.920110
O O12 0.491103 0.144442 0.056415
O O13 0.155777 0.645193 0.305775
O O14 0.157391 0.590034 0.078914
O O15 0.207988 0.680154 0.948768
O O16 0.671789 0.284665 0.517440
O O17 0.500000 0.078182 0.250000
O O18 0.000000 0.777883 0.750000
#
# Coordination Sequence:
#
# PCOD8134921 Si02
#       8
#     8   8   8   8   8   8   8   8
#     4  12  24  41  57  79 112 156 196 242 279 331
#     4  10  19  37  56  86 120 146 180 228 283 351
#     4  12  21  35  56  80 116 151 191 232 275 334
#     4  12  22  36  56  89 116 150 188 232 281 345
#     4  12  23  36  58  83 114 155 192 227 285 340
#     4  12  24  39  56  80 114 156 198 234 288 329
#     4  10  20  33  57  85 124 148 173 225 287 343
#     4  12  24  38  54  79 111 151 197 243 277 325
#
# _framework density 18.372114
#
# number of rings (size 3 to 8) (size 9 to 14) (size 15 to 20)
#    0.000    0.500    6.250    4.125    0.000    1.000 
#    0.000    0.000    0.000    0.000    0.000    4.375 
#    0.000    0.000    0.000    0.000    0.000    0.000 
#
# Total GULP energy -396758.885115 kJ/mol
# GULP energy per Si atom -12398.715160 kJ/mol
# Density = 1.833030 g / cm^3
# Si number density = 18.372114 Si / 1000 Ang^3
#
#
#
# Elastic Constant Matrix: (Units=GPa)
#
#
# Indices 1 2 3 4 5 6 
#
# 1 64.8740 7.0565 14.3176 0.0003 16.2763 -0.0002
# 2 7.0565 82.3689 28.0309 0.0003 -6.5120 -0.0004
# 3 14.3176 28.0309 89.4416 0.0011 -4.4919 -0.0009
# 4 0.0003 0.0003 0.0011 21.9506 -0.0005 12.6995
# 5 16.2763 -6.5120 -4.4919 -0.0005 29.8353 0.0004
# 6 -0.0002 -0.0004 -0.0009 12.6995 0.0004 -14.7551
#
#
#
# Elastic Compliance Matrix: (Units=1/GPa)
#
#
# Indices 1 2 3 4 5 6 
#
# 1 0.019080 -0.001443 -0.003164 0.000000 -0.011200 0.000000
# 2 -0.001443 0.013864 -0.003952 0.000000 0.003218 0.000000
# 3 -0.003164 -0.003952 0.013068 0.000000 0.002831 -0.000001
# 4 0.000000 0.000000 0.000000 0.030413 0.000000 0.026176
# 5 -0.011200 0.003218 0.002831 0.000000 0.040756 0.000001
# 6 0.000000 0.000000 -0.000001 0.026176 0.000001 -0.045244
#
#
# Mechanical properties :
#
#
# Convention : Reuss Voigt Hill
#
# Bulk Modulus (GPa) = 34.61204 37.27716 35.94460
# Shear Modulus (GPa) = 50.66548 19.89146 35.27847
#
# Velocity S-wave (km/s) = 5.25711 3.29401 4.38678
# Velocity P-wave (km/s) = 7.46525 5.89927 6.72798
#
# Compressibility (1/GPa) = 0.02889168
#
# Stress axis : x y z
#
# Youngs Moduli (GPa) = 52.41111 72.13171 76.52373
#
# Poissons Ratio (x) = 0.10410 0.24216
# Poissons Ratio (y) = 0.07564 0.30244
# Poissons Ratio (z) = 0.16585 0.28508
#
# Static dielectric constant tensor:
#      x y z
#    x 3.428480 0.000000 0.428220 
#    y 0.000000 3.624320 0.000000 
#    z 0.428220 0.000000 4.467600 
# 
# 
# High freq. dielectric constant tensor:
#      x y z
#    x 1.719440 0.000000 0.029510 
#    y 0.000000 1.703730 0.000000 
#    z 0.029510 0.000000 1.696060 
# 
# From -- ./inp_files/64203.got.cif
#   From: 2010.06.25/outbox.cif.g09.slc.cpg/sg15_33_cif.got.tgz:64203.got - 2010.06.28 07:06:18.
