data_PCOD8134280
_publ_section_title
;
Structure prediction by ZEFSAII (Michael W. Deem and Ramdas Pophale) SiO2 
 PCOD8134280
Probable space group: C 2/C
;
_chemical_formula_sum "Si O2"
_cell_formula_units_Z 64
_cell_length_a 9.364200
_cell_length_b 22.514980
_cell_length_c 14.185723
_cell_angle_alpha 90.000000
_cell_angle_beta 88.905464
_cell_angle_gamma 90.000000
_cell_volume 2990.298013
_symmetry_space_group_name_H-M "C 2/C"
_symmetry_group_IT_number 15
_symmetry_cell_setting 'monoclinic'
loop_
_space_group_symop_operation_xyz
x,y,z
-x,y,1/2-z
-x,-y,-z
x,-y,1/2+z
1/2+x,1/2+y,z
1/2-x,1/2+y,1/2-z
1/2-x,1/2-y,-z
1/2+x,1/2-y,1/2+z
loop_
_atom_site_type_symbol
_atom_site_label
_atom_site_fract_x
_atom_site_fract_y
_atom_site_fract_z
Si Si1 0.856667 0.164174 0.858186
Si Si2 0.877929 0.968453 0.385411
Si Si3 0.164132 0.508491 0.730981
Si Si4 0.148834 0.362381 0.199785
Si Si5 0.130584 0.051681 0.400106
Si Si6 0.852914 0.184364 0.067428
Si Si7 0.053848 0.713338 0.151522
Si Si8 0.900490 0.277717 0.471911
O O1 0.927012 0.098758 0.857225
O O2 0.744791 0.171728 0.775148
O O3 0.977038 0.215039 0.843217
O O4 0.786672 0.177864 0.962405
O O5 0.736454 0.988443 0.332828
O O6 0.838866 0.972158 0.495608
O O7 0.004422 0.012981 0.355399
O O8 0.200383 0.570586 0.676903
O O9 0.228068 0.456492 0.664890
O O10 0.000000 0.493392 0.750000
O O11 0.134163 0.326882 0.104352
O O12 0.000000 0.372643 0.250000
O O13 0.087381 0.120804 0.399213
O O14 0.724157 0.204613 0.136999
O O15 0.986233 0.229631 0.069892
O O16 0.000000 0.683657 0.250000
O O17 0.964675 0.688891 0.063558
O O18 0.750000 0.250000 0.500000
#
# Coordination Sequence:
#
# PCOD8134280 Si02
#       8
#     8   8   8   8   8   8   8   8
#     4   9  18  36  62  84 111 152 202 250 289 338
#     4   9  20  38  62  88 112 152 205 250 294 346
#     4  10  22  38  59  89 119 154 200 249 301 353
#     4  10  19  35  59  87 118 152 198 254 299 341
#     4  10  21  40  63  87 119 159 201 246 297 357
#     4  10  22  41  61  85 122 163 195 237 302 368
#     4  11  22  38  59  87 122 163 202 240 297 362
#     4  11  23  38  60  91 122 155 204 255 300 355
#
# _framework density 21.402549
#
# number of rings (size 3 to 8) (size 9 to 14) (size 15 to 20)
#    0.000    2.000    0.000    4.125    0.000    8.000 
#    0.000    8.750    0.000    0.000    0.000    0.000 
#    0.000    0.000    0.000    0.000    0.000    0.000 
#
# Total GULP energy -396697.124602 kJ/mol
# GULP energy per Si atom -12396.785144 kJ/mol
# Density = 2.135384 g / cm^3
# Si number density = 21.402549 Si / 1000 Ang^3
#
#
#
# Elastic Constant Matrix: (Units=GPa)
#
#
# Indices 1 2 3 4 5 6 
#
# 1 117.5163 26.9857 47.9589 0.0000 -1.8244 0.0000
# 2 26.9857 70.1680 42.6648 0.0000 7.9795 0.0000
# 3 47.9589 42.6648 112.8160 0.0000 4.3980 0.0000
# 4 0.0000 0.0000 0.0000 35.9210 0.0000 -6.4248
# 5 -1.8244 7.9795 4.3980 0.0000 40.9150 0.0000
# 6 0.0000 0.0000 0.0000 -6.4248 0.0000 37.8111
#
#
#
# Elastic Compliance Matrix: (Units=1/GPa)
#
#
# Indices 1 2 3 4 5 6 
#
# 1 0.010513 -0.001867 -0.003812 0.000000 0.001243 0.000000
# 2 -0.001867 0.019180 -0.006337 0.000000 -0.003143 0.000000
# 3 -0.003812 -0.006337 0.012894 0.000000 -0.000320 0.000000
# 4 0.000000 0.000000 0.000000 0.028711 0.000000 0.004879
# 5 0.001243 -0.003143 -0.000320 0.000000 0.025144 0.000000
# 6 0.000000 0.000000 0.000000 0.004879 0.000000 0.027276
#
#
# Mechanical properties :
#
#
# Convention : Reuss Voigt Hill
#
# Bulk Modulus (GPa) = 53.89405 59.52434 56.70919
# Shear Modulus (GPa) = 32.48127 35.12213 33.80170
#
# Velocity S-wave (km/s) = 3.89991 4.05535 3.97839
# Velocity P-wave (km/s) = 6.74647 7.05691 6.90344
#
# Compressibility (1/GPa) = 0.01855493
#
# Stress axis : x y z
#
# Youngs Moduli (GPa) = 95.12067 52.13685 77.55845
#
# Poissons Ratio (x) = 0.09733 0.29562
# Poissons Ratio (y) = 0.17758 0.49152
# Poissons Ratio (z) = 0.36256 0.33042
#
# Static dielectric constant tensor:
#      x y z
#    x 3.713910 0.000000 0.077540 
#    y 0.000000 4.414800 0.000000 
#    z 0.077540 0.000000 3.909070 
# 
# 
# High freq. dielectric constant tensor:
#      x y z
#    x 1.829630 0.000000 0.000190 
#    y 0.000000 1.834460 0.000000 
#    z 0.000190 0.000000 1.847450 
# 
# From -- ./inp_files/137867.got.cif
#   From: 2010.06.25/outbox.cif.g09.slc.cpg/sg15_69_cif.got.tgz:137867.got - 2010.06.28 07:06:18.
