data_PCOD8134166
_publ_section_title
;
Structure prediction by ZEFSAII (Michael W. Deem and Ramdas Pophale) SiO2 
 PCOD8134166
Probable space group: C 2/C
;
_chemical_formula_sum "Si O2"
_cell_formula_units_Z 52
_cell_length_a 23.485564
_cell_length_b 12.301468
_cell_length_c 13.520508
_cell_angle_alpha 90.000000
_cell_angle_beta 38.031000
_cell_angle_gamma 90.000000
_cell_volume 2406.542364
_symmetry_space_group_name_H-M "C 2/C"
_symmetry_group_IT_number 15
_symmetry_cell_setting 'monoclinic'
loop_
_space_group_symop_operation_xyz
x,y,z
-x,y,1/2-z
-x,-y,-z
x,-y,1/2+z
1/2+x,1/2+y,z
1/2-x,1/2+y,1/2-z
1/2-x,1/2-y,-z
1/2+x,1/2-y,1/2+z
loop_
_atom_site_type_symbol
_atom_site_label
_atom_site_fract_x
_atom_site_fract_y
_atom_site_fract_z
Si Si1 0.500000 0.298506 0.750000
Si Si2 0.190952 0.494505 0.724655
Si Si3 0.140706 0.331092 0.937891
Si Si4 0.926727 0.004560 0.241515
Si Si5 0.268487 0.990300 0.059176
Si Si6 0.191425 0.309443 0.344129
Si Si7 0.613905 0.413144 0.999480
O O1 0.547085 0.221870 0.604581
O O2 0.572355 0.375702 0.709329
O O3 0.119336 0.408355 0.871719
O O4 0.201640 0.475415 0.595126
O O5 0.160342 0.617472 0.792319
O O6 0.287414 0.472641 0.654774
O O7 0.206370 0.234011 0.814324
O O8 0.185715 0.399667 0.965327
O O9 0.843592 0.001719 0.276022
O O10 0.904446 0.916721 0.357763
O O11 0.028228 0.972224 0.058550
O O12 0.307072 0.884199 0.060417
O O13 0.118641 0.212011 0.458176
#
# Coordination Sequence:
#
# PCOD8134166 Si02
#       7
#     4   8   8   8   8   8   8
#     4  10  20  38  58  80 122 152 182 242 288 328
#     4   9  19  35  55  84 116 151 192 230 278 344
#     4  10  21  37  58  83 113 155 190 228 291 339
#     4   9  18  34  58  88 112 144 188 235 282 329
#     4  10  21  38  62  85 114 149 192 236 277 338
#     4  10  19  35  57  84 117 151 186 234 285 340
#     4   8  16  32  55  82 115 146 180 229 287 329
#
# _framework density 21.607764
#
# number of rings (size 3 to 8) (size 9 to 14) (size 15 to 20)
#    0.000    2.769    0.000    2.769    0.000    8.000 
#    0.000   20.769    0.000    3.692    0.000    0.000 
#    0.000    0.000    0.000    0.000    0.000    0.000 
#
# Total GULP energy -322289.687356 kJ/mol
# GULP energy per Si atom -12395.757206 kJ/mol
# Density = 2.155858 g / cm^3
# Si number density = 21.607764 Si / 1000 Ang^3
#
#
#
# Elastic Constant Matrix: (Units=GPa)
#
#
# Indices 1 2 3 4 5 6 
#
# 1 66.6079 16.8668 7.6926 0.0000 2.9419 0.0000
# 2 16.8668 124.5090 37.9487 0.0000 15.7903 0.0000
# 3 7.6926 37.9487 80.8682 0.0000 15.3656 0.0000
# 4 0.0000 0.0000 0.0000 41.3016 0.0000 0.6050
# 5 2.9419 15.7903 15.3656 0.0000 22.4934 0.0000
# 6 0.0000 0.0000 0.0000 0.6050 0.0000 6.2856
#
#
#
# Elastic Compliance Matrix: (Units=1/GPa)
#
#
# Indices 1 2 3 4 5 6 
#
# 1 0.015571 -0.001907 -0.000521 0.000000 -0.000342 0.000000
# 2 -0.001907 0.009948 -0.003686 0.000000 -0.004216 0.000000
# 3 -0.000521 -0.003686 0.015675 0.000000 -0.008052 0.000000
# 4 0.000000 0.000000 0.000000 0.024246 0.000000 -0.002334
# 5 -0.000342 -0.004216 -0.008052 0.000000 0.052963 0.000000
# 6 0.000000 0.000000 0.000000 -0.002334 0.000000 0.159318
#
#
# Mechanical properties :
#
#
# Convention : Reuss Voigt Hill
#
# Bulk Modulus (GPa) = 34.52330 44.11125 39.31727
# Shear Modulus (GPa) = 16.68865 27.98125 22.33495
#
# Velocity S-wave (km/s) = 2.78212 3.60246 3.21854
# Velocity P-wave (km/s) = 5.13149 6.14512 5.66104
#
# Compressibility (1/GPa) = 0.02896595
#
# Stress axis : x y z
#
# Youngs Moduli (GPa) = 64.21993 100.52294 63.79597
#
# Poissons Ratio (x) = 0.19172 0.03326
# Poissons Ratio (y) = 0.12248 0.23513
# Poissons Ratio (z) = 0.03348 0.37050
#
# Static dielectric constant tensor:
#      x y z
#    x 3.602140 0.000000 0.094640 
#    y 0.000000 3.926440 0.000000 
#    z 0.094640 0.000000 4.042790 
# 
# 
# High freq. dielectric constant tensor:
#      x y z
#    x 1.824110 0.000000 0.023540 
#    y 0.000000 1.852630 0.000000 
#    z 0.023540 0.000000 1.846490 
# 
# From -- ./inp_files/222428.got.cif
#   From: 2010.06.25/outbox.cif.g09.slc.cpg/sg15_112_cif.got.tgz:222428.got - 2010.06.28 07:06:18.
