data_PCOD8134613
_publ_section_title
;
Structure prediction by ZEFSAII (Michael W. Deem and Ramdas Pophale) SiO2 
 PCOD8134613
Probable space group: C 2/C
;
_chemical_formula_sum "Si O2"
_cell_formula_units_Z 48
_cell_length_a 24.116093
_cell_length_b 12.302754
_cell_length_c 7.148660
_cell_angle_alpha 90.000000
_cell_angle_beta 91.134629
_cell_angle_gamma 90.000000
_cell_volume 2120.551236
_symmetry_space_group_name_H-M "C 2/C"
_symmetry_group_IT_number 15
_symmetry_cell_setting 'monoclinic'
loop_
_space_group_symop_operation_xyz
x,y,z
-x,y,1/2-z
-x,-y,-z
x,-y,1/2+z
1/2+x,1/2+y,z
1/2-x,1/2+y,1/2-z
1/2-x,1/2-y,-z
1/2+x,1/2-y,1/2+z
loop_
_atom_site_type_symbol
_atom_site_label
_atom_site_fract_x
_atom_site_fract_y
_atom_site_fract_z
Si Si1 0.588902 0.199342 0.251750
Si Si2 0.003519 0.628558 0.531624
Si Si3 0.693857 0.617913 0.271258
Si Si4 0.687259 0.068631 0.102107
Si Si5 0.667173 0.386096 0.188549
Si Si6 0.211443 0.652510 0.699672
O O1 0.561323 0.171926 0.449835
O O2 0.635868 0.110494 0.217234
O O3 0.613990 0.321488 0.263316
O O4 0.545307 0.191103 0.079111
O O5 0.000000 0.657513 0.750000
O O6 0.000000 0.500000 0.500000
O O7 0.758080 0.583401 0.266702
O O8 0.657412 0.517218 0.190852
O O9 0.675455 0.650584 0.477021
O O10 0.688971 0.727169 0.143970
O O11 0.682092 0.937977 0.067489
O O12 0.692803 0.131410 0.910729
O O13 0.721492 0.353523 0.313259
#
# Coordination Sequence:
#
# PCOD8134613 Si02
#       6
#     8   8   8   8   8   8
#     4  11  22  42  70  94 141 171 222 281 346 400
#     4  11  25  45  68 102 132 164 227 301 354 399
#     4  10  19  39  57  89 146 175 222 261 307 410
#     4  10  20  34  60  96 130 180 213 262 333 394
#     4  10  20  39  60  93 131 190 223 263 330 397
#     4  10  19  36  58  92 144 177 220 266 315 406
#
# _framework density 22.635622999999999
#
# number of rings (size 3 to 8) (size 9 to 14) (size 15 to 20)
#    0.000    1.667    5.000    1.000    2.333    0.000 
#    6.000    3.333    0.000    4.000    0.000    4.667 
#    0.000    0.000    0.000    0.000    0.000    0.000 
#
# Total GULP energy -297532.545432 kJ/mol
# GULP energy per Si atom -12397.189393 kJ/mol
# Density = 2.258410 g / cm^3
# Si number density = 22.635623 Si / 1000 Ang^3
#
#
#
# Elastic Constant Matrix: (Units=GPa)
#
#
# Indices 1 2 3 4 5 6 
#
# 1 118.2940 57.9388 40.2209 0.0000 -29.4983 0.0000
# 2 57.9388 210.6247 28.2580 0.0000 -13.6539 0.0000
# 3 40.2209 28.2580 82.3572 0.0000 -19.6933 0.0000
# 4 0.0000 0.0000 0.0000 27.8244 0.0000 -5.1103
# 5 -29.4983 -13.6539 -19.6933 0.0000 30.1311 0.0000
# 6 0.0000 0.0000 0.0000 -5.1103 0.0000 42.3538
#
#
#
# Elastic Compliance Matrix: (Units=1/GPa)
#
#
# Indices 1 2 3 4 5 6 
#
# 1 0.013234 -0.002576 -0.003272 0.000000 0.009651 0.000000
# 2 -0.002576 0.005525 -0.000761 0.000000 -0.000516 0.000000
# 3 -0.003272 -0.000761 0.015589 0.000000 0.006641 0.000000
# 4 0.000000 0.000000 0.000000 0.036754 0.000000 0.004435
# 5 0.009651 -0.000516 0.006641 0.000000 0.046743 0.000000
# 6 0.000000 0.000000 0.000000 0.004435 0.000000 0.024146
#
#
# Mechanical properties :
#
#
# Convention : Reuss Voigt Hill
#
# Bulk Modulus (GPa) = 47.32354 73.79014 60.55684
# Shear Modulus (GPa) = 30.81624 39.05240 34.93432
#
# Velocity S-wave (km/s) = 3.69372 4.15813 3.93279
# Velocity P-wave (km/s) = 6.25648 7.46481 6.88719
#
# Compressibility (1/GPa) = 0.02113113
#
# Stress axis : x y z
#
# Youngs Moduli (GPa) = 75.56269 180.99424 64.14717
#
# Poissons Ratio (x) = 0.46622 0.20987
# Poissons Ratio (y) = 0.19464 0.04882
# Poissons Ratio (z) = 0.24722 0.13774
#
# Static dielectric constant tensor:
#      x y z
#    x 3.947610 0.000000 -0.173010 
#    y 0.000000 4.339900 0.000000 
#    z -0.173010 0.000000 3.993700 
# 
# 
# High freq. dielectric constant tensor:
#      x y z
#    x 1.852410 0.000000 -0.020810 
#    y 0.000000 1.902360 0.000000 
#    z -0.020810 0.000000 1.898460 
# 
# From -- ./inp_files/68752.got.cif
#   From: 2010.06.25/outbox.cif.g09.slc.cpg/sg15_35_cif.got.tgz:68752.got - 2010.06.28 07:06:18.
