data_PCOD8134935
_publ_section_title
;
Structure prediction by ZEFSAII (Michael W. Deem and Ramdas Pophale) SiO2 
 PCOD8134935
Probable space group: C 2/C
;
_chemical_formula_sum "Si O2"
_cell_formula_units_Z 64
_cell_length_a 20.975734
_cell_length_b 17.818166
_cell_length_c 11.118890
_cell_angle_alpha 90.000000
_cell_angle_beta 125.256806
_cell_angle_gamma 90.000000
_cell_volume 3393.412169
_symmetry_space_group_name_H-M "C 2/C"
_symmetry_group_IT_number 15
_symmetry_cell_setting 'monoclinic'
loop_
_space_group_symop_operation_xyz
x,y,z
-x,y,1/2-z
-x,-y,-z
x,-y,1/2+z
1/2+x,1/2+y,z
1/2-x,1/2+y,1/2-z
1/2-x,1/2-y,-z
1/2+x,1/2-y,1/2+z
loop_
_atom_site_type_symbol
_atom_site_label
_atom_site_fract_x
_atom_site_fract_y
_atom_site_fract_z
Si Si1 0.934756 0.557928 0.028414
Si Si2 0.600731 0.074597 0.166040
Si Si3 0.245929 0.125530 0.467257
Si Si4 0.361906 0.179654 0.801788
Si Si5 0.345114 0.784054 0.894915
Si Si6 0.914484 0.200383 0.182654
Si Si7 0.210425 0.543854 0.476094
Si Si8 0.247459 0.805306 0.384594
O O1 0.919174 0.471922 0.974730
O O2 0.919681 0.610439 0.893489
O O3 0.872804 0.572813 0.064283
O O4 0.024363 0.567501 0.170052
O O5 0.608016 0.160629 0.139217
O O6 0.685165 0.045268 0.308549
O O7 0.293419 0.152826 0.635842
O O8 0.271121 0.174594 0.378824
O O9 0.153446 0.137384 0.388883
O O10 0.258128 0.037364 0.451915
O O11 0.410369 0.249328 0.799375
O O12 0.326249 0.203380 0.891940
O O13 0.321083 0.715612 0.782412
O O14 0.403157 0.756206 0.059526
O O15 0.000000 0.163647 0.250000
O O16 0.269117 0.609772 0.583462
O O17 0.250000 0.750000 0.500000
#
# Coordination Sequence:
#
# PCOD8134935 Si02
#       8
#     8   8   8   8   8   8   8   8
#     4  10  21  32  50  83 119 154 180 223 286 350
#     4  11  20  33  51  80 123 151 183 225 283 352
#     4  11  20  37  59  85 112 148 194 248 287 341
#     4  10  19  37  57  84 116 148 193 239 285 352
#     4  11  20  38  57  86 116 149 195 242 287 350
#     4  11  22  37  62  87 112 148 195 257 302 331
#     4  11  22  34  54  82 116 155 192 229 285 342
#     4  11  21  36  59  85 113 155 197 233 277 349
#
# _framework density 18.860071999999999
#
# number of rings (size 3 to 8) (size 9 to 14) (size 15 to 20)
#    0.000    1.250    6.250    1.875    0.000    0.000 
#    0.000    0.000    0.000    0.750    6.500    0.000 
#    0.000    0.000    0.000    0.000    0.000    0.000 
#
# Total GULP energy -396500.298036 kJ/mol
# GULP energy per Si atom -12390.634314 kJ/mol
# Density = 1.881715 g / cm^3
# Si number density = 18.860072 Si / 1000 Ang^3
#
#
#
# Elastic Constant Matrix: (Units=GPa)
#
#
# Indices 1 2 3 4 5 6 
#
# 1 70.9220 29.5889 20.1407 0.0000 8.3205 0.0000
# 2 29.5889 98.7689 37.0291 0.0000 6.5820 0.0000
# 3 20.1407 37.0291 59.9224 0.0000 6.7922 0.0000
# 4 0.0000 0.0000 0.0000 28.5217 0.0000 1.4849
# 5 8.3205 6.5820 6.7922 0.0000 28.5633 0.0000
# 6 0.0000 0.0000 0.0000 1.4849 0.0000 24.3204
#
#
#
# Elastic Compliance Matrix: (Units=1/GPa)
#
#
# Indices 1 2 3 4 5 6 
#
# 1 0.016895 -0.003711 -0.003005 0.000000 -0.003352 0.000000
# 2 -0.003711 0.014028 -0.007376 0.000000 -0.000397 0.000000
# 3 -0.003005 -0.007376 0.022573 0.000000 -0.002793 0.000000
# 4 0.000000 0.000000 0.000000 0.035173 0.000000 -0.002147
# 5 -0.003352 -0.000397 -0.002793 0.000000 0.036742 0.000000
# 6 0.000000 0.000000 0.000000 -0.002147 0.000000 0.041249
#
#
# Mechanical properties :
#
#
# Convention : Reuss Voigt Hill
#
# Bulk Modulus (GPa) = 39.50920 44.79229 42.15075
# Shear Modulus (GPa) = 24.59624 25.80472 25.20048
#
# Velocity S-wave (km/s) = 3.61521 3.70296 3.65935
# Velocity P-wave (km/s) = 6.19842 6.48721 6.34446
#
# Compressibility (1/GPa) = 0.02531056
#
# Stress axis : x y z
#
# Youngs Moduli (GPa) = 59.18900 71.28401 44.30042
#
# Poissons Ratio (x) = 0.26456 0.13314
# Poissons Ratio (y) = 0.21967 0.32678
# Poissons Ratio (z) = 0.17788 0.52582
#
# Static dielectric constant tensor:
#      x y z
#    x 3.431450 0.000000 -0.086360 
#    y 0.000000 3.428610 0.000000 
#    z -0.086360 0.000000 3.529450 
# 
# 
# High freq. dielectric constant tensor:
#      x y z
#    x 1.717620 0.000000 -0.016610 
#    y 0.000000 1.719690 0.000000 
#    z -0.016610 0.000000 1.731480 
# 
# From -- ./inp_files/119257.got.cif
#   From: 2010.06.25/outbox.cif.g09.slc.cpg/sg15_60_cif.got.tgz:119257.got - 2010.06.28 07:06:18.
