data_PCOD8134055
_publ_section_title
;
Structure prediction by ZEFSAII (Michael W. Deem and Ramdas Pophale) SiO2 
 PCOD8134055
Probable space group: C 2/C
;
_chemical_formula_sum "Si O2"
_cell_formula_units_Z 48
_cell_length_a 8.719895
_cell_length_b 16.994797
_cell_length_c 24.147389
_cell_angle_alpha 90.000000
_cell_angle_beta 49.869777
_cell_angle_gamma 90.000000
_cell_volume 2736.032268
_symmetry_space_group_name_H-M "C 2/C"
_symmetry_group_IT_number 15
_symmetry_cell_setting 'monoclinic'
loop_
_space_group_symop_operation_xyz
x,y,z
-x,y,1/2-z
-x,-y,-z
x,-y,1/2+z
1/2+x,1/2+y,z
1/2-x,1/2+y,1/2-z
1/2-x,1/2-y,-z
1/2+x,1/2-y,1/2+z
loop_
_atom_site_type_symbol
_atom_site_label
_atom_site_fract_x
_atom_site_fract_y
_atom_site_fract_z
Si Si1 0.230927 0.768384 0.917677
Si Si2 0.575224 0.904042 0.171501
Si Si3 0.540341 0.084006 0.176964
Si Si4 0.270047 0.305312 0.293952
Si Si5 0.066754 0.213466 0.918633
Si Si6 0.723964 0.320274 0.705956
O O1 0.309436 0.856814 0.889094
O O2 0.183587 0.733863 0.869112
O O3 0.387264 0.711761 0.914581
O O4 0.023993 0.774082 0.999491
O O5 0.500000 0.885670 0.250000
O O6 0.389354 0.875559 0.177177
O O7 0.791358 0.863398 0.112602
O O8 0.616661 0.995779 0.151174
O O9 0.500000 0.106701 0.250000
O O10 0.328043 0.097184 0.196143
O O11 0.500000 0.334892 0.250000
O O12 0.268322 0.244915 0.242953
O O13 0.205240 0.287272 0.870002
O O14 0.500000 0.344251 0.750000
#
# Coordination Sequence:
#
# PCOD8134055 Si02
#       6
#     8   8   8   8   8   8
#     4  10  20  34  59  78 106 143 182 220 260 319
#     4  11  21  34  54  81 111 138 175 224 269 315
#     4  10  20  35  54  79 107 141 177 217 268 318
#     4  12  18  34  58  80 101 139 183 222 254 315
#     4  10  19  35  54  83 106 141 179 221 269 310
#     4  11  18  35  57  79 103 140 178 225 259 313
#
# _framework density 17.543652000000002
#
# number of rings (size 3 to 8) (size 9 to 14) (size 15 to 20)
#    0.000    1.333    8.333    0.000    0.000    2.000 
#    0.000    0.000    0.000    9.000    0.000    0.000 
#    0.000    0.000    0.000    0.000    0.000    0.000 
#
# Total GULP energy -297380.170871 kJ/mol
# GULP energy per Si atom -12390.840453 kJ/mol
# Density = 1.750372 g / cm^3
# Si number density = 17.543652 Si / 1000 Ang^3
#
#
#
# Elastic Constant Matrix: (Units=GPa)
#
#
# Indices 1 2 3 4 5 6 
#
# 1 89.1921 50.3493 50.1773 0.0006 -12.6841 0.0002
# 2 50.3493 76.8076 50.3241 0.0012 -4.6423 0.0005
# 3 50.1773 50.3241 142.3580 0.0040 -6.0468 -0.0009
# 4 0.0006 0.0012 0.0040 16.4219 -0.0027 -1.0537
# 5 -12.6841 -4.6423 -6.0468 -0.0027 22.8313 0.0005
# 6 0.0002 0.0005 -0.0009 -1.0537 0.0005 27.7361
#
#
#
# Elastic Compliance Matrix: (Units=1/GPa)
#
#
# Indices 1 2 3 4 5 6 
#
# 1 0.020103 -0.010760 -0.002934 0.000002 0.008203 0.000000
# 2 -0.010760 0.022783 -0.004368 -0.000001 -0.002502 0.000000
# 3 -0.002934 -0.004368 0.009604 -0.000002 0.000026 0.000000
# 4 0.000002 -0.000001 -0.000002 0.061043 0.000008 0.002319
# 5 0.008203 -0.002502 0.000026 0.000008 0.047855 -0.000001
# 6 0.000000 0.000000 0.000000 0.002319 -0.000001 0.036142
#
#
# Mechanical properties :
#
#
# Convention : Reuss Voigt Hill
#
# Bulk Modulus (GPa) = 61.09706 67.78433 64.44070
# Shear Modulus (GPa) = 20.91100 23.89833 22.40467
#
# Velocity S-wave (km/s) = 3.45620 3.69483 3.57750
# Velocity P-wave (km/s) = 7.12940 7.54479 7.34003
#
# Compressibility (1/GPa) = 0.01636740
#
# Stress axis : x y z
#
# Youngs Moduli (GPa) = 49.74439 43.89142 104.12736
#
# Poissons Ratio (x) = 0.47227 0.30546
# Poissons Ratio (y) = 0.53525 0.45480
# Poissons Ratio (z) = 0.14593 0.19171
#
# Static dielectric constant tensor:
#      x y z
#    x 3.462090 0.000000 -0.022460 
#    y 0.000000 3.048280 0.000000 
#    z -0.022460 0.000000 3.405460 
# 
# 
# High freq. dielectric constant tensor:
#      x y z
#    x 1.682930 0.000000 -0.002670 
#    y 0.000000 1.652570 0.000000 
#    z -0.002670 0.000000 1.683410 
# 
# From -- ./inp_files/189766.got.cif
#   From: 2010.06.25/outbox.cif.g09.slc.cpg/sg15_95_cif.got.tgz:189766.got - 2010.06.28 07:06:18.
