data_PCOD8134846
_publ_section_title
;
Structure prediction by ZEFSAII (Michael W. Deem and Ramdas Pophale) SiO2 
 PCOD8134846
Probable space group: C 2/C
;
_chemical_formula_sum "Si O2"
_cell_formula_units_Z 56
_cell_length_a 13.619801
_cell_length_b 18.690517
_cell_length_c 11.135781
_cell_angle_alpha 90.000000
_cell_angle_beta 70.775847
_cell_angle_gamma 90.000000
_cell_volume 2676.665323
_symmetry_space_group_name_H-M "C 2/C"
_symmetry_group_IT_number 15
_symmetry_cell_setting 'monoclinic'
loop_
_space_group_symop_operation_xyz
x,y,z
-x,y,1/2-z
-x,-y,-z
x,-y,1/2+z
1/2+x,1/2+y,z
1/2-x,1/2+y,1/2-z
1/2-x,1/2-y,-z
1/2+x,1/2-y,1/2+z
loop_
_atom_site_type_symbol
_atom_site_label
_atom_site_fract_x
_atom_site_fract_y
_atom_site_fract_z
Si Si1 0.500000 0.329978 0.750000
Si Si2 0.663663 0.364809 0.342920
Si Si3 0.992850 0.394244 0.894358
Si Si4 0.618885 0.869197 0.168433
Si Si5 0.500000 0.435930 0.250000
Si Si6 0.853874 0.512970 0.023587
Si Si7 0.062537 0.262999 0.012680
Si Si8 0.128706 0.948935 0.594376
O O1 0.512665 0.282046 0.865891
O O2 0.599818 0.381571 0.691847
O O3 0.789616 0.363258 0.267262
O O4 0.595468 0.386827 0.255765
O O5 0.626825 0.286778 0.397694
O O6 0.643663 0.423374 0.453297
O O7 0.084788 0.449331 0.892305
O O8 0.000000 0.381036 0.750000
O O9 0.995258 0.317829 0.959955
O O10 0.886964 0.431004 0.986056
O O11 0.500000 0.851923 0.250000
O O12 0.645956 0.809199 0.056666
O O13 0.621383 0.947624 0.111686
O O14 0.457651 0.488331 0.371789
O O15 0.733229 0.516734 0.106640
#
# Coordination Sequence:
#
# PCOD8134846 Si02
#       8
#     4   8   8   8   4   8   8   8
#     4   9  18  38  64  90 111 152 212 264 293 360
#     4  10  22  37  60  87 122 160 204 254 311 374
#     4  10  21  36  57  89 129 163 196 256 323 380
#     4  10  19  36  64  90 112 155 213 262 290 357
#     4  11  22  36  60  88 119 164 198 258 323 370
#     4   9  20  37  59  87 115 160 213 256 304 361
#     4  10  20  37  60  88 122 159 207 249 312 371
#     4   9  20  39  62  86 116 156 217 264 299 352
#
# _framework density 20.921555000000001
#
# number of rings (size 3 to 8) (size 9 to 14) (size 15 to 20)
#    0.000    2.286    0.714    1.286    1.000    6.857 
#    1.286    0.000    0.000    2.571    0.000    0.000 
#    0.000    0.000    0.000    0.000    0.000    0.000 
#
# Total GULP energy -346930.206993 kJ/mol
# GULP energy per Si atom -12390.364535 kJ/mol
# Density = 2.087394 g / cm^3
# Si number density = 20.921555 Si / 1000 Ang^3
#
#
#
# Elastic Constant Matrix: (Units=GPa)
#
#
# Indices 1 2 3 4 5 6 
#
# 1 140.2915 65.7598 46.3585 0.0000 -2.7507 0.0000
# 2 65.7598 111.0710 36.5827 0.0000 0.1301 0.0000
# 3 46.3585 36.5827 70.5540 0.0000 1.2474 0.0000
# 4 0.0000 0.0000 0.0000 22.5569 0.0000 0.9771
# 5 -2.7507 0.1301 1.2474 0.0000 33.0430 0.0000
# 6 0.0000 0.0000 0.0000 0.9771 0.0000 24.4106
#
#
#
# Elastic Compliance Matrix: (Units=1/GPa)
#
#
# Indices 1 2 3 4 5 6 
#
# 1 0.011038 -0.004994 -0.004683 0.000000 0.001115 0.000000
# 2 -0.004994 0.013118 -0.003514 0.000000 -0.000335 0.000000
# 3 -0.004683 -0.003514 0.019092 0.000000 -0.001097 0.000000
# 4 0.000000 0.000000 0.000000 0.044409 0.000000 -0.001778
# 5 0.001115 -0.000335 -0.001097 0.000000 0.030399 0.000000
# 6 0.000000 0.000000 0.000000 -0.001778 0.000000 0.041037
#
#
# Mechanical properties :
#
#
# Convention : Reuss Voigt Hill
#
# Bulk Modulus (GPa) = 59.29329 68.81317 64.05323
# Shear Modulus (GPa) = 26.16445 27.54979 26.85712
#
# Velocity S-wave (km/s) = 3.54022 3.63273 3.58677
# Velocity P-wave (km/s) = 6.71663 7.11042 6.91633
#
# Compressibility (1/GPa) = 0.01686531
#
# Stress axis : x y z
#
# Youngs Moduli (GPa) = 90.59343 76.23155 52.37723
#
# Poissons Ratio (x) = 0.38071 0.24529
# Poissons Ratio (y) = 0.45244 0.18407
# Poissons Ratio (z) = 0.42426 0.26791
#
# Static dielectric constant tensor:
#      x y z
#    x 3.839640 0.000000 -0.101320 
#    y 0.000000 3.942330 0.000000 
#    z -0.101320 0.000000 3.567580 
# 
# 
# High freq. dielectric constant tensor:
#      x y z
#    x 1.803720 0.000000 -0.009740 
#    y 0.000000 1.830870 0.000000 
#    z -0.009740 0.000000 1.798010 
# 
# From -- ./inp_files/98280.got.cif
#   From: 2010.06.25/outbox.cif.g09.slc.cpg/sg15_50_cif.got.tgz:98280.got - 2010.06.28 07:06:18.
