data_PCOD8134049
_publ_section_title
;
Structure prediction by ZEFSAII (Michael W. Deem and Ramdas Pophale) SiO2 
 PCOD8134049
Probable space group: C 2/C
;
_chemical_formula_sum "Si O2"
_cell_formula_units_Z 56
_cell_length_a 11.915304
_cell_length_b 29.239300
_cell_length_c 8.765297
_cell_angle_alpha 90.000000
_cell_angle_beta 74.647181
_cell_angle_gamma 90.000000
_cell_volume 2944.808753
_symmetry_space_group_name_H-M "C 2/C"
_symmetry_group_IT_number 15
_symmetry_cell_setting 'monoclinic'
loop_
_space_group_symop_operation_xyz
x,y,z
-x,y,1/2-z
-x,-y,-z
x,-y,1/2+z
1/2+x,1/2+y,z
1/2-x,1/2+y,1/2-z
1/2-x,1/2-y,-z
1/2+x,1/2-y,1/2+z
loop_
_atom_site_type_symbol
_atom_site_label
_atom_site_fract_x
_atom_site_fract_y
_atom_site_fract_z
Si Si1 0.204834 0.692384 0.398652
Si Si2 0.631217 0.289989 0.393067
Si Si3 0.426288 0.335164 0.639483
Si Si4 0.948057 0.394345 0.602184
Si Si5 0.635274 0.978209 0.730479
Si Si6 0.675431 0.063678 0.904209
Si Si7 0.621961 0.368944 0.158167
O O1 0.252677 0.697964 0.552945
O O2 0.131770 0.735703 0.362925
O O3 0.312638 0.688901 0.245371
O O4 0.120085 0.649008 0.436434
O O5 0.513429 0.299010 0.530085
O O6 0.632683 0.318916 0.235045
O O7 0.500000 0.360055 0.750000
O O8 0.378367 0.368500 0.525829
O O9 0.857170 0.436902 0.648076
O O10 0.000000 0.382764 0.750000
O O11 0.052317 0.409374 0.451140
O O12 0.500000 0.986662 0.750000
O O13 0.700522 0.962245 0.554131
O O14 0.686917 0.025651 0.769320
O O15 0.773244 0.099888 0.824732
O O16 0.500000 0.391888 0.250000
#
# Coordination Sequence:
#
# PCOD8134049 Si02
#       7
#     8   8   8   8   8   8   8
#     4  10  19  35  54  80 109 143 187 221 262 326
#     4   9  21  34  51  79 113 144 179 228 272 312
#     4   9  18  35  55  72 103 147 179 219 272 315
#     4   9  18  31  53  82 107 136 178 221 265 326
#     4   9  18  34  53  79 110 137 167 216 278 329
#     4  10  20  35  56  80 108 140 177 222 274 331
#     4  10  21  38  55  78 107 141 183 224 269 322
#
# _framework density 19.016514000000001
#
# number of rings (size 3 to 8) (size 9 to 14) (size 15 to 20)
#    0.000    2.857    0.000    3.429    0.000    5.714 
#    0.000    3.571    0.000    2.571    0.000    0.000 
#    0.000    0.000    0.000    0.000    0.000    0.000 
#
# Total GULP energy -346981.340183 kJ/mol
# GULP energy per Si atom -12392.190721 kJ/mol
# Density = 1.897323 g / cm^3
# Si number density = 19.016514 Si / 1000 Ang^3
#
#
#
# Elastic Constant Matrix: (Units=GPa)
#
#
# Indices 1 2 3 4 5 6 
#
# 1 61.8369 54.0570 23.7338 0.0000 -2.2798 0.0000
# 2 54.0570 128.8548 33.2130 0.0000 0.3976 0.0000
# 3 23.7338 33.2130 73.0733 0.0000 3.6904 0.0000
# 4 0.0000 0.0000 0.0000 14.2352 0.0000 2.6951
# 5 -2.2798 0.3976 3.6904 0.0000 23.0397 0.0000
# 6 0.0000 0.0000 0.0000 2.6951 0.0000 30.0622
#
#
#
# Elastic Compliance Matrix: (Units=1/GPa)
#
#
# Indices 1 2 3 4 5 6 
#
# 1 0.026825 -0.010164 -0.004271 0.000000 0.003514 0.000000
# 2 -0.010164 0.012647 -0.002405 0.000000 -0.000839 0.000000
# 3 -0.004271 -0.002405 0.016316 0.000000 -0.002995 0.000000
# 4 0.000000 0.000000 0.000000 0.071461 0.000000 -0.006406
# 5 0.003514 -0.000839 -0.002995 0.000000 0.044245 0.000000
# 6 0.000000 0.000000 0.000000 -0.006406 0.000000 0.033839
#
#
# Mechanical properties :
#
#
# Convention : Reuss Voigt Hill
#
# Bulk Modulus (GPa) = 45.22791 53.97474 49.60132
# Shear Modulus (GPa) = 20.29371 23.65151 21.97261
#
# Velocity S-wave (km/s) = 3.27029 3.53049 3.40288
# Velocity P-wave (km/s) = 6.17210 6.71296 6.44820
#
# Compressibility (1/GPa) = 0.02211024
#
# Stress axis : x y z
#
# Youngs Moduli (GPa) = 37.27826 79.07005 61.28889
#
# Poissons Ratio (x) = 0.80365 0.26174
# Poissons Ratio (y) = 0.37889 0.14739
# Poissons Ratio (z) = 0.15920 0.19015
#
# Static dielectric constant tensor:
#      x y z
#    x 3.462980 0.000000 0.101440 
#    y 0.000000 3.452210 0.000000 
#    z 0.101440 0.000000 3.504400 
# 
# 
# High freq. dielectric constant tensor:
#      x y z
#    x 1.728840 0.000000 0.001970 
#    y 0.000000 1.724100 0.000000 
#    z 0.001970 0.000000 1.738090 
# 
# From -- ./inp_files/35156.got.cif
#   From: 2010.06.25/outbox.cif.g09.slc.cpg/sg15_18_cif.got.tgz:35156.got - 2010.06.28 07:06:18.
