data_PCOD8134744
_publ_section_title
;
Structure prediction by ZEFSAII (Michael W. Deem and Ramdas Pophale) SiO2 
 PCOD8134744
Probable space group: C 2/C
;
_chemical_formula_sum "Si O2"
_cell_formula_units_Z 64
_cell_length_a 9.257975
_cell_length_b 15.094813
_cell_length_c 29.831548
_cell_angle_alpha 90.000000
_cell_angle_beta 47.817093
_cell_angle_gamma 90.000000
_cell_volume 3089.161718
_symmetry_space_group_name_H-M "C 2/C"
_symmetry_group_IT_number 15
_symmetry_cell_setting 'monoclinic'
loop_
_space_group_symop_operation_xyz
x,y,z
-x,y,1/2-z
-x,-y,-z
x,-y,1/2+z
1/2+x,1/2+y,z
1/2-x,1/2+y,1/2-z
1/2-x,1/2-y,-z
1/2+x,1/2-y,1/2+z
loop_
_atom_site_type_symbol
_atom_site_label
_atom_site_fract_x
_atom_site_fract_y
_atom_site_fract_z
Si Si1 0.982725 0.822179 0.618749
Si Si2 0.680811 0.734354 0.741257
Si Si3 0.295973 0.309338 0.072186
Si Si4 0.551067 0.295010 0.366009
Si Si5 0.305055 0.674766 0.061299
Si Si6 0.702540 0.472602 0.229469
Si Si7 0.374044 0.490793 0.155464
Si Si8 0.872808 0.506149 0.880216
O O1 0.871109 0.788458 0.686528
O O2 0.854956 0.800588 0.601854
O O3 0.020199 0.927818 0.614139
O O4 0.187450 0.771999 0.570711
O O5 0.500000 0.771227 0.750000
O O6 0.644786 0.748122 0.801804
O O7 0.716627 0.632576 0.722433
O O8 0.295338 0.288314 0.125451
O O9 0.186063 0.401416 0.083930
O O10 0.514248 0.315494 0.009206
O O11 0.355948 0.244755 0.420803
O O12 0.502446 0.399555 0.369269
O O13 0.228423 0.574301 0.072434
O O14 0.500000 0.507533 0.250000
O O15 0.720317 0.505991 0.276479
O O16 0.894416 0.510280 0.164741
O O17 0.197911 0.489417 0.156628
#
# Coordination Sequence:
#
# PCOD8134744 Si02
#       8
#     8   8   8   8   8   8   8   8
#     4  11  22  39  62  90 122 157 204 250 304 364
#     4  10  19  36  61  88 118 157 194 243 309 371
#     4  11  23  41  60  92 123 156 210 257 296 350
#     4  10  22  40  61  86 122 159 202 251 305 354
#     4  11  23  40  65  85 120 170 208 242 298 366
#     4  10  20  35  58  91 123 152 191 248 308 358
#     4   9  22  37  58  86 124 158 198 243 306 370
#     4  10  21  39  62  88 118 161 203 249 297 360
#
# _framework density 20.717594999999999
#
# number of rings (size 3 to 8) (size 9 to 14) (size 15 to 20)
#    0.000    1.750    2.500    1.500    1.750    1.500 
#    0.000    0.625    0.000    0.000    0.000    0.000 
#    0.000    0.000    0.000    0.000    0.000    0.000 
#
# Total GULP energy -396823.758878 kJ/mol
# GULP energy per Si atom -12400.742465 kJ/mol
# Density = 2.067044 g / cm^3
# Si number density = 20.717595 Si / 1000 Ang^3
#
#
#
# Elastic Constant Matrix: (Units=GPa)
#
#
# Indices 1 2 3 4 5 6 
#
# 1 59.6885 40.3764 23.3446 0.0003 -13.8283 -0.0001
# 2 40.3764 88.2384 19.0544 0.0004 -6.3889 -0.0002
# 3 23.3446 19.0544 80.3463 0.0003 -12.1299 -0.0002
# 4 0.0003 0.0004 0.0003 27.4506 -0.0004 -6.3381
# 5 -13.8283 -6.3889 -12.1299 -0.0004 29.3291 0.0004
# 6 -0.0001 -0.0002 -0.0002 -6.3381 0.0004 30.1291
#
#
#
# Elastic Compliance Matrix: (Units=1/GPa)
#
#
# Indices 1 2 3 4 5 6 
#
# 1 0.028131 -0.011325 -0.004115 0.000000 0.009095 0.000000
# 2 -0.011325 0.016568 -0.000960 0.000000 -0.002128 0.000000
# 3 -0.004115 -0.000960 0.014447 0.000000 0.003826 0.000000
# 4 0.000000 0.000000 0.000000 0.038289 0.000000 0.008055
# 5 0.009095 -0.002128 0.003826 0.000000 0.039503 0.000000
# 6 0.000000 0.000000 0.000000 0.008055 0.000000 0.034885
#
#
# Mechanical properties :
#
#
# Convention : Reuss Voigt Hill
#
# Bulk Modulus (GPa) = 37.95539 43.75821 40.85680
# Shear Modulus (GPa) = 23.42971 27.08161 25.25566
#
# Velocity S-wave (km/s) = 3.36655 3.61942 3.49527
# Velocity P-wave (km/s) = 5.78547 6.21563 6.00440
#
# Compressibility (1/GPa) = 0.02634672
#
# Stress axis : x y z
#
# Youngs Moduli (GPa) = 35.54814 60.35587 69.21931
#
# Poissons Ratio (x) = 0.68354 0.28481
# Poissons Ratio (y) = 0.40259 0.06644
# Poissons Ratio (z) = 0.14627 0.05794
#
# Static dielectric constant tensor:
#      x y z
#    x 3.668350 0.000000 0.078690 
#    y 0.000000 3.853680 0.000000 
#    z 0.078690 0.000000 3.556880 
# 
# 
# High freq. dielectric constant tensor:
#      x y z
#    x 1.798960 0.000000 0.003990 
#    y 0.000000 1.815430 0.000000 
#    z 0.003990 0.000000 1.799050 
# 
# From -- ./inp_files/308220.got.cif
#   From: 2010.06.25/outbox.cif.g09.slc.cpg/sg15_155_cif.got.tgz:308220.got - 2010.06.28 07:06:18.
