data_PCOD8134585
_publ_section_title
;
Structure prediction by ZEFSAII (Michael W. Deem and Ramdas Pophale) SiO2 
 PCOD8134585
Probable space group: C 2/C
;
_chemical_formula_sum "Si O2"
_cell_formula_units_Z 64
_cell_length_a 8.867039
_cell_length_b 11.952345
_cell_length_c 26.250552
_cell_angle_alpha 90.000000
_cell_angle_beta 99.382153
_cell_angle_gamma 90.000000
_cell_volume 2744.867654
_symmetry_space_group_name_H-M "C 2/C"
_symmetry_group_IT_number 15
_symmetry_cell_setting 'monoclinic'
loop_
_space_group_symop_operation_xyz
x,y,z
-x,y,1/2-z
-x,-y,-z
x,-y,1/2+z
1/2+x,1/2+y,z
1/2-x,1/2+y,1/2-z
1/2-x,1/2-y,-z
1/2+x,1/2-y,1/2+z
loop_
_atom_site_type_symbol
_atom_site_label
_atom_site_fract_x
_atom_site_fract_y
_atom_site_fract_z
Si Si1 0.505979 0.658473 0.304306
Si Si2 0.697620 0.957359 0.785901
Si Si3 0.178071 0.883215 0.131845
Si Si4 0.561593 0.508271 0.447047
Si Si5 0.078883 0.250005 0.409734
Si Si6 0.780186 0.346579 0.410242
Si Si7 0.044819 0.697237 0.351519
Si Si8 0.185756 0.523435 0.170607
O O1 0.500000 0.725885 0.250000
O O2 0.379239 0.562521 0.291786
O O3 0.484014 0.739180 0.351171
O O4 0.668256 0.601984 0.323504
O O5 0.690018 0.059840 0.826015
O O6 0.617835 0.842683 0.801545
O O7 0.631190 0.993028 0.726820
O O8 0.070843 0.976782 0.100344
O O9 0.264671 0.817677 0.090753
O O10 0.075361 0.799908 0.160905
O O11 0.500000 0.500000 0.500000
O O12 0.620076 0.632919 0.438365
O O13 0.705902 0.425135 0.449273
O O14 0.952899 0.315645 0.437258
O O15 0.677774 0.233715 0.398217
O O16 0.778796 0.408015 0.355191
O O17 0.950602 0.588944 0.366727
#
# Coordination Sequence:
#
# PCOD8134585 Si02
#       8
#     8   8   8   8   8   8   8   8
#     4  10  19  36  58  84 128 169 199 246 295 342
#     4  11  22  37  58  90 129 167 207 247 289 353
#     4  11  23  40  67  93 120 169 208 252 315 375
#     4  11  25  47  66  91 125 153 201 274 333 385
#     4  12  22  42  67  91 126 162 209 255 310 371
#     4  11  23  40  67  93 120 169 208 252 315 375
#     4  11  21  37  59  86 125 164 210 245 293 348
#     4  11  22  37  58  90 129 167 207 247 289 353
#
# _framework density 23.316243
#
# number of rings (size 3 to 8) (size 9 to 14) (size 15 to 20)
#    0.000    1.000    5.000    1.875    0.000    4.000 
#    0.000    0.625    0.000    0.000    0.000    0.000 
#    0.000    0.000    0.000    0.000    0.000    0.000 
#
# Total GULP energy -396647.266786 kJ/mol
# GULP energy per Si atom -12395.227087 kJ/mol
# Density = 2.326317 g / cm^3
# Si number density = 23.316243 Si / 1000 Ang^3
#
#
#
# Elastic Constant Matrix: (Units=GPa)
#
#
# Indices 1 2 3 4 5 6 
#
# 1 101.1763 42.3939 9.4039 0.0000 -23.1758 0.0000
# 2 42.3939 71.8743 26.9861 0.0000 -17.7787 0.0000
# 3 9.4039 26.9861 72.4127 0.0000 -26.8323 0.0000
# 4 0.0000 0.0000 0.0000 15.7979 0.0000 -14.3976
# 5 -23.1758 -17.7787 -26.8323 0.0000 30.8408 0.0000
# 6 0.0000 0.0000 0.0000 -14.3976 0.0000 40.9534
#
#
#
# Elastic Compliance Matrix: (Units=1/GPa)
#
#
# Indices 1 2 3 4 5 6 
#
# 1 0.015505 -0.008305 0.005349 0.000000 0.011518 0.000000
# 2 -0.008305 0.021420 -0.006849 0.000000 0.000148 0.000000
# 3 0.005349 -0.006849 0.023161 0.000000 0.020222 0.000000
# 4 0.000000 0.000000 0.000000 0.093142 0.000000 0.032745
# 5 0.011518 0.000148 0.020222 0.000000 0.058759 0.000000
# 6 0.000000 0.000000 0.000000 0.032745 0.000000 0.035930
#
#
# Mechanical properties :
#
#
# Convention : Reuss Voigt Hill
#
# Bulk Modulus (GPa) = 24.70588 44.78123 34.74356
# Shear Modulus (GPa) = 17.79259 28.63039 23.21149
#
# Velocity S-wave (km/s) = 2.76542 3.50796 3.15859
# Velocity P-wave (km/s) = 4.56243 5.97122 5.31372
#
# Compressibility (1/GPa) = 0.04047619
#
# Stress axis : x y z
#
# Youngs Moduli (GPa) = 64.49721 46.68588 43.17670
#
# Poissons Ratio (x) = 0.38770 -0.23096
# Poissons Ratio (y) = 0.53562 0.29572
# Poissons Ratio (z) = -0.34501 0.31976
#
# Static dielectric constant tensor:
#      x y z
#    x 4.490150 0.000000 -0.342590 
#    y 0.000000 4.178180 0.000000 
#    z -0.342590 0.000000 3.972770 
# 
# 
# High freq. dielectric constant tensor:
#      x y z
#    x 1.948490 0.000000 -0.024330 
#    y 0.000000 1.917050 0.000000 
#    z -0.024330 0.000000 1.873740 
# 
# From -- ./inp_files/307499.got.cif
#   From: 2010.06.25/outbox.cif.g09.slc.cpg/sg15_154_cif.got.tgz:307499.got - 2010.06.28 07:06:18.
