data_PCOD8134836
_publ_section_title
;
Structure prediction by ZEFSAII (Michael W. Deem and Ramdas Pophale) SiO2 
 PCOD8134836
Probable space group: C 2/C
;
_chemical_formula_sum "Si O2"
_cell_formula_units_Z 60
_cell_length_a 7.448702
_cell_length_b 27.001228
_cell_length_c 14.457296
_cell_angle_alpha 90.000000
_cell_angle_beta 86.947949
_cell_angle_gamma 90.000000
_cell_volume 2903.586299
_symmetry_space_group_name_H-M "C 2/C"
_symmetry_group_IT_number 15
_symmetry_cell_setting 'monoclinic'
loop_
_space_group_symop_operation_xyz
x,y,z
-x,y,1/2-z
-x,-y,-z
x,-y,1/2+z
1/2+x,1/2+y,z
1/2-x,1/2+y,1/2-z
1/2-x,1/2-y,-z
1/2+x,1/2-y,1/2+z
loop_
_atom_site_type_symbol
_atom_site_label
_atom_site_fract_x
_atom_site_fract_y
_atom_site_fract_z
Si Si1 0.205813 0.274722 0.752073
Si Si2 0.683665 0.565386 0.356023
Si Si3 0.574180 0.851531 0.439303
Si Si4 0.724925 0.547354 0.160045
Si Si5 0.657771 0.035214 0.966999
Si Si6 0.153944 0.830667 0.921881
Si Si7 0.500000 0.801703 0.250000
Si Si8 0.261600 0.850120 0.584254
O O1 0.297267 0.286415 0.649569
O O2 0.329210 0.230769 0.788422
O O3 0.209939 0.321260 0.820795
O O4 0.000000 0.256570 0.750000
O O5 0.795792 0.545198 0.264535
O O6 0.478439 0.564507 0.334721
O O7 0.713156 0.534172 0.447640
O O8 0.745382 0.621522 0.372189
O O9 0.597288 0.910769 0.436811
O O10 0.747450 0.824415 0.481442
O O11 0.559484 0.835612 0.333859
O O12 0.397423 0.833222 0.500131
O O13 0.742537 0.492309 0.119633
O O14 0.817838 0.592074 0.100157
O O15 0.500000 0.000000 0.000000
O O16 0.941595 0.839200 0.944796
#
# Coordination Sequence:
#
# PCOD8134836 Si02
#       8
#     8   8   8   8   8   8   4   8
#     4  12  23  42  72 102 129 165 221 275 339 395
#     4   9  20  34  61  93 127 163 211 268 321 375
#     4  11  26  45  64  94 133 179 222 271 327 396
#     4  10  19  36  63  95 127 161 214 269 324 377
#     4  11  22  38  60  94 127 171 215 258 324 388
#     4  10  20  40  69 100 129 162 214 282 327 377
#     4  12  30  48  62  92 142 178 222 268 336 408
#     4  11  20  40  71 101 129 164 215 283 331 380
#
# _framework density 20.664102
#
# number of rings (size 3 to 8) (size 9 to 14) (size 15 to 20)
#    0.000    1.333    5.333    0.400    0.000    3.733 
#    0.000    0.000    2.933    0.000    0.000    0.000 
#    0.000    0.000    0.000    0.000    0.000    0.000 
#
# Total GULP energy -371846.871320 kJ/mol
# GULP energy per Si atom -12394.895711 kJ/mol
# Density = 2.061707 g / cm^3
# Si number density = 20.664102 Si / 1000 Ang^3
#
#
#
# Elastic Constant Matrix: (Units=GPa)
#
#
# Indices 1 2 3 4 5 6 
#
# 1 91.8504 23.1037 30.5192 0.0000 8.2137 0.0000
# 2 23.1037 73.6417 37.0207 0.0000 11.9580 0.0000
# 3 30.5192 37.0207 134.6379 0.0000 18.1197 0.0000
# 4 0.0000 0.0000 0.0000 29.3701 0.0000 2.1939
# 5 8.2137 11.9580 18.1197 0.0000 25.4088 0.0000
# 6 0.0000 0.0000 0.0000 2.1939 0.0000 25.4256
#
#
#
# Elastic Compliance Matrix: (Units=1/GPa)
#
#
# Indices 1 2 3 4 5 6 
#
# 1 0.012309 -0.002702 -0.001861 0.000000 -0.001380 0.000000
# 2 -0.002702 0.016895 -0.003408 0.000000 -0.004648 0.000000
# 3 -0.001861 -0.003408 0.009391 0.000000 -0.004491 0.000000
# 4 0.000000 0.000000 0.000000 0.034269 0.000000 -0.002957
# 5 -0.001380 -0.004648 -0.004491 0.000000 0.045193 0.000000
# 6 0.000000 0.000000 0.000000 -0.002957 0.000000 0.039586
#
#
# Mechanical properties :
#
#
# Convention : Reuss Voigt Hill
#
# Bulk Modulus (GPa) = 44.14521 53.49078 48.81800
# Shear Modulus (GPa) = 27.60389 30.00666 28.80528
#
# Velocity S-wave (km/s) = 3.65888 3.81480 3.73765
# Velocity P-wave (km/s) = 6.26574 6.73392 6.50404
#
# Compressibility (1/GPa) = 0.02265251
#
# Stress axis : x y z
#
# Youngs Moduli (GPa) = 81.24274 59.19057 106.48855
#
# Poissons Ratio (x) = 0.15992 0.19823
# Poissons Ratio (y) = 0.21950 0.36286
# Poissons Ratio (z) = 0.15123 0.20169
#
# Static dielectric constant tensor:
#      x y z
#    x 3.897260 0.000000 0.086630 
#    y 0.000000 3.499750 0.000000 
#    z 0.086630 0.000000 3.815280 
# 
# 
# High freq. dielectric constant tensor:
#      x y z
#    x 1.814940 0.000000 0.009800 
#    y 0.000000 1.793660 0.000000 
#    z 0.009800 0.000000 1.807000 
# 
# From -- ./inp_files/82236.got.cif
#   From: 2010.06.25/outbox.cif.g09.slc.cpg/sg15_42_cif.got.tgz:82236.got - 2010.06.28 07:06:18.
