data_PCOD8134285
_publ_section_title
;
Structure prediction by ZEFSAII (Michael W. Deem and Ramdas Pophale) SiO2 
 PCOD8134285
Probable space group: C 2/C
;
_chemical_formula_sum "Si O2"
_cell_formula_units_Z 56
_cell_length_a 9.999290
_cell_length_b 16.070476
_cell_length_c 28.121686
_cell_angle_alpha 90.000000
_cell_angle_beta 39.779501
_cell_angle_gamma 90.000000
_cell_volume 2891.392878
_symmetry_space_group_name_H-M "C 2/C"
_symmetry_group_IT_number 15
_symmetry_cell_setting 'monoclinic'
loop_
_space_group_symop_operation_xyz
x,y,z
-x,y,1/2-z
-x,-y,-z
x,-y,1/2+z
1/2+x,1/2+y,z
1/2-x,1/2+y,1/2-z
1/2-x,1/2-y,-z
1/2+x,1/2-y,1/2+z
loop_
_atom_site_type_symbol
_atom_site_label
_atom_site_fract_x
_atom_site_fract_y
_atom_site_fract_z
Si Si1 0.958145 0.501580 0.705893
Si Si2 0.020140 0.152433 0.188261
Si Si3 0.066610 0.320481 0.784730
Si Si4 0.515308 0.522387 0.850430
Si Si5 0.330855 0.694341 0.907120
Si Si6 0.883891 0.056343 0.568796
Si Si7 0.935340 0.242400 0.563553
O O1 0.962709 0.409468 0.680876
O O2 0.728876 0.542477 0.762954
O O3 0.000000 0.498342 0.750000
O O4 0.133157 0.553975 0.630822
O O5 0.066706 0.066709 0.146408
O O6 0.210468 0.214746 0.125819
O O7 0.000000 0.133892 0.250000
O O8 0.812997 0.200358 0.225238
O O9 0.000000 0.338638 0.750000
O O10 0.898581 0.251060 0.844852
O O11 0.356421 0.598159 0.884499
O O12 0.552104 0.521281 0.897063
O O13 0.487809 0.729910 0.903898
O O14 0.091621 0.702827 0.988843
O O15 0.939081 0.150443 0.540689
O O16 0.000000 0.000000 0.500000
#
# Coordination Sequence:
#
# PCOD8134285 Si02
#       7
#     8   8   8   8   8   8   8
#     4   8  16  31  53  80 109 149 195 245 292 352
#     4  11  22  40  63  93 121 160 211 258 307 368
#     4  10  20  36  60  86 120 157 199 256 309 364
#     4   9  21  36  56  84 121 161 202 253 305 368
#     4  10  20  38  57  85 123 161 200 243 313 371
#     4  10  19  35  59  88 121 158 207 252 307 371
#     4  10  22  35  61  89 116 163 204 251 303 374
#
# _framework density 19.367827999999999
#
# number of rings (size 3 to 8) (size 9 to 14) (size 15 to 20)
#    0.000    2.286    1.429    1.714    2.000    1.714 
#    0.000    2.857    0.000    0.000    0.000    0.000 
#    0.000    0.000    0.000    0.000    0.000    0.000 
#
# Total GULP energy -346891.539509 kJ/mol
# GULP energy per Si atom -12388.983554 kJ/mol
# Density = 1.932375 g / cm^3
# Si number density = 19.367828 Si / 1000 Ang^3
#
#
#
# Elastic Constant Matrix: (Units=GPa)
#
#
# Indices 1 2 3 4 5 6 
#
# 1 61.5926 25.5356 29.3631 0.0002 -12.2480 -0.0007
# 2 25.5356 103.7622 49.2646 0.0002 7.2180 0.0003
# 3 29.3631 49.2646 92.2007 0.0019 -6.0532 0.0021
# 4 0.0002 0.0002 0.0019 33.5257 0.0041 -4.7445
# 5 -12.2480 7.2180 -6.0532 0.0041 22.7366 0.0000
# 6 -0.0007 0.0003 0.0021 -4.7445 0.0000 22.7041
#
#
#
# Elastic Compliance Matrix: (Units=1/GPa)
#
#
# Indices 1 2 3 4 5 6 
#
# 1 0.022469 -0.004545 -0.003906 -0.000001 0.012507 0.000001
# 2 -0.004545 0.014703 -0.006998 0.000002 -0.008979 0.000001
# 3 -0.003906 -0.006998 0.016119 -0.000002 0.004409 -0.000002
# 4 -0.000001 0.000002 -0.000002 0.030737 -0.000007 0.006423
# 5 0.012507 -0.008979 0.004409 -0.000007 0.054744 -0.000001
# 6 0.000001 0.000001 -0.000002 0.006423 -0.000001 0.045387
#
#
# Mechanical properties :
#
#
# Convention : Reuss Voigt Hill
#
# Bulk Modulus (GPa) = 44.65841 51.76469 48.21155
# Shear Modulus (GPa) = 22.46969 26.01943 24.24456
#
# Velocity S-wave (km/s) = 3.40980 3.66927 3.54191
# Velocity P-wave (km/s) = 6.21373 6.68854 6.45550
#
# Compressibility (1/GPa) = 0.02239220
#
# Stress axis : x y z
#
# Youngs Moduli (GPa) = 44.50508 68.01221 62.03997
#
# Poissons Ratio (x) = 0.30912 0.24234
# Poissons Ratio (y) = 0.20228 0.43417
# Poissons Ratio (z) = 0.17384 0.47597
#
# Static dielectric constant tensor:
#      x y z
#    x 3.447420 0.000000 -0.214600 
#    y 0.000000 3.586780 0.000010 
#    z -0.214600 0.000010 3.679740 
# 
# 
# High freq. dielectric constant tensor:
#      x y z
#    x 1.727990 0.000000 -0.011110 
#    y 0.000000 1.756860 0.000000 
#    z -0.011110 0.000000 1.756970 
# 
# From -- ./inp_files/232798.got.cif
#   From: 2010.06.25/outbox.cif.g09.slc.cpg/sg15_117_cif.got.tgz:232798.got - 2010.06.28 07:06:18.
