data_PCOD8134371
_publ_section_title
;
Structure prediction by ZEFSAII (Michael W. Deem and Ramdas Pophale) SiO2 
 PCOD8134371
Probable space group: C 2/C
;
_chemical_formula_sum "Si O2"
_cell_formula_units_Z 60
_cell_length_a 19.788037
_cell_length_b 9.671270
_cell_length_c 19.195071
_cell_angle_alpha 90.000000
_cell_angle_beta 54.469560
_cell_angle_gamma 90.000000
_cell_volume 2989.491385
_symmetry_space_group_name_H-M "C 2/C"
_symmetry_group_IT_number 15
_symmetry_cell_setting 'monoclinic'
loop_
_space_group_symop_operation_xyz
x,y,z
-x,y,1/2-z
-x,-y,-z
x,-y,1/2+z
1/2+x,1/2+y,z
1/2-x,1/2+y,1/2-z
1/2-x,1/2-y,-z
1/2+x,1/2-y,1/2+z
loop_
_atom_site_type_symbol
_atom_site_label
_atom_site_fract_x
_atom_site_fract_y
_atom_site_fract_z
Si Si1 0.762470 0.769052 0.823954
Si Si2 0.868641 0.612844 0.277136
Si Si3 0.719057 0.208689 0.918899
Si Si4 0.167197 0.785681 0.509189
Si Si5 0.908140 0.656420 0.825981
Si Si6 0.703344 0.038094 0.800769
Si Si7 0.000000 0.186322 0.750000
Si Si8 0.355591 0.409223 0.432000
O O1 0.846739 0.752278 0.817305
O O2 0.749189 0.649059 0.775242
O O3 0.767835 0.919181 0.785269
O O4 0.679822 0.757632 0.921486
O O5 0.779137 0.679187 0.346064
O O6 0.885760 0.503899 0.328839
O O7 0.869312 0.534410 0.201738
O O8 0.942383 0.723032 0.233342
O O9 0.670473 0.119269 0.889121
O O10 0.775178 0.103149 0.930370
O O11 0.650450 0.284732 0.007804
O O12 0.250000 0.750000 0.500000
O O13 0.096866 0.693456 0.588873
O O14 0.145653 0.947319 0.526509
O O15 0.000000 0.694146 0.750000
O O16 0.940606 0.097460 0.836249
#
# Coordination Sequence:
#
# PCOD8134371 Si02
#       8
#     8   8   8   8   8   8   4   8
#     4  10  22  36  63  88 121 153 199 250 293 356
#     4  10  20  38  59  89 120 158 200 248 299 358
#     4  10  19  35  62  86 115 158 204 253 288 353
#     4  10  20  36  58  89 116 151 206 252 291 344
#     4  10  20  36  62  86 118 153 195 247 301 351
#     4  11  20  37  61  91 118 159 204 247 302 353
#     4  10  22  38  60  86 128 160 190 260 306 364
#     4  10  21  36  59  90 119 157 206 249 302 353
#
# _framework density 20.070305000000001
#
# number of rings (size 3 to 8) (size 9 to 14) (size 15 to 20)
#    0.000    1.867    2.000    4.000    0.933    2.133 
#    0.000    0.667    2.933    1.600    0.000    0.000 
#    0.000    0.000    0.000    0.000    0.000    0.000 
#
# Total GULP energy -371835.589724 kJ/mol
# GULP energy per Si atom -12394.519657 kJ/mol
# Density = 2.002462 g / cm^3
# Si number density = 20.070305 Si / 1000 Ang^3
#
#
#
# Elastic Constant Matrix: (Units=GPa)
#
#
# Indices 1 2 3 4 5 6 
#
# 1 44.8229 29.0170 41.3389 0.0000 9.0609 0.0001
# 2 29.0170 88.8223 35.9113 0.0001 8.3186 0.0002
# 3 41.3389 35.9113 109.0764 0.0000 3.1640 0.0000
# 4 0.0000 0.0001 0.0000 25.4378 0.0000 7.7076
# 5 9.0609 8.3186 3.1640 0.0000 35.0569 0.0000
# 6 0.0001 0.0002 0.0000 7.7076 0.0000 28.6762
#
#
#
# Elastic Compliance Matrix: (Units=1/GPa)
#
#
# Indices 1 2 3 4 5 6 
#
# 1 0.040199 -0.007334 -0.012603 0.000000 -0.007512 0.000000
# 2 -0.007334 0.014586 -0.001982 0.000000 -0.001387 0.000000
# 3 -0.012603 -0.001982 0.014527 0.000000 0.002417 0.000000
# 4 0.000000 0.000000 0.000000 0.042797 0.000000 -0.011503
# 5 -0.007512 -0.001387 0.002417 0.000000 0.030578 0.000000
# 6 0.000000 0.000000 0.000000 -0.011503 0.000000 0.037964
#
#
# Mechanical properties :
#
#
# Convention : Reuss Voigt Hill
#
# Bulk Modulus (GPa) = 39.25559 50.58400 44.91980
# Shear Modulus (GPa) = 21.46111 26.93114 24.19612
#
# Velocity S-wave (km/s) = 3.27356 3.66709 3.47590
# Velocity P-wave (km/s) = 5.82149 6.57177 6.20797
#
# Compressibility (1/GPa) = 0.02547408
#
# Stress axis : x y z
#
# Youngs Moduli (GPa) = 24.87594 68.56076 68.83821
#
# Poissons Ratio (x) = 0.50280 0.86756
# Poissons Ratio (y) = 0.18243 0.13647
# Poissons Ratio (z) = 0.31351 0.13592
#
# Static dielectric constant tensor:
#      x y z
#    x 3.326280 0.000000 0.117380 
#    y 0.000000 3.798880 0.000000 
#    z 0.117380 0.000000 3.668910 
# 
# 
# High freq. dielectric constant tensor:
#      x y z
#    x 1.743230 0.000000 0.023520 
#    y 0.000000 1.799280 0.000000 
#    z 0.023520 0.000000 1.780290 
# 
# From -- ./inp_files/252119.got.cif
#   From: 2010.06.25/outbox.cif.g09.slc.cpg/sg15_127_cif.got.tgz:252119.got - 2010.06.28 07:06:18.
