data_PCOD8134106
_publ_section_title
;
Structure prediction by ZEFSAII (Michael W. Deem and Ramdas Pophale) SiO2 
 PCOD8134106
Probable space group: C 2/C
;
_chemical_formula_sum "Si O2"
_cell_formula_units_Z 40
_cell_length_a 20.504639
_cell_length_b 5.071569
_cell_length_c 18.478787
_cell_angle_alpha 90.000000
_cell_angle_beta 102.145513
_cell_angle_gamma 90.000000
_cell_volume 1878.609057
_symmetry_space_group_name_H-M "C 2/C"
_symmetry_group_IT_number 15
_symmetry_cell_setting 'monoclinic'
loop_
_space_group_symop_operation_xyz
x,y,z
-x,y,1/2-z
-x,-y,-z
x,-y,1/2+z
1/2+x,1/2+y,z
1/2-x,1/2+y,1/2-z
1/2-x,1/2-y,-z
1/2+x,1/2-y,1/2+z
loop_
_atom_site_type_symbol
_atom_site_label
_atom_site_fract_x
_atom_site_fract_y
_atom_site_fract_z
Si Si1 0.601032 0.496026 0.534869
Si Si2 0.804976 0.828414 0.688287
Si Si3 0.280002 0.666758 0.347169
Si Si4 0.494124 0.233455 0.088041
Si Si5 0.925547 0.212003 0.116171
O O1 0.662545 0.325164 0.578973
O O2 0.545006 0.276837 0.498358
O O3 0.571909 0.702669 0.588401
O O4 0.619202 0.667531 0.467287
O O5 0.753205 0.614114 0.648789
O O6 0.813583 0.810844 0.776390
O O7 0.876792 0.756180 0.672477
O O8 0.775861 0.108353 0.654550
O O9 0.469822 0.451824 0.140551
O O10 0.477770 0.952341 0.119231
#
# Coordination Sequence:
#
# PCOD8134106 Si02
#       5
#     8   8   8   8   8
#     4   9  21  34  59  80 111 141 184 220 282 323
#     4  10  22  38  53  79 112 145 187 223 276 326
#     4  10  22  37  56  76 110 152 179 226 278 332
#     4   9  20  34  56  82 110 139 177 228 276 324
#     4  10  19  35  56  81 112 139 179 232 267 323
#
# _framework density 21.292346999999999
#
# number of rings (size 3 to 8) (size 9 to 14) (size 15 to 20)
#    1.200    1.200    0.000    1.800    2.800    1.600 
#    0.000    1.000    0.000    2.400    0.000    0.000 
#    0.000    0.000    0.000    0.000    0.000    0.000 
#
# Total GULP energy -247803.876926 kJ/mol
# GULP energy per Si atom -12390.193846 kJ/mol
# Density = 2.124388 g / cm^3
# Si number density = 21.292347 Si / 1000 Ang^3
#
#
#
# Elastic Constant Matrix: (Units=GPa)
#
#
# Indices 1 2 3 4 5 6 
#
# 1 41.9417 4.3091 4.5363 0.0000 -29.5136 0.0000
# 2 4.3091 94.9469 15.1093 0.0000 -3.9405 0.0000
# 3 4.5363 15.1093 16.5658 0.0000 -10.1182 0.0000
# 4 0.0000 0.0000 0.0000 14.4596 0.0000 -1.1238
# 5 -29.5136 -3.9405 -10.1182 0.0000 37.2158 0.0000
# 6 0.0000 0.0000 0.0000 -1.1238 0.0000 23.3147
#
#
#
# Elastic Compliance Matrix: (Units=1/GPa)
#
#
# Indices 1 2 3 4 5 6 
#
# 1 0.057547 -0.003390 0.017974 0.000000 0.050165 0.000000
# 2 -0.003390 0.012658 -0.013719 0.000000 -0.005078 0.000000
# 3 0.017974 -0.013719 0.090864 0.000000 0.037505 0.000000
# 4 0.000000 0.000000 0.000000 0.069418 0.000000 0.003346
# 5 0.050165 -0.005078 0.037505 0.000000 0.076312 0.000000
# 6 0.000000 0.000000 0.000000 0.003346 0.000000 0.043053
#
#
# Mechanical properties :
#
#
# Convention : Reuss Voigt Hill
#
# Bulk Modulus (GPa) = 6.14253 22.37375 14.25814
# Shear Modulus (GPa) = 12.42578 23.63133 18.02855
#
# Velocity S-wave (km/s) = 2.41836 3.33506 2.91299
# Velocity P-wave (km/s) = 3.26941 5.03595 4.24558
#
# Compressibility (1/GPa) = 0.16279933
#
# Stress axis : x y z
#
# Youngs Moduli (GPa) = 17.37705 78.99879 11.00548
#
# Poissons Ratio (x) = 0.26781 -0.19781
# Poissons Ratio (y) = 0.05891 0.15098
# Poissons Ratio (z) = -0.31233 1.08376
#
# Static dielectric constant tensor:
#      x y z
#    x 3.540620 0.000000 -0.241180 
#    y 0.000000 3.822250 0.000000 
#    z -0.241180 0.000000 3.503540 
# 
# 
# High freq. dielectric constant tensor:
#      x y z
#    x 1.820500 0.000000 -0.019820 
#    y 0.000000 1.842860 0.000000 
#    z -0.019820 0.000000 1.798980 
# 
# From -- ./inp_files/246284.got.cif
#   From: 2010.06.25/outbox.cif.g09.slc.cpg/sg15_124_cif.got.tgz:246284.got - 2010.06.28 07:06:18.
