data_PCOD8134031
_publ_section_title
;
Structure prediction by ZEFSAII (Michael W. Deem and Ramdas Pophale) SiO2 
 PCOD8134031
Probable space group: C 2/C
;
_chemical_formula_sum "Si O2"
_cell_formula_units_Z 64
_cell_length_a 21.876631
_cell_length_b 10.649632
_cell_length_c 13.885128
_cell_angle_alpha 90.000000
_cell_angle_beta 102.669241
_cell_angle_gamma 90.000000
_cell_volume 3156.167614
_symmetry_space_group_name_H-M "C 2/C"
_symmetry_group_IT_number 15
_symmetry_cell_setting 'monoclinic'
loop_
_space_group_symop_operation_xyz
x,y,z
-x,y,1/2-z
-x,-y,-z
x,-y,1/2+z
1/2+x,1/2+y,z
1/2-x,1/2+y,1/2-z
1/2-x,1/2-y,-z
1/2+x,1/2-y,1/2+z
loop_
_atom_site_type_symbol
_atom_site_label
_atom_site_fract_x
_atom_site_fract_y
_atom_site_fract_z
Si Si1 0.768256 0.328305 0.372976
Si Si2 0.862874 0.316433 0.661769
Si Si3 0.578569 0.421223 0.364564
Si Si4 0.247610 0.870768 0.149669
Si Si5 0.157588 0.912991 0.563936
Si Si6 0.630847 0.791826 0.621274
Si Si7 0.439068 0.543428 0.857499
Si Si8 0.171605 0.466138 0.481999
O O1 0.700679 0.266929 0.369210
O O2 0.779869 0.364879 0.265705
O O3 0.821850 0.231726 0.427256
O O4 0.776512 0.454277 0.439780
O O5 0.920719 0.230547 0.645904
O O6 0.872639 0.357601 0.775876
O O7 0.866107 0.440169 0.599685
O O8 0.638289 0.461189 0.450022
O O9 0.585914 0.473781 0.259876
O O10 0.513820 0.465516 0.390614
O O11 0.201314 0.754343 0.124494
O O12 0.212052 0.004318 0.129964
O O13 0.296377 0.864490 0.078388
O O14 0.092600 0.925829 0.600627
O O15 0.583476 0.674201 0.601016
O O16 0.621247 0.895922 0.534189
#
# Coordination Sequence:
#
# PCOD8134031 Si02
#       8
#     8   8   8   8   8   8   8   8
#     4  11  22  35  54  84 117 150 185 234 275 354
#     4  10  19  35  53  81 111 145 191 225 281 348
#     4  10  19  38  63  84 105 153 194 237 288 332
#     4  10  22  35  52  81 119 152 182 229 284 342
#     4  11  20  38  59  87 114 151 188 232 288 340
#     4   9  21  36  51  79 114 143 189 236 281 337
#     4   9  21  39  60  85 112 141 195 250 282 327
#     4  12  19  33  54  80 109 153 186 223 282 340
#
# _framework density 20.277757999999999
#
# number of rings (size 3 to 8) (size 9 to 14) (size 15 to 20)
#    0.000    1.750    2.500    3.375    1.750    0.000 
#    4.500    0.625    0.000    0.000    0.000    0.000 
#    0.000    0.000    0.000    0.000    0.000    0.000 
#
# Total GULP energy -396611.620974 kJ/mol
# GULP energy per Si atom -12394.113155 kJ/mol
# Density = 2.023161 g / cm^3
# Si number density = 20.277758 Si / 1000 Ang^3
#
#
#
# Elastic Constant Matrix: (Units=GPa)
#
#
# Indices 1 2 3 4 5 6 
#
# 1 50.0350 6.2288 13.5604 0.0000 -8.9967 0.0000
# 2 6.2288 38.5969 14.5061 0.0000 -6.9193 0.0000
# 3 13.5604 14.5061 94.7162 0.0000 -1.0748 0.0000
# 4 0.0000 0.0000 0.0000 40.0797 0.0000 -8.8074
# 5 -8.9967 -6.9193 -1.0748 0.0000 30.1941 0.0000
# 6 0.0000 0.0000 0.0000 -8.8074 0.0000 21.2407
#
#
#
# Elastic Compliance Matrix: (Units=1/GPa)
#
#
# Indices 1 2 3 4 5 6 
#
# 1 0.022042 -0.001374 -0.002876 0.000000 0.006151 0.000000
# 2 -0.001374 0.028769 -0.004141 0.000000 0.006036 0.000000
# 3 -0.002876 -0.004141 0.011588 0.000000 -0.001393 0.000000
# 4 0.000000 0.000000 0.000000 0.027452 0.000000 0.011383
# 5 0.006151 0.006036 -0.001393 0.000000 0.036285 0.000000
# 6 0.000000 0.000000 0.000000 0.011383 0.000000 0.051799
#
#
# Mechanical properties :
#
#
# Convention : Reuss Voigt Hill
#
# Bulk Modulus (GPa) = 21.92089 27.99318 24.95704
# Shear Modulus (GPa) = 23.81837 28.23976 26.02906
#
# Velocity S-wave (km/s) = 3.43097 3.73587 3.58666
# Velocity P-wave (km/s) = 5.15065 5.69594 5.43015
#
# Compressibility (1/GPa) = 0.04561858
#
# Stress axis : x y z
#
# Youngs Moduli (GPa) = 45.36735 34.75975 86.29676
#
# Poissons Ratio (x) = 0.04775 0.24815
# Poissons Ratio (y) = 0.06233 0.35734
# Poissons Ratio (z) = 0.13046 0.14394
#
# Static dielectric constant tensor:
#      x y z
#    x 3.495040 0.000000 -0.174650 
#    y 0.000000 3.499650 0.000000 
#    z -0.174650 0.000000 4.009510 
# 
# 
# High freq. dielectric constant tensor:
#      x y z
#    x 1.757490 0.000000 -0.015810 
#    y 0.000000 1.766900 0.000000 
#    z -0.015810 0.000000 1.817310 
# 
# From -- ./inp_files/117630.got.cif
#   From: 2010.06.25/outbox.cif.g09.slc.cpg/sg15_59_cif.got.tgz:117630.got - 2010.06.28 07:06:18.
