data_PCOD8134249
_publ_section_title
;
Structure prediction by ZEFSAII (Michael W. Deem and Ramdas Pophale) SiO2 
 PCOD8134249
Probable space group: C 2/C
;
_chemical_formula_sum "Si O2"
_cell_formula_units_Z 48
_cell_length_a 11.886530
_cell_length_b 21.921127
_cell_length_c 12.906546
_cell_angle_alpha 90.000000
_cell_angle_beta 47.394059
_cell_angle_gamma 90.000000
_cell_volume 2475.264928
_symmetry_space_group_name_H-M "C 2/C"
_symmetry_group_IT_number 15
_symmetry_cell_setting 'monoclinic'
loop_
_space_group_symop_operation_xyz
x,y,z
-x,y,1/2-z
-x,-y,-z
x,-y,1/2+z
1/2+x,1/2+y,z
1/2-x,1/2+y,1/2-z
1/2-x,1/2-y,-z
1/2+x,1/2-y,1/2+z
loop_
_atom_site_type_symbol
_atom_site_label
_atom_site_fract_x
_atom_site_fract_y
_atom_site_fract_z
Si Si1 0.209320 0.017684 0.850056
Si Si2 0.124915 0.185387 0.406030
Si Si3 0.170099 0.906998 0.178383
Si Si4 0.491454 0.578080 0.376936
Si Si5 0.099309 0.771558 0.282715
Si Si6 0.337229 0.910632 0.873211
O O1 0.346546 0.973535 0.801005
O O2 0.086619 0.968712 0.886892
O O3 0.240904 0.062248 0.735760
O O4 0.173572 0.061583 0.971909
O O5 0.256037 0.229214 0.278777
O O6 0.199589 0.134716 0.432316
O O7 0.039983 0.148742 0.366292
O O8 0.003186 0.223026 0.550186
O O9 0.164808 0.835358 0.202180
O O10 0.000000 0.930849 0.250000
O O11 0.300201 0.925099 0.015180
O O12 0.500000 0.564149 0.250000
O O13 0.000000 0.742904 0.250000
O O14 0.500000 0.878355 0.750000
#
# Coordination Sequence:
#
# PCOD8134249 Si02
#       6
#     8   8   8   8   8   8
#     4  10  19  35  59  82 113 147 190 228 279 342
#     4  11  22  37  56  86 110 149 188 234 281 335
#     4  11  19  36  58  84 112 148 186 232 284 332
#     4  10  19  35  60  85 111 147 193 233 275 338
#     4  11  21  35  59  85 113 147 187 236 284 329
#     4  11  23  35  54  88 118 144 185 231 285 336
#
# _framework density 19.391864000000002
#
# number of rings (size 3 to 8) (size 9 to 14) (size 15 to 20)
#    0.000    1.333    5.000    4.500    2.333    0.667 
#    0.000    0.833    0.000    0.000    0.000    0.000 
#    0.000    0.000    0.000    0.000    0.000    0.000 
#
# Total GULP energy -297326.992000 kJ/mol
# GULP energy per Si atom -12388.624667 kJ/mol
# Density = 1.934773 g / cm^3
# Si number density = 19.391864 Si / 1000 Ang^3
#
#
#
# Elastic Constant Matrix: (Units=GPa)
#
#
# Indices 1 2 3 4 5 6 
#
# 1 31.2506 32.3364 39.2775 0.0000 1.2046 0.0001
# 2 32.3364 86.2571 37.4435 0.0000 0.7468 0.0000
# 3 39.2775 37.4435 149.3361 -0.0001 6.0800 0.0001
# 4 0.0000 0.0000 -0.0001 56.0296 0.0001 -41.4214
# 5 1.2046 0.7468 6.0800 0.0001 27.1083 -0.0002
# 6 0.0001 0.0000 0.0001 -41.4214 -0.0002 65.1268
#
#
#
# Elastic Compliance Matrix: (Units=1/GPa)
#
#
# Indices 1 2 3 4 5 6 
#
# 1 0.069735 -0.020397 -0.013245 0.000000 0.000434 0.000000
# 2 -0.020397 0.018979 0.000596 0.000000 0.000250 0.000000
# 3 -0.013245 0.000596 0.010099 0.000000 -0.001693 0.000000
# 4 0.000000 0.000000 0.000000 0.033687 0.000000 0.021425
# 5 0.000434 0.000250 -0.001693 0.000000 0.037243 0.000000
# 6 0.000000 0.000000 0.000000 0.021425 0.000000 0.028981
#
#
# Mechanical properties :
#
#
# Convention : Reuss Voigt Hill
#
# Bulk Modulus (GPa) = 30.56073 53.88427 42.22250
# Shear Modulus (GPa) = 18.13416 40.17205 29.15310
#
# Velocity S-wave (km/s) = 3.06133 4.55641 3.88154
# Velocity P-wave (km/s) = 5.31878 7.45175 6.47372
#
# Compressibility (1/GPa) = 0.03272174
#
# Stress axis : x y z
#
# Youngs Moduli (GPa) = 14.34003 52.69023 99.01583
#
# Poissons Ratio (x) = 1.07471 1.31144
# Poissons Ratio (y) = 0.29249 -0.05900
# Poissons Ratio (z) = 0.18993 -0.03139
#
# Static dielectric constant tensor:
#      x y z
#    x 3.396680 0.000000 0.062220 
#    y 0.000000 3.671430 0.000000 
#    z 0.062220 0.000000 3.448550 
# 
# 
# High freq. dielectric constant tensor:
#      x y z
#    x 1.710870 0.000000 0.007950 
#    y 0.000000 1.760200 0.000000 
#    z 0.007950 0.000000 1.754920 
# 
# From -- ./inp_files/50403.got.cif
#   From: 2010.06.25/outbox.cif.g09.slc.cpg/sg15_26_cif.got.tgz:50403.got - 2010.06.28 07:06:18.
