data_PCOD8134544
_publ_section_title
;
Structure prediction by ZEFSAII (Michael W. Deem and Ramdas Pophale) SiO2 
 PCOD8134544
Probable space group: C 2/C
;
_chemical_formula_sum "Si O2"
_cell_formula_units_Z 64
_cell_length_a 5.163447
_cell_length_b 24.316657
_cell_length_c 26.061407
_cell_angle_alpha 90.000000
_cell_angle_beta 85.801504
_cell_angle_gamma 90.000000
_cell_volume 3263.430826
_symmetry_space_group_name_H-M "C 2/C"
_symmetry_group_IT_number 15
_symmetry_cell_setting 'monoclinic'
loop_
_space_group_symop_operation_xyz
x,y,z
-x,y,1/2-z
-x,-y,-z
x,-y,1/2+z
1/2+x,1/2+y,z
1/2-x,1/2+y,1/2-z
1/2-x,1/2-y,-z
1/2+x,1/2-y,1/2+z
loop_
_atom_site_type_symbol
_atom_site_label
_atom_site_fract_x
_atom_site_fract_y
_atom_site_fract_z
Si Si1 0.636718 0.482562 0.896993
Si Si2 0.184009 0.677826 0.384442
Si Si3 0.245116 0.847542 0.040835
Si Si4 0.736602 0.547908 0.277254
Si Si5 0.596862 0.972490 0.445248
Si Si6 0.824563 0.134110 0.070926
Si Si7 0.246715 0.669866 0.267513
Si Si8 0.760247 0.281922 0.445413
O O1 0.686925 0.465734 0.837439
O O2 0.337399 0.496326 0.914194
O O3 0.713550 0.431000 0.931645
O O4 0.845823 0.528760 0.911028
O O5 0.373981 0.644350 0.419683
O O6 0.265712 0.659975 0.327041
O O7 0.220062 0.741493 0.397820
O O8 0.882528 0.660915 0.387863
O O9 0.299437 0.910956 0.050808
O O10 0.458162 0.809409 0.064984
O O11 0.954787 0.829248 0.060101
O O12 0.259181 0.836923 0.980197
O O13 0.500000 0.520191 0.250000
O O14 0.743416 0.613409 0.266378
O O15 0.000000 0.521507 0.250000
O O16 0.500000 0.000000 0.500000
O O17 0.500000 0.705495 0.250000
O O18 0.000000 0.703709 0.250000
O O19 0.750000 0.250000 0.500000
#
# Coordination Sequence:
#
# PCOD8134544 Si02
#       8
#     8   8   8   8   8   8   8   8
#     4  12  24  38  63  91 125 176 204 252 327 386
#     4  12  23  36  61  91 126 168 196 248 321 384
#     4  12  24  40  58  84 126 169 205 271 283 357
#     4  10  19  36  57  87 125 150 195 255 315 382
#     4  12  26  42  59  89 128 174 223 255 307 381
#     4  12  21  34  59  88 123 164 209 240 308 358
#     4  10  20  36  54  84 125 150 189 246 309 377
#     4  12  23  40  59  90 123 166 216 251 306 372
#
# _framework density 19.611263000000001
#
# number of rings (size 3 to 8) (size 9 to 14) (size 15 to 20)
#    0.000    0.500    3.750    7.500    1.750    0.000 
#    0.000    0.000    0.000    0.000    0.000   17.500 
#    0.000    0.000    0.000    0.000    0.000    0.000 
#
# Total GULP energy -396462.648133 kJ/mol
# GULP energy per Si atom -12389.457754 kJ/mol
# Density = 1.956663 g / cm^3
# Si number density = 19.611263 Si / 1000 Ang^3
#
#
#
# Elastic Constant Matrix: (Units=GPa)
#
#
# Indices 1 2 3 4 5 6 
#
# 1 157.9237 26.8497 40.1717 0.0000 0.7924 0.0000
# 2 26.8497 76.8698 27.2867 0.0000 4.0142 0.0000
# 3 40.1717 27.2867 89.7780 0.0000 -7.0412 0.0000
# 4 0.0000 0.0000 0.0000 20.9350 0.0000 3.5987
# 5 0.7924 4.0142 -7.0412 0.0000 34.6341 0.0000
# 6 0.0000 0.0000 0.0000 3.5987 0.0000 31.8076
#
#
#
# Elastic Compliance Matrix: (Units=1/GPa)
#
#
# Indices 1 2 3 4 5 6 
#
# 1 0.007320 -0.001511 -0.002861 0.000000 -0.000574 0.000000
# 2 -0.001511 0.015134 -0.004124 0.000000 -0.002558 0.000000
# 3 -0.002861 -0.004124 0.013937 0.000000 0.003377 0.000000
# 4 0.000000 0.000000 0.000000 0.048714 0.000000 -0.005511
# 5 -0.000574 -0.002558 0.003377 0.000000 0.029869 0.000000
# 6 0.000000 0.000000 0.000000 -0.005511 0.000000 0.032063
#
#
# Mechanical properties :
#
#
# Convention : Reuss Voigt Hill
#
# Bulk Modulus (GPa) = 51.55074 57.02086 54.28580
# Shear Modulus (GPa) = 29.32609 32.82623 31.07616
#
# Velocity S-wave (km/s) = 3.87120 4.09570 3.98503
# Velocity P-wave (km/s) = 6.80624 7.17670 6.99393
#
# Compressibility (1/GPa) = 0.01939836
#
# Stress axis : x y z
#
# Youngs Moduli (GPa) = 136.61699 66.07448 71.75077
#
# Poissons Ratio (x) = 0.09985 0.20528
# Poissons Ratio (y) = 0.20645 0.29592
# Poissons Ratio (z) = 0.39086 0.27251
#
# Static dielectric constant tensor:
#      x y z
#    x 4.935960 0.000000 0.065730 
#    y 0.000000 3.396990 0.000000 
#    z 0.065730 0.000000 3.474510 
# 
# 
# High freq. dielectric constant tensor:
#      x y z
#    x 1.804140 0.000000 0.003890 
#    y 0.000000 1.724320 0.000000 
#    z 0.003890 0.000000 1.750340 
# 
# From -- ./inp_files/286614.got.cif
#   From: 2010.06.25/outbox.cif.g09.slc.cpg/sg15_144_cif.got.tgz:286614.got - 2010.06.28 07:06:18.
