data_PCOD8134310
_publ_section_title
;
Structure prediction by ZEFSAII (Michael W. Deem and Ramdas Pophale) SiO2 
 PCOD8134310
Probable space group: C 2/C
;
_chemical_formula_sum "Si O2"
_cell_formula_units_Z 52
_cell_length_a 20.446323
_cell_length_b 15.881270
_cell_length_c 7.608026
_cell_angle_alpha 90.000000
_cell_angle_beta 60.100209
_cell_angle_gamma 90.000000
_cell_volume 2141.611646
_symmetry_space_group_name_H-M "C 2/C"
_symmetry_group_IT_number 15
_symmetry_cell_setting 'monoclinic'
loop_
_space_group_symop_operation_xyz
x,y,z
-x,y,1/2-z
-x,-y,-z
x,-y,1/2+z
1/2+x,1/2+y,z
1/2-x,1/2+y,1/2-z
1/2-x,1/2-y,-z
1/2+x,1/2-y,1/2+z
loop_
_atom_site_type_symbol
_atom_site_label
_atom_site_fract_x
_atom_site_fract_y
_atom_site_fract_z
Si Si1 0.732270 0.671255 0.779579
Si Si2 0.906263 0.741422 0.178249
Si Si3 0.573841 0.255108 0.939751
Si Si4 0.806555 0.416380 0.848675
Si Si5 0.396881 0.074688 0.639429
Si Si6 0.500000 0.002450 0.250000
Si Si7 0.207029 0.149610 0.203912
O O1 0.646754 0.683287 0.824469
O O2 0.780869 0.609837 0.582934
O O3 0.766182 0.764202 0.738185
O O4 0.736315 0.630122 0.968584
O O5 0.922752 0.758697 0.357179
O O6 0.868983 0.649718 0.191691
O O7 0.988985 0.747874 0.976597
O O8 0.623941 0.172947 0.807188
O O9 0.615851 0.338945 0.811054
O O10 0.834333 0.512604 0.802195
O O11 0.735851 0.419262 0.805166
O O12 0.477511 0.059725 0.624008
O O13 0.424494 0.058432 0.399021
#
# Coordination Sequence:
#
# PCOD8134310 Si02
#       7
#     8   8   8   8   8   4   8
#     4  10  20  37  60  83 109 169 210 266 312 360
#     4  10  19  35  60  82 121 164 207 257 310 367
#     4  11  20  35  59  91 123 168 213 258 313 380
#     4  11  20  40  56  80 121 174 207 259 313 368
#     4  11  23  36  57  82 129 175 212 255 313 379
#     4  10  22  40  50  86 124 178 218 242 304 390
#     4  10  21  36  60  83 112 160 220 264 305 367
#
# _framework density 24.280777
#
# number of rings (size 3 to 8) (size 9 to 14) (size 15 to 20)
#    0.000    1.538    3.077    4.615    0.000    5.538 
#    2.769    0.000    0.000    0.000    0.000    0.000 
#    0.000    4.923   29.231    8.154    2.154    0.000 
#
# Total GULP energy -322139.648957 kJ/mol
# GULP energy per Si atom -12389.986498 kJ/mol
# Density = 2.422551 g / cm^3
# Si number density = 24.280777 Si / 1000 Ang^3
#
#
#
# Elastic Constant Matrix: (Units=GPa)
#
#
# Indices 1 2 3 4 5 6 
#
# 1 105.2080 43.1932 45.7550 0.0000 -25.5162 0.0000
# 2 43.1932 57.3433 37.8873 0.0000 -14.7519 0.0000
# 3 45.7550 37.8873 110.9461 0.0000 -10.9284 0.0000
# 4 0.0000 0.0000 0.0000 26.1544 0.0000 -12.1798
# 5 -25.5162 -14.7519 -10.9284 0.0000 35.1165 0.0000
# 6 0.0000 0.0000 0.0000 -12.1798 0.0000 21.9469
#
#
#
# Elastic Compliance Matrix: (Units=1/GPa)
#
#
# Indices 1 2 3 4 5 6 
#
# 1 0.015921 -0.008096 -0.003091 0.000000 0.007205 0.000000
# 2 -0.008096 0.028604 -0.006009 0.000000 0.004263 0.000000
# 3 -0.003091 -0.006009 0.012246 0.000000 -0.000960 0.000000
# 4 0.000000 0.000000 0.000000 0.051560 0.000000 0.028614
# 5 0.007205 0.004263 -0.000960 0.000000 0.035204 0.000000
# 6 0.000000 0.000000 0.000000 0.028614 0.000000 0.061444
#
#
# Mechanical properties :
#
#
# Convention : Reuss Voigt Hill
#
# Bulk Modulus (GPa) = 44.68783 58.57427 51.63105
# Shear Modulus (GPa) = 20.25672 26.42102 23.33887
#
# Velocity S-wave (km/s) = 2.89151 3.30228 3.10370
# Velocity P-wave (km/s) = 5.43988 6.22223 5.84416
#
# Compressibility (1/GPa) = 0.02237746
#
# Stress axis : x y z
#
# Youngs Moduli (GPa) = 62.81120 34.95975 81.65995
#
# Poissons Ratio (x) = 0.28304 0.25244
# Poissons Ratio (y) = 0.50852 0.49072
# Poissons Ratio (z) = 0.19417 0.21009
#
# Static dielectric constant tensor:
#      x y z
#    x 5.246120 0.000000 -0.198730 
#    y 0.000000 3.905080 0.000000 
#    z -0.198730 0.000000 4.523370 
# 
# 
# High freq. dielectric constant tensor:
#      x y z
#    x 1.997140 0.000000 0.007140 
#    y 0.000000 1.904840 0.000000 
#    z 0.007140 0.000000 1.963460 
# 
# From -- ./inp_files/61426.got.cif
#   From: 2010.06.25/outbox.cif.g09.slc.cpg/sg15_31_cif.got.tgz:61426.got - 2010.06.28 07:06:18.
