data_PCOD8134455
_publ_section_title
;
Structure prediction by ZEFSAII (Michael W. Deem and Ramdas Pophale) SiO2 
 PCOD8134455
Probable space group: C 2/C
;
_chemical_formula_sum "Si O2"
_cell_formula_units_Z 52
_cell_length_a 11.582435
_cell_length_b 26.087494
_cell_length_c 9.078774
_cell_angle_alpha 90.000000
_cell_angle_beta 111.741772
_cell_angle_gamma 90.000000
_cell_volume 2548.067857
_symmetry_space_group_name_H-M "C 2/C"
_symmetry_group_IT_number 15
_symmetry_cell_setting 'monoclinic'
loop_
_space_group_symop_operation_xyz
x,y,z
-x,y,1/2-z
-x,-y,-z
x,-y,1/2+z
1/2+x,1/2+y,z
1/2-x,1/2+y,1/2-z
1/2-x,1/2-y,-z
1/2+x,1/2-y,1/2+z
loop_
_atom_site_type_symbol
_atom_site_label
_atom_site_fract_x
_atom_site_fract_y
_atom_site_fract_z
Si Si1 0.308175 0.833715 0.631560
Si Si2 0.000000 0.376888 0.250000
Si Si3 0.283280 0.047696 0.747120
Si Si4 0.032895 0.305792 0.533681
Si Si5 0.537810 0.698521 0.936267
Si Si6 0.239591 0.947600 0.570326
Si Si7 0.021567 0.912163 0.087111
O O1 0.412377 0.827163 0.558336
O O2 0.345967 0.809885 0.805960
O O3 0.186626 0.805583 0.513129
O O4 0.292279 0.893993 0.649938
O O5 0.890727 0.412764 0.258278
O O6 0.055846 0.339641 0.400300
O O7 0.154419 0.064717 0.608903
O O8 0.310190 0.991216 0.696510
O O9 0.269387 0.043499 0.914170
O O10 0.010987 0.245625 0.486585
O O11 0.500000 0.710263 0.750000
O O12 0.480476 0.646130 0.975010
O O13 0.090073 0.947133 0.530549
O O14 0.000000 0.906710 0.250000
#
# Coordination Sequence:
#
# PCOD8134455 Si02
#       7
#     8   4   8   8   8   8   8
#     4  10  21  40  64  92 119 155 218 256 293 367
#     4  12  28  40  56  88 136 168 200 248 314 372
#     4  11  23  40  60  88 121 163 203 253 309 369
#     4  11  23  39  61  89 126 166 202 255 301 365
#     4  10  19  35  70  95 114 158 210 253 300 362
#     4  10  21  39  65  88 117 154 207 259 308 358
#     4   8  18  37  63  91 116 150 203 260 305 355
#
# _framework density 20.407620999999999
#
# number of rings (size 3 to 8) (size 9 to 14) (size 15 to 20)
#    0.000    1.846    3.077    1.846    2.154    1.846 
#    0.000    3.077    0.000    0.000    0.000    0.000 
#    0.000    0.000    0.000    0.000    0.000    0.000 
#
# Total GULP energy -322377.590882 kJ/mol
# GULP energy per Si atom -12399.138111 kJ/mol
# Density = 2.036117 g / cm^3
# Si number density = 20.407621 Si / 1000 Ang^3
#
#
#
# Elastic Constant Matrix: (Units=GPa)
#
#
# Indices 1 2 3 4 5 6 
#
# 1 65.4347 29.0496 33.4138 0.0000 10.0285 0.0000
# 2 29.0496 133.0067 39.0032 0.0000 0.9475 0.0000
# 3 33.4138 39.0032 76.4104 0.0000 13.5069 0.0000
# 4 0.0000 0.0000 0.0000 17.3051 0.0000 9.8578
# 5 10.0285 0.9475 13.5069 0.0000 26.5412 0.0000
# 6 0.0000 0.0000 0.0000 9.8578 0.0000 15.6258
#
#
#
# Elastic Compliance Matrix: (Units=1/GPa)
#
#
# Indices 1 2 3 4 5 6 
#
# 1 0.020575 -0.002398 -0.007048 0.000000 -0.004102 0.000000
# 2 -0.002398 0.009237 -0.004141 0.000000 0.002684 0.000000
# 3 -0.007048 -0.004141 0.019544 0.000000 -0.007135 0.000000
# 4 0.000000 0.000000 0.000000 0.090203 0.000000 -0.056906
# 5 -0.004102 0.002684 -0.007135 0.000000 0.042762 0.000000
# 6 0.000000 0.000000 0.000000 -0.056906 0.000000 0.099897
#
#
# Mechanical properties :
#
#
# Convention : Reuss Voigt Hill
#
# Bulk Modulus (GPa) = 45.08058 53.08724 49.08391
# Shear Modulus (GPa) = 15.78352 23.45343 19.61848
#
# Velocity S-wave (km/s) = 2.78405 3.39374 3.10390
# Velocity P-wave (km/s) = 5.69847 6.43634 6.07861
#
# Compressibility (1/GPa) = 0.02218250
#
# Stress axis : x y z
#
# Youngs Moduli (GPa) = 48.60371 108.25711 51.16539
#
# Poissons Ratio (x) = 0.25955 0.36063
# Poissons Ratio (y) = 0.11653 0.21188
# Poissons Ratio (z) = 0.34257 0.44830
#
# Static dielectric constant tensor:
#      x y z
#    x 3.614440 0.000000 0.294300 
#    y 0.000000 3.917240 0.000000 
#    z 0.294300 0.000000 3.559370 
# 
# 
# High freq. dielectric constant tensor:
#      x y z
#    x 1.782780 0.000000 0.025030 
#    y 0.000000 1.820010 0.000000 
#    z 0.025030 0.000000 1.779950 
# 
# From -- ./inp_files/33738.got.cif
#   From: 2010.06.25/outbox.cif.g09.slc.cpg/sg15_17_cif.got.tgz:33738.got - 2010.06.28 07:06:18.
