data_PCOD8134657
_publ_section_title
;
Structure prediction by ZEFSAII (Michael W. Deem and Ramdas Pophale) SiO2 
 PCOD8134657
Probable space group: C 2/C
;
_chemical_formula_sum "Si O2"
_cell_formula_units_Z 60
_cell_length_a 21.860679
_cell_length_b 16.796826
_cell_length_c 13.323133
_cell_angle_alpha 90.000000
_cell_angle_beta 36.579385
_cell_angle_gamma 90.000000
_cell_volume 2915.391230
_symmetry_space_group_name_H-M "C 2/C"
_symmetry_group_IT_number 15
_symmetry_cell_setting 'monoclinic'
loop_
_space_group_symop_operation_xyz
x,y,z
-x,y,1/2-z
-x,-y,-z
x,-y,1/2+z
1/2+x,1/2+y,z
1/2-x,1/2+y,1/2-z
1/2-x,1/2-y,-z
1/2+x,1/2-y,1/2+z
loop_
_atom_site_type_symbol
_atom_site_label
_atom_site_fract_x
_atom_site_fract_y
_atom_site_fract_z
Si Si1 0.073037 0.211820 0.410457
Si Si2 0.741408 0.127793 0.406469
Si Si3 0.353007 0.123548 0.606186
Si Si4 0.493618 0.565705 0.876649
Si Si5 0.831029 0.026486 0.709710
Si Si6 0.906828 0.568688 0.741369
Si Si7 0.500000 0.062967 0.250000
Si Si8 0.447599 0.209424 0.917147
O O1 0.145774 0.166186 0.234494
O O2 0.135791 0.286691 0.369983
O O3 0.041899 0.153004 0.540572
O O4 0.970810 0.237249 0.484489
O O5 0.693630 0.112066 0.578926
O O6 0.673039 0.192542 0.435635
O O7 0.749432 0.044183 0.336558
O O8 0.234269 0.103964 0.737022
O O9 0.387942 0.060816 0.647043
O O10 0.423830 0.117145 0.414855
O O11 0.500000 0.566403 0.750000
O O12 0.605761 0.545689 0.772558
O O13 0.412003 0.498097 0.016757
O O14 0.928281 0.485429 0.767060
O O15 0.006010 0.621574 0.631064
O O16 0.500000 0.249833 0.750000
#
# Coordination Sequence:
#
# PCOD8134657 Si02
#       8
#     8   8   8   8   8   8   4   8
#     4  10  24  40  59  98 129 169 210 257 327 389
#     4  10  19  39  64  85 132 158 215 263 309 377
#     4  11  24  36  65  94 124 163 214 267 320 386
#     4  10  24  45  67  87 134 169 208 266 315 382
#     4  10  22  43  65  96 115 168 224 257 311 384
#     4  10  19  36  59  91 122 163 210 266 323 364
#     4  12  20  38  58  90 132 158 214 262 322 384
#     4   9  18  35  59  88 126 165 198 265 320 362
#
# _framework density 20.580428999999999
#
# number of rings (size 3 to 8) (size 9 to 14) (size 15 to 20)
#    0.000    1.867    3.333    0.400    4.667    5.867 
#    0.000    4.667    0.000    0.000    0.000    0.000 
#    0.000    0.000    0.000    0.000    0.000    0.000 
#
# Total GULP energy -371946.045942 kJ/mol
# GULP energy per Si atom -12398.201531 kJ/mol
# Density = 2.053359 g / cm^3
# Si number density = 20.580429 Si / 1000 Ang^3
#
#
#
# Elastic Constant Matrix: (Units=GPa)
#
#
# Indices 1 2 3 4 5 6 
#
# 1 106.8149 30.1127 48.6668 0.0000 7.3247 0.0000
# 2 30.1127 70.7965 22.8208 0.0000 1.2587 0.0000
# 3 48.6668 22.8208 87.2408 0.0000 5.4843 0.0000
# 4 0.0000 0.0000 0.0000 22.3518 0.0000 -0.7088
# 5 7.3247 1.2587 5.4843 0.0000 31.8892 0.0000
# 6 0.0000 0.0000 0.0000 -0.7088 0.0000 28.6804
#
#
#
# Elastic Compliance Matrix: (Units=1/GPa)
#
#
# Indices 1 2 3 4 5 6 
#
# 1 0.013438 -0.003608 -0.006437 0.000000 -0.001837 0.000000
# 2 -0.003608 0.016395 -0.002312 0.000000 0.000579 0.000000
# 3 -0.006437 -0.002312 0.015730 0.000000 -0.001135 0.000000
# 4 0.000000 0.000000 0.000000 0.044774 0.000000 0.001106
# 5 -0.001837 0.000579 -0.001135 0.000000 0.031953 0.000000
# 6 0.000000 0.000000 0.000000 0.001106 0.000000 0.034894
#
#
# Mechanical properties :
#
#
# Convention : Reuss Voigt Hill
#
# Bulk Modulus (GPa) = 47.96724 52.00587 49.98656
# Shear Modulus (GPa) = 26.47640 27.46777 26.97209
#
# Velocity S-wave (km/s) = 3.59065 3.65726 3.62411
# Velocity P-wave (km/s) = 6.36774 6.56951 6.46941
#
# Compressibility (1/GPa) = 0.02084756
#
# Stress axis : x y z
#
# Youngs Moduli (GPa) = 74.41609 60.99531 63.57456
#
# Poissons Ratio (x) = 0.22008 0.40923
# Poissons Ratio (y) = 0.26850 0.14700
# Poissons Ratio (z) = 0.47901 0.14103
#
# Static dielectric constant tensor:
#      x y z
#    x 3.707620 0.000000 -0.007360 
#    y 0.000000 3.596520 0.000000 
#    z -0.007360 0.000000 3.688950 
# 
# 
# High freq. dielectric constant tensor:
#      x y z
#    x 1.797820 0.000000 -0.006460 
#    y 0.000000 1.793650 0.000000 
#    z -0.006460 0.000000 1.804180 
# 
# From -- ./inp_files/113803.got.cif
#   From: 2010.06.25/outbox.cif.g09.slc.cpg/sg15_57_cif.got.tgz:113803.got - 2010.06.28 07:06:18.
