data_PCOD8134541
_publ_section_title
;
Structure prediction by ZEFSAII (Michael W. Deem and Ramdas Pophale) SiO2 
 PCOD8134541
Probable space group: C 2/C
;
_chemical_formula_sum "Si O2"
_cell_formula_units_Z 64
_cell_length_a 13.056924
_cell_length_b 19.161035
_cell_length_c 20.143152
_cell_angle_alpha 90.000000
_cell_angle_beta 41.912888
_cell_angle_gamma 90.000000
_cell_volume 3366.384422
_symmetry_space_group_name_H-M "C 2/C"
_symmetry_group_IT_number 15
_symmetry_cell_setting 'monoclinic'
loop_
_space_group_symop_operation_xyz
x,y,z
-x,y,1/2-z
-x,-y,-z
x,-y,1/2+z
1/2+x,1/2+y,z
1/2-x,1/2+y,1/2-z
1/2-x,1/2-y,-z
1/2+x,1/2-y,1/2+z
loop_
_atom_site_type_symbol
_atom_site_label
_atom_site_fract_x
_atom_site_fract_y
_atom_site_fract_z
Si Si1 0.570244 0.938282 0.511052
Si Si2 0.037741 0.683898 0.520932
Si Si3 0.595520 0.490217 0.142366
Si Si4 0.944820 0.476135 0.708608
Si Si5 0.428153 0.334248 0.970913
Si Si6 0.913847 0.975314 0.606223
Si Si7 0.912874 0.627677 0.855988
Si Si8 0.865535 0.153285 0.358961
O O1 0.572197 0.865902 0.468885
O O2 0.500000 0.000000 0.500000
O O3 0.746937 0.949671 0.443434
O O4 0.476808 0.932205 0.625854
O O5 0.001202 0.766097 0.526594
O O6 0.038860 0.664443 0.598507
O O7 0.203289 0.673724 0.406859
O O8 0.500000 0.459195 0.250000
O O9 0.491219 0.481508 0.128180
O O10 0.634190 0.570544 0.134721
O O11 0.765208 0.492427 0.803472
O O12 0.000000 0.436824 0.750000
O O13 0.044332 0.546689 0.655564
O O14 0.561106 0.392013 0.901784
O O15 0.385219 0.307211 0.918595
O O16 0.267853 0.365643 0.076071
O O17 0.000000 0.000000 0.500000
O O18 0.000000 0.659982 0.750000
O O19 0.000000 0.183347 0.250000
#
# Coordination Sequence:
#
# PCOD8134541 Si02
#       8
#     8   8   8   8   8   8   8   8
#     4  12  20  36  58  86 123 159 203 248 288 357
#     4  11  22  33  55  84 126 162 193 241 302 365
#     4  10  20  34  57  88 119 155 197 245 293 346
#     4  11  22  37  63  91 115 154 203 254 308 347
#     4  10  22  36  51  87 122 156 195 241 305 366
#     4  11  22  39  62  85 115 154 203 254 299 355
#     4  10  19  36  57  86 122 158 196 245 303 360
#     4   9  17  31  55  82 118 155 191 236 298 359
#
# _framework density 19.011496000000001
#
# number of rings (size 3 to 8) (size 9 to 14) (size 15 to 20)
#    0.000    1.500    2.500    6.000    3.500    2.000 
#    0.000    0.000    0.000    3.750    0.000    0.000 
#    0.000    0.000    0.000    0.000    0.000    0.000 
#
# Total GULP energy -396561.247180 kJ/mol
# GULP energy per Si atom -12392.538974 kJ/mol
# Density = 1.896822 g / cm^3
# Si number density = 19.011496 Si / 1000 Ang^3
#
#
#
# Elastic Constant Matrix: (Units=GPa)
#
#
# Indices 1 2 3 4 5 6 
#
# 1 103.9988 28.7636 46.0828 -0.0005 4.0332 0.0002
# 2 28.7636 74.9295 17.7768 -0.0008 -3.6184 0.0005
# 3 46.0828 17.7768 131.7787 -0.0003 10.4628 0.0008
# 4 -0.0005 -0.0008 -0.0003 10.3780 0.0009 -1.9172
# 5 4.0332 -3.6184 10.4628 0.0009 35.6461 -0.0004
# 6 0.0002 0.0005 0.0008 -1.9172 -0.0004 22.1734
#
#
#
# Elastic Compliance Matrix: (Units=1/GPa)
#
#
# Indices 1 2 3 4 5 6 
#
# 1 0.012381 -0.003897 -0.003749 0.000000 -0.000696 0.000000
# 2 -0.003897 0.015153 -0.000858 0.000001 0.002231 0.000000
# 3 -0.003749 -0.000858 0.009203 0.000000 -0.002364 0.000000
# 4 0.000000 0.000001 0.000000 0.097922 -0.000002 0.008467
# 5 -0.000696 0.002231 -0.002364 -0.000002 0.029053 0.000000
# 6 0.000000 0.000000 0.000000 0.008467 0.000000 0.045831
#
#
# Mechanical properties :
#
#
# Convention : Reuss Voigt Hill
#
# Bulk Modulus (GPa) = 50.68715 55.10595 52.89655
# Shear Modulus (GPa) = 21.44738 28.17842 24.81290
#
# Velocity S-wave (km/s) = 3.36240 3.85408 3.61661
# Velocity P-wave (km/s) = 6.46479 6.98955 6.73229
#
# Compressibility (1/GPa) = 0.01972887
#
# Stress axis : x y z
#
# Youngs Moduli (GPa) = 80.76571 65.99213 108.66090
#
# Poissons Ratio (x) = 0.25718 0.40735
# Poissons Ratio (y) = 0.31476 0.09328
# Poissons Ratio (z) = 0.30277 0.05665
#
# Static dielectric constant tensor:
#      x y z
#    x 3.600470 0.000000 0.140330 
#    y 0.000000 3.314530 0.000000 
#    z 0.140330 0.000000 3.908510 
# 
# 
# High freq. dielectric constant tensor:
#      x y z
#    x 1.722600 0.000000 0.008130 
#    y 0.000000 1.709240 0.000000 
#    z 0.008130 0.000000 1.758240 
# 
# From -- ./inp_files/240408.got.cif
#   From: 2010.06.25/outbox.cif.g09.slc.cpg/sg15_121_cif.got.tgz:240408.got - 2010.06.28 07:06:18.
