data_PCOD8134497
_publ_section_title
;
Structure prediction by ZEFSAII (Michael W. Deem and Ramdas Pophale) SiO2 
 PCOD8134497
Probable space group: C 2/C
;
_chemical_formula_sum "Si O2"
_cell_formula_units_Z 56
_cell_length_a 11.150725
_cell_length_b 28.464380
_cell_length_c 8.803487
_cell_angle_alpha 90.000000
_cell_angle_beta 102.024659
_cell_angle_gamma 90.000000
_cell_volume 2732.902789
_symmetry_space_group_name_H-M "C 2/C"
_symmetry_group_IT_number 15
_symmetry_cell_setting 'monoclinic'
loop_
_space_group_symop_operation_xyz
x,y,z
-x,y,1/2-z
-x,-y,-z
x,-y,1/2+z
1/2+x,1/2+y,z
1/2-x,1/2+y,1/2-z
1/2-x,1/2-y,-z
1/2+x,1/2-y,1/2+z
loop_
_atom_site_type_symbol
_atom_site_label
_atom_site_fract_x
_atom_site_fract_y
_atom_site_fract_z
Si Si1 0.718392 0.309887 0.342207
Si Si2 0.923701 0.104187 0.546990
Si Si3 0.791692 0.881251 0.392641
Si Si4 0.366049 0.793501 0.663700
Si Si5 0.738087 0.622472 0.260940
Si Si6 0.256879 0.041385 0.833998
Si Si7 0.365042 0.037266 0.177323
O O1 0.631736 0.348758 0.394748
O O2 0.746807 0.329608 0.180249
O O3 0.648179 0.261187 0.303133
O O4 0.840868 0.302680 0.477089
O O5 0.885911 0.105881 0.358710
O O6 0.869743 0.056912 0.613840
O O7 0.068132 0.104596 0.607737
O O8 0.772815 0.884893 0.564478
O O9 0.707086 0.918341 0.279018
O O10 0.500000 0.809969 0.750000
O O11 0.267338 0.823062 0.734626
O O12 0.850111 0.590986 0.227930
O O13 0.259148 0.993217 0.736835
O O14 0.356242 0.035565 0.993015
O O15 0.500000 0.018049 0.250000
#
# Coordination Sequence:
#
# PCOD8134497 Si02
#       7
#     8   8   8   8   8   8   8
#     4   9  19  34  58  82 107 145 188 220 272 331
#     4   9  19  38  58  80 109 145 177 223 276 325
#     4  11  20  37  56  81 114 142 176 228 273 320
#     4  10  19  36  56  80 111 148 185 227 268 319
#     4  10  22  35  55  83 111 142 185 220 268 329
#     4  10  21  36  58  81 102 137 187 217 263 330
#     4  11  22  40  57  77 109 145 178 224 274 323
#
# _framework density 20.491032000000001
#
# number of rings (size 3 to 8) (size 9 to 14) (size 15 to 20)
#    0.000    2.000    0.000    5.571    0.000    0.571 
#    0.000   15.000    0.000    0.000    0.000    0.000 
#    0.000    0.000    0.000    0.000    0.000    0.000 
#
# Total GULP energy -346956.611971 kJ/mol
# GULP energy per Si atom -12391.307570 kJ/mol
# Density = 2.044439 g / cm^3
# Si number density = 20.491032 Si / 1000 Ang^3
#
#
#
# Elastic Constant Matrix: (Units=GPa)
#
#
# Indices 1 2 3 4 5 6 
#
# 1 44.5382 23.7115 26.7529 0.0000 18.7322 0.0000
# 2 23.7115 96.6782 45.7219 0.0000 1.1455 0.0000
# 3 26.7529 45.7219 172.2591 0.0000 8.6701 0.0000
# 4 0.0000 0.0000 0.0000 32.8116 0.0000 0.1948
# 5 18.7322 1.1455 8.6701 0.0000 27.3267 0.0000
# 6 0.0000 0.0000 0.0000 0.1948 0.0000 14.6008
#
#
#
# Elastic Compliance Matrix: (Units=1/GPa)
#
#
# Indices 1 2 3 4 5 6 
#
# 1 0.039098 -0.008032 -0.002651 0.000000 -0.025624 0.000000
# 2 -0.008032 0.013485 -0.002622 0.000000 0.005773 0.000000
# 3 -0.002651 -0.002622 0.006927 0.000000 -0.000271 0.000000
# 4 0.000000 0.000000 0.000000 0.030479 0.000000 -0.000407
# 5 -0.025624 0.005773 -0.000271 0.000000 0.054003 0.000000
# 6 0.000000 0.000000 0.000000 -0.000407 0.000000 0.068495
#
#
# Mechanical properties :
#
#
# Convention : Reuss Voigt Hill
#
# Bulk Modulus (GPa) = 30.39549 56.20535 43.30042
# Shear Modulus (GPa) = 19.99488 29.43375 24.71432
#
# Velocity S-wave (km/s) = 3.12715 3.79413 3.47667
# Velocity P-wave (km/s) = 5.28247 6.83247 6.10685
#
# Compressibility (1/GPa) = 0.03289962
#
# Stress axis : x y z
#
# Youngs Moduli (GPa) = 25.57680 74.15421 144.37191
#
# Poissons Ratio (x) = 0.59561 0.38267
# Poissons Ratio (y) = 0.20544 0.37861
# Poissons Ratio (z) = 0.06779 0.19447
#
# Static dielectric constant tensor:
#      x y z
#    x 3.253710 0.000000 0.145830 
#    y 0.000000 3.809480 0.000000 
#    z 0.145830 0.000000 4.163880 
# 
# 
# High freq. dielectric constant tensor:
#      x y z
#    x 1.752970 0.000000 0.014680 
#    y 0.000000 1.805950 0.000000 
#    z 0.014680 0.000000 1.830660 
# 
# From -- ./inp_files/35303.got.cif
#   From: 2010.06.25/outbox.cif.g09.slc.cpg/sg15_18_cif.got.tgz:35303.got - 2010.06.28 07:06:18.
