data_PCOD8134757
_publ_section_title
;
Structure prediction by ZEFSAII (Michael W. Deem and Ramdas Pophale) SiO2 
 PCOD8134757
Probable space group: C 2/C
;
_chemical_formula_sum "Si O2"
_cell_formula_units_Z 44
_cell_length_a 10.871321
_cell_length_b 10.878228
_cell_length_c 18.795182
_cell_angle_alpha 90.000000
_cell_angle_beta 121.657253
_cell_angle_gamma 90.000000
_cell_volume 1891.995564
_symmetry_space_group_name_H-M "C 2/C"
_symmetry_group_IT_number 15
_symmetry_cell_setting 'monoclinic'
loop_
_space_group_symop_operation_xyz
x,y,z
-x,y,1/2-z
-x,-y,-z
x,-y,1/2+z
1/2+x,1/2+y,z
1/2-x,1/2+y,1/2-z
1/2-x,1/2-y,-z
1/2+x,1/2-y,1/2+z
loop_
_atom_site_type_symbol
_atom_site_label
_atom_site_fract_x
_atom_site_fract_y
_atom_site_fract_z
Si Si1 0.918311 0.166951 0.489170
Si Si2 0.235160 0.887227 0.298403
Si Si3 0.679140 0.546702 0.629751
Si Si4 0.000000 0.686107 0.250000
Si Si5 0.199760 0.572738 0.535692
Si Si6 0.463678 0.033110 0.639160
O O1 0.895599 0.309803 0.469500
O O2 0.837009 0.115250 0.533310
O O3 0.086401 0.143067 0.555629
O O4 0.862671 0.092713 0.403345
O O5 0.150696 0.944346 0.205682
O O6 0.243730 0.979011 0.370382
O O7 0.402917 0.871369 0.323650
O O8 0.148300 0.765290 0.296486
O O9 0.844653 0.579358 0.659650
O O10 0.010046 0.603212 0.181429
O O11 0.102198 0.478698 0.460895
#
# Coordination Sequence:
#
# PCOD8134757 Si02
#       6
#     8   8   8   4   8   8
#     4   9  19  37  62  91 125 170 215 262 318 384
#     4  12  22  36  66  96 126 172 215 263 322 388
#     4  10  19  36  61  90 129 168 212 266 321 374
#     4  12  24  42  70  92 128 176 218 262 326 378
#     4  10  20  36  60  93 126 168 217 259 323 379
#     4  11  23  42  63  93 133 169 209 275 320 377
#
# _framework density 23.255869000000001
#
# number of rings (size 3 to 8) (size 9 to 14) (size 15 to 20)
#    0.000    1.455    1.818    6.000    0.000    0.000 
#    0.000    0.909    8.000    0.000    0.000    0.000 
#    0.000    0.000    0.000    0.000    0.000    0.000 
#
# Total GULP energy -272588.748656 kJ/mol
# GULP energy per Si atom -12390.397666 kJ/mol
# Density = 2.320294 g / cm^3
# Si number density = 23.255869 Si / 1000 Ang^3
#
#
#
# Elastic Constant Matrix: (Units=GPa)
#
#
# Indices 1 2 3 4 5 6 
#
# 1 96.5970 42.7709 32.0177 0.0000 23.1315 0.0000
# 2 42.7709 45.6828 7.8707 0.0000 2.8178 0.0000
# 3 32.0177 7.8707 129.2261 0.0000 -28.8593 0.0000
# 4 0.0000 0.0000 0.0000 26.1019 0.0000 3.2113
# 5 23.1315 2.8178 -28.8593 0.0000 42.7357 0.0000
# 6 0.0000 0.0000 0.0000 3.2113 0.0000 35.5228
#
#
#
# Elastic Compliance Matrix: (Units=1/GPa)
#
#
# Indices 1 2 3 4 5 6 
#
# 1 0.030567 -0.025346 -0.011012 0.000000 -0.022311 0.000000
# 2 -0.025346 0.043424 0.007135 0.000000 0.015674 0.000000
# 3 -0.011012 0.007135 0.013258 0.000000 0.014443 0.000000
# 4 0.000000 0.000000 0.000000 0.038742 0.000000 -0.003502
# 5 -0.022311 0.015674 0.014443 0.000000 0.044196 0.000000
# 6 0.000000 0.000000 0.000000 -0.003502 0.000000 0.028468
#
#
# Mechanical properties :
#
#
# Convention : Reuss Voigt Hill
#
# Bulk Modulus (GPa) = 34.71741 48.53607 41.62674
# Shear Modulus (GPa) = 18.74757 33.46184 26.10471
#
# Velocity S-wave (km/s) = 2.84235 3.79734 3.35401
# Velocity P-wave (km/s) = 5.07275 6.33578 5.73912
#
# Compressibility (1/GPa) = 0.02880399
#
# Stress axis : x y z
#
# Youngs Moduli (GPa) = 32.71451 23.02878 75.42759
#
# Poissons Ratio (x) = 0.58368 0.83064
# Poissons Ratio (y) = 0.82917 -0.53820
# Poissons Ratio (z) = 0.36026 -0.16432
#
# Static dielectric constant tensor:
#      x y z
#    x 4.337470 0.000000 0.015150 
#    y 0.000000 3.706020 0.000000 
#    z 0.015150 0.000000 4.774130 
# 
# 
# High freq. dielectric constant tensor:
#      x y z
#    x 1.923570 0.000000 0.003910 
#    y 0.000000 1.853520 0.000000 
#    z 0.003910 0.000000 1.956510 
# 
# From -- ./inp_files/196649.got.cif
#   From: 2010.06.25/outbox.cif.g09.slc.cpg/sg15_99_cif.got.tgz:196649.got - 2010.06.28 07:06:18.
