data_PCOD8134976
_publ_section_title
;
Structure prediction by ZEFSAII (Michael W. Deem and Ramdas Pophale) SiO2 
 PCOD8134976
Probable space group: C 2/C
;
_chemical_formula_sum "Si O2"
_cell_formula_units_Z 56
_cell_length_a 15.150950
_cell_length_b 20.551396
_cell_length_c 20.309824
_cell_angle_alpha 90.000000
_cell_angle_beta 27.405832
_cell_angle_gamma 90.000000
_cell_volume 2910.844695
_symmetry_space_group_name_H-M "C 2/C"
_symmetry_group_IT_number 15
_symmetry_cell_setting 'monoclinic'
loop_
_space_group_symop_operation_xyz
x,y,z
-x,y,1/2-z
-x,-y,-z
x,-y,1/2+z
1/2+x,1/2+y,z
1/2-x,1/2+y,1/2-z
1/2-x,1/2-y,-z
1/2+x,1/2-y,1/2+z
loop_
_atom_site_type_symbol
_atom_site_label
_atom_site_fract_x
_atom_site_fract_y
_atom_site_fract_z
Si Si1 0.719068 0.919656 0.623455
Si Si2 0.788338 0.498702 0.578783
Si Si3 0.437301 0.475273 0.901683
Si Si4 0.729597 0.768624 0.315263
Si Si5 0.339143 0.283103 0.502925
Si Si6 0.162832 0.867446 0.814373
Si Si7 0.011892 0.391937 0.495582
O O1 0.500000 0.937165 0.750000
O O2 0.784670 0.858471 0.536777
O O3 0.749068 0.905182 0.680884
O O4 0.858390 0.978742 0.511514
O O5 0.637820 0.498456 0.738581
O O6 0.712210 0.474548 0.559139
O O7 0.860779 0.573933 0.530577
O O8 0.962674 0.449448 0.477109
O O9 0.475178 0.404469 0.910024
O O10 0.763450 0.753901 0.369375
O O11 0.607204 0.707316 0.367831
O O12 0.618010 0.836567 0.382911
O O13 0.932173 0.774278 0.144343
O O14 0.250000 0.250000 0.500000
O O15 0.323189 0.861577 0.652162
#
# Coordination Sequence:
#
# PCOD8134976 Si02
#       7
#     8   8   8   8   8   8   8
#     4  11  22  35  55  84 118 153 193 236 300 356
#     4   9  20  35  60  88 105 151 194 247 298 341
#     4  10  20  37  57  82 117 149 195 239 291 354
#     4  11  21  36  57  80 115 157 190 237 296 342
#     4  11  22  35  51  84 116 153 192 232 292 362
#     4  10  21  37  55  83 115 157 193 236 293 350
#     4  10  19  37  59  82 117 143 198 248 290 357
#
# _framework density 19.238402000000001
#
# number of rings (size 3 to 8) (size 9 to 14) (size 15 to 20)
#    0.000    1.714    1.429    4.286    2.000    0.000 
#    0.000    3.571    0.000    0.000    0.000    0.000 
#    0.000    0.000    0.000    0.000    0.000    0.000 
#
# Total GULP energy -347086.142585 kJ/mol
# GULP energy per Si atom -12395.933664 kJ/mol
# Density = 1.919461 g / cm^3
# Si number density = 19.238402 Si / 1000 Ang^3
#
#
#
# Elastic Constant Matrix: (Units=GPa)
#
#
# Indices 1 2 3 4 5 6 
#
# 1 66.7462 31.6773 11.9819 -0.0255 -11.3565 -0.0028
# 2 31.6773 125.2710 32.6620 -0.1816 -12.8176 0.0342
# 3 11.9819 32.6620 59.9868 -0.0345 -3.5513 0.0319
# 4 -0.0255 -0.1816 -0.0345 34.7792 0.0175 -1.3753
# 5 -11.3565 -12.8176 -3.5513 0.0175 25.8381 -0.0311
# 6 -0.0028 0.0342 0.0319 -1.3753 -0.0311 30.2366
#
#
#
# Elastic Compliance Matrix: (Units=1/GPa)
#
#
# Indices 1 2 3 4 5 6 
#
# 1 0.017924 -0.003595 -0.001272 -0.000009 0.005920 0.000013
# 2 -0.003595 0.010443 -0.004794 0.000046 0.002941 -0.000002
# 3 -0.001272 -0.004794 0.019519 -0.000007 -0.000254 -0.000016
# 4 -0.000009 0.000046 -0.000007 0.028805 0.000000 0.001310
# 5 0.005920 0.002941 -0.000254 0.000000 0.042729 0.000041
# 6 0.000013 -0.000002 -0.000016 0.001310 0.000041 0.033132
#
#
# Mechanical properties :
#
#
# Convention : Reuss Voigt Hill
#
# Bulk Modulus (GPa) = 35.00891 44.96071 39.98481
# Shear Modulus (GPa) = 27.56417 29.88296 28.72356
#
# Velocity S-wave (km/s) = 3.78930 3.94546 3.86817
# Velocity P-wave (km/s) = 6.11408 6.64655 6.38587
#
# Compressibility (1/GPa) = 0.02856416
#
# Stress axis : x y z
#
# Youngs Moduli (GPa) = 55.79145 95.76127 51.23085
#
# Poissons Ratio (x) = 0.34426 0.06518
# Poissons Ratio (y) = 0.20057 0.24558
# Poissons Ratio (z) = 0.07098 0.45905
#
# Static dielectric constant tensor:
#      x y z
#    x 3.399210 0.000020 0.067290 
#    y 0.000020 3.756810 0.000280 
#    z 0.067290 0.000280 3.563170 
# 
# 
# High freq. dielectric constant tensor:
#      x y z
#    x 1.729860 0.000000 0.007550 
#    y 0.000000 1.751890 0.000020 
#    z 0.007550 0.000020 1.749650 
# 
# From -- ./inp_files/57789.got.cif
#   From: 2010.06.25/outbox.cif.g09.slc.cpg/sg15_29_cif.got.tgz:57789.got - 2010.06.28 07:06:18.
