data_PCOD8134090
_publ_section_title
;
Structure prediction by ZEFSAII (Michael W. Deem and Ramdas Pophale) SiO2 
 PCOD8134090
Probable space group: C 2/C
;
_chemical_formula_sum "Si O2"
_cell_formula_units_Z 48
_cell_length_a 14.787294
_cell_length_b 9.073730
_cell_length_c 20.514625
_cell_angle_alpha 90.000000
_cell_angle_beta 113.476329
_cell_angle_gamma 90.000000
_cell_volume 2524.723950
_symmetry_space_group_name_H-M "C 2/C"
_symmetry_group_IT_number 15
_symmetry_cell_setting 'monoclinic'
loop_
_space_group_symop_operation_xyz
x,y,z
-x,y,1/2-z
-x,-y,-z
x,-y,1/2+z
1/2+x,1/2+y,z
1/2-x,1/2+y,1/2-z
1/2-x,1/2-y,-z
1/2+x,1/2-y,1/2+z
loop_
_atom_site_type_symbol
_atom_site_label
_atom_site_fract_x
_atom_site_fract_y
_atom_site_fract_z
Si Si1 0.642147 0.603930 0.571276
Si Si2 0.161301 0.643731 0.992053
Si Si3 0.697308 0.400927 0.469366
Si Si4 0.504867 0.599516 0.652731
Si Si5 0.000000 0.350036 0.750000
Si Si6 0.500000 0.348256 0.750000
Si Si7 0.866844 0.397067 0.159201
O O1 0.603034 0.761369 0.529337
O O2 0.647587 0.474289 0.519183
O O3 0.561267 0.572859 0.601894
O O4 0.749660 0.612069 0.635131
O O5 0.212952 0.497410 0.035178
O O6 0.250000 0.750000 0.000000
O O7 0.101021 0.607963 0.908413
O O8 0.750000 0.250000 0.500000
O O9 0.612388 0.382152 0.391571
O O10 0.538587 0.745080 0.702215
O O11 0.528959 0.450831 0.698102
O O12 0.091219 0.452192 0.798175
O O13 0.592804 0.245618 0.792439
#
# Coordination Sequence:
#
# PCOD8134090 Si02
#       7
#     8   8   8   8   4   4   8
#     4  10  20  34  56  79 105 131 173 226 257 302
#     4   8  16  33  56  74  99 133 167 212 259 305
#     4  10  19  35  56  76 103 135 169 213 263 310
#     4  11  21  34  52  81 105 135 177 214 260 303
#     4  10  22  36  52  70 110 146 168 206 252 326
#     4  10  20  34  56  72 106 148 176 208 250 326
#     4   9  18  37  54  74 100 142 177 203 264 311
#
# _framework density 19.011979
#
# number of rings (size 3 to 8) (size 9 to 14) (size 15 to 20)
#    0.000    2.667    0.000    5.500    0.000    1.333 
#    0.000    6.667    0.000    0.000    0.000    0.000 
#    0.000    0.000    0.000    0.000    0.000    0.000 
#
# Total GULP energy -297384.455885 kJ/mol
# GULP energy per Si atom -12391.018995 kJ/mol
# Density = 1.896871 g / cm^3
# Si number density = 19.011979 Si / 1000 Ang^3
#
#
#
# Elastic Constant Matrix: (Units=GPa)
#
#
# Indices 1 2 3 4 5 6 
#
# 1 46.4961 31.5434 34.8126 0.0000 -2.8883 0.0000
# 2 31.5434 145.5493 52.0308 0.0000 1.6664 0.0000
# 3 34.8126 52.0308 106.2419 0.0000 12.7081 0.0000
# 4 0.0000 0.0000 0.0000 33.9825 0.0000 4.2050
# 5 -2.8883 1.6664 12.7081 0.0000 38.9183 0.0000
# 6 0.0000 0.0000 0.0000 4.2050 0.0000 11.4216
#
#
#
# Elastic Compliance Matrix: (Units=1/GPa)
#
#
# Indices 1 2 3 4 5 6 
#
# 1 0.031053 -0.003543 -0.009089 0.000000 0.005424 0.000000
# 2 -0.003543 0.008772 -0.003183 0.000000 0.000401 0.000000
# 3 -0.009089 -0.003183 0.014583 0.000000 -0.005300 0.000000
# 4 0.000000 0.000000 0.000000 0.030831 0.000000 -0.011351
# 5 0.005424 0.000401 -0.005300 0.000000 0.027811 0.000000
# 6 0.000000 0.000000 0.000000 -0.011351 0.000000 0.091732
#
#
# Mechanical properties :
#
#
# Convention : Reuss Voigt Hill
#
# Bulk Modulus (GPa) = 43.90082 59.45119 51.67600
# Shear Modulus (GPa) = 20.49151 28.85785 24.67468
#
# Velocity S-wave (km/s) = 3.28658 3.90022 3.60648
# Velocity P-wave (km/s) = 6.12727 7.18475 6.67697
#
# Compressibility (1/GPa) = 0.02277862
#
# Stress axis : x y z
#
# Youngs Moduli (GPa) = 32.20348 114.00549 68.57117
#
# Poissons Ratio (x) = 0.40389 0.62323
# Poissons Ratio (y) = 0.11409 0.21825
# Poissons Ratio (z) = 0.29269 0.36286
#
# Static dielectric constant tensor:
#      x y z
#    x 3.349890 0.000000 -0.232890 
#    y 0.000000 3.953670 0.000000 
#    z -0.232890 0.000000 4.200010 
# 
# 
# High freq. dielectric constant tensor:
#      x y z
#    x 1.696230 0.000000 0.017910 
#    y 0.000000 1.757850 0.000000 
#    z 0.017910 0.000000 1.751000 
# 
# From -- ./inp_files/242354.got.cif
#   From: 2010.06.25/outbox.cif.g09.slc.cpg/sg15_122_cif.got.tgz:242354.got - 2010.06.28 07:06:18.
