data_PCOD8134573
_publ_section_title
;
Structure prediction by ZEFSAII (Michael W. Deem and Ramdas Pophale) SiO2 
 PCOD8134573
Probable space group: C 2/C
;
_chemical_formula_sum "Si O2"
_cell_formula_units_Z 48
_cell_length_a 9.560984
_cell_length_b 16.412871
_cell_length_c 17.521841
_cell_angle_alpha 90.000000
_cell_angle_beta 96.007650
_cell_angle_gamma 90.000000
_cell_volume 2734.482404
_symmetry_space_group_name_H-M "C 2/C"
_symmetry_group_IT_number 15
_symmetry_cell_setting 'monoclinic'
loop_
_space_group_symop_operation_xyz
x,y,z
-x,y,1/2-z
-x,-y,-z
x,-y,1/2+z
1/2+x,1/2+y,z
1/2-x,1/2+y,1/2-z
1/2-x,1/2-y,-z
1/2+x,1/2-y,1/2+z
loop_
_atom_site_type_symbol
_atom_site_label
_atom_site_fract_x
_atom_site_fract_y
_atom_site_fract_z
Si Si1 0.854843 0.041423 0.275913
Si Si2 0.630625 0.077769 0.143027
Si Si3 0.828122 0.389957 0.610905
Si Si4 0.054741 0.918845 0.103888
Si Si5 0.713404 0.503347 0.979104
Si Si6 0.518518 0.756610 0.661390
O O1 0.731281 0.031665 0.207618
O O2 0.804915 0.100324 0.341151
O O3 0.000000 0.077722 0.250000
O O4 0.881888 0.952594 0.313388
O O5 0.464885 0.056243 0.146680
O O6 0.643900 0.176487 0.155804
O O7 0.673939 0.049655 0.060998
O O8 0.786279 0.419116 0.523966
O O9 0.874622 0.295240 0.617271
O O10 0.049664 0.822204 0.112823
O O11 0.902906 0.960414 0.084521
O O12 0.150643 0.940737 0.037194
O O13 0.500000 0.736873 0.750000
#
# Coordination Sequence:
#
# PCOD8134573 Si02
#       6
#     8   8   8   8   8   8
#     4  11  18  34  59  83 104 152 189 233 263 335
#     4  10  19  36  58  82 109 150 186 228 281 326
#     4   9  20  36  57  82 115 144 187 227 284 336
#     4  10  22  34  56  88 115 142 192 229 280 331
#     4  10  20  36  57  85 111 151 188 227 273 344
#     4  10  20  36  57  82 112 150 179 234 284 328
#
# _framework density 17.553595999999999
#
# number of rings (size 3 to 8) (size 9 to 14) (size 15 to 20)
#    1.000    1.000    3.333    1.500    0.000    1.333 
#    0.000    0.000    0.000    4.000    0.000    0.000 
#    0.000    0.000    0.000    0.000    0.000    0.000 
#
# Total GULP energy -297361.360586 kJ/mol
# GULP energy per Si atom -12390.056691 kJ/mol
# Density = 1.751364 g / cm^3
# Si number density = 17.553596 Si / 1000 Ang^3
#
#
#
# Elastic Constant Matrix: (Units=GPa)
#
#
# Indices 1 2 3 4 5 6 
#
# 1 88.4477 30.5889 33.0112 0.0000 -4.5742 0.0000
# 2 30.5889 106.9391 50.0171 0.0000 -1.2012 0.0000
# 3 33.0112 50.0171 86.2913 0.0000 -1.8523 0.0000
# 4 0.0000 0.0000 0.0000 24.0511 0.0000 1.1404
# 5 -4.5742 -1.2012 -1.8523 0.0000 25.2461 0.0000
# 6 0.0000 0.0000 0.0000 1.1404 0.0000 18.2790
#
#
#
# Elastic Compliance Matrix: (Units=1/GPa)
#
#
# Indices 1 2 3 4 5 6 
#
# 1 0.013596 -0.001995 -0.004001 0.000000 0.002075 0.000000
# 2 -0.001995 0.013122 -0.006848 0.000000 -0.000240 0.000000
# 3 -0.004001 -0.006848 0.017093 0.000000 0.000203 0.000000
# 4 0.000000 0.000000 0.000000 0.041701 0.000000 -0.002602
# 5 0.002075 -0.000240 0.000203 0.000000 0.039990 0.000000
# 6 0.000000 0.000000 0.000000 -0.002602 0.000000 0.054870
#
#
# Mechanical properties :
#
#
# Convention : Reuss Voigt Hill
#
# Bulk Modulus (GPa) = 55.17374 56.54585 55.85979
# Shear Modulus (GPa) = 23.57380 24.71932 24.14656
#
# Velocity S-wave (km/s) = 3.66862 3.75670 3.71292
# Velocity P-wave (km/s) = 7.03170 7.14844 7.09031
#
# Compressibility (1/GPa) = 0.01812457
#
# Stress axis : x y z
#
# Youngs Moduli (GPa) = 73.54874 76.20876 58.50430
#
# Poissons Ratio (x) = 0.15201 0.23406
# Poissons Ratio (y) = 0.14670 0.40063
# Poissons Ratio (z) = 0.29425 0.52187
#
# Static dielectric constant tensor:
#      x y z
#    x 3.312190 0.000000 -0.006570 
#    y 0.000000 2.944210 0.000000 
#    z -0.006570 0.000000 3.304430 
# 
# 
# High freq. dielectric constant tensor:
#      x y z
#    x 1.676600 0.000000 -0.000790 
#    y 0.000000 1.646050 0.000000 
#    z -0.000790 0.000000 1.690030 
# 
# From -- ./inp_files/189856.got.cif
#   From: 2010.06.25/outbox.cif.g09.slc.cpg/sg15_95_cif.got.tgz:189856.got - 2010.06.28 07:06:18.
