data_PCOD8134234
_publ_section_title
;
Structure prediction by ZEFSAII (Michael W. Deem and Ramdas Pophale) SiO2 
 PCOD8134234
Probable space group: C 2/C
;
_chemical_formula_sum "Si O2"
_cell_formula_units_Z 60
_cell_length_a 30.695366
_cell_length_b 18.973610
_cell_length_c 15.708515
_cell_angle_alpha 90.000000
_cell_angle_beta 160.888849
_cell_angle_gamma 90.000000
_cell_volume 2995.290712
_symmetry_space_group_name_H-M "C 2/C"
_symmetry_group_IT_number 15
_symmetry_cell_setting 'monoclinic'
loop_
_space_group_symop_operation_xyz
x,y,z
-x,y,1/2-z
-x,-y,-z
x,-y,1/2+z
1/2+x,1/2+y,z
1/2-x,1/2+y,1/2-z
1/2-x,1/2-y,-z
1/2+x,1/2-y,1/2+z
loop_
_atom_site_type_symbol
_atom_site_label
_atom_site_fract_x
_atom_site_fract_y
_atom_site_fract_z
Si Si1 0.116285 0.709275 0.895312
Si Si2 0.278302 0.097974 0.294482
Si Si3 0.341162 0.957881 0.638322
Si Si4 0.000000 0.935795 0.250000
Si Si5 0.992421 0.398068 0.416237
Si Si6 0.582951 0.509508 0.239186
Si Si7 0.659489 0.939177 0.045608
Si Si8 0.361639 0.366075 0.545179
O O1 0.174900 0.787253 0.991596
O O2 0.000000 0.714136 0.750000
O O3 0.082463 0.676292 0.739017
O O4 0.218860 0.652704 0.122670
O O5 0.385770 0.111889 0.422171
O O6 0.297857 0.018586 0.360163
O O7 0.131466 0.110787 0.985759
O O8 0.292063 0.920379 0.460990
O O9 0.404962 0.033487 0.730874
O O10 0.220272 0.966504 0.481317
O O11 0.453671 0.907720 0.888459
O O12 0.005985 0.983113 0.346306
O O13 0.625769 0.589040 0.344025
O O14 0.500000 0.500000 0.000000
O O15 0.737277 0.891275 0.257455
O O16 0.500000 0.927937 0.750000
O O17 0.500000 0.369787 0.750000
#
# Coordination Sequence:
#
# PCOD8134234 Si02
#       8
#     8   8   8   4   8   8   8   8
#     4   9  20  37  66  84 116 164 211 244 308 380
#     4  11  18  38  60  90 114 160 212 252 306 367
#     4  11  21  34  62  92 124 148 206 262 303 360
#     4  12  22  38  62  84 132 164 200 264 310 368
#     4  10  19  35  58  90 116 153 202 260 302 362
#     4  12  24  38  62  96 125 162 210 256 315 374
#     4  12  21  37  66  93 123 160 209 265 310 359
#     4  11  22  42  63  89 125 171 206 249 314 382
#
# _framework density 20.031445000000001
#
# number of rings (size 3 to 8) (size 9 to 14) (size 15 to 20)
#    0.000    1.067    6.000    2.000    1.867    0.000 
#    1.200    0.667    2.933    3.200    0.000    0.000 
#    0.000    0.000    0.000    0.000    0.000    0.000 
#
# Total GULP energy -371658.068154 kJ/mol
# GULP energy per Si atom -12388.602272 kJ/mol
# Density = 1.998585 g / cm^3
# Si number density = 20.031445 Si / 1000 Ang^3
#
#
#
# Elastic Constant Matrix: (Units=GPa)
#
#
# Indices 1 2 3 4 5 6 
#
# 1 78.8122 39.2703 29.9902 0.0000 -16.2638 0.0000
# 2 39.2703 125.9319 56.1031 0.0000 -30.8402 0.0000
# 3 29.9902 56.1031 123.0377 0.0000 -15.9826 0.0000
# 4 0.0000 0.0000 0.0000 24.4010 0.0000 -8.3693
# 5 -16.2638 -30.8402 -15.9826 0.0000 44.6541 0.0000
# 6 0.0000 0.0000 0.0000 -8.3693 0.0000 20.1030
#
#
#
# Elastic Compliance Matrix: (Units=1/GPa)
#
#
# Indices 1 2 3 4 5 6 
#
# 1 0.015654 -0.003362 -0.001934 0.000000 0.002687 0.000000
# 2 -0.003362 0.012174 -0.003984 0.000000 0.005758 0.000000
# 3 -0.001934 -0.003984 0.010452 0.000000 0.000286 0.000000
# 4 0.000000 0.000000 0.000000 0.047809 0.000000 0.019904
# 5 0.002687 0.005758 0.000286 0.000000 0.027452 0.000000
# 6 0.000000 0.000000 0.000000 0.019904 0.000000 0.058030
#
#
# Mechanical properties :
#
#
# Convention : Reuss Voigt Hill
#
# Bulk Modulus (GPa) = 50.70491 64.27878 57.49184
# Shear Modulus (GPa) = 25.41901 31.32618 28.37259
#
# Velocity S-wave (km/s) = 3.56610 3.95884 3.76760
# Velocity P-wave (km/s) = 6.50567 7.28390 6.90576
#
# Compressibility (1/GPa) = 0.01972196
#
# Stress axis : x y z
#
# Youngs Moduli (GPa) = 63.88179 82.14266 95.67092
#
# Poissons Ratio (x) = 0.27616 0.18498
# Poissons Ratio (y) = 0.21477 0.38113
# Poissons Ratio (z) = 0.12352 0.32723
#
# Static dielectric constant tensor:
#      x y z
#    x 3.700920 0.000000 -0.106290 
#    y 0.000000 3.668280 0.000000 
#    z -0.106290 0.000000 4.025460 
# 
# 
# High freq. dielectric constant tensor:
#      x y z
#    x 1.781840 0.000000 -0.005000 
#    y 0.000000 1.743900 0.000000 
#    z -0.005000 0.000000 1.794760 
# 
# From -- ./inp_files/183092.got.cif
#   From: 2010.06.25/outbox.cif.g09.slc.cpg/sg15_92_cif.got.tgz:183092.got - 2010.06.28 07:06:18.
