data_PCOD8134740
_publ_section_title
;
Structure prediction by ZEFSAII (Michael W. Deem and Ramdas Pophale) SiO2 
 PCOD8134740
Probable space group: C 2/C
;
_chemical_formula_sum "Si O2"
_cell_formula_units_Z 64
_cell_length_a 9.879692
_cell_length_b 29.577154
_cell_length_c 18.401931
_cell_angle_alpha 90.000000
_cell_angle_beta 39.316992
_cell_angle_gamma 90.000000
_cell_volume 3407.104405
_symmetry_space_group_name_H-M "C 2/C"
_symmetry_group_IT_number 15
_symmetry_cell_setting 'monoclinic'
loop_
_space_group_symop_operation_xyz
x,y,z
-x,y,1/2-z
-x,-y,-z
x,-y,1/2+z
1/2+x,1/2+y,z
1/2-x,1/2+y,1/2-z
1/2-x,1/2-y,-z
1/2+x,1/2-y,1/2+z
loop_
_atom_site_type_symbol
_atom_site_label
_atom_site_fract_x
_atom_site_fract_y
_atom_site_fract_z
Si Si1 0.686943 0.965121 0.229548
Si Si2 0.978589 0.802271 0.430945
Si Si3 0.247402 0.381672 0.841500
Si Si4 0.705717 0.664895 0.701792
Si Si5 0.590416 0.394584 0.459369
Si Si6 0.215837 0.434812 0.705501
Si Si7 0.548339 0.907590 0.073219
Si Si8 0.050236 0.297393 0.529926
O O1 0.500000 0.967994 0.250000
O O2 0.854229 0.926684 0.132807
O O3 0.572418 0.954106 0.354691
O O4 0.797155 0.014233 0.190476
O O5 0.118428 0.802972 0.300465
O O6 0.051404 0.843032 0.452215
O O7 0.037973 0.753517 0.438908
O O8 0.722842 0.805122 0.522822
O O9 0.500000 0.377783 0.750000
O O10 0.194399 0.408046 0.789875
O O11 0.147228 0.331708 0.877620
O O12 0.135594 0.408716 0.954761
O O13 0.500000 0.640546 0.750000
O O14 0.832038 0.696574 0.594686
O O15 0.865078 0.628203 0.665885
O O16 0.377504 0.412038 0.583945
O O17 0.768409 0.394898 0.446866
O O18 0.000000 0.435450 0.750000
#
# Coordination Sequence:
#
# PCOD8134740 Si02
#       8
#     8   8   8   8   8   8   8   8
#     4   9  20  37  60  90 118 153 197 254 295 349
#     4  10  19  36  61  88 114 157 204 246 296 360
#     4  11  22  42  59  84 128 165 191 249 311 355
#     4   9  18  35  57  81 115 154 193 246 295 348
#     4  11  20  36  63  88 119 156 197 249 302 355
#     4  11  23  39  62  89 119 158 203 246 298 363
#     4  10  20  39  61  84 121 156 195 244 304 358
#     4   9  21  37  57  85 121 156 200 251 297 352
#
# _framework density 18.784279000000002
#
# number of rings (size 3 to 8) (size 9 to 14) (size 15 to 20)
#    0.000    2.000    2.500    1.125    0.000    1.500 
#    2.250    4.375    0.000    0.000    0.000    0.000 
#    0.000    0.000    0.000    0.000    0.000    0.000 
#
# Total GULP energy -396591.382955 kJ/mol
# GULP energy per Si atom -12393.480717 kJ/mol
# Density = 1.874153 g / cm^3
# Si number density = 18.784279 Si / 1000 Ang^3
#
#
#
# Elastic Constant Matrix: (Units=GPa)
#
#
# Indices 1 2 3 4 5 6 
#
# 1 65.5753 31.7019 35.1790 0.0000 4.1251 0.0000
# 2 31.7019 119.9566 52.3659 0.0000 14.4378 0.0000
# 3 35.1790 52.3659 109.0595 0.0000 13.2464 0.0000
# 4 0.0000 0.0000 0.0000 13.5649 0.0000 3.0756
# 5 4.1251 14.4378 13.2464 0.0000 21.3472 0.0000
# 6 0.0000 0.0000 0.0000 3.0756 0.0000 19.3713
#
#
#
# Elastic Compliance Matrix: (Units=1/GPa)
#
#
# Indices 1 2 3 4 5 6 
#
# 1 0.019301 -0.003137 -0.004893 0.000000 0.001428 0.000000
# 2 -0.003137 0.011438 -0.003909 0.000000 -0.004704 0.000000
# 3 -0.004893 -0.003909 0.013182 0.000000 -0.004591 0.000000
# 4 0.000000 0.000000 0.000000 0.076472 0.000000 -0.012141
# 5 0.001428 -0.004704 -0.004591 0.000000 0.052599 0.000000
# 6 0.000000 0.000000 0.000000 -0.012141 0.000000 0.053550
#
#
# Mechanical properties :
#
#
# Convention : Reuss Voigt Hill
#
# Bulk Modulus (GPa) = 49.89104 59.23167 54.56135
# Shear Modulus (GPa) = 19.44754 22.54632 20.99693
#
# Velocity S-wave (km/s) = 3.22111 3.46826 3.34697
# Velocity P-wave (km/s) = 6.36017 6.90213 6.63669
#
# Compressibility (1/GPa) = 0.02004368
#
# Stress axis : x y z
#
# Youngs Moduli (GPa) = 51.80996 87.42900 75.86002
#
# Poissons Ratio (x) = 0.27423 0.37121
# Poissons Ratio (y) = 0.16251 0.29652
# Poissons Ratio (z) = 0.25352 0.34175
#
# Static dielectric constant tensor:
#      x y z
#    x 3.454900 0.000000 0.097510 
#    y 0.000000 3.595530 0.000000 
#    z 0.097510 0.000000 2.701380 
# 
# 
# High freq. dielectric constant tensor:
#      x y z
#    x 1.720850 0.000000 0.000470 
#    y 0.000000 1.725800 0.000000 
#    z 0.000470 0.000000 1.746330 
# 
# From -- ./inp_files/194206.got.cif
#   From: 2010.06.25/outbox.cif.g09.slc.cpg/sg15_98_cif.got.tgz:194206.got - 2010.06.28 07:06:18.
