data_PCOD8134276
_publ_section_title
;
Structure prediction by ZEFSAII (Michael W. Deem and Ramdas Pophale) SiO2 
 PCOD8134276
Probable space group: C 2/C
;
_chemical_formula_sum "Si O2"
_cell_formula_units_Z 48
_cell_length_a 22.841420
_cell_length_b 13.004904
_cell_length_c 10.258344
_cell_angle_alpha 90.000000
_cell_angle_beta 124.799851
_cell_angle_gamma 90.000000
_cell_volume 2502.248125
_symmetry_space_group_name_H-M "C 2/C"
_symmetry_group_IT_number 15
_symmetry_cell_setting 'monoclinic'
loop_
_space_group_symop_operation_xyz
x,y,z
-x,y,1/2-z
-x,-y,-z
x,-y,1/2+z
1/2+x,1/2+y,z
1/2-x,1/2+y,1/2-z
1/2-x,1/2-y,-z
1/2+x,1/2-y,1/2+z
loop_
_atom_site_type_symbol
_atom_site_label
_atom_site_fract_x
_atom_site_fract_y
_atom_site_fract_z
Si Si1 0.495768 0.370474 0.600773
Si Si2 0.378111 0.517077 0.350773
Si Si3 0.962376 0.355241 0.002577
Si Si4 0.189190 0.098580 0.969351
Si Si5 0.153526 0.674724 0.364915
Si Si6 0.440138 0.062801 0.075874
O O1 0.500000 0.420091 0.750000
O O2 0.431385 0.422348 0.441471
O O3 0.572057 0.386643 0.627336
O O4 0.478022 0.250982 0.593186
O O5 0.334081 0.547652 0.423282
O O6 0.325320 0.482487 0.166530
O O7 0.900992 0.346847 0.818678
O O8 0.037284 0.397162 0.038436
O O9 0.934724 0.438612 0.072642
O O10 0.148258 0.204522 0.889631
O O11 0.271328 0.129905 0.085617
O O12 0.133924 0.613076 0.472437
O O13 0.500000 0.103907 0.250000
#
# Coordination Sequence:
#
# PCOD8134276 Si02
#       6
#     8   8   8   8   8   8
#     4  11  21  36  61  90 122 154 197 260 305 352
#     4  11  23  39  61  91 120 161 200 248 307 363
#     4  10  19  35  59  86 119 152 203 253 299 352
#     4  11  23  41  61  89 124 161 206 243 304 371
#     4  10  22  38  61  83 119 165 201 247 297 366
#     4   9  19  35  56  86 111 156 202 247 299 350
#
# _framework density 19.182749999999999
#
# number of rings (size 3 to 8) (size 9 to 14) (size 15 to 20)
#    0.000    1.667    3.333    1.500    2.333    0.000 
#    0.000    0.000    0.000    6.000    0.000    0.000 
#    0.000    0.000    0.000    0.000    0.000    0.000 
#
# Total GULP energy -297521.611040 kJ/mol
# GULP energy per Si atom -12396.733793 kJ/mol
# Density = 1.913909 g / cm^3
# Si number density = 19.182750 Si / 1000 Ang^3
#
#
#
# Elastic Constant Matrix: (Units=GPa)
#
#
# Indices 1 2 3 4 5 6 
#
# 1 103.8196 39.7829 31.8922 0.0000 -12.2303 0.0000
# 2 39.7829 82.1355 15.0860 0.0000 5.8412 0.0000
# 3 31.8922 15.0860 66.1223 0.0000 -9.6187 0.0000
# 4 0.0000 0.0000 0.0000 24.4455 0.0000 -7.7865
# 5 -12.2303 5.8412 -9.6187 0.0000 24.3271 0.0000
# 6 0.0000 0.0000 0.0000 -7.7865 0.0000 27.3688
#
#
#
# Elastic Compliance Matrix: (Units=1/GPa)
#
#
# Indices 1 2 3 4 5 6 
#
# 1 0.014363 -0.006657 -0.004378 0.000000 0.007088 0.000000
# 2 -0.006657 0.016264 -0.001650 0.000000 -0.007904 0.000000
# 3 -0.004378 -0.001650 0.018408 0.000000 0.005474 0.000000
# 4 0.000000 0.000000 0.000000 0.044984 0.000000 0.012798
# 5 0.007088 -0.007904 0.005474 0.000000 0.048732 0.000000
# 6 0.000000 0.000000 0.000000 0.012798 0.000000 0.040179
#
#
# Mechanical properties :
#
#
# Convention : Reuss Voigt Hill
#
# Bulk Modulus (GPa) = 42.25427 47.28883 44.77155
# Shear Modulus (GPa) = 23.12816 26.24937 24.68876
#
# Velocity S-wave (km/s) = 3.47605 3.70318 3.59141
# Velocity P-wave (km/s) = 6.17945 6.55668 6.37086
#
# Compressibility (1/GPa) = 0.02366625
#
# Stress axis : x y z
#
# Youngs Moduli (GPa) = 69.62502 61.48398 54.32554
#
# Poissons Ratio (x) = 0.40928 0.23781
# Poissons Ratio (y) = 0.46347 0.08963
# Poissons Ratio (z) = 0.30479 0.10144
#
# Static dielectric constant tensor:
#      x y z
#    x 3.628140 0.000000 -0.074760 
#    y 0.000000 3.562400 0.000000 
#    z -0.074760 0.000000 3.317180 
# 
# 
# High freq. dielectric constant tensor:
#      x y z
#    x 1.743330 0.000000 -0.008690 
#    y 0.000000 1.752090 0.000000 
#    z -0.008690 0.000000 1.738690 
# 
# From -- ./inp_files/104150.got.cif
#   From: 2010.06.25/outbox.cif.g09.slc.cpg/sg15_53_cif.got.tgz:104150.got - 2010.06.28 07:06:18.
