data_PCOD8134775
_publ_section_title
;
Structure prediction by ZEFSAII (Michael W. Deem and Ramdas Pophale) SiO2 
 PCOD8134775
Probable space group: C 2/C
;
_chemical_formula_sum "Si O2"
_cell_formula_units_Z 44
_cell_length_a 11.728579
_cell_length_b 12.130087
_cell_length_c 23.530601
_cell_angle_alpha 90.000000
_cell_angle_beta 139.652164
_cell_angle_gamma 90.000000
_cell_volume 2167.368076
_symmetry_space_group_name_H-M "C 2/C"
_symmetry_group_IT_number 15
_symmetry_cell_setting 'monoclinic'
loop_
_space_group_symop_operation_xyz
x,y,z
-x,y,1/2-z
-x,-y,-z
x,-y,1/2+z
1/2+x,1/2+y,z
1/2-x,1/2+y,1/2-z
1/2-x,1/2-y,-z
1/2+x,1/2-y,1/2+z
loop_
_atom_site_type_symbol
_atom_site_label
_atom_site_fract_x
_atom_site_fract_y
_atom_site_fract_z
Si Si1 0.130968 0.412978 0.619424
Si Si2 0.726030 0.474803 0.713632
Si Si3 0.844187 0.408781 0.000458
Si Si4 0.000000 0.414291 0.250000
Si Si5 0.370123 0.667185 0.891645
Si Si6 0.483272 0.669450 0.056645
O O1 0.277991 0.454403 0.720355
O O2 0.211429 0.419037 0.586881
O O3 0.082586 0.286442 0.615583
O O4 0.953855 0.483692 0.559012
O O5 0.597346 0.576197 0.645418
O O6 0.665403 0.366086 0.655787
O O7 0.927112 0.506376 0.772639
O O8 0.963070 0.300450 0.056274
O O9 0.669723 0.400705 0.971131
O O10 0.837288 0.337669 0.166766
O O11 0.487962 0.639478 0.991579
#
# Coordination Sequence:
#
# PCOD8134775 Si02
#       6
#     8   8   8   4   8   8
#     4  10  20  36  57  83 121 146 191 232 291 330
#     4  10  21  34  61  84 111 149 195 241 267 344
#     4   9  21  36  58  87 117 154 178 241 287 345
#     4   8  20  36  58  82 106 150 196 228 278 330
#     4   9  20  36  57  85 106 154 190 235 276 342
#     4  10  19  36  62  84 116 147 196 226 289 341
#
# _framework density 20.301120000000001
#
# number of rings (size 3 to 8) (size 9 to 14) (size 15 to 20)
#    1.091    1.455    0.000    1.636    2.545    3.636 
#    0.000    0.909    8.000    1.091    0.000    0.000 
#    0.000    0.000    0.000    0.000    0.000    0.000 
#
# Total GULP energy -272604.519512 kJ/mol
# GULP energy per Si atom -12391.114523 kJ/mol
# Density = 2.025491 g / cm^3
# Si number density = 20.301120 Si / 1000 Ang^3
#
#
#
# Elastic Constant Matrix: (Units=GPa)
#
#
# Indices 1 2 3 4 5 6 
#
# 1 47.9647 47.8945 26.6039 0.0000 -16.8866 0.0000
# 2 47.8945 132.1619 58.7527 0.0000 -14.5942 0.0000
# 3 26.6039 58.7527 112.8709 0.0000 -32.5920 0.0000
# 4 0.0000 0.0000 0.0000 31.1487 0.0000 0.3159
# 5 -16.8866 -14.5942 -32.5920 0.0000 37.0767 0.0000
# 6 0.0000 0.0000 0.0000 0.3159 0.0000 30.7632
#
#
#
# Elastic Compliance Matrix: (Units=1/GPa)
#
#
# Indices 1 2 3 4 5 6 
#
# 1 0.037507 -0.012888 0.001791 0.000000 0.013584 0.000000
# 2 -0.012888 0.014293 -0.005994 0.000000 -0.005513 0.000000
# 3 0.001791 -0.005994 0.014892 0.000000 0.011547 0.000000
# 4 0.000000 0.000000 0.000000 0.032107 0.000000 -0.000330
# 5 0.013584 -0.005513 0.011547 0.000000 0.041138 0.000000
# 6 0.000000 0.000000 0.000000 -0.000330 0.000000 0.032510
#
#
# Mechanical properties :
#
#
# Convention : Reuss Voigt Hill
#
# Bulk Modulus (GPa) = 30.76112 62.16661 46.46387
# Shear Modulus (GPa) = 22.99197 30.44748 26.71973
#
# Velocity S-wave (km/s) = 3.36898 3.87692 3.63184
# Velocity P-wave (km/s) = 5.50624 7.12246 6.36585
#
# Compressibility (1/GPa) = 0.03250857
#
# Stress axis : x y z
#
# Youngs Moduli (GPa) = 26.66143 69.96428 67.15064
#
# Poissons Ratio (x) = 0.90173 -0.12024
# Poissons Ratio (y) = 0.34362 0.40250
# Poissons Ratio (z) = -0.04774 0.41937
#
# Static dielectric constant tensor:
#      x y z
#    x 3.283140 0.000000 -0.242190 
#    y 0.000000 3.732870 0.000000 
#    z -0.242190 0.000000 3.615750 
# 
# 
# High freq. dielectric constant tensor:
#      x y z
#    x 1.753500 0.000000 -0.025830 
#    y 0.000000 1.797710 0.000000 
#    z -0.025830 0.000000 1.792500 
# 
# From -- ./inp_files/269354.got.cif
#   From: 2010.06.25/outbox.cif.g09.slc.cpg/sg15_135_cif.got.tgz:269354.got - 2010.06.28 07:06:18.
