data_PCOD8134072
_publ_section_title
;
Structure prediction by ZEFSAII (Michael W. Deem and Ramdas Pophale) SiO2 
 PCOD8134072
Probable space group: C 2/C
;
_chemical_formula_sum "Si O2"
_cell_formula_units_Z 56
_cell_length_a 17.872689
_cell_length_b 8.954572
_cell_length_c 24.710637
_cell_angle_alpha 90.000000
_cell_angle_beta 45.050795
_cell_angle_gamma 90.000000
_cell_volume 2798.906254
_symmetry_space_group_name_H-M "C 2/C"
_symmetry_group_IT_number 15
_symmetry_cell_setting 'monoclinic'
loop_
_space_group_symop_operation_xyz
x,y,z
-x,y,1/2-z
-x,-y,-z
x,-y,1/2+z
1/2+x,1/2+y,z
1/2-x,1/2+y,1/2-z
1/2-x,1/2-y,-z
1/2+x,1/2-y,1/2+z
loop_
_atom_site_type_symbol
_atom_site_label
_atom_site_fract_x
_atom_site_fract_y
_atom_site_fract_z
Si Si1 0.252073 0.863220 0.776858
Si Si2 0.023153 0.555399 0.299316
Si Si3 0.689823 0.054449 0.845669
Si Si4 0.529562 0.539837 0.423849
Si Si5 0.970516 0.366252 0.424222
Si Si6 0.095168 0.186547 0.579672
Si Si7 0.214842 0.425720 0.454673
O O1 0.354463 0.902838 0.759312
O O2 0.228499 0.688221 0.787426
O O3 0.155156 0.946480 0.855486
O O4 0.268403 0.906005 0.705365
O O5 0.000000 0.511318 0.250000
O O6 0.996337 0.409467 0.348901
O O7 0.951968 0.696216 0.353574
O O8 0.561464 0.055342 0.914957
O O9 0.741792 0.073385 0.877559
O O10 0.500000 0.500000 0.500000
O O11 0.470006 0.689641 0.434456
O O12 0.497621 0.407630 0.399808
O O13 0.854740 0.427603 0.498018
O O14 0.153326 0.274328 0.501456
O O15 0.175420 0.072770 0.568505
#
# Coordination Sequence:
#
# PCOD8134072 Si02
#       7
#     8   8   8   8   8   8   8
#     4  10  21  35  55  81 111 147 195 236 282 346
#     4  10  20  38  61  84 115 154 192 239 293 346
#     4  10  19  35  55  80 111 147 189 236 282 336
#     4  11  23  39  57  83 118 152 193 246 292 341
#     4   9  21  36  56  84 115 153 194 229 284 357
#     4  10  21  36  59  88 113 147 196 238 285 357
#     4  10  20  37  59  84 116 149 187 238 292 343
#
# _framework density 20.007814
#
# number of rings (size 3 to 8) (size 9 to 14) (size 15 to 20)
#    0.000    2.000    0.000    3.857    0.000    6.286 
#    0.000    5.000    0.000    0.000    0.000    0.000 
#    0.000    0.000    0.000    0.000    0.000    0.000 
#
# Total GULP energy -347236.269385 kJ/mol
# GULP energy per Si atom -12401.295335 kJ/mol
# Density = 1.996228 g / cm^3
# Si number density = 20.007814 Si / 1000 Ang^3
#
#
#
# Elastic Constant Matrix: (Units=GPa)
#
#
# Indices 1 2 3 4 5 6 
#
# 1 107.9241 37.6349 50.9429 0.0000 7.2928 0.0003
# 2 37.6349 79.2553 32.8487 0.0000 8.3397 0.0007
# 3 50.9429 32.8487 91.2940 0.0000 7.6580 0.0000
# 4 0.0000 0.0000 0.0000 26.7785 0.0000 -3.9120
# 5 7.2928 8.3397 7.6580 0.0000 38.7297 0.0000
# 6 0.0003 0.0007 0.0000 -3.9120 0.0000 32.3075
#
#
#
# Elastic Compliance Matrix: (Units=1/GPa)
#
#
# Indices 1 2 3 4 5 6 
#
# 1 0.013529 -0.003831 -0.006128 0.000000 -0.000511 0.000000
# 2 -0.003831 0.016096 -0.003481 0.000000 -0.002056 0.000000
# 3 -0.006128 -0.003481 0.015727 0.000000 -0.001206 0.000000
# 4 0.000000 0.000000 0.000000 0.038016 0.000000 0.004603
# 5 -0.000511 -0.002056 -0.001206 0.000000 0.026597 0.000000
# 6 0.000000 0.000000 0.000000 0.004603 0.000000 0.031510
#
#
# Mechanical properties :
#
#
# Convention : Reuss Voigt Hill
#
# Bulk Modulus (GPa) = 54.13801 57.92514 56.03157
# Shear Modulus (GPa) = 28.65139 30.03294 29.34217
#
# Velocity S-wave (km/s) = 3.78830 3.87856 3.83369
# Velocity P-wave (km/s) = 6.80089 7.00512 6.90376
#
# Compressibility (1/GPa) = 0.01847131
#
# Stress axis : x y z
#
# Youngs Moduli (GPa) = 73.91736 62.12825 63.58524
#
# Poissons Ratio (x) = 0.23799 0.38965
# Poissons Ratio (y) = 0.28315 0.22137
# Poissons Ratio (z) = 0.45296 0.21630
#
# Static dielectric constant tensor:
#      x y z
#    x 3.652290 0.000000 -0.133080 
#    y 0.000000 3.559290 0.000000 
#    z -0.133080 0.000000 3.607460 
# 
# 
# High freq. dielectric constant tensor:
#      x y z
#    x 1.779880 0.000000 -0.005900 
#    y 0.000000 1.771360 0.000000 
#    z -0.005900 0.000000 1.784180 
# 
# From -- ./inp_files/276516.got.cif
#   From: 2010.06.25/outbox.cif.g09.slc.cpg/sg15_139_cif.got.tgz:276516.got - 2010.06.28 07:06:18.
