data_PCOD8134980
_publ_section_title
;
Structure prediction by ZEFSAII (Michael W. Deem and Ramdas Pophale) SiO2 
 PCOD8134980
Probable space group: C 2/C
;
_chemical_formula_sum "Si O2"
_cell_formula_units_Z 56
_cell_length_a 17.876606
_cell_length_b 19.609023
_cell_length_c 16.523122
_cell_angle_alpha 90.000000
_cell_angle_beta 31.183958
_cell_angle_gamma 90.000000
_cell_volume 2999.056828
_symmetry_space_group_name_H-M "C 2/C"
_symmetry_group_IT_number 15
_symmetry_cell_setting 'monoclinic'
loop_
_space_group_symop_operation_xyz
x,y,z
-x,y,1/2-z
-x,-y,-z
x,-y,1/2+z
1/2+x,1/2+y,z
1/2-x,1/2+y,1/2-z
1/2-x,1/2-y,-z
1/2+x,1/2-y,1/2+z
loop_
_atom_site_type_symbol
_atom_site_label
_atom_site_fract_x
_atom_site_fract_y
_atom_site_fract_z
Si Si1 0.476944 0.730448 0.089381
Si Si2 0.270204 0.200966 0.058715
Si Si3 0.593899 0.397632 0.398116
Si Si4 0.304582 0.460657 0.645988
Si Si5 0.482143 0.061332 0.173395
Si Si6 0.103992 0.355222 0.427208
Si Si7 0.623765 0.928175 0.972906
O O1 0.366935 0.708243 0.258989
O O2 0.402411 0.773820 0.085715
O O3 0.587136 0.781088 0.026940
O O4 0.568948 0.665836 0.979182
O O5 0.250000 0.250000 0.000000
O O6 0.303438 0.118994 0.022442
O O7 0.440855 0.412347 0.495291
O O8 0.637269 0.462532 0.411406
O O9 0.729087 0.378248 0.216241
O O10 0.185654 0.453664 0.686906
O O11 0.241820 0.440179 0.792512
O O12 0.500000 0.077194 0.250000
O O13 0.583663 0.999308 0.051176
O O14 0.526894 0.129684 0.083678
O O15 0.023865 0.398558 0.430490
#
# Coordination Sequence:
#
# PCOD8134980 Si02
#       7
#     8   8   8   8   8   8   8
#     4  11  22  36  58  85 114 160 199 235 291 356
#     4  11  23  36  53  86 128 159 192 235 289 355
#     4  11  19  35  65  86 112 147 204 250 285 337
#     4  10  20  36  62  89 114 149 203 250 286 350
#     4  11  22  38  60  87 119 155 195 249 300 347
#     4  10  20  37  60  83 115 153 208 237 285 357
#     4  10  19  37  59  84 114 160 200 232 283 361
#
# _framework density 18.672536999999998
#
# number of rings (size 3 to 8) (size 9 to 14) (size 15 to 20)
#    0.000    1.429    5.714    1.286    0.000    3.429 
#    0.000    0.714    0.000    3.429    0.000    0.000 
#    0.000    0.000    0.000    0.000    0.000    0.000 
#
# Total GULP energy -346885.960216 kJ/mol
# GULP energy per Si atom -12388.784293 kJ/mol
# Density = 1.863004 g / cm^3
# Si number density = 18.672537 Si / 1000 Ang^3
#
#
#
# Elastic Constant Matrix: (Units=GPa)
#
#
# Indices 1 2 3 4 5 6 
#
# 1 89.3751 28.8264 38.2731 0.0006 2.0071 0.0008
# 2 28.8264 83.2796 27.6602 -0.0045 3.1571 0.0057
# 3 38.2731 27.6602 86.9666 -0.0022 -17.9252 0.0019
# 4 0.0006 -0.0045 -0.0022 29.0723 0.0029 -3.3632
# 5 2.0071 3.1571 -17.9252 0.0029 36.2430 -0.0031
# 6 0.0008 0.0057 0.0019 -3.3632 -0.0031 22.5674
#
#
#
# Elastic Compliance Matrix: (Units=1/GPa)
#
#
# Indices 1 2 3 4 5 6 
#
# 1 0.014966 -0.002899 -0.006440 -0.000001 -0.003761 0.000000
# 2 -0.002899 0.014437 -0.003944 0.000002 -0.003048 -0.000003
# 3 -0.006440 -0.003944 0.017517 0.000000 0.009364 0.000001
# 4 -0.000001 0.000002 0.000000 0.035000 -0.000002 0.005216
# 5 -0.003761 -0.003048 0.009364 -0.000002 0.032696 0.000004
# 6 0.000000 -0.000003 0.000001 0.005216 0.000004 0.045089
#
#
# Mechanical properties :
#
#
# Convention : Reuss Voigt Hill
#
# Bulk Modulus (GPa) = 49.12888 49.90454 49.51671
# Shear Modulus (GPa) = 25.89927 28.56731 27.23329
#
# Velocity S-wave (km/s) = 3.72832 3.91565 3.82313
# Velocity P-wave (km/s) = 6.70087 6.87221 6.78708
#
# Compressibility (1/GPa) = 0.02035463
#
# Stress axis : x y z
#
# Youngs Moduli (GPa) = 66.81869 69.26808 57.08697
#
# Poissons Ratio (x) = 0.20080 0.36762
# Poissons Ratio (y) = 0.19370 0.22515
# Poissons Ratio (z) = 0.43028 0.27320
#
# Static dielectric constant tensor:
#      x y z
#    x 3.259460 -0.000020 -0.327190 
#    y -0.000020 3.750450 0.000030 
#    z -0.327190 0.000030 3.567520 
# 
# 
# High freq. dielectric constant tensor:
#      x y z
#    x 1.685900 0.000000 -0.034730 
#    y 0.000000 1.736210 0.000000 
#    z -0.034730 0.000000 1.732080 
# 
# From -- ./inp_files/50101.got.cif
#   From: 2010.06.25/outbox.cif.g09.slc.cpg/sg15_26_cif.got.tgz:50101.got - 2010.06.28 07:06:18.
