data_PCOD8134393
_publ_section_title
;
Structure prediction by ZEFSAII (Michael W. Deem and Ramdas Pophale) SiO2 
 PCOD8134393
Probable space group: C 2/C
;
_chemical_formula_sum "Si O2"
_cell_formula_units_Z 56
_cell_length_a 19.525678
_cell_length_b 8.446087
_cell_length_c 20.210879
_cell_angle_alpha 90.000000
_cell_angle_beta 126.162658
_cell_angle_gamma 90.000000
_cell_volume 2690.952733
_symmetry_space_group_name_H-M "C 2/C"
_symmetry_group_IT_number 15
_symmetry_cell_setting 'monoclinic'
loop_
_space_group_symop_operation_xyz
x,y,z
-x,y,1/2-z
-x,-y,-z
x,-y,1/2+z
1/2+x,1/2+y,z
1/2-x,1/2+y,1/2-z
1/2-x,1/2-y,-z
1/2+x,1/2-y,1/2+z
loop_
_atom_site_type_symbol
_atom_site_label
_atom_site_fract_x
_atom_site_fract_y
_atom_site_fract_z
Si Si1 0.089084 0.665280 0.330952
Si Si2 0.528443 0.693119 0.371094
Si Si3 0.822711 0.817135 0.229024
Si Si4 0.260671 0.844924 0.815953
Si Si5 0.995055 0.166853 0.607082
Si Si6 0.447092 0.156532 0.478232
Si Si7 0.882122 0.308431 0.195501
O O1 0.169849 0.750385 0.341655
O O2 0.080170 0.725554 0.402078
O O3 0.100748 0.478560 0.327612
O O4 0.000000 0.723940 0.250000
O O5 0.520206 0.517506 0.393292
O O6 0.559340 0.801387 0.448686
O O7 0.442678 0.770798 0.292596
O O8 0.598625 0.685959 0.352919
O O9 0.759878 0.713594 0.239181
O O10 0.914595 0.789435 0.311617
O O11 0.795064 0.997857 0.212047
O O12 0.353207 0.874030 0.897264
O O13 0.214097 0.711276 0.834318
O O14 0.001730 0.208003 0.533049
O O15 0.500000 0.000000 0.500000
#
# Coordination Sequence:
#
# PCOD8134393 Si02
#       7
#     8   8   8   8   8   8   8
#     4  10  19  35  62  95 122 154 209 266 311 365
#     4  11  22  40  64  95 124 165 214 261 322 382
#     4  10  21  34  60  90 123 157 213 262 309 367
#     4  11  23  39  60  94 127 169 208 270 314 373
#     4  10  21  39  64  91 123 164 211 260 311 377
#     4  11  26  41  62  91 133 173 207 259 327 381
#     4  11  22  38  68  95 122 165 215 266 313 374
#
# _framework density 20.810475
#
# number of rings (size 3 to 8) (size 9 to 14) (size 15 to 20)
#    0.000    1.429    2.857    3.000   10.000    0.571 
#    0.000    1.429    0.000    3.429    0.000    0.000 
#    0.000    0.000    0.000    0.000    0.000    0.000 
#
# Total GULP energy -347063.072447 kJ/mol
# GULP energy per Si atom -12395.109730 kJ/mol
# Density = 2.076311 g / cm^3
# Si number density = 20.810475 Si / 1000 Ang^3
#
#
#
# Elastic Constant Matrix: (Units=GPa)
#
#
# Indices 1 2 3 4 5 6 
#
# 1 140.2330 33.1577 31.8317 0.0000 -11.9283 0.0000
# 2 33.1577 99.9803 11.4840 0.0000 -0.2943 0.0000
# 3 31.8317 11.4840 60.9359 0.0000 -18.4235 0.0000
# 4 0.0000 0.0000 0.0000 25.7283 0.0000 -4.8780
# 5 -11.9283 -0.2943 -18.4235 0.0000 21.7355 0.0000
# 6 0.0000 0.0000 0.0000 -4.8780 0.0000 44.0974
#
#
#
# Elastic Compliance Matrix: (Units=1/GPa)
#
#
# Indices 1 2 3 4 5 6 
#
# 1 0.008663 -0.002461 -0.003542 0.000000 0.001719 0.000000
# 2 -0.002461 0.010988 -0.001544 0.000000 -0.002511 0.000000
# 3 -0.003542 -0.001544 0.024146 0.000000 0.018502 0.000000
# 4 0.000000 0.000000 0.000000 0.039700 0.000000 0.004392
# 5 0.001719 -0.002511 0.018502 0.000000 0.062599 0.000000
# 6 0.000000 0.000000 0.000000 0.004392 0.000000 0.023163
#
#
# Mechanical properties :
#
#
# Convention : Reuss Voigt Hill
#
# Bulk Modulus (GPa) = 34.84052 50.45511 42.64782
# Shear Modulus (GPa) = 25.78355 33.29062 29.53708
#
# Velocity S-wave (km/s) = 3.52372 4.00397 3.77150
# Velocity P-wave (km/s) = 5.77353 6.75821 6.28518
#
# Compressibility (1/GPa) = 0.02870221
#
# Stress axis : x y z
#
# Youngs Moduli (GPa) = 115.43194 91.00682 41.41495
#
# Poissons Ratio (x) = 0.22398 0.14669
# Poissons Ratio (y) = 0.28410 0.06396
# Poissons Ratio (z) = 0.40886 0.14055
#
# Static dielectric constant tensor:
#      x y z
#    x 4.358320 0.000000 -0.388530 
#    y 0.000000 3.749390 0.000000 
#    z -0.388530 0.000000 3.531260 
# 
# 
# High freq. dielectric constant tensor:
#      x y z
#    x 1.837470 0.000000 -0.026860 
#    y 0.000000 1.822850 0.000000 
#    z -0.026860 0.000000 1.773110 
# 
# From -- ./inp_files/247584.got.cif
#   From: 2010.06.25/outbox.cif.g09.slc.cpg/sg15_124_cif.got.tgz:247584.got - 2010.06.28 07:06:18.
