data_PCOD8134403
_publ_section_title
;
Structure prediction by ZEFSAII (Michael W. Deem and Ramdas Pophale) SiO2 
 PCOD8134403
Probable space group: C 2/C
;
_chemical_formula_sum "Si O2"
_cell_formula_units_Z 56
_cell_length_a 9.104807
_cell_length_b 18.695844
_cell_length_c 16.737515
_cell_angle_alpha 90.000000
_cell_angle_beta 80.407619
_cell_angle_gamma 90.000000
_cell_volume 2809.258686
_symmetry_space_group_name_H-M "C 2/C"
_symmetry_group_IT_number 15
_symmetry_cell_setting 'monoclinic'
loop_
_space_group_symop_operation_xyz
x,y,z
-x,y,1/2-z
-x,-y,-z
x,-y,1/2+z
1/2+x,1/2+y,z
1/2-x,1/2+y,1/2-z
1/2-x,1/2-y,-z
1/2+x,1/2-y,1/2+z
loop_
_atom_site_type_symbol
_atom_site_label
_atom_site_fract_x
_atom_site_fract_y
_atom_site_fract_z
Si Si1 0.089493 0.547131 0.386016
Si Si2 0.213898 0.616698 0.125399
Si Si3 0.668710 0.127593 0.708364
Si Si4 0.169583 0.986039 0.759710
Si Si5 0.233687 0.325061 0.460727
Si Si6 0.552571 0.898700 0.057177
Si Si7 0.336574 0.268993 0.297935
O O1 0.233884 0.552700 0.317482
O O2 0.135211 0.579971 0.467790
O O3 0.958384 0.592575 0.356503
O O4 0.038992 0.465584 0.399537
O O5 0.316652 0.559493 0.160427
O O6 0.229075 0.693789 0.165850
O O7 0.269837 0.616870 0.027069
O O8 0.500000 0.113215 0.750000
O O9 0.673411 0.128219 0.611050
O O10 0.728881 0.202578 0.737366
O O11 0.774971 0.066034 0.731736
O O12 0.000000 0.988732 0.750000
O O13 0.250000 0.250000 0.500000
O O14 0.338491 0.326014 0.372292
O O15 0.063884 0.334884 0.447045
O O16 0.500000 0.259127 0.250000
#
# Coordination Sequence:
#
# PCOD8134403 Si02
#       7
#     8   8   8   8   8   8   8
#     4  10  19  37  64  84 113 153 204 240 292 357
#     4  10  21  40  64  82 115 161 199 239 295 356
#     4  12  21  38  61  86 118 156 201 239 290 360
#     4  12  23  38  57  89 121 149 196 252 297 345
#     4   9  19  36  59  87 118 154 198 242 292 351
#     4  10  19  35  63  87 110 157 203 240 285 357
#     4  11  22  37  60  89 120 155 194 245 301 352
#
# _framework density 19.934083999999999
#
# number of rings (size 3 to 8) (size 9 to 14) (size 15 to 20)
#    0.000    1.429    4.286    1.714    0.000    0.571 
#    2.571    0.714    0.000    3.429    0.000    0.000 
#    0.000    0.000    0.000    0.000    0.000    0.000 
#
# Total GULP energy -347138.902578 kJ/mol
# GULP energy per Si atom -12397.817949 kJ/mol
# Density = 1.988871 g / cm^3
# Si number density = 19.934084 Si / 1000 Ang^3
#
#
#
# Elastic Constant Matrix: (Units=GPa)
#
#
# Indices 1 2 3 4 5 6 
#
# 1 86.3616 32.1325 26.0510 0.0000 24.2968 0.0000
# 2 32.1325 77.8626 18.5476 0.0000 17.4607 0.0000
# 3 26.0510 18.5476 84.8291 0.0000 26.9453 0.0000
# 4 0.0000 0.0000 0.0000 32.9998 0.0000 12.2518
# 5 24.2968 17.4607 26.9453 0.0000 31.9419 0.0000
# 6 0.0000 0.0000 0.0000 12.2518 0.0000 31.2145
#
#
#
# Elastic Compliance Matrix: (Units=1/GPa)
#
#
# Indices 1 2 3 4 5 6 
#
# 1 0.016038 -0.004360 -0.001167 0.000000 -0.008832 0.000000
# 2 -0.004360 0.015873 -0.000586 0.000000 -0.004866 0.000000
# 3 -0.001167 -0.000586 0.016244 0.000000 -0.012495 0.000000
# 4 0.000000 0.000000 0.000000 0.035472 0.000000 -0.013923
# 5 -0.008832 -0.004866 -0.012495 0.000000 0.051226 0.000000
# 6 0.000000 0.000000 0.000000 -0.013923 0.000000 0.037501
#
#
# Mechanical properties :
#
#
# Convention : Reuss Voigt Hill
#
# Bulk Modulus (GPa) = 27.83202 44.72394 36.27798
# Shear Modulus (GPa) = 25.43796 30.71938 28.07867
#
# Velocity S-wave (km/s) = 3.57614 3.92988 3.75717
# Velocity P-wave (km/s) = 5.57171 6.56327 6.08771
#
# Compressibility (1/GPa) = 0.03592984
#
# Stress axis : x y z
#
# Youngs Moduli (GPa) = 62.35112 62.99888 61.56201
#
# Poissons Ratio (x) = 0.27469 0.07182
# Poissons Ratio (y) = 0.27186 0.03607
# Poissons Ratio (z) = 0.07274 0.03691
#
# Static dielectric constant tensor:
#      x y z
#    x 3.360540 0.000000 0.207190 
#    y 0.000000 3.645080 0.000000 
#    z 0.207190 0.000000 4.325960 
# 
# 
# High freq. dielectric constant tensor:
#      x y z
#    x 1.742840 0.000000 0.017740 
#    y 0.000000 1.773380 0.000000 
#    z 0.017740 0.000000 1.801700 
# 
# From -- ./inp_files/191578.got.cif
#   From: 2010.06.25/outbox.cif.g09.slc.cpg/sg15_96_cif.got.tgz:191578.got - 2010.06.28 07:06:18.
