data_PCOD8134681
_publ_section_title
;
Structure prediction by ZEFSAII (Michael W. Deem and Ramdas Pophale) SiO2 
 PCOD8134681
Probable space group: C 2/C
;
_chemical_formula_sum "Si O2"
_cell_formula_units_Z 48
_cell_length_a 12.574527
_cell_length_b 13.773225
_cell_length_c 13.958745
_cell_angle_alpha 90.000000
_cell_angle_beta 87.906902
_cell_angle_gamma 90.000000
_cell_volume 2415.927047
_symmetry_space_group_name_H-M "C 2/C"
_symmetry_group_IT_number 15
_symmetry_cell_setting 'monoclinic'
loop_
_space_group_symop_operation_xyz
x,y,z
-x,y,1/2-z
-x,-y,-z
x,-y,1/2+z
1/2+x,1/2+y,z
1/2-x,1/2+y,1/2-z
1/2-x,1/2-y,-z
1/2+x,1/2-y,1/2+z
loop_
_atom_site_type_symbol
_atom_site_label
_atom_site_fract_x
_atom_site_fract_y
_atom_site_fract_z
Si Si1 0.998153 0.273016 0.905536
Si Si2 0.762119 0.926161 0.660466
Si Si3 0.714813 0.720364 0.678758
Si Si4 0.094032 0.542797 0.317290
Si Si5 0.404288 0.597758 0.678789
Si Si6 0.646044 0.110888 0.969707
O O1 0.901426 0.266642 0.833397
O O2 0.082094 0.348825 0.859148
O O3 0.054341 0.166833 0.909922
O O4 0.948043 0.309856 0.007588
O O5 0.793440 0.813950 0.685532
O O6 0.702983 0.967985 0.755673
O O7 0.687935 0.932599 0.568556
O O8 0.866260 0.993320 0.639968
O O9 0.699853 0.650805 0.770887
O O10 0.753896 0.659449 0.586226
O O11 0.093591 0.472003 0.407969
O O12 0.000000 0.511240 0.250000
O O13 0.500000 0.579809 0.750000
#
# Coordination Sequence:
#
# PCOD8134681 Si02
#       6
#     8   8   8   8   8   8
#     4  10  19  36  60  86 112 157 203 233 281 362
#     4  11  21  37  63  88 118 155 197 248 291 344
#     4  10  19  38  60  86 116 157 201 236 285 360
#     4  12  20  36  62  90 118 148 199 253 291 342
#     4  10  20  38  63  85 118 161 197 238 294 351
#     4  11  23  36  62  91 119 152 203 243 292 351
#
# _framework density 19.86815
#
# number of rings (size 3 to 8) (size 9 to 14) (size 15 to 20)
#    0.000    1.333    6.667    3.000    0.000    0.000 
#    0.000    9.167    3.667    0.000    0.000    0.000 
#    0.000    0.000    0.000    0.000    0.000    0.000 
#
# Total GULP energy -297396.707967 kJ/mol
# GULP energy per Si atom -12391.529499 kJ/mol
# Density = 1.982293 g / cm^3
# Si number density = 19.868150 Si / 1000 Ang^3
#
#
#
# Elastic Constant Matrix: (Units=GPa)
#
#
# Indices 1 2 3 4 5 6 
#
# 1 56.4806 46.8311 19.0493 0.0000 -10.0199 0.0000
# 2 46.8311 116.0329 17.2949 0.0000 -3.8665 0.0000
# 3 19.0493 17.2949 65.9816 0.0000 -14.3029 0.0000
# 4 0.0000 0.0000 0.0000 28.9191 0.0000 -9.1557
# 5 -10.0199 -3.8665 -14.3029 0.0000 26.9676 0.0000
# 6 0.0000 0.0000 0.0000 -9.1557 0.0000 44.0726
#
#
#
# Elastic Compliance Matrix: (Units=1/GPa)
#
#
# Indices 1 2 3 4 5 6 
#
# 1 0.029542 -0.011077 -0.004057 0.000000 0.007237 0.000000
# 2 -0.011077 0.013122 -0.000820 0.000000 -0.002669 0.000000
# 3 -0.004057 -0.000820 0.018293 0.000000 0.008077 0.000000
# 4 0.000000 0.000000 0.000000 0.037014 0.000000 0.007689
# 5 0.007237 -0.002669 0.008077 0.000000 0.043672 0.000000
# 6 0.000000 0.000000 0.000000 0.007689 0.000000 0.024287
#
#
# Mechanical properties :
#
#
# Convention : Reuss Voigt Hill
#
# Bulk Modulus (GPa) = 34.42491 44.98286 39.70389
# Shear Modulus (GPa) = 24.09391 30.34650 27.22021
#
# Velocity S-wave (km/s) = 3.48615 3.91243 3.70542
# Velocity P-wave (km/s) = 5.79384 6.56501 6.19144
#
# Compressibility (1/GPa) = 0.02904873
#
# Stress axis : x y z
#
# Youngs Moduli (GPa) = 33.84996 76.20553 54.66636
#
# Poissons Ratio (x) = 0.84416 0.22177
# Poissons Ratio (y) = 0.37497 0.04483
# Poissons Ratio (z) = 0.13732 0.06250
#
# Static dielectric constant tensor:
#      x y z
#    x 3.392450 0.000000 -0.398430 
#    y 0.000000 3.883660 0.000000 
#    z -0.398430 0.000000 3.561370 
# 
# 
# High freq. dielectric constant tensor:
#      x y z
#    x 1.740410 0.000000 -0.039410 
#    y 0.000000 1.787240 0.000000 
#    z -0.039410 0.000000 1.762780 
# 
# From -- ./inp_files/126827.got.cif
#   From: 2010.06.25/outbox.cif.g09.slc.cpg/sg15_64_cif.got.tgz:126827.got - 2010.06.28 07:06:18.
