data_PCOD8134362
_publ_section_title
;
Structure prediction by ZEFSAII (Michael W. Deem and Ramdas Pophale) SiO2 
 PCOD8134362
Probable space group: C 2/C
;
_chemical_formula_sum "Si O2"
_cell_formula_units_Z 64
_cell_length_a 22.077926
_cell_length_b 13.862451
_cell_length_c 18.305256
_cell_angle_alpha 90.000000
_cell_angle_beta 32.577325
_cell_angle_gamma 90.000000
_cell_volume 3016.541288
_symmetry_space_group_name_H-M "C 2/C"
_symmetry_group_IT_number 15
_symmetry_cell_setting 'monoclinic'
loop_
_space_group_symop_operation_xyz
x,y,z
-x,y,1/2-z
-x,-y,-z
x,-y,1/2+z
1/2+x,1/2+y,z
1/2-x,1/2+y,1/2-z
1/2-x,1/2-y,-z
1/2+x,1/2-y,1/2+z
loop_
_atom_site_type_symbol
_atom_site_label
_atom_site_fract_x
_atom_site_fract_y
_atom_site_fract_z
Si Si1 0.516858 0.883793 0.902411
Si Si2 0.050586 0.690326 0.620948
Si Si3 0.853246 0.355481 0.939337
Si Si4 0.112701 0.409137 0.323985
Si Si5 0.754856 0.445405 0.526579
Si Si6 0.129171 0.223891 0.715013
Si Si7 0.843466 0.884934 0.024046
Si Si8 0.533580 0.520787 0.799363
O O1 0.454551 0.889722 0.887759
O O2 0.602298 0.793372 0.810699
O O3 0.591037 0.977205 0.841979
O O4 0.428492 0.866814 0.057133
O O5 0.152065 0.614740 0.524811
O O6 0.093749 0.783155 0.533485
O O7 0.000000 0.722193 0.750000
O O8 0.950078 0.642572 0.678478
O O9 0.894256 0.278818 0.837840
O O10 0.803610 0.450940 0.950460
O O11 0.758724 0.307115 0.086826
O O12 0.246501 0.391635 0.183544
O O13 0.714402 0.389114 0.496481
O O14 0.651986 0.463668 0.687787
O O15 0.045774 0.132604 0.808338
O O16 0.934460 0.970034 0.946577
O O17 0.500000 0.512566 0.750000
#
# Coordination Sequence:
#
# PCOD8134362 Si02
#       8
#     8   8   8   8   8   8   8   8
#     4  11  23  42  61  87 127 161 207 257 302 375
#     4  12  23  38  64  90 120 161 212 262 303 355
#     4  10  20  37  65  97 125 156 195 256 311 380
#     4  11  26  41  60  89 118 172 213 249 311 361
#     4  10  19  35  61  91 122 156 196 259 306 360
#     4  10  21  35  66  98 124 156 200 243 327 372
#     4  11  23  38  61  88 129 156 208 258 308 360
#     4   9  19  35  57  95 127 153 191 254 314 370
#
# _framework density 21.216349999999998
#
# number of rings (size 3 to 8) (size 9 to 14) (size 15 to 20)
#    0.000    1.500    2.500    3.375    1.750    4.000 
#    0.000    1.250    0.000    2.250    0.000    0.000 
#    0.000    0.000    0.000    0.000    0.000    0.000 
#
# Total GULP energy -396836.096928 kJ/mol
# GULP energy per Si atom -12401.128029 kJ/mol
# Density = 2.116806 g / cm^3
# Si number density = 21.216350 Si / 1000 Ang^3
#
#
#
# Elastic Constant Matrix: (Units=GPa)
#
#
# Indices 1 2 3 4 5 6 
#
# 1 21.1981 7.1030 8.4747 0.0000 -8.9478 0.0000
# 2 7.1030 128.5520 71.5687 0.0000 -8.0418 0.0000
# 3 8.4747 71.5687 153.6163 0.0000 -13.9988 0.0000
# 4 0.0000 0.0000 0.0000 33.3378 0.0000 -0.4650
# 5 -8.9478 -8.0418 -13.9988 0.0000 29.7934 0.0000
# 6 0.0000 0.0000 0.0000 -0.4650 0.0000 17.5966
#
#
#
# Elastic Compliance Matrix: (Units=1/GPa)
#
#
# Indices 1 2 3 4 5 6 
#
# 1 0.054618 -0.001561 -0.000867 0.000000 0.015575 0.000000
# 2 -0.001561 0.010557 -0.004822 0.000000 0.000115 0.000000
# 3 -0.000867 -0.004822 0.009049 0.000000 0.002690 0.000000
# 4 0.000000 0.000000 0.000000 0.030007 0.000000 0.000793
# 5 0.015575 0.000115 0.002690 0.000000 0.039537 0.000000
# 6 0.000000 0.000000 0.000000 0.000793 0.000000 0.056850
#
#
# Mechanical properties :
#
#
# Convention : Reuss Voigt Hill
#
# Bulk Modulus (GPa) = 16.74347 53.07324 34.90836
# Shear Modulus (GPa) = 21.27436 30.56023 25.91730
#
# Velocity S-wave (km/s) = 3.17003 3.79939 3.49889
# Velocity P-wave (km/s) = 4.61603 6.65708 5.72820
#
# Compressibility (1/GPa) = 0.05972477
#
# Stress axis : x y z
#
# Youngs Moduli (GPa) = 18.30911 94.72559 110.50849
#
# Poissons Ratio (x) = 0.14788 0.09576
# Poissons Ratio (y) = 0.02858 0.53284
# Poissons Ratio (z) = 0.01587 0.45674
#
# Static dielectric constant tensor:
#      x y z
#    x 3.458870 0.000000 -0.306220 
#    y 0.000000 3.977630 0.000000 
#    z -0.306220 0.000000 4.186090 
# 
# 
# High freq. dielectric constant tensor:
#      x y z
#    x 1.792960 0.000000 -0.027570 
#    y 0.000000 1.843210 0.000000 
#    z -0.027570 0.000000 1.841030 
# 
# From -- ./inp_files/219724.got.cif
#   From: 2010.06.25/outbox.cif.g09.slc.cpg/sg15_110_cif.got.tgz:219724.got - 2010.06.28 07:06:18.
