data_PCOD8134161
_publ_section_title
;
Structure prediction by ZEFSAII (Michael W. Deem and Ramdas Pophale) SiO2 
 PCOD8134161
Probable space group: C 2/C
;
_chemical_formula_sum "Si O2"
_cell_formula_units_Z 48
_cell_length_a 18.285628
_cell_length_b 7.340310
_cell_length_c 18.307340
_cell_angle_alpha 90.000000
_cell_angle_beta 93.001857
_cell_angle_gamma 90.000000
_cell_volume 2453.879303
_symmetry_space_group_name_H-M "C 2/C"
_symmetry_group_IT_number 15
_symmetry_cell_setting 'monoclinic'
loop_
_space_group_symop_operation_xyz
x,y,z
-x,y,1/2-z
-x,-y,-z
x,-y,1/2+z
1/2+x,1/2+y,z
1/2-x,1/2+y,1/2-z
1/2-x,1/2-y,-z
1/2+x,1/2-y,1/2+z
loop_
_atom_site_type_symbol
_atom_site_label
_atom_site_fract_x
_atom_site_fract_y
_atom_site_fract_z
Si Si1 0.279167 0.404136 0.164376
Si Si2 0.810294 0.250791 0.814282
Si Si3 0.656141 0.518613 0.476410
Si Si4 0.090626 0.646927 0.469673
Si Si5 0.072778 0.305674 0.559849
Si Si6 0.770952 0.532598 0.098408
O O1 0.217541 0.541570 0.190603
O O2 0.327292 0.325064 0.234242
O O3 0.331711 0.512193 0.110350
O O4 0.240657 0.230494 0.122956
O O5 0.884630 0.244373 0.865144
O O6 0.746309 0.122944 0.843764
O O7 0.624895 0.329048 0.504301
O O8 0.600335 0.680313 0.493801
O O9 0.734604 0.536706 0.520712
O O10 0.085195 0.514912 0.538766
O O11 0.141811 0.554919 0.409976
O O12 0.013645 0.708719 0.430029
#
# Coordination Sequence:
#
# PCOD8134161 Si02
#       6
#     8   8   8   8   8   8
#     4  11  20  34  55  80 110 143 186 232 282 328
#     4  11  21  35  55  84 111 148 185 238 282 339
#     4  10  20  35  58  83 109 144 190 237 274 330
#     4  10  19  35  57  83 111 144 183 231 284 337
#     4  10  21  35  56  85 113 144 186 233 288 334
#     4  10  20  36  57  84 109 144 189 236 281 326
#
# _framework density 19.560865
#
# number of rings (size 3 to 8) (size 9 to 14) (size 15 to 20)
#    0.000    1.667    1.667    5.500    0.000    2.667 
#    0.000    3.333    0.000    0.000    8.667    0.000 
#    0.000    0.000    0.000    0.000    0.000    0.000 
#
# Total GULP energy -297484.872185 kJ/mol
# GULP energy per Si atom -12395.203008 kJ/mol
# Density = 1.951634 g / cm^3
# Si number density = 19.560865 Si / 1000 Ang^3
#
#
#
# Elastic Constant Matrix: (Units=GPa)
#
#
# Indices 1 2 3 4 5 6 
#
# 1 113.2064 26.2924 47.7317 0.0000 0.4731 0.0000
# 2 26.2924 72.0441 27.1821 0.0000 -2.5359 0.0000
# 3 47.7317 27.1821 120.8544 0.0000 2.4378 0.0000
# 4 0.0000 0.0000 0.0000 31.2528 0.0000 -1.8922
# 5 0.4731 -2.5359 2.4378 0.0000 13.6856 0.0000
# 6 0.0000 0.0000 0.0000 -1.8922 0.0000 27.8596
#
#
#
# Elastic Compliance Matrix: (Units=1/GPa)
#
#
# Indices 1 2 3 4 5 6 
#
# 1 0.011028 -0.002611 -0.003764 0.000000 -0.000195 0.000000
# 2 -0.002611 0.015948 -0.002627 0.000000 0.003513 0.000000
# 3 -0.003764 -0.002627 0.010396 0.000000 -0.002209 0.000000
# 4 0.000000 0.000000 0.000000 0.032129 0.000000 0.002182
# 5 -0.000195 0.003513 -0.002209 0.000000 0.074121 0.000000
# 6 0.000000 0.000000 0.000000 0.002182 0.000000 0.036042
#
#
# Mechanical properties :
#
#
# Convention : Reuss Voigt Hill
#
# Bulk Modulus (GPa) = 51.63076 56.50191 54.06634
# Shear Modulus (GPa) = 24.49484 28.21953 26.35719
#
# Velocity S-wave (km/s) = 3.54254 3.80235 3.67474
# Velocity P-wave (km/s) = 6.57153 6.94442 6.76055
#
# Compressibility (1/GPa) = 0.01936830
#
# Stress axis : x y z
#
# Youngs Moduli (GPa) = 90.67975 62.70384 96.18708
#
# Poissons Ratio (x) = 0.16373 0.36207
# Poissons Ratio (y) = 0.23678 0.25264
# Poissons Ratio (z) = 0.34134 0.16469
#
# Static dielectric constant tensor:
#      x y z
#    x 3.432510 0.000000 -0.013930 
#    y 0.000000 3.853590 0.000000 
#    z -0.013930 0.000000 3.478120 
# 
# 
# High freq. dielectric constant tensor:
#      x y z
#    x 1.733500 0.000000 -0.003520 
#    y 0.000000 1.786190 0.000000 
#    z -0.003520 0.000000 1.746170 
# 
# From -- ./inp_files/208643.got.cif
#   From: 2010.06.25/outbox.cif.g09.slc.cpg/sg15_105_cif.got.tgz:208643.got - 2010.06.28 07:06:18.
