data_PCOD8134121
_publ_section_title
;
Structure prediction by ZEFSAII (Michael W. Deem and Ramdas Pophale) SiO2 
 PCOD8134121
Probable space group: C 2/C
;
_chemical_formula_sum "Si O2"
_cell_formula_units_Z 56
_cell_length_a 19.826240
_cell_length_b 14.291013
_cell_length_c 11.177657
_cell_angle_alpha 90.000000
_cell_angle_beta 110.194811
_cell_angle_gamma 90.000000
_cell_volume 2972.348100
_symmetry_space_group_name_H-M "C 2/C"
_symmetry_group_IT_number 15
_symmetry_cell_setting 'monoclinic'
loop_
_space_group_symop_operation_xyz
x,y,z
-x,y,1/2-z
-x,-y,-z
x,-y,1/2+z
1/2+x,1/2+y,z
1/2-x,1/2+y,1/2-z
1/2-x,1/2-y,-z
1/2+x,1/2-y,1/2+z
loop_
_atom_site_type_symbol
_atom_site_label
_atom_site_fract_x
_atom_site_fract_y
_atom_site_fract_z
Si Si1 0.812582 0.178568 0.531369
Si Si2 0.384103 0.610059 0.807063
Si Si3 0.449650 0.718039 0.053472
Si Si4 0.184417 0.311163 0.407448
Si Si5 0.607104 0.264427 0.639148
Si Si6 0.786774 0.029374 0.954885
Si Si7 0.093099 0.928205 0.791001
O O1 0.750000 0.250000 0.500000
O O2 0.843997 0.169333 0.682459
O O3 0.871408 0.230566 0.485346
O O4 0.781346 0.082652 0.455126
O O5 0.324422 0.562715 0.855613
O O6 0.432672 0.531042 0.768556
O O7 0.435249 0.679784 0.911642
O O8 0.386417 0.788094 0.057092
O O9 0.524970 0.774701 0.101049
O O10 0.459066 0.626587 0.147017
O O11 0.250000 0.250000 0.500000
O O12 0.163870 0.290983 0.256547
O O13 0.208609 0.420171 0.422204
O O14 0.606676 0.371700 0.679347
O O15 0.831093 0.063623 0.096081
#
# Coordination Sequence:
#
# PCOD8134121 Si02
#       7
#     8   8   8   8   8   8   8
#     4  11  24  37  57  84 118 150 189 247 300 353
#     4  10  19  36  51  82 117 154 189 221 299 357
#     4  10  22  35  54  85 116 158 192 241 297 344
#     4  11  18  34  63  82 110 150 201 239 279 338
#     4  11  21  37  54  85 121 148 189 248 294 346
#     4  10  19  35  56  85 108 148 196 239 276 349
#     4   9  17  32  52  78 115 142 190 229 277 350
#
# _framework density 18.840323999999999
#
# number of rings (size 3 to 8) (size 9 to 14) (size 15 to 20)
#    0.000    1.714    5.714    2.571    0.000    1.143 
#    5.143    0.000    0.000    0.857    3.714    0.000 
#    0.000    0.000    0.000    0.000    0.000    0.000 
#
# Total GULP energy -346915.627689 kJ/mol
# GULP energy per Si atom -12389.843846 kJ/mol
# Density = 1.879744 g / cm^3
# Si number density = 18.840324 Si / 1000 Ang^3
#
#
#
# Elastic Constant Matrix: (Units=GPa)
#
#
# Indices 1 2 3 4 5 6 
#
# 1 114.5046 36.0057 34.4873 0.0000 1.6866 0.0000
# 2 36.0057 44.5383 18.8757 0.0000 7.9461 0.0000
# 3 34.4873 18.8757 113.6853 0.0000 -0.9288 0.0000
# 4 0.0000 0.0000 0.0000 25.3448 0.0000 -0.3531
# 5 1.6866 7.9461 -0.9288 0.0000 26.2286 0.0000
# 6 0.0000 0.0000 0.0000 -0.3531 0.0000 16.8872
#
#
#
# Elastic Compliance Matrix: (Units=1/GPa)
#
#
# Indices 1 2 3 4 5 6 
#
# 1 0.012306 -0.009386 -0.002158 0.000000 0.001976 0.000000
# 2 -0.009386 0.032865 -0.002687 0.000000 -0.009448 0.000000
# 3 -0.002158 -0.002687 0.009908 0.000000 0.001304 0.000000
# 4 0.000000 0.000000 0.000000 0.039467 0.000000 0.000825
# 5 0.001976 -0.009448 0.001304 0.000000 0.040908 0.000000
# 6 0.000000 0.000000 0.000000 0.000825 0.000000 0.059234
#
#
# Mechanical properties :
#
#
# Convention : Reuss Voigt Hill
#
# Bulk Modulus (GPa) = 37.57127 50.16285 43.86706
# Shear Modulus (GPa) = 21.54978 25.91606 23.73292
#
# Velocity S-wave (km/s) = 3.38570 3.71288 3.55306
# Velocity P-wave (km/s) = 5.93879 6.71295 6.33770
#
# Compressibility (1/GPa) = 0.02661608
#
# Stress axis : x y z
#
# Youngs Moduli (GPa) = 81.26348 30.42790 100.93139
#
# Poissons Ratio (x) = 0.28559 0.21786
# Poissons Ratio (y) = 0.76273 0.27116
# Poissons Ratio (z) = 0.17541 0.08175
#
# Static dielectric constant tensor:
#      x y z
#    x 3.390320 0.000000 0.061870 
#    y 0.000000 3.386580 0.000000 
#    z 0.061870 0.000000 3.592690 
# 
# 
# High freq. dielectric constant tensor:
#      x y z
#    x 1.722560 0.000000 -0.000030 
#    y 0.000000 1.692870 0.000000 
#    z -0.000030 0.000000 1.751140 
# 
# From -- ./inp_files/112423.got.cif
#   From: 2010.06.25/outbox.cif.g09.slc.cpg/sg15_57_cif.got.tgz:112423.got - 2010.06.28 07:06:18.
