data_PCOD8134517
_publ_section_title
;
Structure prediction by ZEFSAII (Michael W. Deem and Ramdas Pophale) SiO2 
 PCOD8134517
Probable space group: C 2/C
;
_chemical_formula_sum "Si O2"
_cell_formula_units_Z 64
_cell_length_a 23.257215
_cell_length_b 11.533532
_cell_length_c 24.474454
_cell_angle_alpha 90.000000
_cell_angle_beta 151.163203
_cell_angle_gamma 90.000000
_cell_volume 3166.394639
_symmetry_space_group_name_H-M "C 2/C"
_symmetry_group_IT_number 15
_symmetry_cell_setting 'monoclinic'
loop_
_space_group_symop_operation_xyz
x,y,z
-x,y,1/2-z
-x,-y,-z
x,-y,1/2+z
1/2+x,1/2+y,z
1/2-x,1/2+y,1/2-z
1/2-x,1/2-y,-z
1/2+x,1/2-y,1/2+z
loop_
_atom_site_type_symbol
_atom_site_label
_atom_site_fract_x
_atom_site_fract_y
_atom_site_fract_z
Si Si1 0.753782 0.026429 0.685754
Si Si2 0.308009 0.785460 0.444502
Si Si3 0.867153 0.529800 0.079804
Si Si4 0.152471 0.450456 0.213989
Si Si5 0.991866 0.900989 0.064163
Si Si6 0.381103 0.636117 0.939840
Si Si7 0.364393 0.087954 0.193123
Si Si8 0.889607 0.634402 0.506344
O O1 0.691189 0.143817 0.611763
O O2 0.696685 0.988366 0.695652
O O3 0.895300 0.049125 0.808246
O O4 0.721716 0.919401 0.619404
O O5 0.298104 0.878465 0.484964
O O6 0.422915 0.699788 0.540422
O O7 0.184883 0.717583 0.349036
O O8 0.813943 0.518928 0.096956
O O9 0.871803 0.401612 0.055391
O O10 0.994816 0.589147 0.191564
O O11 0.245795 0.346117 0.304297
O O12 0.177198 0.534847 0.284816
O O13 0.015981 0.417144 0.092469
O O14 0.029293 0.846377 0.036703
O O15 0.901388 0.007930 0.981114
O O16 0.398653 0.728603 0.003322
#
# Coordination Sequence:
#
# PCOD8134517 Si02
#       8
#     8   8   8   8   8   8   8   8
#     4  10  22  34  55  88 119 146 183 233 284 345
#     4  11  19  35  57  84 113 149 182 233 291 334
#     4   9  21  36  55  83 106 143 194 239 275 331
#     4  10  20  35  56  82 107 151 188 225 279 344
#     4  10  21  36  53  84 119 146 186 227 287 343
#     4  10  21  36  53  81 114 153 181 231 279 342
#     4  10  19  36  57  79 109 146 191 234 278 330
#     4  10  21  36  57  80 115 149 189 233 281 332
#
# _framework density 20.212263
#
# number of rings (size 3 to 8) (size 9 to 14) (size 15 to 20)
#    0.000    2.000    1.250    2.250    1.750    4.000 
#    0.000    0.625    0.000    0.000    0.000    0.000 
#    0.000    0.000    0.000    0.000    0.000    0.000 
#
# Total GULP energy -396461.371155 kJ/mol
# GULP energy per Si atom -12389.417849 kJ/mol
# Density = 2.016626 g / cm^3
# Si number density = 20.212263 Si / 1000 Ang^3
#
#
#
# Elastic Constant Matrix: (Units=GPa)
#
#
# Indices 1 2 3 4 5 6 
#
# 1 68.2220 23.6477 22.8199 -0.0001 -28.1117 -0.0001
# 2 23.6477 81.0697 20.3830 0.0005 -12.5325 0.0003
# 3 22.8199 20.3830 88.6610 0.0007 -6.2916 0.0004
# 4 -0.0001 0.0005 0.0007 23.6454 0.0003 0.7380
# 5 -28.1117 -12.5325 -6.2916 0.0003 29.4225 0.0001
# 6 -0.0001 0.0003 0.0004 0.7380 0.0001 20.0204
#
#
#
# Elastic Compliance Matrix: (Units=1/GPa)
#
#
# Indices 1 2 3 4 5 6 
#
# 1 0.026896 -0.003082 -0.004553 0.000000 0.023412 0.000000
# 2 -0.003082 0.014215 -0.002289 0.000000 0.002621 0.000000
# 3 -0.004553 -0.002289 0.012793 0.000000 -0.002589 0.000000
# 4 0.000000 0.000000 0.000000 0.042340 -0.000001 -0.001561
# 5 0.023412 0.002621 -0.002589 -0.000001 0.056919 0.000000
# 6 0.000000 0.000000 0.000000 -0.001561 0.000000 0.050007
#
#
# Mechanical properties :
#
#
# Convention : Reuss Voigt Hill
#
# Bulk Modulus (GPa) = 29.36206 41.29486 35.32846
# Shear Modulus (GPa) = 21.33393 26.02449 23.67921
#
# Velocity S-wave (km/s) = 3.25236 3.59215 3.42647
# Velocity P-wave (km/s) = 5.35371 6.13838 5.75942
#
# Compressibility (1/GPa) = 0.03405755
#
# Stress axis : x y z
#
# Youngs Moduli (GPa) = 37.18002 70.35037 78.16663
#
# Poissons Ratio (x) = 0.21679 0.35588
# Poissons Ratio (y) = 0.11457 0.17890
# Poissons Ratio (z) = 0.16927 0.16102
#
# Static dielectric constant tensor:
#      x y z
#    x 3.878880 0.000000 -0.185370 
#    y 0.000000 3.445170 0.000000 
#    z -0.185370 0.000000 3.927980 
# 
# 
# High freq. dielectric constant tensor:
#      x y z
#    x 1.776170 0.000000 -0.005230 
#    y 0.000000 1.764580 0.000000 
#    z -0.005230 0.000000 1.804130 
# 
# From -- ./inp_files/117611.got.cif
#   From: 2010.06.25/outbox.cif.g09.slc.cpg/sg15_59_cif.got.tgz:117611.got - 2010.06.28 07:06:18.
