data_PCOD8134470
_publ_section_title
;
Structure prediction by ZEFSAII (Michael W. Deem and Ramdas Pophale) SiO2 
 PCOD8134470
Probable space group: C 2/C
;
_chemical_formula_sum "Si O2"
_cell_formula_units_Z 60
_cell_length_a 16.159780
_cell_length_b 9.559378
_cell_length_c 20.899660
_cell_angle_alpha 90.000000
_cell_angle_beta 70.877483
_cell_angle_gamma 90.000000
_cell_volume 3050.376805
_symmetry_space_group_name_H-M "C 2/C"
_symmetry_group_IT_number 15
_symmetry_cell_setting 'monoclinic'
loop_
_space_group_symop_operation_xyz
x,y,z
-x,y,1/2-z
-x,-y,-z
x,-y,1/2+z
1/2+x,1/2+y,z
1/2-x,1/2+y,1/2-z
1/2-x,1/2-y,-z
1/2+x,1/2-y,1/2+z
loop_
_atom_site_type_symbol
_atom_site_label
_atom_site_fract_x
_atom_site_fract_y
_atom_site_fract_z
Si Si1 0.036619 0.834619 0.874103
Si Si2 0.132191 0.838010 0.506726
Si Si3 0.324687 0.146166 0.609252
Si Si4 0.166780 0.915236 0.359262
Si Si5 0.309345 0.033213 0.992594
Si Si6 0.201001 0.383984 0.626893
Si Si7 0.656868 0.351011 0.223572
Si Si8 0.000000 0.935936 0.750000
O O1 0.082574 0.686426 0.880796
O O2 0.108314 0.953377 0.857141
O O3 0.999317 0.832504 0.811264
O O4 0.962498 0.880236 0.943291
O O5 0.203427 0.950529 0.514437
O O6 0.149982 0.684564 0.529739
O O7 0.131967 0.831585 0.429642
O O8 0.284403 0.286093 0.586401
O O9 0.252990 0.090080 0.678743
O O10 0.340331 0.027515 0.552360
O O11 0.264704 0.974734 0.346810
O O12 0.162909 0.815647 0.297825
O O13 0.345303 0.930677 0.927431
O O14 0.136794 0.294311 0.689872
O O15 0.584875 0.465281 0.223855
#
# Coordination Sequence:
#
# PCOD8134470 Si02
#       8
#     8   8   8   8   8   8   8   4
#     4  10  20  38  57  85 111 148 187 241 288 332
#     4  10  21  34  57  86 110 150 191 236 283 333
#     4   9  19  35  58  81 112 151 187 230 292 332
#     4   9  18  36  56  83 110 142 192 236 277 342
#     4  10  19  36  54  83 115 150 191 233 285 343
#     4   8  18  34  55  80 112 144 188 231 283 339
#     4   9  19  34  58  83 108 151 188 237 286 335
#     4  10  20  38  62  84 116 142 206 232 282 348
#
# _framework density 19.669701
#
# number of rings (size 3 to 8) (size 9 to 14) (size 15 to 20)
#    0.800    1.867    0.000    1.600    0.000    1.600 
#   12.000    0.000    2.933    0.000    0.000    0.000 
#    0.000    0.000    0.000    0.000    0.000    0.000 
#
# Total GULP energy -371746.774851 kJ/mol
# GULP energy per Si atom -12391.559162 kJ/mol
# Density = 1.962493 g / cm^3
# Si number density = 19.669701 Si / 1000 Ang^3
#
#
#
# Elastic Constant Matrix: (Units=GPa)
#
#
# Indices 1 2 3 4 5 6 
#
# 1 68.0009 15.2784 49.3392 0.0000 9.2049 0.0000
# 2 15.2784 55.8975 42.3270 0.0000 10.5482 0.0000
# 3 49.3392 42.3270 152.2860 0.0000 18.9723 0.0000
# 4 0.0000 0.0000 0.0000 26.8395 0.0000 5.3956
# 5 9.2049 10.5482 18.9723 0.0000 25.5733 0.0000
# 6 0.0000 0.0000 0.0000 5.3956 0.0000 15.0761
#
#
#
# Elastic Compliance Matrix: (Units=1/GPa)
#
#
# Indices 1 2 3 4 5 6 
#
# 1 0.019382 -0.000393 -0.005863 0.000000 -0.002464 0.000000
# 2 -0.000393 0.023299 -0.005695 0.000000 -0.005244 0.000000
# 3 -0.005863 -0.005695 0.010460 0.000000 -0.003301 0.000000
# 4 0.000000 0.000000 0.000000 0.040147 0.000000 -0.014368
# 5 -0.002464 -0.005244 -0.003301 0.000000 0.044602 0.000000
# 6 0.000000 0.000000 0.000000 -0.014368 0.000000 0.071472
#
#
# Mechanical properties :
#
#
# Convention : Reuss Voigt Hill
#
# Bulk Modulus (GPa) = 34.20120 54.45265 44.32692
# Shear Modulus (GPa) = 20.57512 24.78045 22.67778
#
# Velocity S-wave (km/s) = 3.23775 3.55326 3.39917
# Velocity P-wave (km/s) = 5.60383 6.67666 6.16363
#
# Compressibility (1/GPa) = 0.02923874
#
# Stress axis : x y z
#
# Youngs Moduli (GPa) = 51.59490 42.91949 95.59779
#
# Poissons Ratio (x) = 0.01685 0.56052
# Poissons Ratio (y) = 0.02026 0.54447
# Poissons Ratio (z) = 0.30252 0.24445
#
# Static dielectric constant tensor:
#      x y z
#    x 3.520250 0.000000 0.211400 
#    y 0.000000 3.325110 0.000000 
#    z 0.211400 0.000000 3.591590 
# 
# 
# High freq. dielectric constant tensor:
#      x y z
#    x 1.746790 0.000000 0.014150 
#    y 0.000000 1.743510 0.000000 
#    z 0.014150 0.000000 1.766990 
# 
# From -- ./inp_files/248122.got.cif
#   From: 2010.06.25/outbox.cif.g09.slc.cpg/sg15_125_cif.got.tgz:248122.got - 2010.06.28 07:06:18.
