data_PCOD8134580
_publ_section_title
;
Structure prediction by ZEFSAII (Michael W. Deem and Ramdas Pophale) SiO2 
 PCOD8134580
Probable space group: C 2/C
;
_chemical_formula_sum "Si O2"
_cell_formula_units_Z 48
_cell_length_a 8.693903
_cell_length_b 15.598101
_cell_length_c 27.212367
_cell_angle_alpha 90.000000
_cell_angle_beta 40.324894
_cell_angle_gamma 90.000000
_cell_volume 2388.022355
_symmetry_space_group_name_H-M "C 2/C"
_symmetry_group_IT_number 15
_symmetry_cell_setting 'monoclinic'
loop_
_space_group_symop_operation_xyz
x,y,z
-x,y,1/2-z
-x,-y,-z
x,-y,1/2+z
1/2+x,1/2+y,z
1/2-x,1/2+y,1/2-z
1/2-x,1/2-y,-z
1/2+x,1/2-y,1/2+z
loop_
_atom_site_type_symbol
_atom_site_label
_atom_site_fract_x
_atom_site_fract_y
_atom_site_fract_z
Si Si1 0.155898 0.978401 0.614936
Si Si2 0.304958 0.896826 0.925972
Si Si3 0.794990 0.835066 0.074085
Si Si4 0.413374 0.065815 0.958231
Si Si5 0.198382 0.178852 0.164677
Si Si6 0.212601 0.508788 0.661707
O O1 0.319043 0.926146 0.536575
O O2 0.078769 0.908452 0.673905
O O3 0.301726 0.054151 0.607103
O O4 0.938196 0.021842 0.641317
O O5 0.546011 0.841246 0.872415
O O6 0.300100 0.980801 0.961342
O O7 0.269127 0.926147 0.878256
O O8 0.078561 0.840775 0.997249
O O9 0.657611 0.849998 0.055639
O O10 0.735486 0.742877 0.110272
O O11 0.685247 0.905066 0.137550
O O12 0.000000 0.217446 0.250000
O O13 0.000000 0.493078 0.750000
#
# Coordination Sequence:
#
# PCOD8134580 Si02
#       6
#     8   8   8   8   8   8
#     4  10  19  36  58  83 112 143 190 234 289 337
#     4  10  19  38  59  81 111 150 199 229 277 346
#     4  11  20  38  57  84 111 150 196 233 277 343
#     4   9  18  35  61  85 106 141 193 245 271 334
#     4  11  24  37  53  82 122 153 182 236 297 339
#     4  11  20  35  61  85 113 149 191 238 282 336
#
# _framework density 20.100314999999998
#
# number of rings (size 3 to 8) (size 9 to 14) (size 15 to 20)
#    0.000    1.667    3.333    3.000    0.000    0.667 
#    0.000    0.000    0.000    2.000    0.000    0.000 
#    0.000    0.000    0.000    0.000    0.000    0.000 
#
# Total GULP energy -297564.269557 kJ/mol
# GULP energy per Si atom -12398.511232 kJ/mol
# Density = 2.005457 g / cm^3
# Si number density = 20.100315 Si / 1000 Ang^3
#
#
#
# Elastic Constant Matrix: (Units=GPa)
#
#
# Indices 1 2 3 4 5 6 
#
# 1 115.2660 19.1283 12.3855 -0.0020 -6.1192 0.0069
# 2 19.1283 42.5285 15.8899 -0.0051 -7.7391 0.0085
# 3 12.3855 15.8899 95.3907 -0.0050 0.8102 0.0500
# 4 -0.0020 -0.0051 -0.0050 25.6915 0.0001 -1.7493
# 5 -6.1192 -7.7391 0.8102 0.0001 18.2030 -0.0111
# 6 0.0069 0.0085 0.0500 -1.7493 -0.0111 10.4757
#
#
#
# Elastic Compliance Matrix: (Units=1/GPa)
#
#
# Indices 1 2 3 4 5 6 
#
# 1 0.009446 -0.003722 -0.000620 0.000000 0.001621 0.000001
# 2 -0.003722 0.028883 -0.004423 0.000005 0.011226 0.000013
# 3 -0.000620 -0.004423 0.011323 -0.000002 -0.002593 -0.000053
# 4 0.000000 0.000005 -0.000002 0.039371 0.000006 0.006574
# 5 0.001621 0.011226 -0.002593 0.000006 0.060369 0.000067
# 6 0.000001 0.000013 -0.000053 0.006574 0.000067 0.096557
#
#
# Mechanical properties :
#
#
# Convention : Reuss Voigt Hill
#
# Bulk Modulus (GPa) = 31.13261 38.66586 34.89923
# Shear Modulus (GPa) = 18.23576 24.59281 21.41428
#
# Velocity S-wave (km/s) = 3.01531 3.50166 3.26754
# Velocity P-wave (km/s) = 5.25785 5.96884 5.62459
#
# Compressibility (1/GPa) = 0.03212066
#
# Stress axis : x y z
#
# Youngs Moduli (GPa) = 105.86590 34.62223 88.31876
#
# Poissons Ratio (x) = 0.12886 0.05478
# Poissons Ratio (y) = 0.39402 0.39067
# Poissons Ratio (z) = 0.06566 0.15315
#
# Static dielectric constant tensor:
#      x y z
#    x 3.807900 0.000000 0.207190 
#    y 0.000000 3.285430 0.000010 
#    z 0.207190 0.000010 3.457850 
# 
# 
# High freq. dielectric constant tensor:
#      x y z
#    x 1.798840 0.000000 0.004890 
#    y 0.000000 1.750200 0.000000 
#    z 0.004890 0.000000 1.785070 
# 
# From -- ./inp_files/190245.got.cif
#   From: 2010.06.25/outbox.cif.g09.slc.cpg/sg15_96_cif.got.tgz:190245.got - 2010.06.28 07:06:18.
