data_PCOD8134663
_publ_section_title
;
Structure prediction by ZEFSAII (Michael W. Deem and Ramdas Pophale) SiO2 
 PCOD8134663
Probable space group: C 2/C
;
_chemical_formula_sum "Si O2"
_cell_formula_units_Z 52
_cell_length_a 12.638620
_cell_length_b 27.190656
_cell_length_c 8.311169
_cell_angle_alpha 90.000000
_cell_angle_beta 118.268083
_cell_angle_gamma 90.000000
_cell_volume 2515.531861
_symmetry_space_group_name_H-M "C 2/C"
_symmetry_group_IT_number 15
_symmetry_cell_setting 'monoclinic'
loop_
_space_group_symop_operation_xyz
x,y,z
-x,y,1/2-z
-x,-y,-z
x,-y,1/2+z
1/2+x,1/2+y,z
1/2-x,1/2+y,1/2-z
1/2-x,1/2-y,-z
1/2+x,1/2-y,1/2+z
loop_
_atom_site_type_symbol
_atom_site_label
_atom_site_fract_x
_atom_site_fract_y
_atom_site_fract_z
Si Si1 0.231693 0.347935 0.554039
Si Si2 0.605340 0.606162 0.600781
Si Si3 0.337695 0.426569 0.829687
Si Si4 0.500000 0.195763 0.750000
Si Si5 0.859035 0.977677 0.165143
Si Si6 0.182626 0.239727 0.200992
Si Si7 0.128183 0.197217 0.830399
O O1 0.318017 0.369920 0.482931
O O2 0.241911 0.383771 0.717330
O O3 0.280262 0.293121 0.621149
O O4 0.094328 0.341467 0.400731
O O5 0.470258 0.597044 0.439337
O O6 0.671966 0.555685 0.701109
O O7 0.605821 0.641015 0.759886
O O8 0.329825 0.465442 0.675683
O O9 0.296063 0.455858 0.959824
O O10 0.438191 0.230348 0.841428
O O11 0.000000 0.970611 0.250000
O O12 0.286482 0.278937 0.241028
O O13 0.177753 0.202130 0.046777
O O14 0.000000 0.225088 0.750000
#
# Coordination Sequence:
#
# PCOD8134663 Si02
#       7
#     8   8   8   4   8   8   8
#     4  12  24  39  62  88 121 168 209 254 309 367
#     4  11  21  36  60  95 127 159 198 254 315 375
#     4  11  22  36  62  93 125 159 200 257 319 375
#     4  12  26  44  60  88 128 168 218 258 302 368
#     4  10  19  36  59  94 129 154 194 254 321 375
#     4  11  25  41  61  87 124 170 215 255 305 362
#     4  11  22  39  61  91 123 162 205 262 311 365
#
# _framework density 20.671572999999999
#
# number of rings (size 3 to 8) (size 9 to 14) (size 15 to 20)
#    0.000    0.923    1.538    8.769    4.308    0.000 
#    0.000    0.000    0.000    3.692    0.000    0.000 
#    0.000    0.000    0.000    0.000    0.000    0.000 
#
# Total GULP energy -322266.217239 kJ/mol
# GULP energy per Si atom -12394.854509 kJ/mol
# Density = 2.062452 g / cm^3
# Si number density = 20.671573 Si / 1000 Ang^3
#
#
#
# Elastic Constant Matrix: (Units=GPa)
#
#
# Indices 1 2 3 4 5 6 
#
# 1 91.4544 42.2477 26.0863 0.0000 3.6722 0.0000
# 2 42.2477 127.4253 61.6373 0.0000 8.4210 0.0000
# 3 26.0863 61.6373 93.6179 0.0000 13.1422 0.0000
# 4 0.0000 0.0000 0.0000 47.3134 0.0000 -9.1943
# 5 3.6722 8.4210 13.1422 0.0000 28.2875 0.0000
# 6 0.0000 0.0000 0.0000 -9.1943 0.0000 19.0750
#
#
#
# Elastic Compliance Matrix: (Units=1/GPa)
#
#
# Indices 1 2 3 4 5 6 
#
# 1 0.012996 -0.003752 -0.001146 0.000000 -0.000038 0.000000
# 2 -0.003752 0.012599 -0.007265 0.000000 0.000112 0.000000
# 3 -0.001146 -0.007265 0.016538 0.000000 -0.005372 0.000000
# 4 0.000000 0.000000 0.000000 0.023320 0.000000 0.011240
# 5 -0.000038 0.000112 -0.005372 0.000000 0.037819 0.000000
# 6 0.000000 0.000000 0.000000 0.011240 0.000000 0.057843
#
#
# Mechanical properties :
#
#
# Convention : Reuss Voigt Hill
#
# Bulk Modulus (GPa) = 56.15638 63.60447 59.88043
# Shear Modulus (GPa) = 26.12667 31.10361 28.61514
#
# Velocity S-wave (km/s) = 3.55899 3.88320 3.72462
# Velocity P-wave (km/s) = 6.64180 7.13733 6.89402
#
# Compressibility (1/GPa) = 0.01780741
#
# Stress axis : x y z
#
# Youngs Moduli (GPa) = 76.94657 79.37451 60.46595
#
# Poissons Ratio (x) = 0.29783 0.06927
# Poissons Ratio (y) = 0.28872 0.43928
# Poissons Ratio (z) = 0.08815 0.57665
#
# Static dielectric constant tensor:
#      x y z
#    x 3.461780 0.000000 -0.209220 
#    y 0.000000 4.092590 0.000000 
#    z -0.209220 0.000000 4.004350 
# 
# 
# High freq. dielectric constant tensor:
#      x y z
#    x 1.771630 0.000000 -0.031940 
#    y 0.000000 1.825440 0.000000 
#    z -0.031940 0.000000 1.815360 
# 
# From -- ./inp_files/35353.got.cif
#   From: 2010.06.25/outbox.cif.g09.slc.cpg/sg15_18_cif.got.tgz:35353.got - 2010.06.28 07:06:18.
