data_PCOD8134023
_publ_section_title
;
Structure prediction by ZEFSAII (Michael W. Deem and Ramdas Pophale) SiO2 
 PCOD8134023
Probable space group: C 2/C
;
_chemical_formula_sum "Si O2"
_cell_formula_units_Z 60
_cell_length_a 8.497820
_cell_length_b 11.757214
_cell_length_c 31.259663
_cell_angle_alpha 90.000000
_cell_angle_beta 76.498787
_cell_angle_gamma 90.000000
_cell_volume 3036.865451
_symmetry_space_group_name_H-M "C 2/C"
_symmetry_group_IT_number 15
_symmetry_cell_setting 'monoclinic'
loop_
_space_group_symop_operation_xyz
x,y,z
-x,y,1/2-z
-x,-y,-z
x,-y,1/2+z
1/2+x,1/2+y,z
1/2-x,1/2+y,1/2-z
1/2-x,1/2-y,-z
1/2+x,1/2-y,1/2+z
loop_
_atom_site_type_symbol
_atom_site_label
_atom_site_fract_x
_atom_site_fract_y
_atom_site_fract_z
Si Si1 0.075241 0.131136 0.952226
Si Si2 0.613333 0.860287 0.913476
Si Si3 0.138173 0.861470 0.863598
Si Si4 0.876630 0.472614 0.390707
Si Si5 0.847846 0.365252 0.180688
Si Si6 0.411455 0.602662 0.451428
Si Si7 0.000000 0.745937 0.750000
Si Si8 0.346222 0.411056 0.824052
O O1 0.020991 0.242179 0.929180
O O2 0.257752 0.104173 0.926160
O O3 0.074939 0.156715 0.002671
O O4 0.951528 0.031455 0.948745
O O5 0.478170 0.956768 0.919047
O O6 0.730279 0.886685 0.945756
O O7 0.711162 0.854050 0.862773
O O8 0.284862 0.945483 0.863523
O O9 0.218059 0.748252 0.838464
O O10 0.040535 0.831890 0.913336
O O11 0.015305 0.924056 0.838568
O O12 0.988136 0.394027 0.354651
O O13 0.714052 0.464818 0.187997
O O14 0.894341 0.335825 0.226360
O O15 0.872375 0.826597 0.782761
#
# Coordination Sequence:
#
# PCOD8134023 Si02
#       8
#     8   8   8   8   8   8   4   8
#     4  10  19  35  53  76 111 144 174 224 265 297
#     4  10  20  35  54  77 105 140 180 218 257 314
#     4   9  19  37  55  76 108 144 178 215 256 309
#     4  10  21  34  55  81 103 140 185 211 258 318
#     4  10  21  38  58  79 108 139 168 219 265 307
#     4   9  19  34  53  78 109 142 181 218 262 310
#     4  10  20  36  58  82 108 132 166 218 268 314
#     4   9  20  38  57  80 106 137 177 210 262 325
#
# _framework density 19.757213
#
# number of rings (size 3 to 8) (size 9 to 14) (size 15 to 20)
#    0.000    2.400    0.000    2.800    0.000    6.933 
#    0.000   12.667    0.000    0.000    0.000    0.000 
#    0.000    0.000    0.000    0.000    0.000    0.000 
#
# Total GULP energy -372024.934992 kJ/mol
# GULP energy per Si atom -12400.831166 kJ/mol
# Density = 1.971225 g / cm^3
# Si number density = 19.757213 Si / 1000 Ang^3
#
#
#
# Elastic Constant Matrix: (Units=GPa)
#
#
# Indices 1 2 3 4 5 6 
#
# 1 38.4205 13.7028 4.5130 0.0000 3.8388 0.0000
# 2 13.7028 75.0319 36.4896 0.0000 12.2868 0.0000
# 3 4.5130 36.4896 89.8295 0.0000 14.6304 0.0000
# 4 0.0000 0.0000 0.0000 38.3776 0.0000 2.5732
# 5 3.8388 12.2868 14.6304 0.0000 21.3379 0.0000
# 6 0.0000 0.0000 0.0000 2.5732 0.0000 24.5335
#
#
#
# Elastic Compliance Matrix: (Units=1/GPa)
#
#
# Indices 1 2 3 4 5 6 
#
# 1 0.028038 -0.005228 0.001178 0.000000 -0.002841 0.000000
# 2 -0.005228 0.018191 -0.006274 0.000000 -0.005232 0.000000
# 3 0.001178 -0.006274 0.014711 0.000000 -0.006685 0.000000
# 4 0.000000 0.000000 0.000000 0.026241 0.000000 -0.002752
# 5 -0.002841 -0.005232 -0.006685 0.000000 0.054973 0.000000
# 6 0.000000 0.000000 0.000000 -0.002752 0.000000 0.041049
#
#
# Mechanical properties :
#
#
# Convention : Reuss Voigt Hill
#
# Bulk Modulus (GPa) = 24.82013 34.74365 29.78189
# Shear Modulus (GPa) = 23.01162 26.75490 24.88326
#
# Velocity S-wave (km/s) = 3.41650 3.68392 3.55273
# Velocity P-wave (km/s) = 5.30595 5.97649 5.65118
#
# Compressibility (1/GPa) = 0.04028988
#
# Stress axis : x y z
#
# Youngs Moduli (GPa) = 35.66601 54.97353 67.97824
#
# Poissons Ratio (x) = 0.28740 -0.08007
# Poissons Ratio (y) = 0.18646 0.42652
# Poissons Ratio (z) = -0.04201 0.34493
#
# Static dielectric constant tensor:
#      x y z
#    x 3.511420 0.000000 0.055350 
#    y 0.000000 3.628060 0.000000 
#    z 0.055350 0.000000 3.690460 
# 
# 
# High freq. dielectric constant tensor:
#      x y z
#    x 1.758020 0.000000 0.005730 
#    y 0.000000 1.773650 0.000000 
#    z 0.005730 0.000000 1.772710 
# 
# From -- ./inp_files/307141.got.cif
#   From: 2010.06.25/outbox.cif.g09.slc.cpg/sg15_154_cif.got.tgz:307141.got - 2010.06.28 07:06:18.
