data_PCOD8134928
_publ_section_title
;
Structure prediction by ZEFSAII (Michael W. Deem and Ramdas Pophale) SiO2 
 PCOD8134928
Probable space group: C 2/C
;
_chemical_formula_sum "Si O2"
_cell_formula_units_Z 56
_cell_length_a 15.185837
_cell_length_b 12.292068
_cell_length_c 27.642931
_cell_angle_alpha 90.000000
_cell_angle_beta 34.523047
_cell_angle_gamma 90.000000
_cell_volume 2924.353540
_symmetry_space_group_name_H-M "C 2/C"
_symmetry_group_IT_number 15
_symmetry_cell_setting 'monoclinic'
loop_
_space_group_symop_operation_xyz
x,y,z
-x,y,1/2-z
-x,-y,-z
x,-y,1/2+z
1/2+x,1/2+y,z
1/2-x,1/2+y,1/2-z
1/2-x,1/2-y,-z
1/2+x,1/2-y,1/2+z
loop_
_atom_site_type_symbol
_atom_site_label
_atom_site_fract_x
_atom_site_fract_y
_atom_site_fract_z
Si Si1 0.839798 0.259215 0.386306
Si Si2 0.710650 0.134005 0.995798
Si Si3 0.605768 0.141853 0.322214
Si Si4 0.353866 0.584272 0.460917
Si Si5 0.162035 0.024415 0.810483
Si Si6 0.811721 0.283145 0.289827
Si Si7 0.988651 0.834031 0.311965
O O1 0.718181 0.344306 0.463669
O O2 0.832523 0.146353 0.419266
O O3 0.792340 0.236612 0.352550
O O4 0.012495 0.310887 0.306061
O O5 0.807002 0.133984 0.902287
O O6 0.769913 0.032435 0.000751
O O7 0.750000 0.250000 0.000000
O O8 0.524443 0.122817 0.077009
O O9 0.668138 0.028303 0.273486
O O10 0.758546 0.190557 0.277219
O O11 0.533713 0.214403 0.311459
O O12 0.536985 0.562316 0.387662
O O13 0.194599 0.115482 0.836304
O O14 0.097456 0.077933 0.789944
O O15 0.000000 0.838912 0.250000
#
# Coordination Sequence:
#
# PCOD8134928 Si02
#       7
#     8   8   8   8   8   8   8
#     4  10  21  38  59  84 121 153 201 232 306 353
#     4   9  19  37  58  80 115 153 189 233 297 345
#     4  10  19  37  57  82 114 147 191 239 282 340
#     4  10  20  38  60  84 114 161 190 245 292 355
#     4  10  20  36  59  82 118 150 196 239 292 331
#     4  10  21  38  57  87 114 158 192 247 286 353
#     4   9  20  38  56  81 112 150 187 231 288 345
#
# _framework density 19.149531
#
# number of rings (size 3 to 8) (size 9 to 14) (size 15 to 20)
#    0.000    2.286    1.429    1.714    0.000    2.857 
#   10.286    1.429    0.000    0.000    0.000    0.000 
#    0.000    0.000    0.000    0.000    0.000    0.000 
#
# Total GULP energy -346936.332459 kJ/mol
# GULP energy per Si atom -12390.583302 kJ/mol
# Density = 1.910595 g / cm^3
# Si number density = 19.149531 Si / 1000 Ang^3
#
#
#
# Elastic Constant Matrix: (Units=GPa)
#
#
# Indices 1 2 3 4 5 6 
#
# 1 58.1649 4.8452 30.4619 -0.0001 -2.6192 0.0000
# 2 4.8452 82.5269 22.9976 0.0001 -6.9956 0.0000
# 3 30.4619 22.9976 114.6559 0.0008 -7.9337 0.0001
# 4 -0.0001 0.0001 0.0008 34.7673 -0.0001 -9.5596
# 5 -2.6192 -6.9956 -7.9337 -0.0001 27.5684 0.0000
# 6 0.0000 0.0000 0.0001 -9.5596 0.0000 16.8710
#
#
#
# Elastic Compliance Matrix: (Units=1/GPa)
#
#
# Indices 1 2 3 4 5 6 
#
# 1 0.019985 0.000356 -0.005350 0.000000 0.000449 0.000000
# 2 0.000356 0.013022 -0.002526 0.000000 0.002611 0.000000
# 3 -0.005350 -0.002526 0.010785 0.000000 0.001955 0.000000
# 4 0.000000 0.000000 0.000000 0.034071 0.000000 0.019305
# 5 0.000449 0.002611 0.001955 0.000000 0.037541 0.000000
# 6 0.000000 0.000000 0.000000 0.019305 0.000000 0.070212
#
#
# Mechanical properties :
#
#
# Convention : Reuss Voigt Hill
#
# Bulk Modulus (GPa) = 34.78063 41.32855 38.05459
# Shear Modulus (GPa) = 23.78240 28.97753 26.37996
#
# Velocity S-wave (km/s) = 3.52793 3.89424 3.71560
# Velocity P-wave (km/s) = 5.89891 6.46908 6.19056
#
# Compressibility (1/GPa) = 0.02875164
#
# Stress axis : x y z
#
# Youngs Moduli (GPa) = 50.03776 76.79575 92.72188
#
# Poissons Ratio (x) = -0.02731 0.49605
# Poissons Ratio (y) = -0.01779 0.23418
# Poissons Ratio (z) = 0.26769 0.19396
#
# Static dielectric constant tensor:
#      x y z
#    x 3.216190 0.000000 -0.254110 
#    y 0.000000 3.681660 0.000000 
#    z -0.254110 0.000000 3.799070 
# 
# 
# High freq. dielectric constant tensor:
#      x y z
#    x 1.713640 0.000000 -0.017950 
#    y 0.000000 1.753240 0.000000 
#    z -0.017950 0.000000 1.757140 
# 
# From -- ./inp_files/178414.got.cif
#   From: 2010.06.25/outbox.cif.g09.slc.cpg/sg15_90_cif.got.tgz:178414.got - 2010.06.28 07:06:18.
