data_PCOD8134920
_publ_section_title
;
Structure prediction by ZEFSAII (Michael W. Deem and Ramdas Pophale) SiO2 
 PCOD8134920
Probable space group: C 2/C
;
_chemical_formula_sum "Si O2"
_cell_formula_units_Z 48
_cell_length_a 22.218012
_cell_length_b 18.795664
_cell_length_c 10.817784
_cell_angle_alpha 90.000000
_cell_angle_beta 146.117542
_cell_angle_gamma 90.000000
_cell_volume 2518.482898
_symmetry_space_group_name_H-M "C 2/C"
_symmetry_group_IT_number 15
_symmetry_cell_setting 'monoclinic'
loop_
_space_group_symop_operation_xyz
x,y,z
-x,y,1/2-z
-x,-y,-z
x,-y,1/2+z
1/2+x,1/2+y,z
1/2-x,1/2+y,1/2-z
1/2-x,1/2-y,-z
1/2+x,1/2-y,1/2+z
loop_
_atom_site_type_symbol
_atom_site_label
_atom_site_fract_x
_atom_site_fract_y
_atom_site_fract_z
Si Si1 0.290895 0.862996 0.783152
Si Si2 0.782176 0.170760 0.587657
Si Si3 0.381508 0.852963 0.505098
Si Si4 0.931159 0.498124 0.507776
Si Si5 0.827641 0.769809 0.741068
Si Si6 0.955633 0.232002 0.038920
O O1 0.204267 0.866290 0.522589
O O2 0.217970 0.844174 0.779496
O O3 0.389889 0.806293 0.935426
O O4 0.343986 0.940291 0.878788
O O5 0.750000 0.250000 0.500000
O O6 0.683269 0.128694 0.481109
O O7 0.882769 0.169515 0.854177
O O8 0.374982 0.920929 0.404113
O O9 0.318556 0.787568 0.334876
O O10 0.500000 0.829536 0.750000
O O11 0.000000 0.497875 0.750000
O O12 0.000000 0.500000 0.500000
O O13 0.750000 0.750000 0.500000
O O14 0.948208 0.765772 0.895906
O O15 0.000000 0.210165 0.250000
#
# Coordination Sequence:
#
# PCOD8134920 Si02
#       6
#     8   8   8   8   8   8
#     4  11  22  38  59  92 128 158 205 253 314 379
#     4  10  19  37  56  86 118 159 200 255 311 358
#     4  11  21  38  62  90 125 160 201 250 317 377
#     4  11  24  40  62  93 133 169 199 256 323 382
#     4  12  23  35  60  92 119 162 210 259 311 356
#     4  11  20  36  56  86 125 152 202 261 305 366
#
# _framework density 19.059094000000002
#
# number of rings (size 3 to 8) (size 9 to 14) (size 15 to 20)
#    0.000    1.000    5.000    5.500    2.333    0.000 
#    0.000    0.000    0.000    1.000    4.333    0.000 
#    0.000    0.000    0.000    0.000    0.000    0.000 
#
# Total GULP energy -297322.592828 kJ/mol
# GULP energy per Si atom -12388.441368 kJ/mol
# Density = 1.901571 g / cm^3
# Si number density = 19.059094 Si / 1000 Ang^3
#
#
#
# Elastic Constant Matrix: (Units=GPa)
#
#
# Indices 1 2 3 4 5 6 
#
# 1 117.3512 19.8889 26.7039 0.0000 -4.7634 0.0000
# 2 19.8889 70.8428 20.3334 0.0000 -1.0071 0.0000
# 3 26.7039 20.3334 112.4344 0.0000 -17.9836 0.0000
# 4 0.0000 0.0000 0.0000 26.2238 0.0000 4.2127
# 5 -4.7634 -1.0071 -17.9836 0.0000 40.7754 0.0000
# 6 0.0000 0.0000 0.0000 4.2127 0.0000 34.2361
#
#
#
# Elastic Compliance Matrix: (Units=1/GPa)
#
#
# Indices 1 2 3 4 5 6 
#
# 1 0.009293 -0.002092 -0.001790 0.000000 0.000245 0.000000
# 2 -0.002092 0.015389 -0.002436 0.000000 -0.000939 0.000000
# 3 -0.001790 -0.002436 0.010454 0.000000 0.004341 0.000000
# 4 0.000000 0.000000 0.000000 0.038902 0.000000 -0.004787
# 5 0.000245 -0.000939 0.004341 0.000000 0.026445 0.000000
# 6 0.000000 0.000000 0.000000 -0.004787 0.000000 0.029798
#
#
# Mechanical properties :
#
#
# Convention : Reuss Voigt Hill
#
# Bulk Modulus (GPa) = 44.44378 48.27565 46.35972
# Shear Modulus (GPa) = 33.24082 35.82719 34.53400
#
# Velocity S-wave (km/s) = 4.18076 4.34036 4.26131
# Velocity P-wave (km/s) = 6.83188 7.10653 6.97056
#
# Compressibility (1/GPa) = 0.02250034
#
# Stress axis : x y z
#
# Youngs Moduli (GPa) = 107.60610 64.98149 95.65565
#
# Poissons Ratio (x) = 0.13593 0.17120
# Poissons Ratio (y) = 0.22510 0.23305
# Poissons Ratio (z) = 0.19259 0.15832
#
# Static dielectric constant tensor:
#      x y z
#    x 4.276580 0.000000 0.857330 
#    y 0.000000 3.551260 0.000000 
#    z 0.857330 0.000000 5.163470 
# 
# 
# High freq. dielectric constant tensor:
#      x y z
#    x 1.762160 0.000000 -0.015560 
#    y 0.000000 1.702780 0.000000 
#    z -0.015560 0.000000 1.746270 
# 
# From -- ./inp_files/87218.got.cif
#   From: 2010.06.25/outbox.cif.g09.slc.cpg/sg15_44_cif.got.tgz:87218.got - 2010.06.28 07:06:18.
