data_PCOD8134771
_publ_section_title
;
Structure prediction by ZEFSAII (Michael W. Deem and Ramdas Pophale) SiO2 
 PCOD8134771
Probable space group: C 2/C
;
_chemical_formula_sum "Si O2"
_cell_formula_units_Z 64
_cell_length_a 11.318966
_cell_length_b 27.435442
_cell_length_c 12.163096
_cell_angle_alpha 90.000000
_cell_angle_beta 113.827001
_cell_angle_gamma 90.000000
_cell_volume 3455.210227
_symmetry_space_group_name_H-M "C 2/C"
_symmetry_group_IT_number 15
_symmetry_cell_setting 'monoclinic'
loop_
_space_group_symop_operation_xyz
x,y,z
-x,y,1/2-z
-x,-y,-z
x,-y,1/2+z
1/2+x,1/2+y,z
1/2-x,1/2+y,1/2-z
1/2-x,1/2-y,-z
1/2+x,1/2-y,1/2+z
loop_
_atom_site_type_symbol
_atom_site_label
_atom_site_fract_x
_atom_site_fract_y
_atom_site_fract_z
Si Si1 0.946434 0.581386 0.893024
Si Si2 0.356799 0.726903 0.326546
Si Si3 0.181740 0.141854 0.032267
Si Si4 0.612336 0.940731 0.882160
Si Si5 0.313062 0.046542 0.637683
Si Si6 0.387767 0.624563 0.938281
Si Si7 0.257102 0.165974 0.819386
Si Si8 0.145451 0.788302 0.923801
O O1 0.857229 0.546773 0.782372
O O2 0.891957 0.636402 0.863682
O O3 0.090731 0.579774 0.899705
O O4 0.946541 0.562490 0.017852
O O5 0.290082 0.689558 0.385017
O O6 0.284226 0.777774 0.308338
O O7 0.343208 0.703742 0.201455
O O8 0.507865 0.733575 0.410669
O O9 0.288249 0.102303 0.104499
O O10 0.189464 0.157971 0.909814
O O11 0.041492 0.119226 0.003663
O O12 0.500000 0.938436 0.750000
O O13 0.690237 0.991292 0.904588
O O14 0.172114 0.070532 0.570945
O O15 0.346172 0.647631 0.807285
O O16 0.332797 0.659066 0.013819
O O17 0.250000 0.750000 0.000000
#
# Coordination Sequence:
#
# PCOD8134771 Si02
#       8
#     8   8   8   8   8   8   8   8
#     4   9  20  35  56  89 113 137 194 245 280 336
#     4  10  21  36  57  84 116 151 194 228 282 344
#     4  10  23  40  53  83 123 150 189 229 286 351
#     4  11  22  39  59  82 116 154 185 244 293 332
#     4  10  20  35  62  85 109 144 195 239 290 338
#     4  10  21  37  59  85 111 150 188 235 287 342
#     4  10  19  36  62  82 112 152 190 239 276 333
#     4  10  20  35  55  83 117 149 182 239 284 328
#
# _framework density 18.522751
#
# number of rings (size 3 to 8) (size 9 to 14) (size 15 to 20)
#    0.000    2.000    2.500    1.125    1.750    2.500 
#    2.250    1.250    0.000    0.000    0.000    0.000 
#    0.000    0.000    0.000    0.000    0.000    0.000 
#
# Total GULP energy -396845.393289 kJ/mol
# GULP energy per Si atom -12401.418540 kJ/mol
# Density = 1.848059 g / cm^3
# Si number density = 18.522751 Si / 1000 Ang^3
#
#
#
# Elastic Constant Matrix: (Units=GPa)
#
#
# Indices 1 2 3 4 5 6 
#
# 1 68.9661 43.9051 33.1943 0.0000 -8.9672 0.0000
# 2 43.9051 105.5052 48.1083 0.0000 -12.6129 0.0000
# 3 33.1943 48.1083 100.2938 0.0000 -12.4748 0.0000
# 4 0.0000 0.0000 0.0000 26.1995 0.0000 -2.1808
# 5 -8.9672 -12.6129 -12.4748 0.0000 19.0206 0.0000
# 6 0.0000 0.0000 0.0000 -2.1808 0.0000 27.8179
#
#
#
# Elastic Compliance Matrix: (Units=1/GPa)
#
#
# Indices 1 2 3 4 5 6 
#
# 1 0.020797 -0.006804 -0.003224 0.000000 0.003178 0.000000
# 2 -0.006804 0.014740 -0.004357 0.000000 0.003709 0.000000
# 3 -0.003224 -0.004357 0.013697 0.000000 0.004574 0.000000
# 4 0.000000 0.000000 0.000000 0.038419 0.000000 0.003012
# 5 0.003178 0.003709 0.004574 0.000000 0.059532 0.000000
# 6 0.000000 0.000000 0.000000 0.003012 0.000000 0.036184
#
#
# Mechanical properties :
#
#
# Convention : Reuss Voigt Hill
#
# Bulk Modulus (GPa) = 48.86980 58.35339 53.61159
# Shear Modulus (GPa) = 22.83525 24.57811 23.70668
#
# Velocity S-wave (km/s) = 3.51496 3.64664 3.58141
# Velocity P-wave (km/s) = 6.55090 7.02158 6.79032
#
# Compressibility (1/GPa) = 0.02046254
#
# Stress axis : x y z
#
# Youngs Moduli (GPa) = 48.08481 67.84332 73.01107
#
# Poissons Ratio (x) = 0.46163 0.23538
# Poissons Ratio (y) = 0.32719 0.31811
# Poissons Ratio (z) = 0.15502 0.29559
#
# Static dielectric constant tensor:
#      x y z
#    x 3.618460 0.000000 0.009340 
#    y 0.000000 3.423730 0.000000 
#    z 0.009340 0.000000 3.629230 
# 
# 
# High freq. dielectric constant tensor:
#      x y z
#    x 1.713830 0.000000 -0.008250 
#    y 0.000000 1.715380 0.000000 
#    z -0.008250 0.000000 1.728690 
# 
# From -- ./inp_files/91302.got.cif
#   From: 2010.06.25/outbox.cif.g09.slc.cpg/sg15_46_cif.got.tgz:91302.got - 2010.06.28 07:06:18.
