data_PCOD8134040
_publ_section_title
;
Structure prediction by ZEFSAII (Michael W. Deem and Ramdas Pophale) SiO2 
 PCOD8134040
Probable space group: C 2/C
;
_chemical_formula_sum "Si O2"
_cell_formula_units_Z 64
_cell_length_a 17.348751
_cell_length_b 17.585994
_cell_length_c 23.130630
_cell_angle_alpha 90.000000
_cell_angle_beta 149.859030
_cell_angle_gamma 90.000000
_cell_volume 3543.546308
_symmetry_space_group_name_H-M "C 2/C"
_symmetry_group_IT_number 15
_symmetry_cell_setting 'monoclinic'
loop_
_space_group_symop_operation_xyz
x,y,z
-x,y,1/2-z
-x,-y,-z
x,-y,1/2+z
1/2+x,1/2+y,z
1/2-x,1/2+y,1/2-z
1/2-x,1/2-y,-z
1/2+x,1/2-y,1/2+z
loop_
_atom_site_type_symbol
_atom_site_label
_atom_site_fract_x
_atom_site_fract_y
_atom_site_fract_z
Si Si1 0.852355 0.508098 0.231494
Si Si2 0.480455 0.488779 0.847114
Si Si3 0.357146 0.389636 0.344717
Si Si4 0.149959 0.863673 0.814190
Si Si5 0.840323 0.249726 0.281751
Si Si6 0.347149 0.176876 0.545547
Si Si7 0.682289 0.976831 0.423320
Si Si8 0.900036 0.116231 0.398263
O O1 0.782513 0.433508 0.215822
O O2 0.819474 0.506323 0.142528
O O3 0.771302 0.583068 0.204519
O O4 0.035566 0.511719 0.362619
O O5 0.401701 0.568629 0.813330
O O6 0.385488 0.447933 0.734198
O O7 0.489877 0.433463 0.908955
O O8 0.657559 0.501650 0.942302
O O9 0.304204 0.303626 0.297548
O O10 0.506784 0.388561 0.482065
O O11 0.202435 0.808258 0.796975
O O12 0.000000 0.831181 0.750000
O O13 0.287465 0.865542 0.949012
O O14 0.885536 0.203260 0.368548
O O15 0.978750 0.301834 0.351159
O O16 0.250000 0.250000 0.500000
O O17 0.333838 0.115206 0.588068
#
# Coordination Sequence:
#
# PCOD8134040 Si02
#       8
#     8   8   8   8   8   8   8   8
#     4  10  20  31  55  83 106 136 182 233 255 314
#     4  10  19  35  54  77 106 147 181 217 267 321
#     4  11  19  35  56  77 106 146 183 216 265 332
#     4  11  21  33  51  78 113 147 169 218 271 326
#     4  11  23  33  53  79 112 144 179 219 270 331
#     4  12  22  32  50  81 120 145 169 214 281 335
#     4  11  19  31  53  86 104 133 183 225 271 306
#     4  10  19  37  53  75 111 146 181 218 272 319
#
# _framework density 18.061002999999999
#
# number of rings (size 3 to 8) (size 9 to 14) (size 15 to 20)
#    0.000    1.250    6.250    2.250    1.750    0.000 
#    0.000    0.625    2.750    0.750    3.250    0.000 
#    0.000    0.000    0.000    0.000    0.000    0.000 
#
# Total GULP energy -396778.271842 kJ/mol
# GULP energy per Si atom -12399.320995 kJ/mol
# Density = 1.801990 g / cm^3
# Si number density = 18.061003 Si / 1000 Ang^3
#
#
#
# Elastic Constant Matrix: (Units=GPa)
#
#
# Indices 1 2 3 4 5 6 
#
# 1 61.3847 33.3219 24.8882 0.0043 12.8884 0.0023
# 2 33.3219 75.8145 19.2177 0.0286 7.0318 0.0093
# 3 24.8882 19.2177 65.6033 0.0328 7.0665 0.0123
# 4 0.0043 0.0286 0.0328 25.4091 0.0063 3.1484
# 5 12.8884 7.0318 7.0665 0.0063 32.9747 0.0016
# 6 0.0023 0.0093 0.0123 3.1484 0.0016 32.0282
#
#
#
# Elastic Compliance Matrix: (Units=1/GPa)
#
#
# Indices 1 2 3 4 5 6 
#
# 1 0.024943 -0.008788 -0.006183 0.000015 -0.006550 0.000002
# 2 -0.008788 0.017501 -0.001802 -0.000016 0.000089 -0.000002
# 3 -0.006183 -0.001802 0.018236 -0.000020 -0.001107 -0.000004
# 4 0.000015 -0.000016 -0.000020 0.039841 -0.000006 -0.003916
# 5 -0.006550 0.000089 -0.001107 -0.000006 0.033105 0.000000
# 6 0.000002 -0.000002 -0.000004 -0.003916 0.000000 0.031607
#
#
# Mechanical properties :
#
#
# Convention : Reuss Voigt Hill
#
# Bulk Modulus (GPa) = 36.85459 39.73977 38.29718
# Shear Modulus (GPa) = 24.05859 26.44072 25.24965
#
# Velocity S-wave (km/s) = 3.65372 3.83033 3.74307
# Velocity P-wave (km/s) = 6.18461 6.45080 6.31911
#
# Compressibility (1/GPa) = 0.02713367
#
# Stress axis : x y z
#
# Youngs Moduli (GPa) = 40.09062 57.13851 54.83661
#
# Poissons Ratio (x) = 0.50215 0.33905
# Poissons Ratio (y) = 0.35233 0.09883
# Poissons Ratio (z) = 0.24788 0.10298
#
# Static dielectric constant tensor:
#      x y z
#    x 3.346730 0.000000 0.138950 
#    y 0.000000 3.271660 -0.000020 
#    z 0.138950 -0.000020 3.418130 
# 
# 
# High freq. dielectric constant tensor:
#      x y z
#    x 1.683150 0.000000 0.008400 
#    y 0.000000 1.676660 0.000000 
#    z 0.008400 0.000000 1.698120 
# 
# From -- ./inp_files/106438.got.cif
#   From: 2010.06.25/outbox.cif.g09.slc.cpg/sg15_54_cif.got.tgz:106438.got - 2010.06.28 07:06:18.
