data_PCOD8134378
_publ_section_title
;
Structure prediction by ZEFSAII (Michael W. Deem and Ramdas Pophale) SiO2 
 PCOD8134378
Probable space group: C 2/C
;
_chemical_formula_sum "Si O2"
_cell_formula_units_Z 52
_cell_length_a 28.092654
_cell_length_b 15.391269
_cell_length_c 9.587353
_cell_angle_alpha 90.000000
_cell_angle_beta 144.822330
_cell_angle_gamma 90.000000
_cell_volume 2388.219274
_symmetry_space_group_name_H-M "C 2/C"
_symmetry_group_IT_number 15
_symmetry_cell_setting 'monoclinic'
loop_
_space_group_symop_operation_xyz
x,y,z
-x,y,1/2-z
-x,-y,-z
x,-y,1/2+z
1/2+x,1/2+y,z
1/2-x,1/2+y,1/2-z
1/2-x,1/2-y,-z
1/2+x,1/2-y,1/2+z
loop_
_atom_site_type_symbol
_atom_site_label
_atom_site_fract_x
_atom_site_fract_y
_atom_site_fract_z
Si Si1 0.289417 0.169717 0.309272
Si Si2 0.135000 0.027828 0.288826
Si Si3 0.750586 0.854110 0.280095
Si Si4 0.874245 0.366231 0.286102
Si Si5 0.000000 0.738817 0.250000
Si Si6 0.307305 0.048503 0.109109
Si Si7 0.110096 0.107284 0.944928
O O1 0.270345 0.270428 0.232762
O O2 0.359135 0.166020 0.594087
O O3 0.327942 0.127019 0.263423
O O4 0.208943 0.118256 0.172278
O O5 0.163206 0.102677 0.464865
O O6 0.215426 0.983575 0.417622
O O7 0.082130 0.956656 0.250730
O O8 0.084537 0.067491 0.036091
O O9 0.698180 0.827229 0.289929
O O10 0.692997 0.918910 0.051394
O O11 0.960483 0.325294 0.540995
O O12 0.874053 0.471647 0.289410
O O13 0.934093 0.799381 0.173790
#
# Coordination Sequence:
#
# PCOD8134378 Si02
#       7
#     8   8   8   8   4   8   8
#     4  11  20  36  63  91 117 149 196 251 289 349
#     4  10  19  35  62  88 121 153 189 251 297 353
#     4  11  18  34  61  95 115 147 194 250 296 338
#     4  11  21  39  59  87 117 158 200 238 291 348
#     4  12  26  38  60  86 120 164 202 242 278 364
#     4  10  20  35  60  94 118 147 192 249 306 334
#     4  11  21  39  59  90 121 155 198 239 303 346
#
# _framework density 21.773544000000001
#
# number of rings (size 3 to 8) (size 9 to 14) (size 15 to 20)
#    0.000    1.231    6.154    3.692    0.000    0.615 
#    0.000    3.077    0.000    1.846    0.000    0.000 
#    0.000    0.000    0.000    0.000    0.000    0.000 
#
# Total GULP energy -322402.526128 kJ/mol
# GULP energy per Si atom -12400.097159 kJ/mol
# Density = 2.172399 g / cm^3
# Si number density = 21.773544 Si / 1000 Ang^3
#
#
#
# Elastic Constant Matrix: (Units=GPa)
#
#
# Indices 1 2 3 4 5 6 
#
# 1 36.9802 15.6607 24.6359 0.0000 -15.7897 0.0000
# 2 15.6607 123.7509 43.0752 0.0000 -17.6936 0.0000
# 3 24.6359 43.0752 71.7786 0.0000 -22.0747 0.0000
# 4 0.0000 0.0000 0.0000 34.7759 0.0000 -3.3492
# 5 -15.7897 -17.6936 -22.0747 0.0000 25.3611 0.0000
# 6 0.0000 0.0000 0.0000 -3.3492 0.0000 27.4585
#
#
#
# Elastic Compliance Matrix: (Units=1/GPa)
#
#
# Indices 1 2 3 4 5 6 
#
# 1 0.040193 0.000452 -0.008567 0.000000 0.017883 0.000000
# 2 0.000452 0.010332 -0.005533 0.000000 0.002674 0.000000
# 3 -0.008567 -0.005533 0.023713 0.000000 0.011446 0.000000
# 4 0.000000 0.000000 0.000000 0.029097 0.000000 0.003549
# 5 0.017883 0.002674 0.011446 0.000000 0.062392 0.000000
# 6 0.000000 0.000000 0.000000 0.003549 0.000000 0.036852
#
#
# Mechanical properties :
#
#
# Convention : Reuss Voigt Hill
#
# Bulk Modulus (GPa) = 21.30303 44.36147 32.83225
# Shear Modulus (GPa) = 20.36489 27.46160 23.91325
#
# Velocity S-wave (km/s) = 3.06159 3.55524 3.31761
# Velocity P-wave (km/s) = 4.72260 6.10502 5.45776
#
# Compressibility (1/GPa) = 0.04694168
#
# Stress axis : x y z
#
# Youngs Moduli (GPa) = 24.88023 96.78870 42.17164
#
# Poissons Ratio (x) = -0.04379 0.36127
# Poissons Ratio (y) = -0.01126 0.23335
# Poissons Ratio (z) = 0.21314 0.53556
#
# Static dielectric constant tensor:
#      x y z
#    x 3.545610 0.000000 -0.305340 
#    y 0.000000 4.207770 0.000000 
#    z -0.305340 0.000000 3.796590 
# 
# 
# High freq. dielectric constant tensor:
#      x y z
#    x 1.814410 0.000000 -0.031050 
#    y 0.000000 1.870810 0.000000 
#    z -0.031050 0.000000 1.844170 
# 
# From -- ./inp_files/70193.got.cif
#   From: 2010.06.25/outbox.cif.g09.slc.cpg/sg15_36_cif.got.tgz:70193.got - 2010.06.28 07:06:18.
