data_PCOD8134829
_publ_section_title
;
Structure prediction by ZEFSAII (Michael W. Deem and Ramdas Pophale) SiO2 
 PCOD8134829
Probable space group: C 2/C
;
_chemical_formula_sum "Si O2"
_cell_formula_units_Z 56
_cell_length_a 18.886511
_cell_length_b 12.182792
_cell_length_c 14.471549
_cell_angle_alpha 90.000000
_cell_angle_beta 121.297649
_cell_angle_gamma 90.000000
_cell_volume 2845.218091
_symmetry_space_group_name_H-M "C 2/C"
_symmetry_group_IT_number 15
_symmetry_cell_setting 'monoclinic'
loop_
_space_group_symop_operation_xyz
x,y,z
-x,y,1/2-z
-x,-y,-z
x,-y,1/2+z
1/2+x,1/2+y,z
1/2-x,1/2+y,1/2-z
1/2-x,1/2-y,-z
1/2+x,1/2-y,1/2+z
loop_
_atom_site_type_symbol
_atom_site_label
_atom_site_fract_x
_atom_site_fract_y
_atom_site_fract_z
Si Si1 0.294147 0.034415 0.702976
Si Si2 0.244614 0.482751 0.625674
Si Si3 0.658110 0.725319 0.259108
Si Si4 0.000000 0.688809 0.750000
Si Si5 0.308526 0.344495 0.919241
Si Si6 0.500000 0.188870 0.250000
Si Si7 0.656052 0.689835 0.854309
Si Si8 0.404236 0.000337 0.616057
O O1 0.285589 0.165922 0.692485
O O2 0.307579 0.993474 0.816284
O O3 0.212229 0.974545 0.605968
O O4 0.376469 0.999119 0.704642
O O5 0.290400 0.366584 0.651030
O O6 0.315714 0.575225 0.670279
O O7 0.178556 0.499004 0.500066
O O8 0.568032 0.735761 0.245407
O O9 0.645131 0.697738 0.141593
O O10 0.958457 0.611268 0.641866
O O11 0.221983 0.282862 0.875567
O O12 0.361693 0.324521 0.047374
O O13 0.430446 0.268480 0.247694
O O14 0.541878 0.111072 0.358345
#
# Coordination Sequence:
#
# PCOD8134829 Si02
#       8
#     8   8   8   4   8   4   8   8
#     4  10  19  36  63  92 116 153 219 254 283 368
#     4  11  22  38  68  88 118 171 211 242 310 370
#     4  10  22  38  63  91 124 163 205 252 303 372
#     4   9  22  39  56  86 134 155 195 258 310 352
#     4  10  19  38  63  87 120 160 210 253 294 375
#     4  11  22  35  64  92 128 147 197 266 322 340
#     4  11  20  37  62  89 123 158 199 257 318 355
#     4  10  20  41  59  92 122 161 202 265 298 358
#
# _framework density 19.682148000000002
#
# number of rings (size 3 to 8) (size 9 to 14) (size 15 to 20)
#    0.000    1.714    4.286    0.857    0.000    2.857 
#    2.571    2.143    3.143    2.571    0.000    0.000 
#    0.000    0.000    0.000    0.000    0.000    0.000 
#
# Total GULP energy -347009.510094 kJ/mol
# GULP energy per Si atom -12393.196789 kJ/mol
# Density = 1.963735 g / cm^3
# Si number density = 19.682148 Si / 1000 Ang^3
#
#
#
# Elastic Constant Matrix: (Units=GPa)
#
#
# Indices 1 2 3 4 5 6 
#
# 1 105.1284 53.4015 58.3050 0.0000 2.8064 0.0000
# 2 53.4015 137.3111 41.5214 0.0000 9.9323 0.0000
# 3 58.3050 41.5214 68.9803 0.0000 0.3371 0.0000
# 4 0.0000 0.0000 0.0000 25.7319 0.0000 8.6332
# 5 2.8064 9.9323 0.3371 0.0000 26.7719 0.0000
# 6 0.0000 0.0000 0.0000 8.6332 0.0000 35.6283
#
#
#
# Elastic Compliance Matrix: (Units=1/GPa)
#
#
# Indices 1 2 3 4 5 6 
#
# 1 0.018929 -0.003026 -0.014175 0.000000 -0.000683 0.000000
# 2 -0.003026 0.009676 -0.003251 0.000000 -0.003232 0.000000
# 3 -0.014175 -0.003251 0.028424 0.000000 0.002334 0.000000
# 4 0.000000 0.000000 0.000000 0.042301 0.000000 -0.010250
# 5 -0.000683 -0.003232 0.002334 0.000000 0.038594 0.000000
# 6 0.000000 0.000000 0.000000 -0.010250 0.000000 0.030551
#
#
# Mechanical properties :
#
#
# Convention : Reuss Voigt Hill
#
# Bulk Modulus (GPa) = 62.01450 68.65285 65.33368
# Shear Modulus (GPa) = 23.28244 28.17253 25.72748
#
# Velocity S-wave (km/s) = 3.44309 3.78746 3.61937
# Velocity P-wave (km/s) = 6.88353 7.35411 7.12270
#
# Compressibility (1/GPa) = 0.01612526
#
# Stress axis : x y z
#
# Youngs Moduli (GPa) = 52.82922 103.34419 35.18208
#
# Poissons Ratio (x) = 0.31271 0.49870
# Poissons Ratio (y) = 0.15986 0.11438
# Poissons Ratio (z) = 0.74884 0.33598
#
# Static dielectric constant tensor:
#      x y z
#    x 3.590510 0.000000 -0.161730 
#    y 0.000000 3.833800 0.000000 
#    z -0.161730 0.000000 3.414790 
# 
# 
# High freq. dielectric constant tensor:
#      x y z
#    x 1.759060 0.000000 -0.007460 
#    y 0.000000 1.780750 0.000000 
#    z -0.007460 0.000000 1.737770 
# 
# From -- ./inp_files/161445.got.cif
#   From: 2010.06.25/outbox.cif.g09.slc.cpg/sg15_81_cif.got.tgz:161445.got - 2010.06.28 07:06:18.
