data_PCOD8134248
_publ_section_title
;
Structure prediction by ZEFSAII (Michael W. Deem and Ramdas Pophale) SiO2 
 PCOD8134248
Probable space group: C 2/C
;
_chemical_formula_sum "Si O2"
_cell_formula_units_Z 44
_cell_length_a 6.742967
_cell_length_b 24.824643
_cell_length_c 19.560387
_cell_angle_alpha 90.000000
_cell_angle_beta 42.182041
_cell_angle_gamma 90.000000
_cell_volume 2198.618991
_symmetry_space_group_name_H-M "C 2/C"
_symmetry_group_IT_number 15
_symmetry_cell_setting 'monoclinic'
loop_
_space_group_symop_operation_xyz
x,y,z
-x,y,1/2-z
-x,-y,-z
x,-y,1/2+z
1/2+x,1/2+y,z
1/2-x,1/2+y,1/2-z
1/2-x,1/2-y,-z
1/2+x,1/2-y,1/2+z
loop_
_atom_site_type_symbol
_atom_site_label
_atom_site_fract_x
_atom_site_fract_y
_atom_site_fract_z
Si Si1 0.691281 0.901297 0.933449
Si Si2 0.000000 0.830600 0.750000
Si Si3 0.173172 0.826201 0.477568
Si Si4 0.666024 0.742523 0.330940
Si Si5 0.687354 0.525936 0.360569
Si Si6 0.413266 0.421758 0.469879
O O1 0.754362 0.867264 0.848994
O O2 0.925627 0.949765 0.880714
O O3 0.688857 0.864704 0.001001
O O4 0.361028 0.923172 0.011688
O O5 0.162116 0.795838 0.766175
O O6 0.435344 0.790769 0.378402
O O7 0.920424 0.789267 0.577257
O O8 0.038644 0.861436 0.449692
O O9 0.000000 0.764928 0.250000
O O10 0.656525 0.461262 0.374235
O O11 0.690388 0.553583 0.432743
O O12 0.000000 0.541231 0.250000
#
# Coordination Sequence:
#
# PCOD8134248 Si02
#       6
#     8   4   8   8   8   8
#     4  10  19  35  59  82 107 148 189 229 281 333
#     4  10  20  32  58  88 104 142 200 230 274 328
#     4   9  21  37  54  81 114 147 186 233 280 333
#     4  10  20  37  56  80 115 148 188 237 281 329
#     4  10  21  36  55  83 112 143 186 239 281 332
#     4  10  20  37  57  78 115 147 185 232 282 337
#
# _framework density 20.012564000000001
#
# number of rings (size 3 to 8) (size 9 to 14) (size 15 to 20)
#    0.000    2.182    0.000    2.727    0.000    6.545 
#    4.909    5.455    0.000    0.000    0.000    0.000 
#    0.000    0.000    0.000    0.000    0.000    0.000 
#
# Total GULP energy -272815.349130 kJ/mol
# GULP energy per Si atom -12400.697688 kJ/mol
# Density = 1.996701 g / cm^3
# Si number density = 20.012564 Si / 1000 Ang^3
#
#
#
# Elastic Constant Matrix: (Units=GPa)
#
#
# Indices 1 2 3 4 5 6 
#
# 1 92.6722 34.7570 28.4077 0.0001 -21.6452 0.0000
# 2 34.7570 107.3432 31.6361 0.0000 -14.1622 0.0000
# 3 28.4077 31.6361 67.3145 -0.0001 -13.2373 -0.0001
# 4 0.0001 0.0000 -0.0001 13.6285 0.0001 -2.8814
# 5 -21.6452 -14.1622 -13.2373 0.0001 29.6222 0.0001
# 6 0.0000 0.0000 -0.0001 -2.8814 0.0001 17.4281
#
#
#
# Elastic Compliance Matrix: (Units=1/GPa)
#
#
# Indices 1 2 3 4 5 6 
#
# 1 0.014695 -0.002720 -0.003363 0.000000 0.007935 0.000000
# 2 -0.002720 0.011597 -0.003950 0.000000 0.001792 0.000000
# 3 -0.003363 -0.003950 0.018941 0.000000 0.004119 0.000000
# 4 0.000000 0.000000 0.000000 0.076033 0.000000 0.012571
# 5 0.007935 0.001792 0.004119 0.000000 0.042253 0.000000
# 6 0.000000 0.000000 0.000000 0.012571 0.000000 0.059457
#
#
# Mechanical properties :
#
#
# Convention : Reuss Voigt Hill
#
# Bulk Modulus (GPa) = 39.73424 50.77016 45.25220
# Shear Modulus (GPa) = 19.88609 23.63771 21.76190
#
# Velocity S-wave (km/s) = 3.15569 3.44051 3.30117
# Velocity P-wave (km/s) = 5.75982 6.41927 6.09847
#
# Compressibility (1/GPa) = 0.02516721
#
# Stress axis : x y z
#
# Youngs Moduli (GPa) = 68.05029 86.22719 52.79519
#
# Poissons Ratio (x) = 0.23456 0.17754
# Poissons Ratio (y) = 0.18511 0.20855
# Poissons Ratio (z) = 0.22884 0.34061
#
# Static dielectric constant tensor:
#      x y z
#    x 3.532500 0.000000 0.019370 
#    y 0.000000 3.816100 0.000000 
#    z 0.019370 0.000000 3.465100 
# 
# 
# High freq. dielectric constant tensor:
#      x y z
#    x 1.778640 0.000000 -0.003920 
#    y 0.000000 1.784400 0.000000 
#    z -0.003920 0.000000 1.767110 
# 
# From -- ./inp_files/129369.got.cif
#   From: 2010.06.25/outbox.cif.g09.slc.cpg/sg15_65_cif.got.tgz:129369.got - 2010.06.28 07:06:18.
