data_PCOD8134979
_publ_section_title
;
Structure prediction by ZEFSAII (Michael W. Deem and Ramdas Pophale) SiO2 
 PCOD8134979
Probable space group: C 2/C
;
_chemical_formula_sum "Si O2"
_cell_formula_units_Z 56
_cell_length_a 23.685716
_cell_length_b 11.288398
_cell_length_c 20.456104
_cell_angle_alpha 90.000000
_cell_angle_beta 148.092297
_cell_angle_gamma 90.000000
_cell_volume 2890.878631
_symmetry_space_group_name_H-M "C 2/C"
_symmetry_group_IT_number 15
_symmetry_cell_setting 'monoclinic'
loop_
_space_group_symop_operation_xyz
x,y,z
-x,y,1/2-z
-x,-y,-z
x,-y,1/2+z
1/2+x,1/2+y,z
1/2-x,1/2+y,1/2-z
1/2-x,1/2-y,-z
1/2+x,1/2-y,1/2+z
loop_
_atom_site_type_symbol
_atom_site_label
_atom_site_fract_x
_atom_site_fract_y
_atom_site_fract_z
Si Si1 0.837739 0.946737 0.811573
Si Si2 0.910315 0.397908 0.078585
Si Si3 0.594492 0.089867 0.078717
Si Si4 0.979190 0.169535 0.933245
Si Si5 0.429799 0.327194 0.237830
Si Si6 0.677862 0.444101 0.853734
Si Si7 0.500000 0.697113 0.250000
Si Si8 0.000000 0.602160 0.250000
O O1 0.714318 0.955842 0.714871
O O2 0.843470 0.905029 0.741903
O O3 0.893921 0.073535 0.875258
O O4 0.903960 0.851825 0.920057
O O5 0.969239 0.280932 0.159875
O O6 0.963449 0.520455 0.154242
O O7 0.909220 0.386094 0.000953
O O8 0.791400 0.399845 0.990467
O O9 0.571128 0.206615 0.096249
O O10 0.500000 0.000000 0.000000
O O11 0.994174 0.170050 0.869676
O O12 0.500000 0.389968 0.250000
O O13 0.325963 0.411109 0.144475
O O14 0.409057 0.190806 0.192505
O O15 0.595355 0.385046 0.821195
#
# Coordination Sequence:
#
# PCOD8134979 Si02
#       8
#     8   8   8   8   8   8   4   4
#     4   9  22  39  60  88 117 154 193 250 295 342
#     4  10  22  36  56  85 118 150 187 244 284 338
#     4  11  23  38  62  86 116 158 200 239 295 353
#     4  10  20  40  62  84 121 151 194 247 295 349
#     4   9  19  37  60  81 113 151 184 240 283 347
#     4  10  19  37  59  84 112 151 194 231 294 341
#     4  11  19  36  58  82 117 149 190 234 284 349
#     4   9  19  38  54  82 121 147 188 232 286 335
#
# _framework density 19.371272999999999
#
# number of rings (size 3 to 8) (size 9 to 14) (size 15 to 20)
#    0.429    1.714    0.714    2.143    2.000    0.571 
#    2.571    2.857    0.000    0.000    0.000    0.000 
#    0.000    0.000    0.000    0.000    0.000    0.000 
#
# Total GULP energy -346936.127214 kJ/mol
# GULP energy per Si atom -12390.575972 kJ/mol
# Density = 1.932718 g / cm^3
# Si number density = 19.371273 Si / 1000 Ang^3
#
#
#
# Elastic Constant Matrix: (Units=GPa)
#
#
# Indices 1 2 3 4 5 6 
#
# 1 90.5227 28.3388 31.6450 0.0000 7.2814 0.0000
# 2 28.3388 92.5717 25.6983 0.0000 6.3737 0.0000
# 3 31.6450 25.6983 80.6575 0.0000 12.0511 0.0000
# 4 0.0000 0.0000 0.0000 -16.1447 0.0000 5.2794
# 5 7.2814 6.3737 12.0511 0.0000 34.4053 0.0000
# 6 0.0000 0.0000 0.0000 5.2794 0.0000 17.5809
#
#
#
# Elastic Compliance Matrix: (Units=1/GPa)
#
#
# Indices 1 2 3 4 5 6 
#
# 1 0.013507 -0.002897 -0.004252 0.000000 -0.000833 0.000000
# 2 -0.002897 0.012500 -0.002735 0.000000 -0.000745 0.000000
# 3 -0.004252 -0.002735 0.015541 0.000000 -0.004037 0.000000
# 4 0.000000 0.000000 0.000000 -0.056401 0.000000 0.016937
# 5 -0.000833 -0.000745 -0.004037 0.000000 0.030793 0.000000
# 6 0.000000 0.000000 0.000000 0.016937 0.000000 0.051794
#
#
# Mechanical properties :
#
#
# Convention : Reuss Voigt Hill
#
# Bulk Modulus (GPa) = 45.91326 48.34626 47.12976
# Shear Modulus (GPa) = 52.76392 19.03961 35.90176
#
# Velocity S-wave (km/s) = 5.22469 3.13849 4.30973
# Velocity P-wave (km/s) = 7.75562 6.17620 7.01053
#
# Compressibility (1/GPa) = 0.02178020
#
# Stress axis : x y z
#
# Youngs Moduli (GPa) = 74.03378 80.00143 64.34704
#
# Poissons Ratio (x) = 0.23179 0.27360
# Poissons Ratio (y) = 0.21450 0.17596
# Poissons Ratio (z) = 0.31479 0.21877
#
# Static dielectric constant tensor:
#      x y z
#    x 3.533650 0.000000 0.019090 
#    y 0.000000 3.580610 0.000000 
#    z 0.019090 0.000000 3.644270 
# 
# 
# High freq. dielectric constant tensor:
#      x y z
#    x 1.753530 0.000000 -0.010240 
#    y 0.000000 1.760010 0.000000 
#    z -0.010240 0.000000 1.746430 
# 
# From -- ./inp_files/122493.got.cif
#   From: 2010.06.25/outbox.cif.g09.slc.cpg/sg15_62_cif.got.tgz:122493.got - 2010.06.28 07:06:18.
