data_PCOD8134391
_publ_section_title
;
Structure prediction by ZEFSAII (Michael W. Deem and Ramdas Pophale) SiO2 
 PCOD8134391
Probable space group: C 2/C
;
_chemical_formula_sum "Si O2"
_cell_formula_units_Z 60
_cell_length_a 16.799033
_cell_length_b 18.617277
_cell_length_c 8.769272
_cell_angle_alpha 90.000000
_cell_angle_beta 87.610180
_cell_angle_gamma 90.000000
_cell_volume 2740.224183
_symmetry_space_group_name_H-M "C 2/C"
_symmetry_group_IT_number 15
_symmetry_cell_setting 'monoclinic'
loop_
_space_group_symop_operation_xyz
x,y,z
-x,y,1/2-z
-x,-y,-z
x,-y,1/2+z
1/2+x,1/2+y,z
1/2-x,1/2+y,1/2-z
1/2-x,1/2-y,-z
1/2+x,1/2-y,1/2+z
loop_
_atom_site_type_symbol
_atom_site_label
_atom_site_fract_x
_atom_site_fract_y
_atom_site_fract_z
Si Si1 0.126665 0.695066 0.964632
Si Si2 0.587033 0.675889 0.673998
Si Si3 0.586395 0.470133 0.994322
Si Si4 0.628593 0.069309 0.542970
Si Si5 0.690262 0.473231 0.713535
Si Si6 0.500000 0.860280 0.250000
Si Si7 0.745436 0.632095 0.768440
Si Si8 0.652846 0.922462 0.703296
O O1 0.117528 0.774365 0.033705
O O2 0.120056 0.645091 0.114612
O O3 0.053598 0.688622 0.854017
O O4 0.208097 0.677399 0.867574
O O5 0.500000 0.698219 0.750000
O O6 0.583039 0.597003 0.606018
O O7 0.658790 0.671623 0.796140
O O8 0.613820 0.455118 0.822169
O O9 0.500000 0.500000 0.000000
O O10 0.651585 0.529405 0.047940
O O11 0.549787 0.087423 0.639850
O O12 0.699917 0.126073 0.582661
O O13 0.604635 0.070192 0.366083
O O14 0.651596 0.988828 0.587407
O O15 0.733905 0.550386 0.715691
O O16 0.756023 0.412643 0.742600
#
# Coordination Sequence:
#
# PCOD8134391 Si02
#       8
#     8   8   8   8   8   4   8   8
#     4  11  24  42  66  88 132 179 219 267 339 405
#     4  11  24  41  66  93 132 179 221 270 334 399
#     4  11  21  38  63  95 130 165 212 280 338 382
#     4  10  21  37  63  94 126 163 217 275 332 387
#     4  10  19  35  62  94 123 157 211 267 323 387
#     4  10  24  42  60  88 126 168 218 286 326 392
#     4   9  19  41  64  90 127 167 211 266 325 390
#     4  11  21  36  62  94 124 168 214 271 330 394
#
# _framework density 21.896018999999999
#
# number of rings (size 3 to 8) (size 9 to 14) (size 15 to 20)
#    0.000    1.600    0.000    8.000    1.867    2.133 
#    2.400    0.667    2.933    0.000    0.000    0.000 
#    0.000    0.000    0.000    0.000    0.000    0.000 
#
# Total GULP energy -371646.606199 kJ/mol
# GULP energy per Si atom -12388.220207 kJ/mol
# Density = 2.184618 g / cm^3
# Si number density = 21.896019 Si / 1000 Ang^3
#
#
#
# Elastic Constant Matrix: (Units=GPa)
#
#
# Indices 1 2 3 4 5 6 
#
# 1 119.2716 22.4719 22.8009 0.0000 0.3618 0.0000
# 2 22.4719 30.5489 21.1728 0.0000 8.1512 0.0000
# 3 22.8009 21.1728 98.6249 0.0000 6.1840 0.0000
# 4 0.0000 0.0000 0.0000 26.6321 0.0000 -6.2728
# 5 0.3618 8.1512 6.1840 0.0000 39.7401 0.0000
# 6 0.0000 0.0000 0.0000 -6.2728 0.0000 19.7828
#
#
#
# Elastic Compliance Matrix: (Units=1/GPa)
#
#
# Indices 1 2 3 4 5 6 
#
# 1 0.009876 -0.007067 -0.000860 0.000000 0.001493 0.000000
# 2 -0.007067 0.045347 -0.007596 0.000000 -0.008055 0.000000
# 3 -0.000860 -0.007596 0.011988 0.000000 -0.000300 0.000000
# 4 0.000000 0.000000 0.000000 0.040579 0.000000 0.012867
# 5 0.001493 -0.008055 -0.000300 0.000000 0.026849 0.000000
# 6 0.000000 0.000000 0.000000 0.012867 0.000000 0.054629
#
#
# Mechanical properties :
#
#
# Convention : Reuss Voigt Hill
#
# Bulk Modulus (GPa) = 27.65156 42.37074 35.01115
# Shear Modulus (GPa) = 21.51760 29.36432 25.44096
#
# Velocity S-wave (km/s) = 3.13823 3.66605 3.41236
# Velocity P-wave (km/s) = 5.07812 6.10842 5.61694
#
# Compressibility (1/GPa) = 0.03616432
#
# Stress axis : x y z
#
# Youngs Moduli (GPa) = 101.26018 22.05213 83.41893
#
# Poissons Ratio (x) = 0.15585 0.07170
# Poissons Ratio (y) = 0.71563 0.63367
# Poissons Ratio (z) = 0.08704 0.16751
#
# Static dielectric constant tensor:
#      x y z
#    x 4.290140 0.000000 0.090230 
#    y 0.000000 3.655220 0.000000 
#    z 0.090230 0.000000 3.970640 
# 
# 
# High freq. dielectric constant tensor:
#      x y z
#    x 1.881720 0.000000 0.005400 
#    y 0.000000 1.820960 0.000000 
#    z 0.005400 0.000000 1.864680 
# 
# From -- ./inp_files/49098.got.cif
#   From: 2010.06.25/outbox.cif.g09.slc.cpg/sg15_25_cif.got.tgz:49098.got - 2010.06.28 07:06:18.
