data_PCOD8134941
_publ_section_title
;
Structure prediction by ZEFSAII (Michael W. Deem and Ramdas Pophale) SiO2 
 PCOD8134941
Probable space group: C 2/C
;
_chemical_formula_sum "Si O2"
_cell_formula_units_Z 44
_cell_length_a 17.249445
_cell_length_b 8.198960
_cell_length_c 25.578820
_cell_angle_alpha 90.000000
_cell_angle_beta 39.450542
_cell_angle_gamma 90.000000
_cell_volume 2298.633611
_symmetry_space_group_name_H-M "C 2/C"
_symmetry_group_IT_number 15
_symmetry_cell_setting 'monoclinic'
loop_
_space_group_symop_operation_xyz
x,y,z
-x,y,1/2-z
-x,-y,-z
x,-y,1/2+z
1/2+x,1/2+y,z
1/2-x,1/2+y,1/2-z
1/2-x,1/2-y,-z
1/2+x,1/2-y,1/2+z
loop_
_atom_site_type_symbol
_atom_site_label
_atom_site_fract_x
_atom_site_fract_y
_atom_site_fract_z
Si Si1 0.054616 0.626523 0.431006
Si Si2 0.576866 0.562103 0.319264
Si Si3 0.076312 0.059116 0.509778
Si Si4 0.232682 0.632817 0.641201
Si Si5 0.000000 0.177279 0.250000
Si Si6 0.682953 0.087127 0.780514
O O1 0.169224 0.725844 0.395110
O O2 0.094079 0.533750 0.357857
O O3 0.000000 0.500000 0.500000
O O4 0.942437 0.746951 0.474931
O O5 0.464315 0.525486 0.415536
O O6 0.529980 0.567163 0.284436
O O7 0.637145 0.728383 0.308750
O O8 0.679246 0.421015 0.268709
O O9 0.214787 0.002559 0.426287
O O10 0.000000 0.000000 0.500000
O O11 0.188410 0.538974 0.716472
O O12 0.116278 0.712873 0.673976
#
# Coordination Sequence:
#
# PCOD8134941 Si02
#       6
#     8   8   8   8   4   8
#     4  11  21  33  60  94 117 150 206 260 296 342
#     4  11  20  36  63  86 125 152 208 246 298 360
#     4  10  19  37  57  94 116 155 201 263 289 347
#     4  10  21  37  60  87 122 156 205 247 302 366
#     4  10  22  38  58  94 122 170 194 236 320 376
#     4  11  18  34  58  90 112 159 203 250 285 353
#
# _framework density 19.141805000000002
#
# number of rings (size 3 to 8) (size 9 to 14) (size 15 to 20)
#    0.000    1.455    7.273    2.182    0.000    0.727 
#    0.000    0.000    0.000   32.727    0.000    0.000 
#    0.000    0.000    0.000    0.000    0.000    0.000 
#
# Total GULP energy -272713.670831 kJ/mol
# GULP energy per Si atom -12396.075947 kJ/mol
# Density = 1.909824 g / cm^3
# Si number density = 19.141805 Si / 1000 Ang^3
#
#
#
# Elastic Constant Matrix: (Units=GPa)
#
#
# Indices 1 2 3 4 5 6 
#
# 1 81.8120 32.0800 26.4436 -0.0002 7.4053 0.0017
# 2 32.0800 94.2847 64.2745 -0.0003 4.3735 0.0024
# 3 26.4436 64.2745 153.7707 0.0000 14.6535 0.0001
# 4 -0.0002 -0.0003 0.0000 41.1691 0.0000 -0.4690
# 5 7.4053 4.3735 14.6535 0.0000 26.6017 -0.0004
# 6 0.0017 0.0024 0.0001 -0.4690 -0.0004 23.3810
#
#
#
# Elastic Compliance Matrix: (Units=1/GPa)
#
#
# Indices 1 2 3 4 5 6 
#
# 1 0.014381 -0.004566 -0.000269 0.000000 -0.003105 -0.000001
# 2 -0.004566 0.016309 -0.006224 0.000000 0.002018 -0.000001
# 3 -0.000269 -0.006224 0.009548 0.000000 -0.004161 0.000001
# 4 0.000000 0.000000 0.000000 0.024296 0.000000 0.000487
# 5 -0.003105 0.002018 -0.004161 0.000000 0.040416 0.000001
# 6 -0.000001 -0.000001 0.000001 0.000487 0.000001 0.042780
#
#
# Mechanical properties :
#
#
# Convention : Reuss Voigt Hill
#
# Bulk Modulus (GPa) = 55.18661 63.94040 59.56350
# Shear Modulus (GPa) = 28.42725 32.03499 30.23112
#
# Velocity S-wave (km/s) = 3.85786 4.09536 3.97838
# Velocity P-wave (km/s) = 6.98120 7.47253 7.23104
#
# Compressibility (1/GPa) = 0.01812034
#
# Stress axis : x y z
#
# Youngs Moduli (GPa) = 69.53406 61.31517 104.73854
#
# Poissons Ratio (x) = 0.27997 0.02815
# Poissons Ratio (y) = 0.31749 0.65191
# Poissons Ratio (z) = 0.01869 0.38164
#
# Static dielectric constant tensor:
#      x y z
#    x 3.216650 0.000000 -0.129510 
#    y 0.000000 3.690730 0.000000 
#    z -0.129510 0.000000 4.132970 
# 
# 
# High freq. dielectric constant tensor:
#      x y z
#    x 1.703020 0.000000 0.005130 
#    y 0.000000 1.738830 0.000000 
#    z 0.005130 0.000000 1.771150 
# 
# From -- ./inp_files/202646.got.cif
#   From: 2010.06.25/outbox.cif.g09.slc.cpg/sg15_102_cif.got.tgz:202646.got - 2010.06.28 07:06:18.
