data_PCOD8134993
_publ_section_title
;
Structure prediction by ZEFSAII (Michael W. Deem and Ramdas Pophale) SiO2 
 PCOD8134993
Probable space group: C 2/C
;
_chemical_formula_sum "Si O2"
_cell_formula_units_Z 60
_cell_length_a 16.809304
_cell_length_b 8.485152
_cell_length_c 24.923290
_cell_angle_alpha 90.000000
_cell_angle_beta 122.594706
_cell_angle_gamma 90.000000
_cell_volume 2994.923678
_symmetry_space_group_name_H-M "C 2/C"
_symmetry_group_IT_number 15
_symmetry_cell_setting 'monoclinic'
loop_
_space_group_symop_operation_xyz
x,y,z
-x,y,1/2-z
-x,-y,-z
x,-y,1/2+z
1/2+x,1/2+y,z
1/2-x,1/2+y,1/2-z
1/2-x,1/2-y,-z
1/2+x,1/2-y,1/2+z
loop_
_atom_site_type_symbol
_atom_site_label
_atom_site_fract_x
_atom_site_fract_y
_atom_site_fract_z
Si Si1 0.172357 0.357126 0.876582
Si Si2 0.447715 0.449106 0.283626
Si Si3 0.287012 0.368968 0.469446
Si Si4 0.121679 0.051461 0.909785
Si Si5 0.500000 0.966483 0.750000
Si Si6 0.755709 0.664684 0.816630
Si Si7 0.752025 0.860786 0.625977
Si Si8 0.125784 0.282002 0.243260
O O1 0.204015 0.520371 0.915400
O O2 0.174337 0.219467 0.922416
O O3 0.066513 0.366331 0.813915
O O4 0.243529 0.307869 0.854164
O O5 0.500000 0.380623 0.250000
O O6 0.510568 0.416655 0.359334
O O7 0.343946 0.372867 0.249248
O O8 0.444054 0.636385 0.278131
O O9 0.250000 0.250000 0.500000
O O10 0.365835 0.481505 0.525333
O O11 0.321658 0.247551 0.435202
O O12 0.162917 0.930052 0.880179
O O13 0.432981 0.062723 0.765632
O O14 0.795859 0.508613 0.861545
O O15 0.832106 0.712488 0.801007
O O16 0.791971 0.737072 0.683392
#
# Coordination Sequence:
#
# PCOD8134993 Si02
#       8
#     8   8   8   8   4   8   8   8
#     4  11  21  36  58  94 124 146 202 255 297 354
#     4  11  18  38  62  85 122 156 195 246 303 358
#     4  10  21  34  59  88 118 161 206 242 295 358
#     4  10  19  37  59  88 114 164 197 250 290 356
#     4  12  22  32  60  94 120 144 196 252 292 356
#     4  10  23  36  60  89 123 158 187 254 315 350
#     4   9  18  37  55  81 119 155 200 239 293 357
#     4  11  21  35  59  91 119 156 194 243 314 359
#
# _framework density 20.033899000000002
#
# number of rings (size 3 to 8) (size 9 to 14) (size 15 to 20)
#    0.000    1.600    6.000    1.200    5.600    0.000 
#    0.000    0.000    0.000    4.000    0.000    0.000 
#    0.000    0.000    0.000    0.000    0.000    0.000 
#
# Total GULP energy -371691.594401 kJ/mol
# GULP energy per Si atom -12389.719813 kJ/mol
# Density = 1.998830 g / cm^3
# Si number density = 20.033899 Si / 1000 Ang^3
#
#
#
# Elastic Constant Matrix: (Units=GPa)
#
#
# Indices 1 2 3 4 5 6 
#
# 1 52.1995 19.3130 19.6218 0.0000 -11.6770 0.0000
# 2 19.3130 99.6723 53.0015 0.0000 -6.8475 0.0000
# 3 19.6218 53.0015 110.7885 0.0000 -2.5204 0.0000
# 4 0.0000 0.0000 0.0000 38.0499 0.0000 -1.3426
# 5 -11.6770 -6.8475 -2.5204 0.0000 20.2645 0.0000
# 6 0.0000 0.0000 0.0000 -1.3426 0.0000 12.4388
#
#
#
# Elastic Compliance Matrix: (Units=1/GPa)
#
#
# Indices 1 2 3 4 5 6 
#
# 1 0.023896 -0.002231 -0.002877 0.000000 0.012658 0.000000
# 2 -0.002231 0.013956 -0.006221 0.000000 0.002657 0.000000
# 3 -0.002877 -0.006221 0.012462 0.000000 -0.002210 0.000000
# 4 0.000000 0.000000 0.000000 0.026382 0.000000 0.002848
# 5 0.012658 0.002657 -0.002210 0.000000 0.057264 0.000000
# 6 0.000000 0.000000 0.000000 0.002848 0.000000 0.080701
#
#
# Mechanical properties :
#
#
# Convention : Reuss Voigt Hill
#
# Bulk Modulus (GPa) = 36.15903 49.61477 42.88690
# Shear Modulus (GPa) = 20.28109 25.53224 22.90666
#
# Velocity S-wave (km/s) = 3.18518 3.57382 3.38508
# Velocity P-wave (km/s) = 5.62274 6.46906 6.06069
#
# Compressibility (1/GPa) = 0.02765561
#
# Stress axis : x y z
#
# Youngs Moduli (GPa) = 41.84867 71.65570 80.24666
#
# Poissons Ratio (x) = 0.15984 0.23087
# Poissons Ratio (y) = 0.09335 0.49921
# Poissons Ratio (z) = 0.12040 0.44576
#
# Static dielectric constant tensor:
#      x y z
#    x 3.102130 0.000000 -0.074410 
#    y 0.000000 3.882380 0.000000 
#    z -0.074410 0.000000 3.983360 
# 
# 
# High freq. dielectric constant tensor:
#      x y z
#    x 1.722300 0.000000 -0.008100 
#    y 0.000000 1.808110 0.000000 
#    z -0.008100 0.000000 1.779390 
# 
# From -- ./inp_files/276587.got.cif
#   From: 2010.06.25/outbox.cif.g09.slc.cpg/sg15_139_cif.got.tgz:276587.got - 2010.06.28 07:06:18.
