data_PCOD8134389
_publ_section_title
;
Structure prediction by ZEFSAII (Michael W. Deem and Ramdas Pophale) SiO2 
 PCOD8134389
Probable space group: C 2/C
;
_chemical_formula_sum "Si O2"
_cell_formula_units_Z 64
_cell_length_a 19.641486
_cell_length_b 11.765775
_cell_length_c 25.224916
_cell_angle_alpha 90.000000
_cell_angle_beta 147.250362
_cell_angle_gamma 90.000000
_cell_volume 3153.531074
_symmetry_space_group_name_H-M "C 2/C"
_symmetry_group_IT_number 15
_symmetry_cell_setting 'monoclinic'
loop_
_space_group_symop_operation_xyz
x,y,z
-x,y,1/2-z
-x,-y,-z
x,-y,1/2+z
1/2+x,1/2+y,z
1/2-x,1/2+y,1/2-z
1/2-x,1/2-y,-z
1/2+x,1/2-y,1/2+z
loop_
_atom_site_type_symbol
_atom_site_label
_atom_site_fract_x
_atom_site_fract_y
_atom_site_fract_z
Si Si1 0.413128 0.261980 0.834169
Si Si2 0.705443 0.664488 0.133034
Si Si3 0.007136 0.827701 0.092651
Si Si4 0.390915 0.406227 0.717695
Si Si5 0.571776 0.664891 0.746559
Si Si6 0.055395 0.414716 0.594052
Si Si7 0.610084 0.112287 0.011066
Si Si8 0.249765 0.550405 0.781337
O O1 0.366143 0.310428 0.859190
O O2 0.421149 0.362410 0.796601
O O3 0.319863 0.166876 0.749129
O O4 0.550430 0.206960 0.933396
O O5 0.812062 0.756657 0.193202
O O6 0.758547 0.535835 0.173994
O O7 0.616009 0.666722 0.023523
O O8 0.975669 0.849256 0.133963
O O9 0.068697 0.702129 0.134358
O O10 0.106256 0.922370 0.138365
O O11 0.500000 0.361747 0.750000
O O12 0.376884 0.541151 0.705698
O O13 0.257380 0.361558 0.608558
O O14 0.500000 0.718201 0.750000
O O15 0.044462 0.378530 0.525780
O O16 0.180799 0.490952 0.685643
O O17 0.932156 0.484398 0.534285
#
# Coordination Sequence:
#
# PCOD8134389 Si02
#       8
#     8   8   8   8   8   8   8   8
#     4  11  23  37  67  97 124 170 210 262 321 371
#     4  12  23  39  65  99 132 159 210 275 318 367
#     4  12  21  37  63  94 127 161 205 268 318 369
#     4  11  25  45  65  88 131 172 213 262 307 384
#     4  11  25  45  65  88 126 175 215 255 316 386
#     4  10  19  35  62  93 127 160 205 264 304 374
#     4  10  20  36  63  97 119 166 215 248 317 377
#     4  11  21  36  60  98 130 162 198 264 326 367
#
# _framework density 20.294711
#
# number of rings (size 3 to 8) (size 9 to 14) (size 15 to 20)
#    0.000    1.000    3.750    4.125    1.750    1.000 
#    0.000    0.625    0.000    0.000    0.000    0.000 
#    0.000    0.000    0.000    0.000    0.000    0.000 
#
# Total GULP energy -396744.152570 kJ/mol
# GULP energy per Si atom -12398.254768 kJ/mol
# Density = 2.024852 g / cm^3
# Si number density = 20.294711 Si / 1000 Ang^3
#
#
#
# Elastic Constant Matrix: (Units=GPa)
#
#
# Indices 1 2 3 4 5 6 
#
# 1 102.0375 18.9158 50.1512 0.0000 -5.8794 0.0000
# 2 18.9158 59.1186 24.0099 0.0002 -2.7465 0.0000
# 3 50.1512 24.0099 136.6761 0.0005 -3.5108 -0.0001
# 4 0.0000 0.0002 0.0005 31.5418 0.0001 -6.4182
# 5 -5.8794 -2.7465 -3.5108 0.0001 22.2414 0.0000
# 6 0.0000 0.0000 -0.0001 -6.4182 0.0000 21.4706
#
#
#
# Elastic Compliance Matrix: (Units=1/GPa)
#
#
# Indices 1 2 3 4 5 6 
#
# 1 0.012349 -0.002182 -0.004088 0.000000 0.002350 0.000000
# 2 -0.002182 0.018668 -0.002444 0.000000 0.001343 0.000000
# 3 -0.004088 -0.002444 0.009248 0.000000 0.000077 0.000000
# 4 0.000000 0.000000 0.000000 0.033757 0.000000 0.010091
# 5 0.002350 0.001343 0.000077 0.000000 0.045760 0.000000
# 6 0.000000 0.000000 0.000000 0.010091 0.000000 0.049592
#
#
# Mechanical properties :
#
#
# Convention : Reuss Voigt Hill
#
# Bulk Modulus (GPa) = 43.78768 53.77621 48.78194
# Shear Modulus (GPa) = 25.71809 28.70113 27.20961
#
# Velocity S-wave (km/s) = 3.56368 3.76469 3.66556
# Velocity P-wave (km/s) = 6.20934 6.74183 6.48106
#
# Compressibility (1/GPa) = 0.02283748
#
# Stress axis : x y z
#
# Youngs Moduli (GPa) = 80.97613 53.56644 108.13297
#
# Poissons Ratio (x) = 0.11688 0.44202
# Poissons Ratio (y) = 0.17669 0.26431
# Poissons Ratio (z) = 0.33101 0.13093
#
# Static dielectric constant tensor:
#      x y z
#    x 3.436000 0.000000 -0.133860 
#    y 0.000000 3.985570 0.000000 
#    z -0.133860 0.000000 3.845070 
# 
# 
# High freq. dielectric constant tensor:
#      x y z
#    x 1.746330 0.000000 -0.010320 
#    y 0.000000 1.806460 0.000000 
#    z -0.010320 0.000000 1.807550 
# 
# From -- ./inp_files/300848.got.cif
#   From: 2010.06.25/outbox.cif.g09.slc.cpg/sg15_151_cif.got.tgz:300848.got - 2010.06.28 07:06:18.
