data_PCOD8134158
_publ_section_title
;
Structure prediction by ZEFSAII (Michael W. Deem and Ramdas Pophale) SiO2 
 PCOD8134158
Probable space group: C 2/C
;
_chemical_formula_sum "Si O2"
_cell_formula_units_Z 56
_cell_length_a 22.596210
_cell_length_b 9.792404
_cell_length_c 14.730612
_cell_angle_alpha 90.000000
_cell_angle_beta 113.304759
_cell_angle_gamma 90.000000
_cell_volume 2993.532556
_symmetry_space_group_name_H-M "C 2/C"
_symmetry_group_IT_number 15
_symmetry_cell_setting 'monoclinic'
loop_
_space_group_symop_operation_xyz
x,y,z
-x,y,1/2-z
-x,-y,-z
x,-y,1/2+z
1/2+x,1/2+y,z
1/2-x,1/2+y,1/2-z
1/2-x,1/2-y,-z
1/2+x,1/2-y,1/2+z
loop_
_atom_site_type_symbol
_atom_site_label
_atom_site_fract_x
_atom_site_fract_y
_atom_site_fract_z
Si Si1 0.871873 0.499293 0.554218
Si Si2 0.169262 0.461706 0.267142
Si Si3 0.690824 0.571850 0.710149
Si Si4 0.475842 0.147742 0.019958
Si Si5 0.131884 0.794989 0.649095
Si Si6 0.731601 0.821829 0.080861
Si Si7 0.386610 0.180985 0.403615
O O1 0.859275 0.503927 0.652774
O O2 0.927228 0.383417 0.573816
O O3 0.805726 0.460597 0.463765
O O4 0.890910 0.639479 0.513648
O O5 0.245985 0.484114 0.304155
O O6 0.153609 0.302957 0.243937
O O7 0.134847 0.550860 0.169004
O O8 0.637381 0.451523 0.687237
O O9 0.707751 0.635482 0.819410
O O10 0.661005 0.692665 0.632560
O O11 0.541701 0.225847 0.087237
O O12 0.439260 0.246655 0.925681
O O13 0.500000 0.000000 0.000000
O O14 0.184008 0.783024 0.600944
O O15 0.750000 0.750000 0.000000
#
# Coordination Sequence:
#
# PCOD8134158 Si02
#       7
#     8   8   8   8   8   8   8
#     4  10  20  35  60  86 107 152 199 239 280 348
#     4  11  20  37  61  86 116 152 193 241 296 342
#     4  11  22  35  57  86 127 147 188 243 307 350
#     4   9  18  39  59  81 112 147 202 235 279 348
#     4  10  20  37  56  83 118 153 185 249 292 344
#     4  10  19  35  57  82 119 155 194 233 297 353
#     4  11  21  39  57  87 114 156 194 241 285 360
#
# _framework density 18.706996
#
# number of rings (size 3 to 8) (size 9 to 14) (size 15 to 20)
#    0.000    1.714    5.714    3.429    0.000    1.714 
#    2.571    0.000    0.000    0.000   22.286    0.000 
#    0.000    0.000    0.000    0.000    0.000    0.000 
#
# Total GULP energy -346899.049505 kJ/mol
# GULP energy per Si atom -12389.251768 kJ/mol
# Density = 1.866442 g / cm^3
# Si number density = 18.706996 Si / 1000 Ang^3
#
#
#
# Elastic Constant Matrix: (Units=GPa)
#
#
# Indices 1 2 3 4 5 6 
#
# 1 98.9218 28.0000 52.6349 0.0000 12.4832 0.0000
# 2 28.0000 69.6069 21.8227 0.0000 7.1247 0.0000
# 3 52.6349 21.8227 77.5206 0.0000 -6.8727 0.0000
# 4 0.0000 0.0000 0.0000 25.4485 0.0000 3.8858
# 5 12.4832 7.1247 -6.8727 0.0000 32.6589 0.0000
# 6 0.0000 0.0000 0.0000 3.8858 0.0000 19.8710
#
#
#
# Elastic Compliance Matrix: (Units=1/GPa)
#
#
# Indices 1 2 3 4 5 6 
#
# 1 0.018916 -0.002589 -0.012947 0.000000 -0.009390 0.000000
# 2 -0.002589 0.016774 -0.003262 0.000000 -0.003356 0.000000
# 3 -0.012947 -0.003262 0.023550 0.000000 0.010616 0.000000
# 4 0.000000 0.000000 0.000000 0.040504 0.000000 -0.007921
# 5 -0.009390 -0.003356 0.010616 0.000000 0.037175 0.000000
# 6 0.000000 0.000000 0.000000 -0.007921 0.000000 0.051874
#
#
# Mechanical properties :
#
#
# Convention : Reuss Voigt Hill
#
# Bulk Modulus (GPa) = 46.20166 50.10718 48.15442
# Shear Modulus (GPa) = 21.40388 25.16844 23.28616
#
# Velocity S-wave (km/s) = 3.38622 3.67195 3.53198
# Velocity P-wave (km/s) = 6.32770 6.69485 6.51386
#
# Compressibility (1/GPa) = 0.02164424
#
# Stress axis : x y z
#
# Youngs Moduli (GPa) = 52.86629 59.61639 42.46282
#
# Poissons Ratio (x) = 0.15433 0.54977
# Poissons Ratio (y) = 0.13686 0.13851
# Poissons Ratio (z) = 0.68446 0.19446
#
# Static dielectric constant tensor:
#      x y z
#    x 5.085450 0.000000 -0.914190 
#    y 0.000000 3.307940 0.000000 
#    z -0.914190 0.000000 4.418310 
# 
# 
# High freq. dielectric constant tensor:
#      x y z
#    x 1.725460 0.000000 0.012400 
#    y 0.000000 1.711410 0.000000 
#    z 0.012400 0.000000 1.715140 
# 
# From -- ./inp_files/171970.got.cif
#   From: 2010.06.25/outbox.cif.g09.slc.cpg/sg15_86_cif.got.tgz:171970.got - 2010.06.28 07:06:18.
