data_PCOD8134278
_publ_section_title
;
Structure prediction by ZEFSAII (Michael W. Deem and Ramdas Pophale) SiO2 
 PCOD8134278
Probable space group: C 2/C
;
_chemical_formula_sum "Si O2"
_cell_formula_units_Z 64
_cell_length_a 23.413824
_cell_length_b 13.418385
_cell_length_c 10.204790
_cell_angle_alpha 90.000000
_cell_angle_beta 89.079006
_cell_angle_gamma 90.000000
_cell_volume 3205.682894
_symmetry_space_group_name_H-M "C 2/C"
_symmetry_group_IT_number 15
_symmetry_cell_setting 'monoclinic'
loop_
_space_group_symop_operation_xyz
x,y,z
-x,y,1/2-z
-x,-y,-z
x,-y,1/2+z
1/2+x,1/2+y,z
1/2-x,1/2+y,1/2-z
1/2-x,1/2-y,-z
1/2+x,1/2-y,1/2+z
loop_
_atom_site_type_symbol
_atom_site_label
_atom_site_fract_x
_atom_site_fract_y
_atom_site_fract_z
Si Si1 0.217859 0.686616 0.688882
Si Si2 0.898813 0.132587 0.077433
Si Si3 0.716009 0.392822 0.553780
Si Si4 0.409686 0.178517 0.747225
Si Si5 0.611940 0.590878 0.879315
Si Si6 0.000781 0.199131 0.899642
Si Si7 0.996627 0.388129 0.047616
Si Si8 0.690039 0.391165 0.134420
O O1 0.237688 0.619965 0.564194
O O2 0.221138 0.804137 0.658299
O O3 0.154534 0.644645 0.719923
O O4 0.257583 0.676187 0.816356
O O5 0.906127 0.206353 0.200513
O O6 0.904708 0.023758 0.137225
O O7 0.837216 0.144240 0.003893
O O8 0.950276 0.143420 0.974722
O O9 0.654390 0.387783 0.494516
O O10 0.719217 0.499086 0.626752
O O11 0.450952 0.155914 0.868567
O O12 0.436364 0.116840 0.625668
O O13 0.561598 0.657531 0.940506
O O14 0.638178 0.621813 0.738965
O O15 0.000000 0.170478 0.750000
O O16 0.995181 0.317885 0.920438
O O17 0.000000 0.500000 0.000000
#
# Coordination Sequence:
#
# PCOD8134278 Si02
#       8
#     8   8   8   8   8   8   8   8
#     4  10  20  37  59  84 115 152 203 241 291 355
#     4  10  21  38  58  89 126 153 195 243 301 366
#     4   9  20  36  57  83 116 159 191 242 294 347
#     4  10  22  41  61  87 111 155 199 244 304 350
#     4  10  19  35  59  86 124 158 190 239 298 366
#     4  11  21  36  59  92 118 153 200 239 291 362
#     4  10  24  43  63  84 117 157 199 253 300 347
#     4  10  20  36  57  87 121 156 194 240 303 350
#
# _framework density 19.964545999999999
#
# number of rings (size 3 to 8) (size 9 to 14) (size 15 to 20)
#    0.000    2.000    1.250    1.875    1.750    2.500 
#    4.500    2.500    0.000    0.000    0.000    0.000 
#    0.000    0.000    0.000    0.000    0.000    0.000 
#
# Total GULP energy -396557.633172 kJ/mol
# GULP energy per Si atom -12392.426037 kJ/mol
# Density = 1.991911 g / cm^3
# Si number density = 19.964546 Si / 1000 Ang^3
#
#
#
# Elastic Constant Matrix: (Units=GPa)
#
#
# Indices 1 2 3 4 5 6 
#
# 1 126.4183 52.6400 33.1889 0.0000 -20.7141 0.0000
# 2 52.6400 89.2873 22.2260 0.0000 9.0759 0.0000
# 3 33.1889 22.2260 52.7976 0.0000 -1.6104 0.0000
# 4 0.0000 0.0000 0.0000 53.5751 0.0000 -2.2493
# 5 -20.7141 9.0759 -1.6104 0.0000 28.2541 0.0000
# 6 0.0000 0.0000 0.0000 -2.2493 0.0000 33.4793
#
#
#
# Elastic Compliance Matrix: (Units=1/GPa)
#
#
# Indices 1 2 3 4 5 6 
#
# 1 0.015438 -0.009172 -0.005418 0.000000 0.013956 0.000000
# 2 -0.009172 0.018511 -0.002418 0.000000 -0.012808 0.000000
# 3 -0.005418 -0.002418 0.023307 0.000000 -0.001867 0.000000
# 4 0.000000 0.000000 0.000000 0.018718 0.000000 0.001258
# 5 0.013956 -0.012808 -0.001867 0.000000 0.049632 0.000000
# 6 0.000000 0.000000 0.000000 0.001258 0.000000 0.029954
#
#
# Mechanical properties :
#
#
# Convention : Reuss Voigt Hill
#
# Bulk Modulus (GPa) = 43.02702 53.84590 48.43646
# Shear Modulus (GPa) = 25.33926 33.75825 29.54875
#
# Velocity S-wave (km/s) = 3.56647 4.11653 3.85133
# Velocity P-wave (km/s) = 6.20951 7.04441 6.64010
#
# Compressibility (1/GPa) = 0.02324121
#
# Stress axis : x y z
#
# Youngs Moduli (GPa) = 64.77342 54.02248 42.90584
#
# Poissons Ratio (x) = 0.49548 0.23246
# Poissons Ratio (y) = 0.59408 0.10373
# Poissons Ratio (z) = 0.35094 0.13061
#
# Static dielectric constant tensor:
#      x y z
#    x 3.164100 0.000000 0.448390 
#    y 0.000000 3.650040 0.000000 
#    z 0.448390 0.000000 3.284570 
# 
# 
# High freq. dielectric constant tensor:
#      x y z
#    x 1.784910 0.000000 -0.006710 
#    y 0.000000 1.766960 0.000000 
#    z -0.006710 0.000000 1.784780 
# 
# From -- ./inp_files/117549.got.cif
#   From: 2010.06.25/outbox.cif.g09.slc.cpg/sg15_59_cif.got.tgz:117549.got - 2010.06.28 07:06:18.
