data_PCOD8134440
_publ_section_title
;
Structure prediction by ZEFSAII (Michael W. Deem and Ramdas Pophale) SiO2 
 PCOD8134440
Probable space group: C 2/C
;
_chemical_formula_sum "Si O2"
_cell_formula_units_Z 60
_cell_length_a 8.632576
_cell_length_b 17.813864
_cell_length_c 23.364270
_cell_angle_alpha 90.000000
_cell_angle_beta 56.597029
_cell_angle_gamma 90.000000
_cell_volume 2999.461206
_symmetry_space_group_name_H-M "C 2/C"
_symmetry_group_IT_number 15
_symmetry_cell_setting 'monoclinic'
loop_
_space_group_symop_operation_xyz
x,y,z
-x,y,1/2-z
-x,-y,-z
x,-y,1/2+z
1/2+x,1/2+y,z
1/2-x,1/2+y,1/2-z
1/2-x,1/2-y,-z
1/2+x,1/2-y,1/2+z
loop_
_atom_site_type_symbol
_atom_site_label
_atom_site_fract_x
_atom_site_fract_y
_atom_site_fract_z
Si Si1 0.183455 0.121089 0.476778
Si Si2 0.326743 0.048788 0.554406
Si Si3 0.139169 0.932085 0.670440
Si Si4 0.500000 0.831814 0.750000
Si Si5 0.162974 0.216067 0.932951
Si Si6 0.503648 0.197463 0.566130
Si Si7 0.381984 0.640758 0.131579
Si Si8 0.433940 0.815645 0.640295
O O1 0.220181 0.056916 0.515672
O O2 0.113404 0.092028 0.428425
O O3 0.367302 0.172555 0.430858
O O4 0.016381 0.166070 0.538500
O O5 0.373504 0.128332 0.574960
O O6 0.500000 0.000000 0.500000
O O7 0.198085 0.007961 0.626779
O O8 0.320360 0.893637 0.661103
O O9 0.000000 0.952369 0.750000
O O10 0.047090 0.878167 0.641143
O O11 0.314650 0.880409 0.799265
O O12 0.460605 0.785437 0.699837
O O13 0.349389 0.171982 0.914313
O O14 0.191684 0.253512 0.865213
O O15 0.125489 0.282878 0.985752
O O16 0.390527 0.270554 0.611898
#
# Coordination Sequence:
#
# PCOD8134440 Si02
#       8
#     8   8   8   4   8   8   8   8
#     4  10  22  35  61  96 125 157 212 269 321 368
#     4  12  25  41  61  93 133 174 208 268 332 398
#     4  12  24  44  65  89 128 178 220 257 327 403
#     4  10  22  34  62  98 120 154 214 270 316 380
#     4  10  19  35  65  93 127 152 204 277 319 370
#     4  10  21  38  61  96 125 158 206 267 333 374
#     4  10  22  40  66  94 119 163 221 278 314 381
#     4  11  19  38  62  95 121 163 211 268 312 383
#
# _framework density 20.003592999999999
#
# number of rings (size 3 to 8) (size 9 to 14) (size 15 to 20)
#    0.000    1.333    5.333    0.400    7.467    0.533 
#    1.200    0.000    0.000    0.000    0.000    0.000 
#    0.000    0.000    0.000    0.000    0.000    0.000 
#
# Total GULP energy -371680.542938 kJ/mol
# GULP energy per Si atom -12389.351431 kJ/mol
# Density = 1.995806 g / cm^3
# Si number density = 20.003593 Si / 1000 Ang^3
#
#
#
# Elastic Constant Matrix: (Units=GPa)
#
#
# Indices 1 2 3 4 5 6 
#
# 1 122.5485 36.0788 47.4213 -0.0004 18.7256 0.0005
# 2 36.0788 70.1105 39.9467 -0.0001 6.5674 0.0001
# 3 47.4213 39.9467 111.1585 -0.0003 17.2902 0.0003
# 4 -0.0004 -0.0001 -0.0003 19.8092 0.0003 1.1276
# 5 18.7256 6.5674 17.2902 0.0003 40.0437 -0.0004
# 6 0.0005 0.0001 0.0003 1.1276 -0.0004 29.4128
#
#
#
# Elastic Compliance Matrix: (Units=1/GPa)
#
#
# Indices 1 2 3 4 5 6 
#
# 1 0.010818 -0.003673 -0.002789 0.000000 -0.003252 0.000000
# 2 -0.003673 0.019184 -0.005472 0.000000 0.000934 0.000000
# 3 -0.002789 -0.005472 0.012660 0.000000 -0.003265 0.000000
# 4 0.000000 0.000000 0.000000 0.050592 -0.000001 -0.001940
# 5 -0.003252 0.000934 -0.003265 -0.000001 0.027750 0.000001
# 6 0.000000 0.000000 0.000000 -0.001940 0.000001 0.034073
#
#
# Mechanical properties :
#
#
# Convention : Reuss Voigt Hill
#
# Bulk Modulus (GPa) = 53.21178 61.19013 57.20095
# Shear Modulus (GPa) = 26.99637 29.87785 28.43711
#
# Velocity S-wave (km/s) = 3.67764 3.86894 3.77450
# Velocity P-wave (km/s) = 6.68523 7.11437 6.90313
#
# Compressibility (1/GPa) = 0.01879283
#
# Stress axis : x y z
#
# Youngs Moduli (GPa) = 92.44254 52.12732 78.98609
#
# Poissons Ratio (x) = 0.19146 0.22030
# Poissons Ratio (y) = 0.33954 0.43225
# Poissons Ratio (z) = 0.25783 0.28526
#
# Static dielectric constant tensor:
#      x y z
#    x 4.099090 0.000000 0.203720 
#    y 0.000000 3.229530 0.000000 
#    z 0.203720 0.000000 3.723890 
# 
# 
# High freq. dielectric constant tensor:
#      x y z
#    x 1.813730 0.000000 0.011960 
#    y 0.000000 1.723990 0.000000 
#    z 0.011960 0.000000 1.777660 
# 
# From -- ./inp_files/233042.got.cif
#   From: 2010.06.25/outbox.cif.g09.slc.cpg/sg15_117_cif.got.tgz:233042.got - 2010.06.28 07:06:18.
