data_PCOD8134704
_publ_section_title
;
Structure prediction by ZEFSAII (Michael W. Deem and Ramdas Pophale) SiO2 
 PCOD8134704
Probable space group: C 2/C
;
_chemical_formula_sum "Si O2"
_cell_formula_units_Z 40
_cell_length_a 20.518652
_cell_length_b 9.045569
_cell_length_c 11.585594
_cell_angle_alpha 90.000000
_cell_angle_beta 99.819114
_cell_angle_gamma 90.000000
_cell_volume 2118.819741
_symmetry_space_group_name_H-M "C 2/C"
_symmetry_group_IT_number 15
_symmetry_cell_setting 'monoclinic'
loop_
_space_group_symop_operation_xyz
x,y,z
-x,y,1/2-z
-x,-y,-z
x,-y,1/2+z
1/2+x,1/2+y,z
1/2-x,1/2+y,1/2-z
1/2-x,1/2-y,-z
1/2+x,1/2-y,1/2+z
loop_
_atom_site_type_symbol
_atom_site_label
_atom_site_fract_x
_atom_site_fract_y
_atom_site_fract_z
Si Si1 0.971017 0.127210 0.414460
Si Si2 0.901853 0.112699 0.165344
Si Si3 0.271183 0.129895 0.160787
Si Si4 0.726166 0.784728 0.365170
Si Si5 0.643864 0.314886 0.471749
O O1 0.927697 0.056020 0.297579
O O2 0.923268 0.231740 0.478647
O O3 0.037992 0.198819 0.382735
O O4 0.000000 0.000000 0.500000
O O5 0.849408 0.239575 0.170676
O O6 0.868483 0.975578 0.088410
O O7 0.272025 0.193065 0.290822
O O8 0.337272 0.192532 0.118010
O O9 0.271254 0.955019 0.166590
O O10 0.204535 0.181447 0.078337
O O11 0.750000 0.750000 0.500000
#
# Coordination Sequence:
#
# PCOD8134704 Si02
#       5
#     8   8   8   8   8
#     4   9  19  34  61  86 117 157 202 250 293 356
#     4  10  19  36  60  89 117 156 206 247 300 362
#     4  11  24  36  60  90 123 160 199 250 308 364
#     4  12  24  39  60  90 125 161 203 251 309 365
#     4  10  20  38  59  86 121 155 204 251 298 355
#
# _framework density 18.878435
#
# number of rings (size 3 to 8) (size 9 to 14) (size 15 to 20)
#    0.000    1.600    4.000    1.200    2.800    0.000 
#    0.000    1.000    0.000    9.600    0.000    0.000 
#    0.000    0.000    0.000    0.000    0.000    0.000 
#
# Total GULP energy -247802.901389 kJ/mol
# GULP energy per Si atom -12390.145069 kJ/mol
# Density = 1.883547 g / cm^3
# Si number density = 18.878435 Si / 1000 Ang^3
#
#
#
# Elastic Constant Matrix: (Units=GPa)
#
#
# Indices 1 2 3 4 5 6 
#
# 1 122.6941 35.6904 51.5649 0.0000 -28.1430 0.0000
# 2 35.6904 102.1580 39.0276 0.0000 -21.3530 0.0000
# 3 51.5649 39.0276 131.4046 0.0000 -17.7138 0.0000
# 4 0.0000 0.0000 0.0000 21.1069 0.0000 -8.5263
# 5 -28.1430 -21.3530 -17.7138 0.0000 37.2216 0.0000
# 6 0.0000 0.0000 0.0000 -8.5263 0.0000 28.5697
#
#
#
# Elastic Compliance Matrix: (Units=1/GPa)
#
#
# Indices 1 2 3 4 5 6 
#
# 1 0.011335 -0.001443 -0.003180 0.000000 0.006229 0.000000
# 2 -0.001443 0.012213 -0.002419 0.000000 0.004764 0.000000
# 3 -0.003180 -0.002419 0.009686 0.000000 0.000818 0.000000
# 4 0.000000 0.000000 0.000000 0.053873 0.000000 0.016078
# 5 0.006229 0.004764 0.000818 0.000000 0.034698 0.000000
# 6 0.000000 0.000000 0.000000 0.016078 0.000000 0.039800
#
#
# Mechanical properties :
#
#
# Convention : Reuss Voigt Hill
#
# Bulk Modulus (GPa) = 52.21630 67.64695 59.93163
# Shear Modulus (GPa) = 27.46149 32.71123 30.08636
#
# Velocity S-wave (km/s) = 3.81812 4.16712 3.99643
# Velocity P-wave (km/s) = 6.86707 7.68531 7.28768
#
# Compressibility (1/GPa) = 0.01915111
#
# Stress axis : x y z
#
# Youngs Moduli (GPa) = 88.21892 81.88171 103.23658
#
# Poissons Ratio (x) = 0.11819 0.32827
# Poissons Ratio (y) = 0.12733 0.24969
# Poissons Ratio (z) = 0.28051 0.19804
#
# Static dielectric constant tensor:
#      x y z
#    x 4.369890 0.000000 -0.330870 
#    y 0.000000 3.114430 0.000000 
#    z -0.330870 0.000000 3.918760 
# 
# 
# High freq. dielectric constant tensor:
#      x y z
#    x 1.751580 0.000000 -0.014410 
#    y 0.000000 1.685540 0.000000 
#    z -0.014410 0.000000 1.756500 
# 
# From -- ./inp_files/109565.got.cif
#   From: 2010.06.25/outbox.cif.g09.slc.cpg/sg15_55_cif.got.tgz:109565.got - 2010.06.28 07:06:18.
