data_PCOD8134388
_publ_section_title
;
Structure prediction by ZEFSAII (Michael W. Deem and Ramdas Pophale) SiO2 
 PCOD8134388
Probable space group: C 2/C
;
_chemical_formula_sum "Si O2"
_cell_formula_units_Z 40
_cell_length_a 10.533157
_cell_length_b 20.487366
_cell_length_c 15.827624
_cell_angle_alpha 90.000000
_cell_angle_beta 145.567545
_cell_angle_gamma 90.000000
_cell_volume 1931.268045
_symmetry_space_group_name_H-M "C 2/C"
_symmetry_group_IT_number 15
_symmetry_cell_setting 'monoclinic'
loop_
_space_group_symop_operation_xyz
x,y,z
-x,y,1/2-z
-x,-y,-z
x,-y,1/2+z
1/2+x,1/2+y,z
1/2-x,1/2+y,1/2-z
1/2-x,1/2-y,-z
1/2+x,1/2-y,1/2+z
loop_
_atom_site_type_symbol
_atom_site_label
_atom_site_fract_x
_atom_site_fract_y
_atom_site_fract_z
Si Si1 0.355445 0.586483 0.349329
Si Si2 0.653239 0.681935 0.416229
Si Si3 0.065344 0.462546 0.950770
Si Si4 0.974436 0.406696 0.331897
Si Si5 0.510579 0.443666 0.396820
O O1 0.503303 0.649227 0.406962
O O2 0.464904 0.520688 0.372715
O O3 0.344196 0.581007 0.443773
O O4 0.110424 0.593952 0.171576
O O5 0.500000 0.690230 0.250000
O O6 0.750000 0.750000 0.500000
O O7 0.869470 0.635356 0.518968
O O8 0.054858 0.518340 0.872389
O O9 0.319755 0.432853 0.090401
O O10 0.000000 0.500000 0.000000
O O11 0.721832 0.402832 0.232201
O O12 0.000000 0.379334 0.250000
#
# Coordination Sequence:
#
# PCOD8134388 Si02
#       5
#     8   8   8   8   8
#     4  10  20  35  60  90 130 171 218 263 336 396
#     4  12  25  41  64  95 131 177 228 276 325 403
#     4  11  21  33  57  97 136 170 210 273 341 402
#     4  11  20  38  62  90 131 168 220 267 330 401
#     4  10  19  35  62  92 130 169 208 274 338 401
#
# _framework density 20.711779
#
# number of rings (size 3 to 8) (size 9 to 14) (size 15 to 20)
#    0.000    1.200    4.000    4.800    0.000    2.400 
#    0.000    0.000    0.000    1.200    5.200    0.000 
#    0.000    0.000    0.000    0.000    0.000    0.000 
#
# Total GULP energy -247819.815523 kJ/mol
# GULP energy per Si atom -12390.990776 kJ/mol
# Density = 2.066464 g / cm^3
# Si number density = 20.711779 Si / 1000 Ang^3
#
#
#
# Elastic Constant Matrix: (Units=GPa)
#
#
# Indices 1 2 3 4 5 6 
#
# 1 121.5961 26.3740 62.1251 -0.0086 38.4507 -0.0024
# 2 26.3740 85.2276 42.2527 -0.0082 8.9965 -0.0032
# 3 62.1251 42.2527 152.9118 -0.0616 28.0154 -0.0232
# 4 -0.0086 -0.0082 -0.0616 40.0840 -0.0189 5.0011
# 5 38.4507 8.9965 28.0154 -0.0189 42.6609 -0.0047
# 6 -0.0024 -0.0032 -0.0232 5.0011 -0.0047 19.0377
#
#
#
# Elastic Compliance Matrix: (Units=1/GPa)
#
#
# Indices 1 2 3 4 5 6 
#
# 1 0.013176 -0.001488 -0.003210 -0.000006 -0.009454 -0.000003
# 2 -0.001488 0.013772 -0.003313 -0.000002 0.000613 -0.000001
# 3 -0.003210 -0.003313 0.009209 0.000011 -0.002456 0.000007
# 4 -0.000006 -0.000002 0.000011 0.025793 0.000010 -0.006776
# 5 -0.009454 0.000613 -0.002456 0.000010 0.033445 0.000002
# 6 -0.000003 -0.000001 0.000007 -0.006776 0.000002 0.054307
#
#
# Mechanical properties :
#
#
# Convention : Reuss Voigt Hill
#
# Bulk Modulus (GPa) = 49.66491 69.02656 59.34573
# Shear Modulus (GPa) = 28.99619 35.62212 32.30916
#
# Velocity S-wave (km/s) = 3.74570 4.15166 3.95389
# Velocity P-wave (km/s) = 6.53744 7.50875 7.03987
#
# Compressibility (1/GPa) = 0.02013494
#
# Stress axis : x y z
#
# Youngs Moduli (GPa) = 75.89398 72.61321 108.58623
#
# Poissons Ratio (x) = 0.10806 0.34856
# Poissons Ratio (y) = 0.11294 0.35975
# Poissons Ratio (z) = 0.24362 0.24057
#
# Static dielectric constant tensor:
#      x y z
#    x 3.717210 0.000000 0.209650 
#    y 0.000000 3.341270 0.000010 
#    z 0.209650 0.000010 4.350230 
# 
# 
# High freq. dielectric constant tensor:
#      x y z
#    x 1.805280 0.000000 0.008710 
#    y 0.000000 1.741510 0.000000 
#    z 0.008710 0.000000 1.843030 
# 
# From -- ./inp_files/29323.got.cif
#   From: 2010.06.25/outbox.cif.g09.slc.cpg/sg15_15_cif.got.tgz:29323.got - 2010.06.28 07:06:18.
