data_PCOD8134152
_publ_section_title
;
Structure prediction by ZEFSAII (Michael W. Deem and Ramdas Pophale) SiO2 
 PCOD8134152
Probable space group: C 2/C
;
_chemical_formula_sum "Si O2"
_cell_formula_units_Z 60
_cell_length_a 28.150728
_cell_length_b 21.121388
_cell_length_c 15.489594
_cell_angle_alpha 90.000000
_cell_angle_beta 160.343720
_cell_angle_gamma 90.000000
_cell_volume 3097.976419
_symmetry_space_group_name_H-M "C 2/C"
_symmetry_group_IT_number 15
_symmetry_cell_setting 'monoclinic'
loop_
_space_group_symop_operation_xyz
x,y,z
-x,y,1/2-z
-x,-y,-z
x,-y,1/2+z
1/2+x,1/2+y,z
1/2-x,1/2+y,1/2-z
1/2-x,1/2-y,-z
1/2+x,1/2-y,1/2+z
loop_
_atom_site_type_symbol
_atom_site_label
_atom_site_fract_x
_atom_site_fract_y
_atom_site_fract_z
Si Si1 0.626915 0.352301 0.533319
Si Si2 0.437641 0.686430 0.853437
Si Si3 0.995669 0.940767 0.555012
Si Si4 0.279626 0.511627 0.293361
Si Si5 0.000000 0.448766 0.750000
Si Si6 0.181097 0.308480 0.783651
Si Si7 0.728108 0.025337 0.886524
Si Si8 0.044656 0.418210 0.645502
O O1 0.573195 0.308730 0.521454
O O2 0.677923 0.417877 0.664928
O O3 0.754633 0.316516 0.702470
O O4 0.500000 0.366326 0.250000
O O5 0.300192 0.688510 0.559573
O O6 0.418775 0.746103 0.885294
O O7 0.443985 0.622454 0.919471
O O8 0.884196 0.956979 0.438922
O O9 0.000000 0.000000 0.500000
O O10 0.153241 0.933071 0.862575
O O11 0.295643 0.515795 0.424720
O O12 0.121529 0.495840 0.992091
O O13 0.052203 0.402519 0.761217
O O14 0.082203 0.366160 0.639951
O O15 0.618685 0.072141 0.655035
O O16 0.645773 0.979399 0.811131
#
# Coordination Sequence:
#
# PCOD8134152 Si02
#       8
#     8   8   8   8   4   8   8   8
#     4  10  19  35  57  82 110 151 193 232 290 346
#     4  10  22  36  57  86 112 150 199 244 286 340
#     4  12  21  34  58  87 116 143 189 250 288 338
#     4  11  20  34  58  84 117 148 181 233 294 350
#     4  10  22  34  52  92 116 142 192 236 290 346
#     4  10  20  40  57  78 118 157 194 236 289 353
#     4  10  21  35  56  84 115 150 188 229 298 346
#     4  10  20  37  56  82 116 152 185 238 287 349
#
# _framework density 19.367481000000002
#
# number of rings (size 3 to 8) (size 9 to 14) (size 15 to 20)
#    0.000    1.600    2.667    3.600    0.000    0.000 
#   10.800    0.667    0.000    0.000    0.000    0.000 
#    0.000    0.000    0.000    0.000    0.000    0.000 
#
# Total GULP energy -371836.286975 kJ/mol
# GULP energy per Si atom -12394.542899 kJ/mol
# Density = 1.932340 g / cm^3
# Si number density = 19.367481 Si / 1000 Ang^3
#
#
#
# Elastic Constant Matrix: (Units=GPa)
#
#
# Indices 1 2 3 4 5 6 
#
# 1 129.3298 44.8980 42.1949 0.0000 16.5619 0.0000
# 2 44.8980 97.2160 29.5496 0.0000 9.3342 0.0000
# 3 42.1949 29.5496 64.0015 0.0000 13.8464 0.0000
# 4 0.0000 0.0000 0.0000 25.0615 0.0000 3.4023
# 5 16.5619 9.3342 13.8464 0.0000 24.1436 0.0000
# 6 0.0000 0.0000 0.0000 3.4023 0.0000 28.3125
#
#
#
# Elastic Compliance Matrix: (Units=1/GPa)
#
#
# Indices 1 2 3 4 5 6 
#
# 1 0.010899 -0.003196 -0.004978 0.000000 -0.003386 0.000000
# 2 -0.003196 0.012961 -0.003731 0.000000 -0.000679 0.000000
# 3 -0.004978 -0.003731 0.022351 0.000000 -0.007962 0.000000
# 4 0.000000 0.000000 0.000000 0.040564 0.000000 -0.004874
# 5 -0.003386 -0.000679 -0.007962 0.000000 0.048571 0.000000
# 6 0.000000 0.000000 0.000000 -0.004874 0.000000 0.035906
#
#
# Mechanical properties :
#
#
# Convention : Reuss Voigt Hill
#
# Bulk Modulus (GPa) = 44.63416 58.20360 51.41888
# Shear Modulus (GPa) = 24.68805 27.09716 25.89261
#
# Velocity S-wave (km/s) = 3.57419 3.74452 3.66035
# Velocity P-wave (km/s) = 6.33475 6.98661 6.66865
#
# Compressibility (1/GPa) = 0.02240437
#
# Stress axis : x y z
#
# Youngs Moduli (GPa) = 91.75006 77.15237 44.74043
#
# Poissons Ratio (x) = 0.24654 0.22270
# Poissons Ratio (y) = 0.29319 0.16691
# Poissons Ratio (z) = 0.45669 0.28782
#
# Static dielectric constant tensor:
#      x y z
#    x 3.966100 0.000000 0.202750 
#    y 0.000000 3.435710 0.000000 
#    z 0.202750 0.000000 3.564410 
# 
# 
# High freq. dielectric constant tensor:
#      x y z
#    x 1.773350 0.000000 0.020770 
#    y 0.000000 1.720100 0.000000 
#    z 0.020770 0.000000 1.744220 
# 
# From -- ./inp_files/179290.got.cif
#   From: 2010.06.25/outbox.cif.g09.slc.cpg/sg15_90_cif.got.tgz:179290.got - 2010.06.28 07:06:18.
