data_PCOD8134231
_publ_section_title
;
Structure prediction by ZEFSAII (Michael W. Deem and Ramdas Pophale) SiO2 
 PCOD8134231
Probable space group: C 2/C
;
_chemical_formula_sum "Si O2"
_cell_formula_units_Z 64
_cell_length_a 8.991139
_cell_length_b 15.670789
_cell_length_c 28.328930
_cell_angle_alpha 90.000000
_cell_angle_beta 127.067746
_cell_angle_gamma 90.000000
_cell_volume 3184.908295
_symmetry_space_group_name_H-M "C 2/C"
_symmetry_group_IT_number 15
_symmetry_cell_setting 'monoclinic'
loop_
_space_group_symop_operation_xyz
x,y,z
-x,y,1/2-z
-x,-y,-z
x,-y,1/2+z
1/2+x,1/2+y,z
1/2-x,1/2+y,1/2-z
1/2-x,1/2-y,-z
1/2+x,1/2-y,1/2+z
loop_
_atom_site_type_symbol
_atom_site_label
_atom_site_fract_x
_atom_site_fract_y
_atom_site_fract_z
Si Si1 0.274047 0.889957 0.004113
Si Si2 0.645107 0.595338 0.316244
Si Si3 0.284139 0.814691 0.600404
Si Si4 0.027242 0.508278 0.388454
Si Si5 0.552271 0.587586 0.124169
Si Si6 0.857908 0.761954 0.353865
Si Si7 0.440604 0.255644 0.478486
Si Si8 0.158870 0.439469 0.317724
O O1 0.403559 0.962792 0.050795
O O2 0.207515 0.825509 0.032163
O O3 0.390729 0.838336 0.987624
O O4 0.097471 0.934752 0.945248
O O5 0.500000 0.560106 0.250000
O O6 0.806914 0.524549 0.351754
O O7 0.547358 0.614960 0.347146
O O8 0.723121 0.685302 0.312908
O O9 0.176643 0.832228 0.629291
O O10 0.453132 0.747586 0.641573
O O11 0.147550 0.777896 0.534677
O O12 0.363338 0.903774 0.596197
O O13 0.068670 0.445950 0.352262
O O14 0.674910 0.505405 0.157415
O O15 0.931542 0.752319 0.420911
O O16 0.747019 0.848001 0.323456
O O17 0.000000 0.461380 0.250000
#
# Coordination Sequence:
#
# PCOD8134231 Si02
#       8
#     8   8   8   8   8   8   8   8
#     4  10  20  36  61  90 119 154 191 248 302 355
#     4  11  23  42  62  84 119 161 203 241 292 356
#     4   9  22  36  59  88 120 152 191 242 301 357
#     4  10  22  39  61  87 117 154 199 244 297 351
#     4  10  22  40  61  88 118 154 198 245 300 349
#     4  11  21  39  58  89 116 160 198 240 293 357
#     4  10  19  35  58  88 124 152 190 239 305 354
#     4  11  23  39  61  87 120 158 201 245 290 348
#
# _framework density 20.094771000000001
#
# number of rings (size 3 to 8) (size 9 to 14) (size 15 to 20)
#    0.000    1.750    2.500    1.500    1.750    3.000 
#    0.000    0.000    0.000    1.500    0.000    0.000 
#    0.000    0.000    0.000    0.000    0.000    0.000 
#
# Total GULP energy -396866.263286 kJ/mol
# GULP energy per Si atom -12402.070728 kJ/mol
# Density = 2.004903 g / cm^3
# Si number density = 20.094771 Si / 1000 Ang^3
#
#
#
# Elastic Constant Matrix: (Units=GPa)
#
#
# Indices 1 2 3 4 5 6 
#
# 1 104.6425 22.1327 44.5209 0.0000 16.6734 0.0000
# 2 22.1327 78.2547 43.2087 0.0000 22.0608 0.0000
# 3 44.5209 43.2087 116.4614 0.0000 23.9588 0.0000
# 4 0.0000 0.0000 0.0000 9.7252 0.0000 3.6919
# 5 16.6734 22.0608 23.9588 0.0000 28.2091 0.0000
# 6 0.0000 0.0000 0.0000 3.6919 0.0000 22.8144
#
#
#
# Elastic Compliance Matrix: (Units=1/GPa)
#
#
# Indices 1 2 3 4 5 6 
#
# 1 0.011742 -0.000292 -0.003635 0.000000 -0.003625 0.000000
# 2 -0.000292 0.018265 -0.004558 0.000000 -0.010240 0.000000
# 3 -0.003635 -0.004558 0.012713 0.000000 -0.005085 0.000000
# 4 0.000000 0.000000 0.000000 0.109555 0.000000 -0.017728
# 5 -0.003625 -0.010240 -0.005085 0.000000 0.049918 0.000000
# 6 0.000000 0.000000 0.000000 -0.017728 0.000000 0.046701
#
#
# Mechanical properties :
#
#
# Convention : Reuss Voigt Hill
#
# Bulk Modulus (GPa) = 38.83498 57.67589 48.25544
# Shear Modulus (GPa) = 18.21834 24.78284 21.50059
#
# Velocity S-wave (km/s) = 3.01428 3.51564 3.27457
# Velocity P-wave (km/s) = 5.61092 6.72636 6.19380
#
# Compressibility (1/GPa) = 0.02574998
#
# Stress axis : x y z
#
# Youngs Moduli (GPa) = 85.16358 54.74947 78.65856
#
# Poissons Ratio (x) = 0.01600 0.28590
# Poissons Ratio (y) = 0.02489 0.35855
# Poissons Ratio (z) = 0.30954 0.24956
#
# Static dielectric constant tensor:
#      x y z
#    x 3.885730 0.000000 0.168690 
#    y 0.000000 3.533830 0.000000 
#    z 0.168690 0.000000 3.595750 
# 
# 
# High freq. dielectric constant tensor:
#      x y z
#    x 1.792050 0.000000 0.013300 
#    y 0.000000 1.772540 0.000000 
#    z 0.013300 0.000000 1.784250 
# 
# From -- ./inp_files/308284.got.cif
#   From: 2010.06.25/outbox.cif.g09.slc.cpg/sg15_155_cif.got.tgz:308284.got - 2010.06.28 07:06:18.
