data_PCOD8134064
_publ_section_title
;
Structure prediction by ZEFSAII (Michael W. Deem and Ramdas Pophale) SiO2 
 PCOD8134064
Probable space group: C 2/C
;
_chemical_formula_sum "Si O2"
_cell_formula_units_Z 48
_cell_length_a 13.989850
_cell_length_b 26.598081
_cell_length_c 9.008485
_cell_angle_alpha 90.000000
_cell_angle_beta 32.797963
_cell_angle_gamma 90.000000
_cell_volume 1815.752206
_symmetry_space_group_name_H-M "C 2/C"
_symmetry_group_IT_number 15
_symmetry_cell_setting 'monoclinic'
loop_
_space_group_symop_operation_xyz
x,y,z
-x,y,1/2-z
-x,-y,-z
x,-y,1/2+z
1/2+x,1/2+y,z
1/2-x,1/2+y,1/2-z
1/2-x,1/2-y,-z
1/2+x,1/2-y,1/2+z
loop_
_atom_site_type_symbol
_atom_site_label
_atom_site_fract_x
_atom_site_fract_y
_atom_site_fract_z
Si Si1 0.671272 0.431287 0.915466
Si Si2 0.163782 0.664338 0.643700
Si Si3 0.627504 0.320627 0.904697
Si Si4 0.912631 0.563238 0.634196
Si Si5 0.254104 0.508583 0.914009
Si Si6 0.037101 0.277953 0.864981
O O1 0.577994 0.377253 0.017737
O O2 0.626441 0.469190 0.836930
O O3 0.882121 0.422067 0.632310
O O4 0.621964 0.455053 0.144462
O O5 0.328246 0.680459 0.328409
O O6 0.204270 0.611689 0.672691
O O7 0.000000 0.654459 0.750000
O O8 0.125721 0.706679 0.815933
O O9 0.781321 0.298331 0.808089
O O10 0.460159 0.283463 0.144150
O O11 0.858634 0.544559 0.543292
O O12 0.877809 0.519004 0.798252
O O13 0.000000 0.300435 0.750000
#
# Coordination Sequence:
#
# PCOD8134064 Si02
#       6
#     8   8   8   8   8   8
#     4  11  18  31  50  80 121 151 188 233 305 345
#     4  10  19  35  55  77 115 158 190 235 296 351
#     4  11  23  40  62  85 122 160 197 244 300 351
#     4  11  16  29  45  75 118 152 187 222 308 347
#     4  10  20  26  47  80 120 155 182 237 291 376
#     4  11  24  41  60  85 117 155 204 254 294 345
#
# _framework density 26.435327999999998
#
# number of rings (size 3 to 8) (size 9 to 14) (size 15 to 20)
#    0.000    1.333    5.000    5.000    2.333    0.000 
#    0.000    0.000    0.000    0.000    0.000    1.167 
#    0.000    0.333    0.000    0.000    0.000    0.000 
#
# Total GULP energy -297634.544565 kJ/mol
# GULP energy per Si atom -12401.439357 kJ/mol
# Density = 2.637516 g / cm^3
# Si number density = 26.435328 Si / 1000 Ang^3
#
#
#
# Elastic Constant Matrix: (Units=GPa)
#
#
# Indices 1 2 3 4 5 6 
#
# 1 102.4138 57.5079 44.5627 0.0000 37.2941 0.0000
# 2 57.5079 163.0276 27.8839 0.0000 14.8449 0.0000
# 3 44.5627 27.8839 110.8549 0.0000 51.5084 0.0000
# 4 0.0000 0.0000 0.0000 36.0936 0.0000 1.3030
# 5 37.2941 14.8449 51.5084 0.0000 40.2763 0.0000
# 6 0.0000 0.0000 0.0000 1.3030 0.0000 32.8846
#
#
#
# Elastic Compliance Matrix: (Units=1/GPa)
#
#
# Indices 1 2 3 4 5 6 
#
# 1 0.018175 -0.005178 0.002290 0.000000 -0.017849 0.000000
# 2 -0.005178 0.007894 -0.001922 0.000000 0.004343 0.000000
# 3 0.002290 -0.001922 0.022771 0.000000 -0.030533 0.000000
# 4 0.000000 0.000000 0.000000 0.027745 0.000000 -0.001099
# 5 -0.017849 0.004343 -0.030533 0.000000 0.078803 0.000000
# 6 0.000000 0.000000 0.000000 -0.001099 0.000000 0.030453
#
#
# Mechanical properties :
#
#
# Convention : Reuss Voigt Hill
#
# Bulk Modulus (GPa) = 25.49737 70.68947 48.09342
# Shear Modulus (GPa) = 23.97684 38.27368 31.12526
#
# Velocity S-wave (km/s) = 3.01491 3.80916 3.43507
# Velocity P-wave (km/s) = 4.66752 6.79300 5.82797
#
# Compressibility (1/GPa) = 0.03921974
#
# Stress axis : x y z
#
# Youngs Moduli (GPa) = 55.01992 126.68452 43.91585
#
# Poissons Ratio (x) = 0.65592 -0.10056
# Poissons Ratio (y) = 0.28487 0.08441
# Poissons Ratio (z) = -0.12598 0.24350
#
# Static dielectric constant tensor:
#      x y z
#    x 4.812730 0.000000 0.574630 
#    y 0.000000 5.116580 0.000000 
#    z 0.574630 0.000000 5.143150 
# 
# 
# High freq. dielectric constant tensor:
#      x y z
#    x 2.049060 0.000000 0.026870 
#    y 0.000000 2.068090 0.000000 
#    z 0.026870 0.000000 2.083650 
# 
# From -- ./inp_files/33799.got.cif
#   From: 2010.06.25/outbox.cif.g09.slc.cpg/sg15_17_cif.got.tgz:33799.got - 2010.06.28 07:06:18.
