data_PCOD8134717
_publ_section_title
;
Structure prediction by ZEFSAII (Michael W. Deem and Ramdas Pophale) SiO2 
 PCOD8134717
Probable space group: C 2/C
;
_chemical_formula_sum "Si O2"
_cell_formula_units_Z 64
_cell_length_a 15.165736
_cell_length_b 11.245040
_cell_length_c 25.988264
_cell_angle_alpha 90.000000
_cell_angle_beta 43.998742
_cell_angle_gamma 90.000000
_cell_volume 3078.670178
_symmetry_space_group_name_H-M "C 2/C"
_symmetry_group_IT_number 15
_symmetry_cell_setting 'monoclinic'
loop_
_space_group_symop_operation_xyz
x,y,z
-x,y,1/2-z
-x,-y,-z
x,-y,1/2+z
1/2+x,1/2+y,z
1/2-x,1/2+y,1/2-z
1/2-x,1/2-y,-z
1/2+x,1/2-y,1/2+z
loop_
_atom_site_type_symbol
_atom_site_label
_atom_site_fract_x
_atom_site_fract_y
_atom_site_fract_z
Si Si1 0.949920 0.572560 0.596897
Si Si2 0.161207 0.603216 0.581891
Si Si3 0.895756 0.648100 0.057179
Si Si4 0.019883 0.123269 0.931574
Si Si5 0.461889 0.608263 0.842018
Si Si6 0.667286 0.377360 0.589183
Si Si7 0.197989 0.806683 0.176800
Si Si8 0.696686 0.563686 0.401357
O O1 0.961815 0.441515 0.568480
O O2 0.807544 0.620587 0.660392
O O3 0.022737 0.560288 0.620559
O O4 0.022575 0.665563 0.529325
O O5 0.270116 0.591520 0.492473
O O6 0.133825 0.739536 0.607809
O O7 0.202968 0.526172 0.613774
O O8 0.884930 0.776165 0.087501
O O9 0.760473 0.595281 0.097715
O O10 0.976803 0.158850 0.892735
O O11 0.102925 0.002919 0.900498
O O12 0.891109 0.122008 0.018318
O O13 0.454166 0.463396 0.850482
O O14 0.330411 0.652250 0.870275
O O15 0.576130 0.660871 0.761341
O O16 0.228856 0.665649 0.161755
#
# Coordination Sequence:
#
# PCOD8134717 Si02
#       8
#     8   8   8   8   8   8   8   8
#     4  10  21  36  61  94 129 168 208 273 324 375
#     4  10  21  34  66 102 130 163 206 280 332 382
#     4  10  19  36  60  96 130 158 218 271 316 384
#     4  11  23  39  67 100 132 173 216 272 345 387
#     4  11  25  44  64  90 130 187 217 272 331 408
#     4  10  19  38  63  96 134 161 217 266 334 391
#     4  11  25  45  61  90 135 178 225 268 332 402
#     4  11  23  40  65 102 139 166 215 281 330 402
#
# _framework density 20.788197
#
# number of rings (size 3 to 8) (size 9 to 14) (size 15 to 20)
#    0.000    1.500    5.000    0.000    3.500    0.500 
#    2.250    0.000    0.000    3.000    0.000    0.000 
#    0.000    0.000    0.000    0.000    0.000    0.000 
#
# Total GULP energy -396623.827736 kJ/mol
# GULP energy per Si atom -12394.494617 kJ/mol
# Density = 2.074088 g / cm^3
# Si number density = 20.788197 Si / 1000 Ang^3
#
#
#
# Elastic Constant Matrix: (Units=GPa)
#
#
# Indices 1 2 3 4 5 6 
#
# 1 87.0024 13.6637 26.3077 0.0000 -8.6662 0.0000
# 2 13.6637 104.3228 42.9465 0.0000 -1.3267 0.0000
# 3 26.3077 42.9465 67.1330 0.0000 -8.7794 0.0000
# 4 0.0000 0.0000 0.0000 34.6780 0.0000 -6.3052
# 5 -8.6662 -1.3267 -8.7794 0.0000 25.5140 0.0000
# 6 0.0000 0.0000 0.0000 -6.3052 0.0000 33.2468
#
#
#
# Elastic Compliance Matrix: (Units=1/GPa)
#
#
# Indices 1 2 3 4 5 6 
#
# 1 0.013244 0.000391 -0.005078 0.000000 0.002772 0.000000
# 2 0.000391 0.013153 -0.008859 0.000000 -0.002232 0.000000
# 3 -0.005078 -0.008859 0.023317 0.000000 0.005838 0.000000
# 4 0.000000 0.000000 0.000000 0.029867 0.000000 0.005664
# 5 0.002772 -0.002232 0.005838 0.000000 0.042028 0.000000
# 6 0.000000 0.000000 0.000000 0.005664 0.000000 0.031152
#
#
# Mechanical properties :
#
#
# Convention : Reuss Voigt Hill
#
# Bulk Modulus (GPa) = 44.20565 47.14378 45.67471
# Shear Modulus (GPa) = 26.68178 30.39045 28.53612
#
# Velocity S-wave (km/s) = 3.58649 3.82764 3.70903
# Velocity P-wave (km/s) = 6.20173 6.50091 6.35308
#
# Compressibility (1/GPa) = 0.02262154
#
# Stress axis : x y z
#
# Youngs Moduli (GPa) = 75.50605 76.02708 42.88780
#
# Poissons Ratio (x) = -0.02972 0.21777
# Poissons Ratio (y) = -0.02952 0.37996
# Poissons Ratio (z) = 0.38339 0.67356
#
# Static dielectric constant tensor:
#      x y z
#    x 4.152820 0.000000 -0.124330 
#    y 0.000000 3.723020 0.000000 
#    z -0.124330 0.000000 3.256470 
# 
# 
# High freq. dielectric constant tensor:
#      x y z
#    x 1.833520 0.000000 -0.014410 
#    y 0.000000 1.819430 0.000000 
#    z -0.014410 0.000000 1.761120 
# 
# From -- ./inp_files/313563.got.cif
#   From: 2010.06.25/outbox.cif.g09.slc.cpg/sg15_157_cif.got.tgz:313563.got - 2010.06.28 07:06:18.
