data_PCOD8134132
_publ_section_title
;
Structure prediction by ZEFSAII (Michael W. Deem and Ramdas Pophale) SiO2 
 PCOD8134132
Probable space group: C 2/C
;
_chemical_formula_sum "Si O2"
_cell_formula_units_Z 60
_cell_length_a 14.413021
_cell_length_b 10.568281
_cell_length_c 19.520705
_cell_angle_alpha 90.000000
_cell_angle_beta 94.687784
_cell_angle_gamma 90.000000
_cell_volume 2963.463944
_symmetry_space_group_name_H-M "C 2/C"
_symmetry_group_IT_number 15
_symmetry_cell_setting 'monoclinic'
loop_
_space_group_symop_operation_xyz
x,y,z
-x,y,1/2-z
-x,-y,-z
x,-y,1/2+z
1/2+x,1/2+y,z
1/2-x,1/2+y,1/2-z
1/2-x,1/2-y,-z
1/2+x,1/2-y,1/2+z
loop_
_atom_site_type_symbol
_atom_site_label
_atom_site_fract_x
_atom_site_fract_y
_atom_site_fract_z
Si Si1 0.794642 0.447467 0.722312
Si Si2 0.331220 0.155161 0.554673
Si Si3 0.741823 0.277996 0.181738
Si Si4 0.472404 0.938808 0.396647
Si Si5 0.500000 0.985123 0.250000
Si Si6 0.911350 0.278244 0.924264
Si Si7 0.744932 0.592271 0.068803
Si Si8 0.897741 0.744618 0.000604
O O1 0.765808 0.597401 0.729345
O O2 0.752459 0.354875 0.777521
O O3 0.907540 0.432481 0.726577
O O4 0.748716 0.398171 0.650529
O O5 0.315872 0.236927 0.623169
O O6 0.424726 0.070055 0.566151
O O7 0.337698 0.232661 0.483932
O O8 0.250625 0.051717 0.544282
O O9 0.637562 0.292576 0.142431
O O10 0.408639 0.844409 0.435087
O O11 0.474219 0.902307 0.315763
O O12 0.431226 0.078149 0.403351
O O13 0.008073 0.216199 0.953941
O O14 0.644586 0.628559 0.033403
O O15 0.826570 0.683386 0.048748
#
# Coordination Sequence:
#
# PCOD8134132 Si02
#       8
#     8   8   8   8   4   8   8   8
#     4  11  25  41  63  92 121 168 211 259 315 370
#     4  10  19  38  58  91 121 158 210 261 302 363
#     4  11  24  40  63  92 130 162 209 264 313 377
#     4  11  19  34  61  94 119 157 223 256 289 363
#     4  12  20  38  64  84 118 172 220 256 296 370
#     4  11  19  37  63  92 118 161 212 264 305 358
#     4  10  19  35  56  91 127 151 204 253 310 367
#     4  10  20  33  60  94 123 160 201 261 308 365
#
# _framework density 20.246578
#
# number of rings (size 3 to 8) (size 9 to 14) (size 15 to 20)
#    0.000    1.333    6.667    1.200    1.867    0.000 
#    0.000    2.667    0.000    8.800    0.000    0.000 
#    0.000    0.000    0.000    0.000    0.000    0.000 
#
# Total GULP energy -371742.490948 kJ/mol
# GULP energy per Si atom -12391.416365 kJ/mol
# Density = 2.020050 g / cm^3
# Si number density = 20.246578 Si / 1000 Ang^3
#
#
#
# Elastic Constant Matrix: (Units=GPa)
#
#
# Indices 1 2 3 4 5 6 
#
# 1 84.9927 43.8108 31.2245 0.0000 8.1323 0.0000
# 2 43.8108 88.1994 44.0119 0.0000 3.4574 0.0000
# 3 31.2245 44.0119 88.7964 0.0000 12.5306 0.0000
# 4 0.0000 0.0000 0.0000 34.5676 0.0000 3.0534
# 5 8.1323 3.4574 12.5306 0.0000 25.7256 0.0000
# 6 0.0000 0.0000 0.0000 3.0534 0.0000 21.3985
#
#
#
# Elastic Compliance Matrix: (Units=1/GPa)
#
#
# Indices 1 2 3 4 5 6 
#
# 1 0.016417 -0.007147 -0.001754 0.000000 -0.003375 0.000000
# 2 -0.007147 0.018247 -0.006984 0.000000 0.003209 0.000000
# 3 -0.001754 -0.006984 0.016246 0.000000 -0.006420 0.000000
# 4 0.000000 0.000000 0.000000 0.029298 0.000000 -0.004181
# 5 -0.003375 0.003209 -0.006420 0.000000 0.042635 0.000000
# 6 0.000000 0.000000 0.000000 -0.004181 0.000000 0.047329
#
#
# Mechanical properties :
#
#
# Convention : Reuss Voigt Hill
#
# Bulk Modulus (GPa) = 52.24628 55.56478 53.90553
# Shear Modulus (GPa) = 24.00124 25.86775 24.93449
#
# Velocity S-wave (km/s) = 3.44677 3.57828 3.51314
# Velocity P-wave (km/s) = 6.45765 6.67651 6.56799
#
# Compressibility (1/GPa) = 0.01914012
#
# Stress axis : x y z
#
# Youngs Moduli (GPa) = 60.91168 54.80263 61.55319
#
# Poissons Ratio (x) = 0.39168 0.10798
# Poissons Ratio (y) = 0.43535 0.42988
# Poissons Ratio (z) = 0.10686 0.38273
#
# Static dielectric constant tensor:
#      x y z
#    x 3.885860 0.000000 -0.011630 
#    y 0.000000 3.514960 0.000000 
#    z -0.011630 0.000000 4.045680 
# 
# 
# High freq. dielectric constant tensor:
#      x y z
#    x 1.793740 0.000000 0.004580 
#    y 0.000000 1.757490 0.000000 
#    z 0.004580 0.000000 1.804900 
# 
# From -- ./inp_files/243390.got.cif
#   From: 2010.06.25/outbox.cif.g09.slc.cpg/sg15_122_cif.got.tgz:243390.got - 2010.06.28 07:06:18.
