data_PCOD8134324
_publ_section_title
;
Structure prediction by ZEFSAII (Michael W. Deem and Ramdas Pophale) SiO2 
 PCOD8134324
Probable space group: C 2/C
;
_chemical_formula_sum "Si O2"
_cell_formula_units_Z 64
_cell_length_a 29.126509
_cell_length_b 14.666940
_cell_length_c 20.700864
_cell_angle_alpha 90.000000
_cell_angle_beta 158.263514
_cell_angle_gamma 90.000000
_cell_volume 3275.028736
_symmetry_space_group_name_H-M "C 2/C"
_symmetry_group_IT_number 15
_symmetry_cell_setting 'monoclinic'
loop_
_space_group_symop_operation_xyz
x,y,z
-x,y,1/2-z
-x,-y,-z
x,-y,1/2+z
1/2+x,1/2+y,z
1/2-x,1/2+y,1/2-z
1/2-x,1/2-y,-z
1/2+x,1/2-y,1/2+z
loop_
_atom_site_type_symbol
_atom_site_label
_atom_site_fract_x
_atom_site_fract_y
_atom_site_fract_z
Si Si1 0.817178 0.535961 0.760753
Si Si2 0.459985 0.264695 0.549370
Si Si3 0.568096 0.641049 0.076909
Si Si4 0.534539 0.439961 0.868476
Si Si5 0.398549 0.088729 0.067286
Si Si6 0.978969 0.557567 0.571898
Si Si7 0.636755 0.476376 0.245957
Si Si8 0.187936 0.706558 0.659157
O O1 0.670718 0.519393 0.560906
O O2 0.849132 0.632553 0.835323
O O3 0.886153 0.534347 0.781880
O O4 0.871919 0.456228 0.877974
O O5 0.563871 0.291658 0.633046
O O6 0.467740 0.331056 0.621838
O O7 0.475787 0.161379 0.593282
O O8 0.334052 0.282705 0.346188
O O9 0.646364 0.552611 0.201755
O O10 0.633030 0.694451 0.103782
O O11 0.433370 0.609667 0.876586
O O12 0.500000 0.460318 0.750000
O O13 0.435107 0.488666 0.784800
O O14 0.500000 0.124844 0.250000
O O15 0.458653 0.005539 0.106811
O O16 0.276056 0.053826 0.945050
O O17 0.364913 0.174348 0.978491
#
# Coordination Sequence:
#
# PCOD8134324 Si02
#       8
#     8   8   8   8   8   8   8   8
#     4   9  20  36  57  89 113 150 196 249 286 346
#     4  10  19  35  60  88 113 146 195 248 293 340
#     4  10  19  36  63  87 112 148 198 253 284 334
#     4  10  23  39  58  82 122 156 194 241 297 358
#     4  11  24  39  57  85 125 160 190 237 295 364
#     4  10  20  36  61  87 114 149 201 243 301 343
#     4  10  22  39  60  88 115 156 203 240 295 348
#     4  10  19  36  60  86 117 147 194 245 292 339
#
# _framework density 19.541813000000001
#
# number of rings (size 3 to 8) (size 9 to 14) (size 15 to 20)
#    0.000    2.000    2.500    0.750    8.750    0.500 
#    0.000    1.875    0.000    0.000    0.000    0.000 
#    0.000    0.000    0.000    0.000    0.000    0.000 
#
# Total GULP energy -396785.243595 kJ/mol
# GULP energy per Si atom -12399.538862 kJ/mol
# Density = 1.949733 g / cm^3
# Si number density = 19.541813 Si / 1000 Ang^3
#
#
#
# Elastic Constant Matrix: (Units=GPa)
#
#
# Indices 1 2 3 4 5 6 
#
# 1 97.8013 27.8088 45.8440 0.0000 4.0038 0.0000
# 2 27.8088 61.9885 11.1413 0.0000 1.8492 0.0000
# 3 45.8440 11.1413 103.0836 0.0001 3.3691 0.0001
# 4 0.0000 0.0000 0.0001 14.7969 0.0000 4.2463
# 5 4.0038 1.8492 3.3691 0.0000 29.3693 0.0000
# 6 0.0000 0.0000 0.0001 4.2463 0.0000 24.6412
#
#
#
# Elastic Compliance Matrix: (Units=1/GPa)
#
#
# Indices 1 2 3 4 5 6 
#
# 1 0.014558 -0.005450 -0.005854 0.000000 -0.000970 0.000000
# 2 -0.005450 0.018512 0.000438 0.000000 -0.000473 0.000000
# 3 -0.005854 0.000438 0.012278 0.000000 -0.000638 0.000000
# 4 0.000000 0.000000 0.000000 0.071098 0.000000 -0.012252
# 5 -0.000970 -0.000473 -0.000638 0.000000 0.034284 0.000000
# 6 0.000000 0.000000 0.000000 -0.012252 0.000000 0.042694
#
#
# Mechanical properties :
#
#
# Convention : Reuss Voigt Hill
#
# Bulk Modulus (GPa) = 42.34136 48.05129 45.19632
# Shear Modulus (GPa) = 22.41886 25.63343 24.02615
#
# Velocity S-wave (km/s) = 3.39075 3.62570 3.51019
# Velocity P-wave (km/s) = 6.08635 6.49384 6.29339
#
# Compressibility (1/GPa) = 0.02361757
#
# Stress axis : x y z
#
# Youngs Moduli (GPa) = 68.69078 54.01837 81.44923
#
# Poissons Ratio (x) = 0.29439 0.47677
# Poissons Ratio (y) = 0.37436 -0.03570
# Poissons Ratio (z) = 0.40209 -0.02368
#
# Static dielectric constant tensor:
#      x y z
#    x 3.430080 0.000000 0.191050 
#    y 0.000000 3.546850 0.000000 
#    z 0.191050 0.000000 3.362890 
# 
# 
# High freq. dielectric constant tensor:
#      x y z
#    x 1.757580 0.000000 0.022120 
#    y 0.000000 1.756970 0.000000 
#    z 0.022120 0.000000 1.743910 
# 
# From -- ./inp_files/259448.got.cif
#   From: 2010.06.25/outbox.cif.g09.slc.cpg/sg15_130_cif.got.tgz:259448.got - 2010.06.28 07:06:18.
