data_PCOD8134788
_publ_section_title
;
Structure prediction by ZEFSAII (Michael W. Deem and Ramdas Pophale) SiO2 
 PCOD8134788
Probable space group: C 2/C
;
_chemical_formula_sum "Si O2"
_cell_formula_units_Z 60
_cell_length_a 25.549759
_cell_length_b 11.594138
_cell_length_c 16.546489
_cell_angle_alpha 90.000000
_cell_angle_beta 144.186862
_cell_angle_gamma 90.000000
_cell_volume 2868.095548
_symmetry_space_group_name_H-M "C 2/C"
_symmetry_group_IT_number 15
_symmetry_cell_setting 'monoclinic'
loop_
_space_group_symop_operation_xyz
x,y,z
-x,y,1/2-z
-x,-y,-z
x,-y,1/2+z
1/2+x,1/2+y,z
1/2-x,1/2+y,1/2-z
1/2-x,1/2-y,-z
1/2+x,1/2-y,1/2+z
loop_
_atom_site_type_symbol
_atom_site_label
_atom_site_fract_x
_atom_site_fract_y
_atom_site_fract_z
Si Si1 0.500000 0.112483 0.250000
Si Si2 0.651156 0.715119 0.905433
Si Si3 0.632685 0.408537 0.651896
Si Si4 0.053845 0.508247 0.482351
Si Si5 0.304117 0.166731 0.764165
Si Si6 0.442701 0.610933 0.860350
Si Si7 0.862999 0.713010 0.367075
Si Si8 0.742130 0.442696 0.635605
O O1 0.406126 0.182967 0.124851
O O2 0.496828 0.037898 0.329815
O O3 0.584561 0.674011 0.753952
O O4 0.750000 0.750000 0.000000
O O5 0.663987 0.605173 0.980914
O O6 0.645660 0.280699 0.706892
O O7 0.622788 0.500335 0.711779
O O8 0.545940 0.423368 0.485702
O O9 0.714719 0.440682 0.696435
O O10 0.130994 0.604369 0.590015
O O11 0.095441 0.380460 0.518809
O O12 0.000000 0.500000 0.500000
O O13 0.213840 0.207517 0.692930
O O14 0.275511 0.073757 0.658223
O O15 0.437819 0.698618 0.930074
O O16 0.826398 0.645298 0.240643
#
# Coordination Sequence:
#
# PCOD8134788 Si02
#       8
#     4   8   8   8   8   8   8   8
#     4  12  26  44  66 104 138 170 232 290 332 410
#     4  12  24  38  65  96 131 165 215 287 340 389
#     4  10  21  36  61  82 120 166 207 259 315 390
#     4  11  24  41  70  96 133 178 224 281 346 400
#     4  10  20  37  62  91 120 170 217 263 326 403
#     4  11  21  38  59  91 120 161 216 262 324 390
#     4  10  19  36  62  88 121 165 211 264 322 398
#     4  10  20  36  59  89 121 160 208 265 322 386
#
# _framework density 20.919806000000001
#
# number of rings (size 3 to 8) (size 9 to 14) (size 15 to 20)
#    0.000    1.333    2.667    4.800    1.867    0.000 
#    0.000    0.667    8.800    0.000    0.000    0.000 
#    0.000    0.000    0.000    0.000    0.000    0.000 
#
# Total GULP energy -371653.174520 kJ/mol
# GULP energy per Si atom -12388.439151 kJ/mol
# Density = 2.087219 g / cm^3
# Si number density = 20.919806 Si / 1000 Ang^3
#
#
#
# Elastic Constant Matrix: (Units=GPa)
#
#
# Indices 1 2 3 4 5 6 
#
# 1 65.4575 22.8589 26.7551 0.0000 0.2658 0.0000
# 2 22.8589 135.5169 25.2455 0.0000 -7.4347 0.0000
# 3 26.7551 25.2455 69.2446 0.0000 -5.4206 0.0000
# 4 0.0000 0.0000 0.0000 49.4099 0.0000 6.4610
# 5 0.2658 -7.4347 -5.4206 0.0000 27.9080 0.0000
# 6 0.0000 0.0000 0.0000 6.4610 0.0000 25.7266
#
#
#
# Elastic Compliance Matrix: (Units=1/GPa)
#
#
# Indices 1 2 3 4 5 6 
#
# 1 0.018711 -0.002028 -0.006647 0.000000 -0.002010 0.000000
# 2 -0.002028 0.008205 -0.002067 0.000000 0.001804 0.000000
# 3 -0.006647 -0.002067 0.017999 0.000000 0.003009 0.000000
# 4 0.000000 0.000000 0.000000 0.020926 0.000000 -0.005255
# 5 -0.002010 0.001804 0.003009 0.000000 0.036916 0.000000
# 6 0.000000 0.000000 0.000000 -0.005255 0.000000 0.040190
#
#
# Mechanical properties :
#
#
# Convention : Reuss Voigt Hill
#
# Bulk Modulus (GPa) = 42.67931 46.65979 44.66955
# Shear Modulus (GPa) = 29.02904 33.63287 31.33095
#
# Velocity S-wave (km/s) = 3.72914 4.01397 3.87417
# Velocity P-wave (km/s) = 6.24401 6.62081 6.43517
#
# Compressibility (1/GPa) = 0.02343056
#
# Stress axis : x y z
#
# Youngs Moduli (GPa) = 53.44589 121.87400 55.55856
#
# Poissons Ratio (x) = 0.24716 0.36932
# Poissons Ratio (y) = 0.10839 0.11482
# Poissons Ratio (z) = 0.35528 0.25188
#
# Static dielectric constant tensor:
#      x y z
#    x 3.691630 0.000000 0.222390 
#    y 0.000000 4.372230 0.000000 
#    z 0.222390 0.000000 3.703890 
# 
# 
# High freq. dielectric constant tensor:
#      x y z
#    x 1.798470 0.000000 0.036530 
#    y 0.000000 1.836690 0.000000 
#    z 0.036530 0.000000 1.802330 
# 
# From -- ./inp_files/225015.got.cif
#   From: 2010.06.25/outbox.cif.g09.slc.cpg/sg15_113_cif.got.tgz:225015.got - 2010.06.28 07:06:18.
