data_PCOD8134294
_publ_section_title
;
Structure prediction by ZEFSAII (Michael W. Deem and Ramdas Pophale) SiO2 
 PCOD8134294
Probable space group: C 2/C
;
_chemical_formula_sum "Si O2"
_cell_formula_units_Z 52
_cell_length_a 12.787205
_cell_length_b 24.506120
_cell_length_c 9.119706
_cell_angle_alpha 90.000000
_cell_angle_beta 55.887801
_cell_angle_gamma 90.000000
_cell_volume 2366.085227
_symmetry_space_group_name_H-M "C 2/C"
_symmetry_group_IT_number 15
_symmetry_cell_setting 'monoclinic'
loop_
_space_group_symop_operation_xyz
x,y,z
-x,y,1/2-z
-x,-y,-z
x,-y,1/2+z
1/2+x,1/2+y,z
1/2-x,1/2+y,1/2-z
1/2-x,1/2-y,-z
1/2+x,1/2-y,1/2+z
loop_
_atom_site_type_symbol
_atom_site_label
_atom_site_fract_x
_atom_site_fract_y
_atom_site_fract_z
Si Si1 0.083792 0.670408 0.310667
Si Si2 0.142596 0.559198 0.170477
Si Si3 0.332547 0.576995 0.524590
Si Si4 0.281090 0.497480 0.309337
Si Si5 0.597225 0.148193 0.801297
Si Si6 0.000000 0.837512 0.750000
Si Si7 0.791357 0.239264 0.305293
O O1 0.170738 0.623074 0.174037
O O2 0.170946 0.715683 0.314819
O O3 0.000000 0.699361 0.250000
O O4 0.990605 0.634907 0.490322
O O5 0.178712 0.523849 0.282987
O O6 0.000000 0.544201 0.250000
O O7 0.222622 0.546112 0.964329
O O8 0.342513 0.545149 0.360351
O O9 0.375108 0.537133 0.626004
O O10 0.190833 0.599572 0.675294
O O11 0.425069 0.627729 0.431144
O O12 0.500000 0.163395 0.750000
O O13 0.671005 0.202962 0.793769
O O14 0.091614 0.802323 0.781900
O O15 0.750000 0.250000 0.500000
#
# Coordination Sequence:
#
# PCOD8134294 Si02
#       7
#     8   8   8   8   8   4   8
#     4  11  24  41  64  98 136 169 211 286 348 393
#     4  10  19  35  59  89 128 167 214 270 334 388
#     4  11  24  39  65  93 131 172 222 269 329 389
#     4  10  22  39  57  91 130 174 219 268 322 398
#     4  12  22  40  68  97 128 171 226 276 328 400
#     4  12  22  40  68 102 124 174 228 276 318 398
#     4  12  22  43  69  99 127 173 228 278 326 406
#
# _framework density 21.977228
#
# number of rings (size 3 to 8) (size 9 to 14) (size 15 to 20)
#    0.000    0.923    3.846    4.154    0.000    4.923 
#    0.000    0.000    0.000    3.692    0.000    0.000 
#    0.000    0.000    0.000    0.000    0.000    0.000 
#
# Total GULP energy -322235.716685 kJ/mol
# GULP energy per Si atom -12393.681411 kJ/mol
# Density = 2.192721 g / cm^3
# Si number density = 21.977228 Si / 1000 Ang^3
#
#
#
# Elastic Constant Matrix: (Units=GPa)
#
#
# Indices 1 2 3 4 5 6 
#
# 1 91.9320 39.4263 41.0006 0.0000 17.8251 0.0000
# 2 39.4263 109.9441 26.6183 0.0000 9.7281 0.0000
# 3 41.0006 26.6183 73.3050 0.0000 22.1271 0.0000
# 4 0.0000 0.0000 0.0000 33.4723 0.0000 -2.3725
# 5 17.8251 9.7281 22.1271 0.0000 33.8923 0.0000
# 6 0.0000 0.0000 0.0000 -2.3725 0.0000 29.9394
#
#
#
# Elastic Compliance Matrix: (Units=1/GPa)
#
#
# Indices 1 2 3 4 5 6 
#
# 1 0.016113 -0.003892 -0.006698 0.000000 -0.002984 0.000000
# 2 -0.003892 0.010923 -0.001819 0.000000 0.000100 0.000000
# 3 -0.006698 -0.001819 0.020958 0.000000 -0.009638 0.000000
# 4 0.000000 0.000000 0.000000 0.030044 0.000000 0.002381
# 5 -0.002984 0.000100 -0.009638 0.000000 0.037338 0.000000
# 6 0.000000 0.000000 0.000000 0.002381 0.000000 0.033590
#
#
# Mechanical properties :
#
#
# Convention : Reuss Voigt Hill
#
# Bulk Modulus (GPa) = 43.15181 54.36350 48.75765
# Shear Modulus (GPa) = 27.54682 30.66986 29.10834
#
# Velocity S-wave (km/s) = 3.54422 3.73973 3.64329
# Velocity P-wave (km/s) = 6.03540 6.59071 6.31916
#
# Compressibility (1/GPa) = 0.02317400
#
# Stress axis : x y z
#
# Youngs Moduli (GPa) = 62.06274 91.54979 47.71538
#
# Poissons Ratio (x) = 0.35635 0.31959
# Poissons Ratio (y) = 0.24157 0.08681
# Poissons Ratio (z) = 0.41569 0.16656
#
# Static dielectric constant tensor:
#      x y z
#    x 9.407680 0.000000 -2.701980 
#    y 0.000000 3.727780 0.000000 
#    z -2.701980 0.000000 5.530980 
# 
# 
# High freq. dielectric constant tensor:
#      x y z
#    x 1.847380 0.000000 0.008170 
#    y 0.000000 1.875250 0.000000 
#    z 0.008170 0.000000 1.872210 
# 
# From -- ./inp_files/34099.got.cif
#   From: 2010.06.25/outbox.cif.g09.slc.cpg/sg15_18_cif.got.tgz:34099.got - 2010.06.28 07:06:18.
