data_PCOD8134217
_publ_section_title
;
Structure prediction by ZEFSAII (Michael W. Deem and Ramdas Pophale) SiO2 
 PCOD8134217
Probable space group: C 2/C
;
_chemical_formula_sum "Si O2"
_cell_formula_units_Z 52
_cell_length_a 18.733375
_cell_length_b 24.579769
_cell_length_c 5.210063
_cell_angle_alpha 90.000000
_cell_angle_beta 80.982037
_cell_angle_gamma 90.000000
_cell_volume 2369.382294
_symmetry_space_group_name_H-M "C 2/C"
_symmetry_group_IT_number 15
_symmetry_cell_setting 'monoclinic'
loop_
_space_group_symop_operation_xyz
x,y,z
-x,y,1/2-z
-x,-y,-z
x,-y,1/2+z
1/2+x,1/2+y,z
1/2-x,1/2+y,1/2-z
1/2-x,1/2-y,-z
1/2+x,1/2-y,1/2+z
loop_
_atom_site_type_symbol
_atom_site_label
_atom_site_fract_x
_atom_site_fract_y
_atom_site_fract_z
Si Si1 0.412303 0.032262 0.943620
Si Si2 0.916933 0.300610 0.999668
Si Si3 0.084421 0.821140 0.184223
Si Si4 0.500000 0.536571 0.250000
Si Si5 0.425069 0.845917 0.501502
Si Si6 0.741302 0.532621 0.044125
Si Si7 0.628612 0.619891 0.158897
O O1 0.446745 0.091931 0.939085
O O2 0.326817 0.040323 0.000503
O O3 0.439209 0.994615 0.163229
O O4 0.880051 0.318344 0.291113
O O5 0.901778 0.239999 0.915746
O O6 0.882951 0.339629 0.795844
O O7 0.002099 0.310795 0.997234
O O8 0.117788 0.833730 0.446206
O O9 0.000000 0.835369 0.250000
O O10 0.124089 0.856527 0.947043
O O11 0.500000 0.500000 0.500000
O O12 0.569907 0.573050 0.171394
O O13 0.715123 0.497294 0.301305
O O14 0.706919 0.592617 0.075751
#
# Coordination Sequence:
#
# PCOD8134217 Si02
#       7
#     8   8   8   4   8   8   8
#     4  10  21  38  61  86 112 148 191 228 269 329
#     4  10  21  35  57  83 112 151 180 224 282 338
#     4  12  21  37  55  82 108 143 191 224 277 334
#     4  12  22  32  46  72 108 136 168 220 286 334
#     4  10  19  35  58  84 113 148 188 218 277 339
#     4  10  21  40  60  79 111 152 190 229 279 333
#     4  12  23  35  56  80 109 143 189 236 275 331
#
# _framework density 21.946646999999999
#
# number of rings (size 3 to 8) (size 9 to 14) (size 15 to 20)
#    0.000    1.231    3.077    4.615    2.154    0.000 
#    0.000    9.231    0.000    5.538    0.000    0.000 
#    0.000    0.000    0.000    0.000    0.000    0.000 
#
# Total GULP energy -322304.957166 kJ/mol
# GULP energy per Si atom -12396.344506 kJ/mol
# Density = 2.189670 g / cm^3
# Si number density = 21.946647 Si / 1000 Ang^3
#
#
#
# Elastic Constant Matrix: (Units=GPa)
#
#
# Indices 1 2 3 4 5 6 
#
# 1 15.5808 8.0253 18.3304 0.0000 2.5355 0.0000
# 2 8.0253 126.8757 53.6346 0.0000 5.6230 0.0000
# 3 18.3304 53.6346 204.4857 0.0000 17.7803 0.0000
# 4 0.0000 0.0000 0.0000 55.8852 0.0000 3.7839
# 5 2.5355 5.6230 17.7803 0.0000 20.3371 0.0000
# 6 0.0000 0.0000 0.0000 3.7839 0.0000 26.3171
#
#
#
# Elastic Compliance Matrix: (Units=1/GPa)
#
#
# Indices 1 2 3 4 5 6 
#
# 1 0.072457 -0.002037 -0.005654 0.000000 -0.003527 0.000000
# 2 -0.002037 0.008926 -0.002128 0.000000 -0.000354 0.000000
# 3 -0.005654 -0.002128 0.006324 0.000000 -0.004235 0.000000
# 4 0.000000 0.000000 0.000000 0.018070 0.000000 -0.002598
# 5 -0.003527 -0.000354 -0.004235 0.000000 0.053412 0.000000
# 6 0.000000 0.000000 0.000000 -0.002598 0.000000 0.038372
#
#
# Mechanical properties :
#
#
# Convention : Reuss Voigt Hill
#
# Bulk Modulus (GPa) = 14.69105 56.32475 35.50790
# Shear Modulus (GPa) = 20.84325 38.30466 29.57395
#
# Velocity S-wave (km/s) = 3.08510 4.18228 3.67487
# Velocity P-wave (km/s) = 4.40443 7.00300 5.84983
#
# Compressibility (1/GPa) = 0.06806864
#
# Stress axis : x y z
#
# Youngs Moduli (GPa) = 13.80135 112.03579 158.13933
#
# Poissons Ratio (x) = 0.22817 0.89416
# Poissons Ratio (y) = 0.02811 0.33649
# Poissons Ratio (z) = 0.07804 0.23839
#
# Static dielectric constant tensor:
#      x y z
#    x 3.538490 0.000000 0.030770 
#    y 0.000000 3.917190 0.000000 
#    z 0.030770 0.000000 5.612670 
# 
# 
# High freq. dielectric constant tensor:
#      x y z
#    x 1.819010 0.000000 0.009770 
#    y 0.000000 1.868320 0.000000 
#    z 0.009770 0.000000 1.901820 
# 
# From -- ./inp_files/13335.got.cif
#   From: 2010.06.25/outbox.cif.g09.slc.cpg/sg15_7_cif.got.tgz:13335.got - 2010.06.28 07:06:18.
