data_PCOD8134456
_publ_section_title
;
Structure prediction by ZEFSAII (Michael W. Deem and Ramdas Pophale) SiO2 
 PCOD8134456
Probable space group: C 2/C
;
_chemical_formula_sum "Si O2"
_cell_formula_units_Z 64
_cell_length_a 17.459617
_cell_length_b 23.476997
_cell_length_c 9.516354
_cell_angle_alpha 90.000000
_cell_angle_beta 76.410277
_cell_angle_gamma 90.000000
_cell_volume 3791.538967
_symmetry_space_group_name_H-M "C 2/C"
_symmetry_group_IT_number 15
_symmetry_cell_setting 'monoclinic'
loop_
_space_group_symop_operation_xyz
x,y,z
-x,y,1/2-z
-x,-y,-z
x,-y,1/2+z
1/2+x,1/2+y,z
1/2-x,1/2+y,1/2-z
1/2-x,1/2-y,-z
1/2+x,1/2-y,1/2+z
loop_
_atom_site_type_symbol
_atom_site_label
_atom_site_fract_x
_atom_site_fract_y
_atom_site_fract_z
Si Si1 0.424926 0.769244 0.867911
Si Si2 0.057252 0.064034 0.096810
Si Si3 0.946603 0.062836 0.907149
Si Si4 0.825767 0.158773 0.362736
Si Si5 0.770600 0.310075 0.827872
Si Si6 0.337433 0.339732 0.376921
Si Si7 0.580353 0.235800 0.794718
Si Si8 0.742651 0.193401 0.678186
O O1 0.500000 0.791085 0.750000
O O2 0.358694 0.815767 0.849498
O O3 0.406829 0.705619 0.816591
O O4 0.436151 0.767500 0.031271
O O5 0.133264 0.101963 0.097340
O O6 0.000000 0.058124 0.250000
O O7 0.084229 0.000416 0.037374
O O8 0.003365 0.091595 0.998753
O O9 0.869361 0.100643 0.919497
O O10 0.000000 0.059951 0.750000
O O11 0.761767 0.141710 0.267975
O O12 0.891061 0.201182 0.266831
O O13 0.778488 0.189753 0.507760
O O14 0.763742 0.253239 0.739418
O O15 0.714119 0.306833 0.985705
O O16 0.284888 0.353387 0.260758
O O17 0.500000 0.219994 0.750000
O O18 0.647100 0.189196 0.720403
#
# Coordination Sequence:
#
# PCOD8134456 Si02
#       8
#     8   8   8   8   8   8   8   8
#     4  11  22  32  49  73 102 131 172 206 244 305
#     4  10  21  36  48  75 107 129 170 218 247 284
#     4  10  21  34  52  73 102 135 169 213 251 285
#     4  11  21  32  53  69  99 140 170 201 252 301
#     4  10  19  36  48  68  99 133 167 212 246 291
#     4  11  18  34  52  67  97 139 173 200 249 297
#     4  11  22  32  47  74 102 133 166 208 250 296
#     4  10  20  34  47  69 100 130 171 209 244 300
#
# _framework density 16.879688999999999
#
# number of rings (size 3 to 8) (size 9 to 14) (size 15 to 20)
#    0.000    1.500    3.750    4.500    7.000    0.000 
#    0.000    0.000    0.000    0.000    0.000    0.000 
#    0.000    6.000    0.000    0.000    0.000    0.000 
#
# Total GULP energy -396512.563752 kJ/mol
# GULP energy per Si atom -12391.017617 kJ/mol
# Density = 1.684127 g / cm^3
# Si number density = 16.879689 Si / 1000 Ang^3
#
#
#
# Elastic Constant Matrix: (Units=GPa)
#
#
# Indices 1 2 3 4 5 6 
#
# 1 136.7377 39.5117 49.5956 0.0000 18.3699 0.0000
# 2 39.5117 48.7775 8.7061 0.0000 5.5917 0.0000
# 3 49.5956 8.7061 107.7965 0.0000 8.7041 0.0000
# 4 0.0000 0.0000 0.0000 16.4698 0.0000 5.4578
# 5 18.3699 5.5917 8.7041 0.0000 36.6598 0.0000
# 6 0.0000 0.0000 0.0000 5.4578 0.0000 25.2513
#
#
#
# Elastic Compliance Matrix: (Units=1/GPa)
#
#
# Indices 1 2 3 4 5 6 
#
# 1 0.011844 -0.008382 -0.004482 0.000000 -0.003592 0.000000
# 2 -0.008382 0.027025 0.001700 0.000000 -0.000326 0.000000
# 3 -0.004482 0.001700 0.011257 0.000000 -0.000686 0.000000
# 4 0.000000 0.000000 0.000000 0.065402 0.000000 -0.014136
# 5 -0.003592 -0.000326 -0.000686 0.000000 0.029290 0.000000
# 6 0.000000 0.000000 0.000000 -0.014136 0.000000 0.042657
#
#
# Mechanical properties :
#
#
# Convention : Reuss Voigt Hill
#
# Bulk Modulus (GPa) = 35.97449 54.32652 45.15050
# Shear Modulus (GPa) = 22.82392 28.70939 25.76665
#
# Velocity S-wave (km/s) = 3.68115 4.12858 3.91127
# Velocity P-wave (km/s) = 6.27904 7.41494 6.87051
#
# Compressibility (1/GPa) = 0.02779748
#
# Stress axis : x y z
#
# Youngs Moduli (GPa) = 84.43403 37.00292 88.83401
#
# Poissons Ratio (x) = 0.31016 0.39816
# Poissons Ratio (y) = 0.70773 -0.15102
# Poissons Ratio (z) = 0.37844 -0.06291
#
# Static dielectric constant tensor:
#      x y z
#    x 3.563950 0.000000 0.337270 
#    y 0.000000 3.009090 0.000000 
#    z 0.337270 0.000000 3.455740 
# 
# 
# High freq. dielectric constant tensor:
#      x y z
#    x 1.650900 0.000000 0.015350 
#    y 0.000000 1.593200 0.000000 
#    z 0.015350 0.000000 1.677960 
# 
# From -- ./inp_files/51238.got.cif
#   From: 2010.06.25/outbox.cif.g09.slc.cpg/sg15_26_cif.got.tgz:51238.got - 2010.06.28 07:06:18.
