data_PCOD8134318
_publ_section_title
;
Structure prediction by ZEFSAII (Michael W. Deem and Ramdas Pophale) SiO2 
 PCOD8134318
Probable space group: C 2/C
;
_chemical_formula_sum "Si O2"
_cell_formula_units_Z 36
_cell_length_a 10.729748
_cell_length_b 33.838105
_cell_length_c 5.114967
_cell_angle_alpha 90.000000
_cell_angle_beta 89.635804
_cell_angle_gamma 90.000000
_cell_volume 1857.075747
_symmetry_space_group_name_H-M "C 2/C"
_symmetry_group_IT_number 15
_symmetry_cell_setting 'monoclinic'
loop_
_space_group_symop_operation_xyz
x,y,z
-x,y,1/2-z
-x,-y,-z
x,-y,1/2+z
1/2+x,1/2+y,z
1/2-x,1/2+y,1/2-z
1/2-x,1/2-y,-z
1/2+x,1/2-y,1/2+z
loop_
_atom_site_type_symbol
_atom_site_label
_atom_site_fract_x
_atom_site_fract_y
_atom_site_fract_z
Si Si1 0.270647 0.973010 0.760288
Si Si2 0.500000 0.915430 0.750000
Si Si3 0.000000 0.637920 0.750000
Si Si4 0.000000 0.026827 0.250000
Si Si5 0.138835 0.787590 0.736519
Si Si6 0.209996 0.299793 0.276388
O O1 0.377562 0.941468 0.708317
O O2 0.134166 0.950407 0.744483
O O3 0.284760 0.007313 0.544196
O O4 0.523147 0.888770 0.499501
O O5 0.119842 0.664876 0.698913
O O6 0.000000 0.000000 0.500000
O O7 0.134133 0.740986 0.803467
O O8 0.186029 0.795618 0.445857
O O9 0.000000 0.804831 0.750000
O O10 0.224527 0.809746 0.948348
#
# Coordination Sequence:
#
# PCOD8134318 Si02
#       6
#     8   4   4   4   8   8
#     4  10  19  36  59  89 114 143 195 246 281 322
#     4  12  24  35  60  82 120 162 193 230 285 362
#     4  12  24  41  54  82 121 160 192 218 308 356
#     4   8  16  30  56  82 107 136 171 230 291 324
#     4  10  19  35  60  86 104 138 193 247 301 317
#     4  10  21  35  57  82 113 144 185 244 281 354
#
# _framework density 19.385314999999999
#
# number of rings (size 3 to 8) (size 9 to 14) (size 15 to 20)
#    0.000    1.778    1.111    4.000    0.000    0.000 
#    0.000    0.000   14.667    0.000    0.000    0.000 
#    0.000    0.000    0.000    0.000    0.000    0.000 
#
# Total GULP energy -223138.150798 kJ/mol
# GULP energy per Si atom -12396.563933 kJ/mol
# Density = 1.934119 g / cm^3
# Si number density = 19.385315 Si / 1000 Ang^3
#
#
#
# Elastic Constant Matrix: (Units=GPa)
#
#
# Indices 1 2 3 4 5 6 
#
# 1 132.4493 34.2562 7.3045 0.0000 16.4872 0.0000
# 2 34.2562 53.7497 6.2645 0.0000 10.6947 0.0000
# 3 7.3045 6.2645 94.5189 0.0000 -3.4616 0.0000
# 4 0.0000 0.0000 0.0000 19.9473 0.0000 -10.2985
# 5 16.4872 10.6947 -3.4616 0.0000 27.5521 0.0000
# 6 0.0000 0.0000 0.0000 -10.2985 0.0000 6.6117
#
#
#
# Elastic Compliance Matrix: (Units=1/GPa)
#
#
# Indices 1 2 3 4 5 6 
#
# 1 0.009376 -0.005187 -0.000515 0.000000 -0.003662 0.000000
# 2 -0.005187 0.023285 -0.001366 0.000000 -0.006106 0.000000
# 3 -0.000515 -0.001366 0.010791 0.000000 0.002194 0.000000
# 4 0.000000 0.000000 0.000000 0.256004 0.000000 0.398756
# 5 -0.003662 -0.006106 0.002194 0.000000 0.041132 0.000000
# 6 0.000000 0.000000 0.000000 0.398756 0.000000 0.772355
#
#
# Mechanical properties :
#
#
# Convention : Reuss Voigt Hill
#
# Bulk Modulus (GPa) = 34.11172 41.81870 37.96521
# Shear Modulus (GPa) = 4.39812 26.34839 15.37325
#
# Velocity S-wave (km/s) = 1.50788 3.69072 2.81914
# Velocity P-wave (km/s) = 4.54604 6.30723 5.49762
#
# Compressibility (1/GPa) = 0.02931544
#
# Stress axis : x y z
#
# Youngs Moduli (GPa) = 106.65777 42.94680 92.67340
#
# Poissons Ratio (x) = 0.22276 0.04772
# Poissons Ratio (y) = 0.55322 0.12659
# Poissons Ratio (z) = 0.05492 0.05867
#
# Static dielectric constant tensor:
#      x y z
#    x 3.949830 0.000000 0.110590 
#    y 0.000000 3.159060 0.000000 
#    z 0.110590 0.000000 3.701780 
# 
# 
# High freq. dielectric constant tensor:
#      x y z
#    x 1.776390 0.000000 0.000440 
#    y 0.000000 1.705350 0.000000 
#    z 0.000440 0.000000 1.779530 
# 
# From -- ./inp_files/5143.got.cif
#   From: 2010.06.25/outbox.cif.g09.slc.cpg/sg15_3_cif.got.tgz:5143.got - 2010.06.28 07:06:18.
