data_PCOD8134328
_publ_section_title
;
Structure prediction by ZEFSAII (Michael W. Deem and Ramdas Pophale) SiO2 
 PCOD8134328
Probable space group: C 2/C
;
_chemical_formula_sum "Si O2"
_cell_formula_units_Z 56
_cell_length_a 8.009215
_cell_length_b 19.384294
_cell_length_c 22.540643
_cell_angle_alpha 90.000000
_cell_angle_beta 135.510529
_cell_angle_gamma 90.000000
_cell_volume 2452.374618
_symmetry_space_group_name_H-M "C 2/C"
_symmetry_group_IT_number 15
_symmetry_cell_setting 'monoclinic'
loop_
_space_group_symop_operation_xyz
x,y,z
-x,y,1/2-z
-x,-y,-z
x,-y,1/2+z
1/2+x,1/2+y,z
1/2-x,1/2+y,1/2-z
1/2-x,1/2-y,-z
1/2+x,1/2-y,1/2+z
loop_
_atom_site_type_symbol
_atom_site_label
_atom_site_fract_x
_atom_site_fract_y
_atom_site_fract_z
Si Si1 0.738870 0.199766 0.199678
Si Si2 0.402367 0.219202 0.464306
Si Si3 0.957273 0.559071 0.882206
Si Si4 0.383659 0.914911 0.609754
Si Si5 0.269897 0.608863 0.564735
Si Si6 0.410123 0.640815 0.030612
Si Si7 0.226497 0.350209 0.266165
O O1 0.597331 0.222887 0.105512
O O2 0.582007 0.137737 0.185495
O O3 0.749662 0.268351 0.243241
O O4 0.000000 0.171505 0.250000
O O5 0.632838 0.179392 0.548220
O O6 0.422371 0.298569 0.485985
O O7 0.163067 0.178765 0.426280
O O8 0.816086 0.550517 0.909269
O O9 0.803429 0.612111 0.804025
O O10 0.991146 0.489138 0.853041
O O11 0.220179 0.585459 0.961938
O O12 0.304214 0.910235 0.520759
O O13 0.158400 0.901425 0.596039
O O14 0.550684 0.619276 0.641401
O O15 0.000000 0.363011 0.250000
#
# Coordination Sequence:
#
# PCOD8134328 Si02
#       7
#     8   8   8   8   8   8   8
#     4  10  21  38  58  83 116 155 199 252 308 361
#     4   9  19  36  61  89 114 153 202 250 301 358
#     4  11  23  38  58  90 127 164 200 246 312 373
#     4  11  22  39  62  89 121 162 204 250 305 367
#     4  10  21  38  62  88 119 158 205 251 301 369
#     4  10  19  35  60  89 121 153 199 251 297 359
#     4  11  22  38  61  87 118 158 205 257 307 363
#
# _framework density 22.835008999999999
#
# number of rings (size 3 to 8) (size 9 to 14) (size 15 to 20)
#    0.000    1.714    0.000    5.571    0.000    3.429 
#    0.000    5.000    0.000    0.000    0.000    0.000 
#    0.000    0.000    0.000    0.000    0.000    0.000 
#
# Total GULP energy -347106.708069 kJ/mol
# GULP energy per Si atom -12396.668145 kJ/mol
# Density = 2.278304 g / cm^3
# Si number density = 22.835009 Si / 1000 Ang^3
#
#
#
# Elastic Constant Matrix: (Units=GPa)
#
#
# Indices 1 2 3 4 5 6 
#
# 1 65.8644 30.3610 28.2646 0.0003 20.7669 0.0003
# 2 30.3610 118.3578 26.4978 0.0002 14.7813 0.0001
# 3 28.2646 26.4978 78.5056 -0.0001 26.5914 0.0000
# 4 0.0003 0.0002 -0.0001 32.2557 0.0002 2.5163
# 5 20.7669 14.7813 26.5914 0.0002 41.2542 0.0002
# 6 0.0003 0.0001 0.0000 2.5163 0.0002 29.4990
#
#
#
# Elastic Compliance Matrix: (Units=1/GPa)
#
#
# Indices 1 2 3 4 5 6 
#
# 1 0.020602 -0.003575 -0.004006 0.000000 -0.006507 0.000000
# 2 -0.003575 0.009848 -0.001857 0.000000 -0.000532 0.000000
# 3 -0.004006 -0.001857 0.017781 0.000000 -0.008779 0.000000
# 4 0.000000 0.000000 0.000000 0.031210 0.000000 -0.002662
# 5 -0.006507 -0.000532 -0.008779 0.000000 0.033365 0.000000
# 6 0.000000 0.000000 0.000000 -0.002662 0.000000 0.034126
#
#
# Mechanical properties :
#
#
# Convention : Reuss Voigt Hill
#
# Bulk Modulus (GPa) = 34.06668 48.10830 41.08749
# Shear Modulus (GPa) = 28.47493 32.44209 30.45851
#
# Velocity S-wave (km/s) = 3.53510 3.77333 3.65616
# Velocity P-wave (km/s) = 5.62260 6.33226 5.98795
#
# Compressibility (1/GPa) = 0.02935419
#
# Stress axis : x y z
#
# Youngs Moduli (GPa) = 48.53960 101.54190 56.24093
#
# Poissons Ratio (x) = 0.36302 0.22533
# Poissons Ratio (y) = 0.17353 0.10442
# Poissons Ratio (z) = 0.19447 0.18852
#
# Static dielectric constant tensor:
#      x y z
#    x 4.171180 0.000000 0.181000 
#    y 0.000000 4.148770 0.000000 
#    z 0.181000 0.000000 3.973610 
# 
# 
# High freq. dielectric constant tensor:
#      x y z
#    x 1.899490 0.000000 0.016080 
#    y 0.000000 1.894810 0.000000 
#    z 0.016080 0.000000 1.891150 
# 
# From -- ./inp_files/191034.got.cif
#   From: 2010.06.25/outbox.cif.g09.slc.cpg/sg15_96_cif.got.tgz:191034.got - 2010.06.28 07:06:18.
