data_PCOD8134512
_publ_section_title
;
Structure prediction by ZEFSAII (Michael W. Deem and Ramdas Pophale) SiO2 
 PCOD8134512
Probable space group: C 2/C
;
_chemical_formula_sum "Si O2"
_cell_formula_units_Z 56
_cell_length_a 20.851522
_cell_length_b 18.438644
_cell_length_c 15.293589
_cell_angle_alpha 90.000000
_cell_angle_beta 27.633974
_cell_angle_gamma 90.000000
_cell_volume 2727.262684
_symmetry_space_group_name_H-M "C 2/C"
_symmetry_group_IT_number 15
_symmetry_cell_setting 'monoclinic'
loop_
_space_group_symop_operation_xyz
x,y,z
-x,y,1/2-z
-x,-y,-z
x,-y,1/2+z
1/2+x,1/2+y,z
1/2-x,1/2+y,1/2-z
1/2-x,1/2-y,-z
1/2+x,1/2-y,1/2+z
loop_
_atom_site_type_symbol
_atom_site_label
_atom_site_fract_x
_atom_site_fract_y
_atom_site_fract_z
Si Si1 0.061604 0.781489 0.078920
Si Si2 0.000000 0.955841 0.750000
Si Si3 0.815983 0.821494 0.279794
Si Si4 0.691668 0.420415 0.371719
Si Si5 0.484795 0.927381 0.076304
Si Si6 0.237300 0.944799 0.028300
Si Si7 0.000000 0.522406 0.750000
Si Si8 0.255352 0.582819 0.173454
O O1 0.000000 0.777178 0.250000
O O2 0.940999 0.766388 0.152818
O O3 0.177690 0.721344 0.924286
O O4 0.119758 0.861206 0.986150
O O5 0.086901 0.905626 0.578787
O O6 0.898601 0.005175 0.813117
O O7 0.859710 0.875012 0.149038
O O8 0.800280 0.866848 0.388085
O O9 0.843124 0.390125 0.215853
O O10 0.691192 0.506707 0.349171
O O11 0.473399 0.931797 0.194849
O O12 0.626447 0.883196 0.883787
O O13 0.500000 0.000000 0.000000
O O14 0.301820 0.936371 0.853938
O O15 0.361343 0.976341 0.937858
#
# Coordination Sequence:
#
# PCOD8134512 Si02
#       8
#     8   4   8   8   8   8   4   8
#     4  12  27  45  63 101 140 181 218 270 338 421
#     4  10  20  42  64  94 138 160 220 298 332 382
#     4  12  27  41  67  96 135 186 223 263 349 404
#     4  10  22  40  66  93 133 171 226 286 329 390
#     4  10  19  36  56  98 130 168 214 280 332 393
#     4  11  21  34  63  94 131 177 211 265 337 398
#     4  12  20  32  62 100 130 170 216 272 346 386
#     4  10  21  40  64  91 139 168 223 278 320 393
#
# _framework density 20.533408999999999
#
# number of rings (size 3 to 8) (size 9 to 14) (size 15 to 20)
#    0.000    1.143    5.714    3.857    4.000    3.429 
#    0.000    0.000    0.000    1.714    0.000    0.000 
#    0.000    0.000    0.000    0.000    0.000    0.000 
#
# Total GULP energy -347071.805305 kJ/mol
# GULP energy per Si atom -12395.421618 kJ/mol
# Density = 2.048667 g / cm^3
# Si number density = 20.533409 Si / 1000 Ang^3
#
#
#
# Elastic Constant Matrix: (Units=GPa)
#
#
# Indices 1 2 3 4 5 6 
#
# 1 113.0971 34.5435 38.1277 0.0010 -7.6848 -0.0008
# 2 34.5435 61.4476 31.7602 0.0008 3.0444 -0.0011
# 3 38.1277 31.7602 132.8964 0.0011 -4.8907 -0.0013
# 4 0.0010 0.0008 0.0011 27.6480 -0.0011 -4.2972
# 5 -7.6848 3.0444 -4.8907 -0.0011 39.9094 0.0011
# 6 -0.0008 -0.0011 -0.0013 -4.2972 0.0011 17.6411
#
#
#
# Elastic Compliance Matrix: (Units=1/GPa)
#
#
# Indices 1 2 3 4 5 6 
#
# 1 0.011311 -0.005527 -0.001837 0.000000 0.002374 0.000000
# 2 -0.005527 0.021423 -0.003650 0.000000 -0.003146 0.000001
# 3 -0.001837 -0.003650 0.008962 0.000000 0.001023 0.000000
# 4 0.000000 0.000000 0.000000 0.037592 0.000001 0.009157
# 5 0.002374 -0.003146 0.001023 0.000001 0.025879 -0.000001
# 6 0.000000 0.000001 0.000000 0.009157 -0.000001 0.058916
#
#
# Mechanical properties :
#
#
# Convention : Reuss Voigt Hill
#
# Bulk Modulus (GPa) = 50.84267 57.36709 54.10488
# Shear Modulus (GPa) = 25.95158 30.57368 28.26263
#
# Velocity S-wave (km/s) = 3.55895 3.86291 3.71404
# Velocity P-wave (km/s) = 6.45778 6.92063 6.69321
#
# Compressibility (1/GPa) = 0.01966852
#
# Stress axis : x y z
#
# Youngs Moduli (GPa) = 88.41317 46.67816 111.58743
#
# Poissons Ratio (x) = 0.25797 0.20497
# Poissons Ratio (y) = 0.48862 0.40730
# Poissons Ratio (z) = 0.16240 0.17038
#
# Static dielectric constant tensor:
#      x y z
#    x 3.704840 0.000000 -0.195530 
#    y 0.000000 3.291560 0.000000 
#    z -0.195530 0.000000 4.231790 
# 
# 
# High freq. dielectric constant tensor:
#      x y z
#    x 1.804950 0.000000 -0.014030 
#    y 0.000000 1.746660 0.000000 
#    z -0.014030 0.000000 1.826370 
# 
# From -- ./inp_files/169138.got.cif
#   From: 2010.06.25/outbox.cif.g09.slc.cpg/sg15_85_cif.got.tgz:169138.got - 2010.06.28 07:06:18.
