data_PCOD8134468
_publ_section_title
;
Structure prediction by ZEFSAII (Michael W. Deem and Ramdas Pophale) SiO2 
 PCOD8134468
Probable space group: C 2/C
;
_chemical_formula_sum "Si O2"
_cell_formula_units_Z 56
_cell_length_a 15.031939
_cell_length_b 8.254633
_cell_length_c 26.803817
_cell_angle_alpha 90.000000
_cell_angle_beta 59.692054
_cell_angle_gamma 90.000000
_cell_volume 2871.336049
_symmetry_space_group_name_H-M "C 2/C"
_symmetry_group_IT_number 15
_symmetry_cell_setting 'monoclinic'
loop_
_space_group_symop_operation_xyz
x,y,z
-x,y,1/2-z
-x,-y,-z
x,-y,1/2+z
1/2+x,1/2+y,z
1/2-x,1/2+y,1/2-z
1/2-x,1/2-y,-z
1/2+x,1/2-y,1/2+z
loop_
_atom_site_type_symbol
_atom_site_label
_atom_site_fract_x
_atom_site_fract_y
_atom_site_fract_z
Si Si1 0.034072 0.127119 0.374685
Si Si2 0.032566 0.761092 0.087168
Si Si3 0.576358 0.645481 0.469778
Si Si4 0.367983 0.080844 0.187673
Si Si5 0.253935 0.236425 0.700124
Si Si6 0.033730 0.359185 0.187022
Si Si7 0.808339 0.615110 0.380232
O O1 0.040378 0.221589 0.426757
O O2 0.150875 0.137087 0.321143
O O3 0.960985 0.221782 0.356983
O O4 0.990829 0.947247 0.392625
O O5 0.124316 0.694929 0.095335
O O6 0.928705 0.657911 0.123919
O O7 0.065927 0.734981 0.020013
O O8 0.500000 0.500000 0.500000
O O9 0.693692 0.581200 0.433088
O O10 0.317335 0.228345 0.232189
O O11 0.285969 0.951478 0.190892
O O12 0.447692 0.994129 0.201767
O O13 0.193278 0.261502 0.665715
O O14 0.145243 0.445304 0.153338
O O15 0.000000 0.283016 0.250000
#
# Coordination Sequence:
#
# PCOD8134468 Si02
#       7
#     8   8   8   8   8   8   8
#     4   9  20  37  56  82 115 149 193 232 282 354
#     4  10  20  37  56  85 113 150 194 241 286 336
#     4   9  19  39  61  79 112 156 194 238 284 338
#     4  10  20  34  57  81 116 151 193 236 291 348
#     4  10  19  36  54  82 112 155 188 233 291 348
#     4  10  19  37  57  86 117 154 183 236 303 343
#     4  10  20  36  60  84 115 147 189 240 293 336
#
# _framework density 19.503117
#
# number of rings (size 3 to 8) (size 9 to 14) (size 15 to 20)
#    0.000    2.286    1.429    1.286    0.000    0.000 
#    7.714   15.714    0.000    0.000    0.000    0.000 
#    0.000    0.000    0.000    0.000    0.000    0.000 
#
# Total GULP energy -347021.311759 kJ/mol
# GULP energy per Si atom -12393.618277 kJ/mol
# Density = 1.945873 g / cm^3
# Si number density = 19.503117 Si / 1000 Ang^3
#
#
#
# Elastic Constant Matrix: (Units=GPa)
#
#
# Indices 1 2 3 4 5 6 
#
# 1 76.8124 36.3442 49.6267 0.0000 7.6179 0.0000
# 2 36.3442 83.1544 43.6159 0.0000 3.0958 0.0000
# 3 49.6267 43.6159 133.5054 0.0000 3.8844 0.0000
# 4 0.0000 0.0000 0.0000 28.0533 0.0000 -0.9233
# 5 7.6179 3.0958 3.8844 0.0000 30.0986 0.0000
# 6 0.0000 0.0000 0.0000 -0.9233 0.0000 33.1890
#
#
#
# Elastic Compliance Matrix: (Units=1/GPa)
#
#
# Indices 1 2 3 4 5 6 
#
# 1 0.019447 -0.005585 -0.005298 0.000000 -0.003664 0.000000
# 2 -0.005585 0.016140 -0.003202 0.000000 0.000167 0.000000
# 3 -0.005298 -0.003202 0.010497 0.000000 0.000316 0.000000
# 4 0.000000 0.000000 0.000000 0.035679 0.000000 0.000993
# 5 -0.003664 0.000167 0.000316 0.000000 0.034094 0.000000
# 6 0.000000 0.000000 0.000000 0.000993 0.000000 0.030158
#
#
# Mechanical properties :
#
#
# Convention : Reuss Voigt Hill
#
# Bulk Modulus (GPa) = 55.81870 61.40510 58.61190
# Shear Modulus (GPa) = 27.75390 29.19386 28.47388
#
# Velocity S-wave (km/s) = 3.77643 3.87315 3.82510
# Velocity P-wave (km/s) = 6.90635 7.18017 7.04459
#
# Compressibility (1/GPa) = 0.01791514
#
# Stress axis : x y z
#
# Youngs Moduli (GPa) = 51.42098 61.95834 95.26981
#
# Poissons Ratio (x) = 0.34601 0.50473
# Poissons Ratio (y) = 0.28717 0.30504
# Poissons Ratio (z) = 0.27242 0.19838
#
# Static dielectric constant tensor:
#      x y z
#    x 3.618560 0.000000 0.083260 
#    y 0.000000 3.322910 0.000000 
#    z 0.083260 0.000000 4.124440 
# 
# 
# High freq. dielectric constant tensor:
#      x y z
#    x 1.758710 0.000000 0.000810 
#    y 0.000000 1.732390 0.000000 
#    z 0.000810 0.000000 1.776280 
# 
# From -- ./inp_files/242776.got.cif
#   From: 2010.06.25/outbox.cif.g09.slc.cpg/sg15_122_cif.got.tgz:242776.got - 2010.06.28 07:06:18.
