data_PCOD8134854
_publ_section_title
;
Structure prediction by ZEFSAII (Michael W. Deem and Ramdas Pophale) SiO2 
 PCOD8134854
Probable space group: C 2/C
;
_chemical_formula_sum "Si O2"
_cell_formula_units_Z 36
_cell_length_a 8.407987
_cell_length_b 23.551585
_cell_length_c 8.914784
_cell_angle_alpha 90.000000
_cell_angle_beta 115.273734
_cell_angle_gamma 90.000000
_cell_volume 1596.339052
_symmetry_space_group_name_H-M "C 2/C"
_symmetry_group_IT_number 15
_symmetry_cell_setting 'monoclinic'
loop_
_space_group_symop_operation_xyz
x,y,z
-x,y,1/2-z
-x,-y,-z
x,-y,1/2+z
1/2+x,1/2+y,z
1/2-x,1/2+y,1/2-z
1/2-x,1/2-y,-z
1/2+x,1/2-y,1/2+z
loop_
_atom_site_type_symbol
_atom_site_label
_atom_site_fract_x
_atom_site_fract_y
_atom_site_fract_z
Si Si1 0.500000 0.363484 0.750000
Si Si2 0.680099 0.061598 0.524435
Si Si3 0.086451 0.225832 0.522673
Si Si4 0.137638 0.321719 0.167042
Si Si5 0.774364 0.452502 0.792827
O O1 0.511519 0.324173 0.607791
O O2 0.670342 0.403448 0.838991
O O3 0.698092 0.122534 0.605707
O O4 0.773327 0.055820 0.400754
O O5 0.475658 0.052405 0.416090
O O6 0.775301 0.015900 0.671691
O O7 0.250000 0.250000 0.500000
O O8 0.171126 0.203016 0.709642
O O9 0.948531 0.277635 0.486522
O O10 0.000000 0.332955 0.250000
#
# Coordination Sequence:
#
# PCOD8134854 Si02
#       5
#     4   8   8   8   8
#     4  12  22  40  68  96 134 168 226 278 322 396
#     4  10  23  43  65  95 134 174 224 265 335 390
#     4  10  19  36  64  96 125 176 221 262 330 390
#     4  10  20  36  67  92 129 175 223 264 325 399
#     4  10  24  41  66  96 130 178 219 275 326 395
#
# _framework density 22.551601000000002
#
# number of rings (size 3 to 8) (size 9 to 14) (size 15 to 20)
#    0.000    1.778    3.333    2.667    9.333    0.889 
#    0.000    1.111    4.889    0.000    0.000    0.000 
#    0.000    0.000    0.000    0.000    0.000    0.000 
#
# Total GULP energy -223076.830142 kJ/mol
# GULP energy per Si atom -12393.157230 kJ/mol
# Density = 2.250027 g / cm^3
# Si number density = 22.551601 Si / 1000 Ang^3
#
#
#
# Elastic Constant Matrix: (Units=GPa)
#
#
# Indices 1 2 3 4 5 6 
#
# 1 18.1953 16.4662 6.7027 0.0000 -4.5709 0.0000
# 2 16.4662 191.1820 66.2043 0.0000 1.4751 0.0000
# 3 6.7027 66.2043 111.5728 0.0000 7.0093 0.0000
# 4 0.0000 0.0000 0.0000 70.1774 0.0000 15.3782
# 5 -4.5709 1.4751 7.0093 0.0000 23.6687 0.0000
# 6 0.0000 0.0000 0.0000 15.3782 0.0000 33.3764
#
#
#
# Elastic Compliance Matrix: (Units=1/GPa)
#
#
# Indices 1 2 3 4 5 6 
#
# 1 0.063357 -0.004979 -0.001671 0.000000 0.013040 0.000000
# 2 -0.004979 0.006988 -0.003831 0.000000 -0.000262 0.000000
# 3 -0.001671 -0.003831 0.011557 0.000000 -0.003506 0.000000
# 4 0.000000 0.000000 0.000000 0.015850 0.000000 -0.007303
# 5 0.013040 -0.000262 -0.003506 0.000000 0.045823 0.000000
# 6 0.000000 0.000000 0.000000 -0.007303 0.000000 0.033326
#
#
# Mechanical properties :
#
#
# Convention : Reuss Voigt Hill
#
# Bulk Modulus (GPa) = 16.40969 55.52185 35.96577
# Shear Modulus (GPa) = 22.91739 40.88296 31.90018
#
# Velocity S-wave (km/s) = 3.19128 4.26239 3.76512
# Velocity P-wave (km/s) = 4.56851 6.99266 5.90630
#
# Compressibility (1/GPa) = 0.06093960
#
# Stress axis : x y z
#
# Youngs Moduli (GPa) = 15.78369 143.10097 86.53057
#
# Poissons Ratio (x) = 0.71246 0.14460
# Poissons Ratio (y) = 0.07858 0.33149
# Poissons Ratio (z) = 0.02638 0.54821
#
# Static dielectric constant tensor:
#      x y z
#    x 3.831030 0.000000 0.320050 
#    y 0.000000 4.481610 0.000000 
#    z 0.320050 0.000000 4.210660 
# 
# 
# High freq. dielectric constant tensor:
#      x y z
#    x 1.861570 0.000000 0.018780 
#    y 0.000000 1.907340 0.000000 
#    z 0.018780 0.000000 1.882620 
# 
# From -- ./inp_files/23345.got.cif
#   From: 2010.06.25/outbox.cif.g09.slc.cpg/sg15_12_cif.got.tgz:23345.got - 2010.06.28 07:06:18.
