data_PCOD8134180
_publ_section_title
;
Structure prediction by ZEFSAII (Michael W. Deem and Ramdas Pophale) SiO2 
 PCOD8134180
Probable space group: C 2/C
;
_chemical_formula_sum "Si O2"
_cell_formula_units_Z 56
_cell_length_a 25.795962
_cell_length_b 18.341570
_cell_length_c 9.176944
_cell_angle_alpha 90.000000
_cell_angle_beta 139.836725
_cell_angle_gamma 90.000000
_cell_volume 2800.428405
_symmetry_space_group_name_H-M "C 2/C"
_symmetry_group_IT_number 15
_symmetry_cell_setting 'monoclinic'
loop_
_space_group_symop_operation_xyz
x,y,z
-x,y,1/2-z
-x,-y,-z
x,-y,1/2+z
1/2+x,1/2+y,z
1/2-x,1/2+y,1/2-z
1/2-x,1/2-y,-z
1/2+x,1/2-y,1/2+z
loop_
_atom_site_type_symbol
_atom_site_label
_atom_site_fract_x
_atom_site_fract_y
_atom_site_fract_z
Si Si1 0.700092 0.409968 0.267334
Si Si2 0.443669 0.310728 0.487032
Si Si3 0.861333 0.416590 0.245826
Si Si4 0.185880 0.052381 0.411826
Si Si5 0.980018 0.072599 0.541833
Si Si6 0.622878 0.058560 0.394603
Si Si7 0.001634 0.320060 0.584872
O O1 0.648805 0.334499 0.174911
O O2 0.683251 0.467402 0.360043
O O3 0.795967 0.396383 0.473218
O O4 0.674327 0.447831 0.060719
O O5 0.468474 0.362683 0.410249
O O6 0.453691 0.231664 0.435324
O O7 0.500000 0.318396 0.750000
O O8 0.883019 0.476188 0.172518
O O9 0.884027 0.451490 0.448447
O O10 0.910904 0.340385 0.334114
O O11 0.765360 0.403301 0.032936
O O12 0.113141 0.094468 0.178083
O O13 0.000000 0.058802 0.750000
O O14 0.000000 0.000000 0.500000
O O15 0.548596 0.104092 0.175428
O O16 0.000000 0.290035 0.750000
#
# Coordination Sequence:
#
# PCOD8134180 Si02
#       7
#     8   8   8   8   8   8   8
#     4  10  20  35  57  88 117 147 185 240 287 338
#     4  12  24  38  56  80 116 156 197 234 281 343
#     4   9  19  36  62  88 113 145 187 240 287 340
#     4  10  19  35  57  87 115 142 190 234 288 333
#     4  12  22  35  58  84 112 152 192 237 286 340
#     4   9  19  36  63  87 116 144 188 239 288 342
#     4  10  22  41  58  81 117 156 192 234 287 341
#
# _framework density 19.996939999999999
#
# number of rings (size 3 to 8) (size 9 to 14) (size 15 to 20)
#    0.000    1.714    2.857    2.143    0.000    1.714 
#    0.000    0.714    3.143    0.000    0.000    0.000 
#    0.000    0.000    0.000    0.000    0.000    0.000 
#
# Total GULP energy -347021.682158 kJ/mol
# GULP energy per Si atom -12393.631506 kJ/mol
# Density = 1.995143 g / cm^3
# Si number density = 19.996940 Si / 1000 Ang^3
#
#
#
# Elastic Constant Matrix: (Units=GPa)
#
#
# Indices 1 2 3 4 5 6 
#
# 1 86.0361 33.5894 39.0806 0.0000 -6.6436 0.0000
# 2 33.5894 52.2834 21.8820 0.0000 -4.2187 0.0000
# 3 39.0806 21.8820 99.3844 0.0000 4.8191 0.0000
# 4 0.0000 0.0000 0.0000 21.1041 0.0000 5.9308
# 5 -6.6436 -4.2187 4.8191 0.0000 38.5680 0.0000
# 6 0.0000 0.0000 0.0000 5.9308 0.0000 30.9973
#
#
#
# Elastic Compliance Matrix: (Units=1/GPa)
#
#
# Indices 1 2 3 4 5 6 
#
# 1 0.017656 -0.008994 -0.005093 0.000000 0.002694 0.000000
# 2 -0.008994 0.025977 -0.002259 0.000000 0.001574 0.000000
# 3 -0.005093 -0.002259 0.012694 0.000000 -0.002711 0.000000
# 4 0.000000 0.000000 0.000000 0.050077 0.000000 -0.009581
# 5 0.002694 0.001574 -0.002711 0.000000 0.026903 0.000000
# 6 0.000000 0.000000 0.000000 -0.009581 0.000000 0.034094
#
#
# Mechanical properties :
#
#
# Convention : Reuss Voigt Hill
#
# Bulk Modulus (GPa) = 42.31194 47.42312 44.86753
# Shear Modulus (GPa) = 24.04174 27.67733 25.85954
#
# Velocity S-wave (km/s) = 3.47114 3.72436 3.59998
# Velocity P-wave (km/s) = 6.10493 6.50085 6.30600
#
# Compressibility (1/GPa) = 0.02363399
#
# Stress axis : x y z
#
# Youngs Moduli (GPa) = 56.63826 38.49515 78.78017
#
# Poissons Ratio (x) = 0.34623 0.40124
# Poissons Ratio (y) = 0.50941 0.17798
# Poissons Ratio (z) = 0.28847 0.08697
#
# Static dielectric constant tensor:
#      x y z
#    x 3.960780 0.000000 0.256240 
#    y 0.000000 2.903400 0.000000 
#    z 0.256240 0.000000 3.957590 
# 
# 
# High freq. dielectric constant tensor:
#      x y z
#    x 1.795530 0.000000 0.006390 
#    y 0.000000 1.740520 0.000000 
#    z 0.006390 0.000000 1.791310 
# 
# From -- ./inp_files/62655.got.cif
#   From: 2010.06.25/outbox.cif.g09.slc.cpg/sg15_32_cif.got.tgz:62655.got - 2010.06.28 07:06:18.
