data_PCOD8134716
_publ_section_title
;
Structure prediction by ZEFSAII (Michael W. Deem and Ramdas Pophale) SiO2 
 PCOD8134716
Probable space group: C 2/C
;
_chemical_formula_sum "Si O2"
_cell_formula_units_Z 56
_cell_length_a 29.489582
_cell_length_b 11.142364
_cell_length_c 28.617552
_cell_angle_alpha 90.000000
_cell_angle_beta 162.544768
_cell_angle_gamma 90.000000
_cell_volume 2820.606744
_symmetry_space_group_name_H-M "C 2/C"
_symmetry_group_IT_number 15
_symmetry_cell_setting 'monoclinic'
loop_
_space_group_symop_operation_xyz
x,y,z
-x,y,1/2-z
-x,-y,-z
x,-y,1/2+z
1/2+x,1/2+y,z
1/2-x,1/2+y,1/2-z
1/2-x,1/2-y,-z
1/2+x,1/2-y,1/2+z
loop_
_atom_site_type_symbol
_atom_site_label
_atom_site_fract_x
_atom_site_fract_y
_atom_site_fract_z
Si Si1 0.001201 0.753307 0.596995
Si Si2 0.744354 0.586273 0.378050
Si Si3 0.328087 0.366454 0.917032
Si Si4 0.244470 0.102654 0.699324
Si Si5 0.117093 0.163756 0.925681
Si Si6 0.822735 0.879687 0.259726
Si Si7 0.287742 0.398174 0.078624
O O1 0.096981 0.829329 0.728817
O O2 0.110785 0.682576 0.669876
O O3 0.896141 0.663336 0.522639
O O4 0.906547 0.842349 0.471434
O O5 0.739821 0.486519 0.333489
O O6 0.748644 0.525973 0.433583
O O7 0.230564 0.469781 0.796509
O O8 0.251000 0.241359 0.830761
O O9 0.321768 0.391170 0.966248
O O10 0.497685 0.367731 0.064667
O O11 0.229900 0.091728 0.740088
O O12 0.188107 0.085220 0.953248
O O13 0.936439 0.157371 0.748709
O O14 0.152984 0.304669 0.955220
#
# Coordination Sequence:
#
# PCOD8134716 Si02
#       7
#     8   8   8   8   8   8   8
#     4  10  24  41  63  81 124 168 212 241 303 355
#     4  11  22  42  60  90 119 166 203 258 297 369
#     4  12  23  39  61  91 126 159 205 252 310 364
#     4  11  24  41  59  87 121 167 208 255 296 365
#     4  10  19  36  60  95 121 161 185 251 315 359
#     4  12  25  37  61  91 125 158 206 255 311 357
#     4  10  20  36  63  90 130 149 197 245 313 366
#
# _framework density 19.853883
#
# number of rings (size 3 to 8) (size 9 to 14) (size 15 to 20)
#    0.000    1.143    4.286    1.286    6.000    1.714 
#    0.000    0.000    0.000   15.429    0.000    0.000 
#    0.000    0.000    0.000    0.000    0.000    0.000 
#
# Total GULP energy -347338.189713 kJ/mol
# GULP energy per Si atom -12404.935347 kJ/mol
# Density = 1.980869 g / cm^3
# Si number density = 19.853883 Si / 1000 Ang^3
#
#
#
# Elastic Constant Matrix: (Units=GPa)
#
#
# Indices 1 2 3 4 5 6 
#
# 1 122.0007 52.8004 31.0890 0.0041 -11.0458 0.1243
# 2 52.8004 124.3190 43.7358 -0.0260 4.8535 0.1588
# 3 31.0890 43.7358 55.9456 0.0452 5.0801 -0.0435
# 4 0.0041 -0.0260 0.0452 31.1777 0.0463 -25.2625
# 5 -11.0458 4.8535 5.0801 0.0463 24.9165 -0.0377
# 6 0.1243 0.1588 -0.0435 -25.2625 -0.0377 86.3461
#
#
#
# Elastic Compliance Matrix: (Units=1/GPa)
#
#
# Indices 1 2 3 4 5 6 
#
# 1 0.011425 -0.003677 -0.004075 -0.000021 0.006612 -0.000015
# 2 -0.003677 0.012283 -0.007329 0.000009 -0.002528 -0.000019
# 3 -0.004075 -0.007329 0.026392 -0.000014 -0.005759 0.000026
# 4 -0.000021 0.000009 -0.000014 0.042041 -0.000068 0.012300
# 5 0.006612 -0.002528 -0.005759 -0.000068 0.044732 -0.000008
# 6 -0.000015 -0.000019 0.000026 0.012300 -0.000008 0.015180
#
#
# Mechanical properties :
#
#
# Convention : Reuss Voigt Hill
#
# Bulk Modulus (GPa) = 50.15717 61.94620 56.05168
# Shear Modulus (GPa) = 26.47465 40.13071 33.30268
#
# Velocity S-wave (km/s) = 3.65564 4.50077 4.10004
# Velocity P-wave (km/s) = 6.56782 7.63400 7.12089
#
# Compressibility (1/GPa) = 0.01993733
#
# Stress axis : x y z
#
# Youngs Moduli (GPa) = 87.52688 81.41542 37.89095
#
# Poissons Ratio (x) = 0.29937 0.15440
# Poissons Ratio (y) = 0.32184 0.27771
# Poissons Ratio (z) = 0.35665 0.59671
#
# Static dielectric constant tensor:
#      x y z
#    x 3.753400 0.000080 -0.036500 
#    y 0.000080 3.758870 -0.000120 
#    z -0.036500 -0.000120 3.796520 
# 
# 
# High freq. dielectric constant tensor:
#      x y z
#    x 1.778490 0.000000 0.003970 
#    y 0.000000 1.773240 -0.000010 
#    z 0.003970 -0.000010 1.778410 
# 
# From -- ./inp_files/303285.got.cif
#   From: 2010.06.25/outbox.cif.g09.slc.cpg/sg15_152_cif.got.tgz:303285.got - 2010.06.28 07:06:18.
