data_PCOD8134987
_publ_section_title
;
Structure prediction by ZEFSAII (Michael W. Deem and Ramdas Pophale) SiO2 
 PCOD8134987
Probable space group: C 2/C
;
_chemical_formula_sum "Si O2"
_cell_formula_units_Z 56
_cell_length_a 22.542434
_cell_length_b 11.354868
_cell_length_c 12.657869
_cell_angle_alpha 90.000000
_cell_angle_beta 64.987028
_cell_angle_gamma 90.000000
_cell_volume 2936.116889
_symmetry_space_group_name_H-M "C 2/C"
_symmetry_group_IT_number 15
_symmetry_cell_setting 'monoclinic'
loop_
_space_group_symop_operation_xyz
x,y,z
-x,y,1/2-z
-x,-y,-z
x,-y,1/2+z
1/2+x,1/2+y,z
1/2-x,1/2+y,1/2-z
1/2-x,1/2-y,-z
1/2+x,1/2-y,1/2+z
loop_
_atom_site_type_symbol
_atom_site_label
_atom_site_fract_x
_atom_site_fract_y
_atom_site_fract_z
Si Si1 0.341365 0.357393 0.438680
Si Si2 0.105392 0.941402 0.452280
Si Si3 0.688120 0.882213 0.011949
Si Si4 0.432850 0.490859 0.237476
Si Si5 0.738955 0.326108 0.341014
Si Si6 0.704469 0.131477 0.928768
Si Si7 0.070007 0.218403 0.156246
O O1 0.365539 0.447693 0.508633
O O2 0.389738 0.377949 0.303843
O O3 0.345447 0.226072 0.483186
O O4 0.268586 0.379873 0.452399
O O5 0.057676 0.982176 0.394517
O O6 0.168538 0.873823 0.359770
O O7 0.060297 0.853827 0.554680
O O8 0.729475 0.904070 0.088362
O O9 0.620235 0.823871 0.101410
O O10 0.729827 0.804963 0.896639
O O11 0.670932 0.003259 0.963972
O O12 0.500000 0.487306 0.250000
O O13 0.399671 0.619094 0.286844
O O14 0.782977 0.329424 0.202091
O O15 0.000000 0.267620 0.250000
#
# Coordination Sequence:
#
# PCOD8134987 Si02
#       7
#     8   8   8   8   8   8   8
#     4  10  22  34  54  86 118 148 190 236 290 353
#     4  10  19  37  59  86 115 150 191 242 294 331
#     4  10  22  38  56  89 117 149 203 225 290 351
#     4  10  21  38  60  84 115 152 195 245 289 342
#     4  10  21  34  60  83 114 156 182 243 281 346
#     4  11  22  35  56  86 120 153 186 236 299 342
#     4   9  21  38  59  86 113 154 196 246 276 341
#
# _framework density 19.072808999999999
#
# number of rings (size 3 to 8) (size 9 to 14) (size 15 to 20)
#    0.000    2.000    2.857    0.000    6.000    5.143 
#    0.000    0.714    0.000    0.857    0.000    0.000 
#    0.000    0.000    0.000    0.000    0.000    0.000 
#
# Total GULP energy -346943.072822 kJ/mol
# GULP energy per Si atom -12390.824029 kJ/mol
# Density = 1.902940 g / cm^3
# Si number density = 19.072809 Si / 1000 Ang^3
#
#
#
# Elastic Constant Matrix: (Units=GPa)
#
#
# Indices 1 2 3 4 5 6 
#
# 1 75.7862 26.3933 39.8715 0.0000 11.7502 0.0000
# 2 26.3933 104.9902 51.9937 0.0000 -8.2793 0.0000
# 3 39.8715 51.9937 114.4540 0.0000 3.1953 0.0000
# 4 0.0000 0.0000 0.0000 25.1549 0.0000 -1.8621
# 5 11.7502 -8.2793 3.1953 0.0000 40.0432 0.0000
# 6 0.0000 0.0000 0.0000 -1.8621 0.0000 18.0848
#
#
#
# Elastic Compliance Matrix: (Units=1/GPa)
#
#
# Indices 1 2 3 4 5 6 
#
# 1 0.017371 -0.002390 -0.004820 0.000000 -0.005207 0.000000
# 2 -0.002390 0.012987 -0.005173 0.000000 0.003799 0.000000
# 3 -0.004820 -0.005173 0.012785 0.000000 -0.000675 0.000000
# 4 0.000000 0.000000 0.000000 0.040059 0.000000 0.004125
# 5 -0.005207 0.003799 -0.000675 0.000000 0.027340 0.000000
# 6 0.000000 0.000000 0.000000 0.004125 0.000000 0.055720
#
#
# Mechanical properties :
#
#
# Convention : Reuss Voigt Hill
#
# Bulk Modulus (GPa) = 54.41924 59.08306 56.75115
# Shear Modulus (GPa) = 25.36087 28.45471 26.90779
#
# Velocity S-wave (km/s) = 3.65044 3.86670 3.76013
# Velocity P-wave (km/s) = 6.80896 7.14003 6.97646
#
# Compressibility (1/GPa) = 0.01837585
#
# Stress axis : x y z
#
# Youngs Moduli (GPa) = 57.56852 76.99983 78.21600
#
# Poissons Ratio (x) = 0.18406 0.37700
# Poissons Ratio (y) = 0.13761 0.40462
# Poissons Ratio (z) = 0.27748 0.39832
#
# Static dielectric constant tensor:
#      x y z
#    x 3.237450 0.000000 0.004740 
#    y 0.000000 3.565220 0.000000 
#    z 0.004740 0.000000 3.699270 
# 
# 
# High freq. dielectric constant tensor:
#      x y z
#    x 1.723090 0.000000 0.006530 
#    y 0.000000 1.724600 0.000000 
#    z 0.006530 0.000000 1.754460 
# 
# From -- ./inp_files/117470.got.cif
#   From: 2010.06.25/outbox.cif.g09.slc.cpg/sg15_59_cif.got.tgz:117470.got - 2010.06.28 07:06:18.
