data_PCOD8134753
_publ_section_title
;
Structure prediction by ZEFSAII (Michael W. Deem and Ramdas Pophale) SiO2 
 PCOD8134753
Probable space group: C 2/C
;
_chemical_formula_sum "Si O2"
_cell_formula_units_Z 52
_cell_length_a 15.387615
_cell_length_b 12.071589
_cell_length_c 13.968539
_cell_angle_alpha 90.000000
_cell_angle_beta 102.890472
_cell_angle_gamma 90.000000
_cell_volume 2529.306749
_symmetry_space_group_name_H-M "C 2/C"
_symmetry_group_IT_number 15
_symmetry_cell_setting 'monoclinic'
loop_
_space_group_symop_operation_xyz
x,y,z
-x,y,1/2-z
-x,-y,-z
x,-y,1/2+z
1/2+x,1/2+y,z
1/2-x,1/2+y,1/2-z
1/2-x,1/2-y,-z
1/2+x,1/2-y,1/2+z
loop_
_atom_site_type_symbol
_atom_site_label
_atom_site_fract_x
_atom_site_fract_y
_atom_site_fract_z
Si Si1 0.398284 0.088604 0.885633
Si Si2 0.197615 0.196984 0.189262
Si Si3 0.214357 0.966155 0.853325
Si Si4 0.500000 0.214316 0.250000
Si Si5 0.231435 0.020857 0.579972
Si Si6 0.350208 0.347875 0.276232
Si Si7 0.572662 0.033651 0.390640
O O1 0.383316 0.216702 0.850753
O O2 0.311754 0.011820 0.843345
O O3 0.484201 0.040610 0.850354
O O4 0.421362 0.082626 0.002242
O O5 0.196514 0.152143 0.298728
O O6 0.287627 0.265712 0.200689
O O7 0.197315 0.097893 0.110948
O O8 0.139284 0.045445 0.789486
O O9 0.201529 0.961272 0.963484
O O10 0.446058 0.290561 0.312235
O O11 0.570593 0.140841 0.323928
O O12 0.187984 0.120519 0.629067
O O13 0.338447 0.034537 0.614517
#
# Coordination Sequence:
#
# PCOD8134753 Si02
#       7
#     8   8   8   4   8   8   8
#     4   9  20  36  61  94 128 147 205 250 308 356
#     4  10  19  36  61  90 118 161 196 247 303 364
#     4   9  20  37  60  87 122 160 204 245 300 365
#     4  12  22  36  64  84 120 156 206 244 306 354
#     4  10  21  39  63  86 123 157 204 253 298 360
#     4  10  22  36  60  88 115 158 207 246 299 367
#     4  10  21  36  62  96 117 156 194 263 298 356
#
# _framework density 20.558993000000001
#
# number of rings (size 3 to 8) (size 9 to 14) (size 15 to 20)
#    0.000    2.154    1.538    0.923    6.462    2.462 
#    0.000    0.769   13.538    0.000    0.000    0.000 
#    0.000    0.000    0.000    0.000    0.000    0.000 
#
# Total GULP energy -322272.720346 kJ/mol
# GULP energy per Si atom -12395.104629 kJ/mol
# Density = 2.051220 g / cm^3
# Si number density = 20.558993 Si / 1000 Ang^3
#
#
#
# Elastic Constant Matrix: (Units=GPa)
#
#
# Indices 1 2 3 4 5 6 
#
# 1 80.7562 50.0034 48.9982 0.0000 -19.5742 0.0000
# 2 50.0034 104.4066 43.3908 0.0000 -6.0547 0.0000
# 3 48.9982 43.3908 99.7458 0.0000 -14.6109 0.0000
# 4 0.0000 0.0000 0.0000 29.6167 0.0000 1.9431
# 5 -19.5742 -6.0547 -14.6109 0.0000 26.6496 0.0000
# 6 0.0000 0.0000 0.0000 1.9431 0.0000 28.1758
#
#
#
# Elastic Compliance Matrix: (Units=1/GPa)
#
#
# Indices 1 2 3 4 5 6 
#
# 1 0.024576 -0.008287 -0.006631 0.000000 0.012532 0.000000
# 2 -0.008287 0.014487 -0.002871 0.000000 -0.004370 0.000000
# 3 -0.006631 -0.002871 0.014921 0.000000 0.002658 0.000000
# 4 0.000000 0.000000 0.000000 0.033918 0.000000 -0.002339
# 5 0.012532 -0.004370 0.002658 0.000000 0.047193 0.000000
# 6 0.000000 0.000000 0.000000 -0.002339 0.000000 0.035653
#
#
# Mechanical properties :
#
#
# Convention : Reuss Voigt Hill
#
# Bulk Modulus (GPa) = 54.33583 63.29927 58.81755
# Shear Modulus (GPa) = 23.53364 26.38950 24.96157
#
# Velocity S-wave (km/s) = 3.38699 3.58662 3.48824
# Velocity P-wave (km/s) = 6.46392 6.92876 6.70037
#
# Compressibility (1/GPa) = 0.01840406
#
# Stress axis : x y z
#
# Youngs Moduli (GPa) = 40.69090 69.02881 67.01813
#
# Poissons Ratio (x) = 0.57205 0.44443
# Poissons Ratio (y) = 0.33721 0.19241
# Poissons Ratio (z) = 0.26984 0.19819
#
# Static dielectric constant tensor:
#      x y z
#    x 3.648070 0.000000 0.024500 
#    y 0.000000 3.877270 0.000000 
#    z 0.024500 0.000000 3.706840 
# 
# 
# High freq. dielectric constant tensor:
#      x y z
#    x 1.783680 0.000000 -0.001920 
#    y 0.000000 1.802660 0.000000 
#    z -0.001920 0.000000 1.807600 
# 
# From -- ./inp_files/160436.got.cif
#   From: 2010.06.25/outbox.cif.g09.slc.cpg/sg15_81_cif.got.tgz:160436.got - 2010.06.28 07:06:18.
