data_PCOD8134761
_publ_section_title
;
Structure prediction by ZEFSAII (Michael W. Deem and Ramdas Pophale) SiO2 
 PCOD8134761
Probable space group: C 2/C
;
_chemical_formula_sum "Si O2"
_cell_formula_units_Z 56
_cell_length_a 11.799752
_cell_length_b 10.962551
_cell_length_c 24.319876
_cell_angle_alpha 90.000000
_cell_angle_beta 119.851899
_cell_angle_gamma 90.000000
_cell_volume 2728.492016
_symmetry_space_group_name_H-M "C 2/C"
_symmetry_group_IT_number 15
_symmetry_cell_setting 'monoclinic'
loop_
_space_group_symop_operation_xyz
x,y,z
-x,y,1/2-z
-x,-y,-z
x,-y,1/2+z
1/2+x,1/2+y,z
1/2-x,1/2+y,1/2-z
1/2-x,1/2-y,-z
1/2+x,1/2-y,1/2+z
loop_
_atom_site_type_symbol
_atom_site_label
_atom_site_fract_x
_atom_site_fract_y
_atom_site_fract_z
Si Si1 0.079612 0.760864 0.687224
Si Si2 0.772346 0.403357 0.567984
Si Si3 0.910605 0.653127 0.447685
Si Si4 0.981255 0.578990 0.578436
Si Si5 0.695239 0.210642 0.823989
Si Si6 0.099673 0.180231 0.935864
Si Si7 0.371055 0.494839 0.867613
O O1 0.196490 0.747247 0.759702
O O2 0.078520 0.667381 0.635776
O O3 0.944715 0.736815 0.685133
O O4 0.100967 0.897802 0.672399
O O5 0.877511 0.513698 0.594349
O O6 0.842942 0.271533 0.597911
O O7 0.715051 0.396544 0.492157
O O8 0.649189 0.427384 0.578619
O O9 0.897667 0.650934 0.511089
O O10 0.791470 0.716006 0.387306
O O11 0.922261 0.516246 0.427506
O O12 0.041391 0.728749 0.467581
O O13 0.735189 0.068394 0.829397
O O14 0.990652 0.087749 0.888730
#
# Coordination Sequence:
#
# PCOD8134761 Si02
#       7
#     8   8   8   8   8   8   8
#     4  11  24  41  63  91 121 165 210 249 311 375
#     4  10  19  36  61  91 125 162 194 260 307 363
#     4   9  20  38  61  90 126 163 201 264 312 359
#     4  10  20  36  63  94 122 163 208 253 316 369
#     4  10  24  44  60  89 127 161 209 259 300 375
#     4   9  20  36  57  91 128 153 208 245 309 374
#     4  11  22  41  62  87 120 167 199 255 307 361
#
# _framework density 20.524158
#
# number of rings (size 3 to 8) (size 9 to 14) (size 15 to 20)
#    0.000    2.000    1.429    1.286    4.000    2.857 
#    0.000    0.000    0.000    0.000    0.000    0.000 
#    0.000    0.000    0.000    0.000    0.000    0.000 
#
# Total GULP energy -346873.313538 kJ/mol
# GULP energy per Si atom -12388.332626 kJ/mol
# Density = 2.047744 g / cm^3
# Si number density = 20.524158 Si / 1000 Ang^3
#
#
#
# Elastic Constant Matrix: (Units=GPa)
#
#
# Indices 1 2 3 4 5 6 
#
# 1 55.3078 28.2755 12.7718 0.0000 0.8431 0.0000
# 2 28.2755 118.1383 46.2571 0.0000 -9.5739 0.0000
# 3 12.7718 46.2571 109.8079 0.0000 -4.1597 0.0000
# 4 0.0000 0.0000 0.0000 22.2772 0.0000 -0.9332
# 5 0.8431 -9.5739 -4.1597 0.0000 15.1666 0.0000
# 6 0.0000 0.0000 0.0000 -0.9332 0.0000 30.4960
#
#
#
# Elastic Compliance Matrix: (Units=1/GPa)
#
#
# Indices 1 2 3 4 5 6 
#
# 1 0.020911 -0.005215 -0.000408 0.000000 -0.004566 0.000000
# 2 -0.005215 0.011874 -0.004144 0.000000 0.006649 0.000000
# 3 -0.000408 -0.004144 0.010915 0.000000 0.000401 0.000000
# 4 0.000000 0.000000 0.000000 0.044947 0.000000 0.001375
# 5 -0.004566 0.006649 0.000401 0.000000 0.070495 0.000000
# 6 0.000000 0.000000 0.000000 0.001375 0.000000 0.032833
#
#
# Mechanical properties :
#
#
# Convention : Reuss Voigt Hill
#
# Bulk Modulus (GPa) = 41.38046 50.87367 46.12706
# Shear Modulus (GPa) = 22.77240 26.65125 24.71182
#
# Velocity S-wave (km/s) = 3.33459 3.60742 3.47369
# Velocity P-wave (km/s) = 5.91875 6.49556 6.21385
#
# Compressibility (1/GPa) = 0.02416600
#
# Stress axis : x y z
#
# Youngs Moduli (GPa) = 47.82250 84.21704 91.61725
#
# Poissons Ratio (x) = 0.43919 0.03740
# Poissons Ratio (y) = 0.24940 0.37962
# Poissons Ratio (z) = 0.01952 0.34896
#
# Static dielectric constant tensor:
#      x y z
#    x 3.708380 0.000000 0.046030 
#    y 0.000000 3.914940 0.000000 
#    z 0.046030 0.000000 3.883960 
# 
# 
# High freq. dielectric constant tensor:
#      x y z
#    x 1.795740 0.000000 0.000140 
#    y 0.000000 1.814270 0.000000 
#    z 0.000140 0.000000 1.783450 
# 
# From -- ./inp_files/237625.got.cif
#   From: 2010.06.25/outbox.cif.g09.slc.cpg/sg15_119_cif.got.tgz:237625.got - 2010.06.28 07:06:18.
