data_PCOD8134561
_publ_section_title
;
Structure prediction by ZEFSAII (Michael W. Deem and Ramdas Pophale) SiO2 
 PCOD8134561
Probable space group: C 2/C
;
_chemical_formula_sum "Si O2"
_cell_formula_units_Z 44
_cell_length_a 17.890981
_cell_length_b 11.505064
_cell_length_c 22.594991
_cell_angle_alpha 90.000000
_cell_angle_beta 26.752182
_cell_angle_gamma 90.000000
_cell_volume 2093.513118
_symmetry_space_group_name_H-M "C 2/C"
_symmetry_group_IT_number 15
_symmetry_cell_setting 'monoclinic'
loop_
_space_group_symop_operation_xyz
x,y,z
-x,y,1/2-z
-x,-y,-z
x,-y,1/2+z
1/2+x,1/2+y,z
1/2-x,1/2+y,1/2-z
1/2-x,1/2-y,-z
1/2+x,1/2-y,1/2+z
loop_
_atom_site_type_symbol
_atom_site_label
_atom_site_fract_x
_atom_site_fract_y
_atom_site_fract_z
Si Si1 0.000000 0.724657 0.250000
Si Si2 0.906830 0.149777 0.233115
Si Si3 0.343015 0.717734 0.153684
Si Si4 0.286279 0.430332 0.584818
Si Si5 0.812591 0.189865 0.546940
Si Si6 0.913362 0.108659 0.708659
O O1 0.838716 0.643195 0.367439
O O2 0.003254 0.803339 0.189420
O O3 0.793917 0.184329 0.255831
O O4 0.838995 0.218173 0.339033
O O5 0.100878 0.183304 0.079986
O O6 0.884193 0.013389 0.262851
O O7 0.279057 0.613120 0.157346
O O8 0.543203 0.727900 0.008386
O O9 0.260481 0.838790 0.191557
O O10 0.236318 0.565222 0.618423
O O11 0.471772 0.414220 0.429184
#
# Coordination Sequence:
#
# PCOD8134561 Si02
#       6
#     4   8   8   8   8   8
#     4  10  22  38  56  82 104 154 204 234 270 334
#     4   9  20  33  55  84 117 150 182 232 289 338
#     4   9  19  29  57  83 114 143 185 227 291 336
#     4  10  19  36  58  79 113 155 190 234 279 342
#     4   9  19  34  54  83 118 146 187 229 291 342
#     4  10  20  36  56  82 116 149 189 239 281 332
#
# _framework density 21.017302999999998
#
# number of rings (size 3 to 8) (size 9 to 14) (size 15 to 20)
#    1.091    1.455    0.000    2.182    2.545    0.727 
#    0.000   10.000    0.000    4.364    0.000    0.000 
#    0.000    0.000    0.000    0.000    0.000    0.000 
#
# Total GULP energy -272621.710706 kJ/mol
# GULP energy per Si atom -12391.895941 kJ/mol
# Density = 2.096947 g / cm^3
# Si number density = 21.017303 Si / 1000 Ang^3
#
#
#
# Elastic Constant Matrix: (Units=GPa)
#
#
# Indices 1 2 3 4 5 6 
#
# 1 26.3413 -2.8544 11.5834 -0.0036 9.2594 -0.0015
# 2 -2.8544 139.8906 64.8559 -0.0004 2.7182 -0.0025
# 3 11.5834 64.8559 71.6066 0.0075 3.2814 -0.0031
# 4 -0.0036 -0.0004 0.0075 40.4426 0.0015 6.8549
# 5 9.2594 2.7182 3.2814 0.0015 19.5666 0.0011
# 6 -0.0015 -0.0025 -0.0031 6.8549 0.0011 -2.8566
#
#
#
# Elastic Compliance Matrix: (Units=1/GPa)
#
#
# Indices 1 2 3 4 5 6 
#
# 1 0.054389 0.008869 -0.015716 0.000010 -0.024335 -0.000006
# 2 0.008869 0.013770 -0.013732 0.000003 -0.003807 0.000004
# 3 -0.015716 -0.013732 0.028737 -0.000004 0.004525 -0.000018
# 4 0.000010 0.000003 -0.000004 0.017577 -0.000008 0.042179
# 5 -0.024335 -0.003807 0.004525 -0.000008 0.062393 0.000016
# 6 -0.000006 0.000004 -0.000018 0.042179 0.000016 -0.248853
#
#
# Mechanical properties :
#
#
# Convention : Reuss Voigt Hill
#
# Bulk Modulus (GPa) = 17.94090 42.77869 30.35979
# Shear Modulus (GPa) = -408.18131 22.38077 -192.90027
#
# Velocity S-wave (km/s) = -13.95112 3.26678 -9.59067
# Velocity P-wave (km/s) = 15.84161 5.88450 10.40023
#
# Compressibility (1/GPa) = 0.05573857
#
# Stress axis : x y z
#
# Youngs Moduli (GPa) = 18.38606 72.62351 34.79811
#
# Poissons Ratio (x) = -0.64408 0.54687
# Poissons Ratio (y) = -0.16306 0.47784
# Poissons Ratio (z) = 0.28895 0.99724
#
# Static dielectric constant tensor:
#      x y z
#    x 3.516030 0.000000 -0.078620 
#    y 0.000000 3.802930 0.000010 
#    z -0.078620 0.000010 3.535380 
# 
# 
# High freq. dielectric constant tensor:
#      x y z
#    x 1.811810 0.000000 -0.000470 
#    y 0.000000 1.825140 0.000000 
#    z -0.000470 0.000000 1.805360 
# 
# From -- ./inp_files/277012.got.cif
#   From: 2010.06.25/outbox.cif.g09.slc.cpg/sg15_139_cif.got.tgz:277012.got - 2010.06.28 07:06:18.
