data_PCOD8134843
_publ_section_title
;
Structure prediction by ZEFSAII (Michael W. Deem and Ramdas Pophale) SiO2 
 PCOD8134843
Probable space group: C 2/C
;
_chemical_formula_sum "Si O2"
_cell_formula_units_Z 52
_cell_length_a 12.216966
_cell_length_b 18.954746
_cell_length_c 26.952557
_cell_angle_alpha 90.000000
_cell_angle_beta 153.264354
_cell_angle_gamma 90.000000
_cell_volume 2807.843454
_symmetry_space_group_name_H-M "C 2/C"
_symmetry_group_IT_number 15
_symmetry_cell_setting 'monoclinic'
loop_
_space_group_symop_operation_xyz
x,y,z
-x,y,1/2-z
-x,-y,-z
x,-y,1/2+z
1/2+x,1/2+y,z
1/2-x,1/2+y,1/2-z
1/2-x,1/2-y,-z
1/2+x,1/2-y,1/2+z
loop_
_atom_site_type_symbol
_atom_site_label
_atom_site_fract_x
_atom_site_fract_y
_atom_site_fract_z
Si Si1 0.728771 0.245657 0.658507
Si Si2 0.577494 0.367789 0.923786
Si Si3 0.093730 0.366933 0.184062
Si Si4 0.500000 0.800576 0.250000
Si Si5 0.808994 0.461512 0.889918
Si Si6 0.677046 0.808350 0.569853
Si Si7 0.638761 0.507041 0.224541
O O1 0.602247 0.321757 0.615191
O O2 0.714949 0.196470 0.701750
O O3 0.593435 0.207159 0.558553
O O4 0.000000 0.259172 0.750000
O O5 0.641096 0.317505 0.903153
O O6 0.431225 0.438435 0.847728
O O7 0.828126 0.387691 0.053885
O O8 0.288188 0.430753 0.266286
O O9 0.066387 0.348036 0.230196
O O10 0.732401 0.753317 0.357799
O O11 0.825725 0.378168 0.899545
O O12 0.566014 0.492770 0.816161
O O13 0.861147 0.473493 0.852188
O O14 0.000000 0.500000 0.000000
#
# Coordination Sequence:
#
# PCOD8134843 Si02
#       7
#     8   8   8   4   8   8   8
#     4  11  22  38  62  91 124 154 199 255 310 358
#     4  10  19  43  61  85 118 164 202 242 311 362
#     4  11  23  39  65  88 118 164 206 252 299 369
#     4  12  20  40  64  86 116 164 220 242 294 366
#     4  10  20  34  59  90 125 150 191 260 319 356
#     4  10  19  36  64  88 113 160 204 248 299 367
#     4  10  21  35  59  88 116 158 204 244 300 366
#
# _framework density 18.519551
#
# number of rings (size 3 to 8) (size 9 to 14) (size 15 to 20)
#    0.000    1.538    3.077    5.538    4.308    0.000 
#    1.385    4.615    0.000    0.000    0.000    0.000 
#    0.000    0.000    0.000    0.000    0.000    0.000 
#
# Total GULP energy -322099.474798 kJ/mol
# GULP energy per Si atom -12388.441338 kJ/mol
# Density = 1.847740 g / cm^3
# Si number density = 18.519551 Si / 1000 Ang^3
#
#
#
# Elastic Constant Matrix: (Units=GPa)
#
#
# Indices 1 2 3 4 5 6 
#
# 1 59.4608 42.0868 19.9234 0.0003 -11.3800 0.0099
# 2 42.0868 111.4343 37.4336 0.0013 1.5877 -0.0083
# 3 19.9234 37.4336 60.4647 0.0013 -6.8339 -0.1037
# 4 0.0003 0.0013 0.0013 41.1288 -0.0010 2.2618
# 5 -11.3800 1.5877 -6.8339 -0.0010 34.3182 0.0066
# 6 0.0099 -0.0083 -0.1037 2.2618 0.0066 121.0120
#
#
#
# Elastic Compliance Matrix: (Units=1/GPa)
#
#
# Indices 1 2 3 4 5 6 
#
# 1 0.025538 -0.009172 -0.001771 0.000001 0.008540 -0.000005
# 2 -0.009172 0.014755 -0.006684 0.000000 -0.005055 -0.000004
# 3 -0.001771 -0.006684 0.021718 -0.000001 0.004047 0.000018
# 4 0.000001 0.000000 -0.000001 0.024339 0.000001 -0.000455
# 5 0.008540 -0.005055 0.004047 0.000001 0.033011 0.000001
# 6 -0.000005 -0.000004 0.000018 -0.000455 0.000001 0.008272
#
#
# Mechanical properties :
#
#
# Convention : Reuss Voigt Hill
#
# Bulk Modulus (GPa) = 37.37461 47.80524 42.58992
# Shear Modulus (GPa) = 29.10269 48.08622 38.59445
#
# Velocity S-wave (km/s) = 3.96846 5.10113 4.57002
# Velocity P-wave (km/s) = 6.42053 7.78233 7.13400
#
# Compressibility (1/GPa) = 0.02675613
#
# Stress axis : x y z
#
# Youngs Moduli (GPa) = 39.15805 67.77223 46.04519
#
# Poissons Ratio (x) = 0.62159 0.08156
# Poissons Ratio (y) = 0.35915 0.30778
# Poissons Ratio (z) = 0.06936 0.45300
#
# Static dielectric constant tensor:
#      x y z
#    x 3.175870 0.000000 -0.251690 
#    y 0.000000 3.260320 0.000020 
#    z -0.251690 0.000020 2.917660 
# 
# 
# High freq. dielectric constant tensor:
#      x y z
#    x 1.692850 0.000000 -0.017400 
#    y 0.000000 1.718040 0.000000 
#    z -0.017400 0.000000 1.731520 
# 
# From -- ./inp_files/293491.got.cif
#   From: 2010.06.25/outbox.cif.g09.slc.cpg/sg15_147_cif.got.tgz:293491.got - 2010.06.28 07:06:18.
