data_PCOD8134111
_publ_section_title
;
Structure prediction by ZEFSAII (Michael W. Deem and Ramdas Pophale) SiO2 
 PCOD8134111
Probable space group: C 2/C
;
_chemical_formula_sum "Si O2"
_cell_formula_units_Z 64
_cell_length_a 25.254528
_cell_length_b 22.694193
_cell_length_c 12.572982
_cell_angle_alpha 90.000000
_cell_angle_beta 153.092262
_cell_angle_gamma 90.000000
_cell_volume 3261.097632
_symmetry_space_group_name_H-M "C 2/C"
_symmetry_group_IT_number 15
_symmetry_cell_setting 'monoclinic'
loop_
_space_group_symop_operation_xyz
x,y,z
-x,y,1/2-z
-x,-y,-z
x,-y,1/2+z
1/2+x,1/2+y,z
1/2-x,1/2+y,1/2-z
1/2-x,1/2-y,-z
1/2+x,1/2-y,1/2+z
loop_
_atom_site_type_symbol
_atom_site_label
_atom_site_fract_x
_atom_site_fract_y
_atom_site_fract_z
Si Si1 0.226777 0.072402 0.994903
Si Si2 0.797828 0.973573 0.380610
Si Si3 0.442436 0.601402 0.990737
Si Si4 0.390509 0.987963 0.623493
Si Si5 0.205718 0.866141 0.997307
Si Si6 0.399427 0.882460 0.185536
Si Si7 0.124233 0.781751 0.014712
Si Si8 0.357929 0.158678 0.377162
O O1 0.338069 0.056396 0.118553
O O2 0.264173 0.128518 0.131987
O O3 0.179211 0.020371 0.985076
O O4 0.112107 0.087990 0.721501
O O5 0.913124 0.950425 0.523475
O O6 0.737483 0.915670 0.324356
O O7 0.711178 0.003329 0.141794
O O8 0.581475 0.607827 0.234563
O O9 0.387122 0.663158 0.927784
O O10 0.500000 0.962392 0.750000
O O11 0.425015 0.047835 0.747217
O O12 0.197263 0.803607 0.042820
O O13 0.286871 0.856833 0.042393
O O14 0.509669 0.846449 0.431318
O O15 0.369475 0.874626 0.009011
O O16 0.000000 0.758137 0.750000
O O17 0.183467 0.726604 0.181151
#
# Coordination Sequence:
#
# PCOD8134111 Si02
#       8
#     8   8   8   8   8   8   8   8
#     4  11  22  36  61  86 118 158 188 237 296 343
#     4  10  19  35  56  82 114 155 192 229 288 342
#     4   9  22  40  56  84 113 153 198 234 287 343
#     4  11  21  35  54  86 128 151 185 235 293 354
#     4  10  21  38  61  84 114 153 199 238 285 340
#     4  11  20  35  58  92 112 145 193 240 287 354
#     4   9  18  40  61  80 112 151 193 241 284 336
#     4  11  22  37  59  90 115 148 195 240 293 342
#
# _framework density 19.625294
#
# number of rings (size 3 to 8) (size 9 to 14) (size 15 to 20)
#    0.000    1.750    5.000    1.125    1.750    2.500 
#    2.250    0.625    0.000    0.000    3.250    0.000 
#    0.000    0.000    0.000    0.000    0.000    0.000 
#
# Total GULP energy -396594.200758 kJ/mol
# GULP energy per Si atom -12393.568774 kJ/mol
# Density = 1.958063 g / cm^3
# Si number density = 19.625294 Si / 1000 Ang^3
#
#
#
# Elastic Constant Matrix: (Units=GPa)
#
#
# Indices 1 2 3 4 5 6 
#
# 1 88.6656 35.1132 45.4975 0.0000 10.3241 0.0000
# 2 35.1132 111.5153 36.7485 0.0000 -2.9846 0.0000
# 3 45.4975 36.7485 71.8818 0.0000 -3.9227 0.0000
# 4 0.0000 0.0000 0.0000 28.1904 0.0000 -9.7963
# 5 10.3241 -2.9846 -3.9227 0.0000 34.2308 0.0000
# 6 0.0000 0.0000 0.0000 -9.7963 0.0000 15.9207
#
#
#
# Elastic Compliance Matrix: (Units=1/GPa)
#
#
# Indices 1 2 3 4 5 6 
#
# 1 0.018714 -0.002467 -0.010972 0.000000 -0.007117 0.000000
# 2 -0.002467 0.011113 -0.004051 0.000000 0.001249 0.000000
# 3 -0.010972 -0.004051 0.023234 0.000000 0.005619 0.000000
# 4 0.000000 0.000000 0.000000 0.045121 0.000000 0.027764
# 5 -0.007117 0.001249 0.005619 0.000000 0.032113 0.000000
# 6 0.000000 0.000000 0.000000 0.027764 0.000000 0.079895
#
#
# Mechanical properties :
#
#
# Convention : Reuss Voigt Hill
#
# Bulk Modulus (GPa) = 55.31084 56.30901 55.80992
# Shear Modulus (GPa) = 19.90455 25.98195 22.94325
#
# Velocity S-wave (km/s) = 3.18815 3.64249 3.42287
# Velocity P-wave (km/s) = 6.46506 6.81503 6.64235
#
# Compressibility (1/GPa) = 0.01807964
#
# Stress axis : x y z
#
# Youngs Moduli (GPa) = 53.43491 89.98637 43.03963
#
# Poissons Ratio (x) = 0.22203 0.47224
# Poissons Ratio (y) = 0.13184 0.17437
# Poissons Ratio (z) = 0.58630 0.36457
#
# Static dielectric constant tensor:
#      x y z
#    x 3.677360 0.000000 0.005670 
#    y 0.000000 3.545700 0.000000 
#    z 0.005670 0.000000 3.409620 
# 
# 
# High freq. dielectric constant tensor:
#      x y z
#    x 1.765320 0.000000 -0.004450 
#    y 0.000000 1.758630 0.000000 
#    z -0.004450 0.000000 1.744150 
# 
# From -- ./inp_files/120250.got.cif
#   From: 2010.06.25/outbox.cif.g09.slc.cpg/sg15_61_cif.got.tgz:120250.got - 2010.06.28 07:06:18.
