data_PCOD8134961
_publ_section_title
;
Structure prediction by ZEFSAII (Michael W. Deem and Ramdas Pophale) SiO2 
 PCOD8134961
Probable space group: C 2/C
;
_chemical_formula_sum "Si O2"
_cell_formula_units_Z 64
_cell_length_a 14.777852
_cell_length_b 9.887123
_cell_length_c 26.469184
_cell_angle_alpha 90.000000
_cell_angle_beta 51.137474
_cell_angle_gamma 90.000000
_cell_volume 3011.384101
_symmetry_space_group_name_H-M "C 2/C"
_symmetry_group_IT_number 15
_symmetry_cell_setting 'monoclinic'
loop_
_space_group_symop_operation_xyz
x,y,z
-x,y,1/2-z
-x,-y,-z
x,-y,1/2+z
1/2+x,1/2+y,z
1/2-x,1/2+y,1/2-z
1/2-x,1/2-y,-z
1/2+x,1/2-y,1/2+z
loop_
_atom_site_type_symbol
_atom_site_label
_atom_site_fract_x
_atom_site_fract_y
_atom_site_fract_z
Si Si1 0.822669 0.676361 0.300664
Si Si2 0.581039 0.349970 0.085652
Si Si3 0.595815 0.178000 0.589195
Si Si4 0.766004 0.400011 0.103746
Si Si5 0.075179 0.917428 0.874197
Si Si6 0.450830 0.315841 0.512865
Si Si7 0.037209 0.404813 0.657769
Si Si8 0.816791 0.684207 0.052588
O O1 0.802986 0.835640 0.323493
O O2 0.709661 0.609128 0.314785
O O3 0.924738 0.653020 0.225650
O O4 0.852569 0.602058 0.343158
O O5 0.690853 0.396097 0.079040
O O6 0.469437 0.445578 0.136851
O O7 0.552526 0.193980 0.105053
O O8 0.612552 0.367105 0.015570
O O9 0.501995 0.295242 0.619042
O O10 0.700976 0.226204 0.588112
O O11 0.642902 0.135238 0.517462
O O12 0.527436 0.055047 0.639772
O O13 0.884292 0.315584 0.057834
O O14 0.796202 0.558500 0.098333
O O15 0.057381 0.932012 0.941368
O O16 0.584401 0.275271 0.455812
#
# Coordination Sequence:
#
# PCOD8134961 Si02
#       8
#     8   8   8   8   8   8   8   8
#     4   9  22  40  62  82 111 155 203 252 296 338
#     4  11  21  35  57  87 116 153 199 237 296 352
#     4  10  21  37  60  87 126 158 190 241 306 358
#     4  10  19  37  58  85 121 154 193 247 292 352
#     4  10  21  38  57  85 122 152 193 247 294 353
#     4  10  21  33  55  90 123 156 189 234 298 363
#     4  10  22  41  62  80 115 158 202 250 294 351
#     4  10  20  35  58  93 126 155 190 240 301 368
#
# _framework density 21.252686000000001
#
# number of rings (size 3 to 8) (size 9 to 14) (size 15 to 20)
#    0.000    2.000    1.250    1.875    1.750    5.000 
#    0.000    0.000    5.500    0.000    0.000    0.000 
#    0.000    0.000    0.000    0.000    0.000    0.000 
#
# Total GULP energy -396706.182088 kJ/mol
# GULP energy per Si atom -12397.068190 kJ/mol
# Density = 2.120431 g / cm^3
# Si number density = 21.252686 Si / 1000 Ang^3
#
#
#
# Elastic Constant Matrix: (Units=GPa)
#
#
# Indices 1 2 3 4 5 6 
#
# 1 88.6375 5.9297 15.2565 0.0000 -20.9503 0.0000
# 2 5.9297 73.6055 20.5577 0.0000 -5.9835 0.0000
# 3 15.2565 20.5577 60.3793 0.0000 -12.4683 0.0000
# 4 0.0000 0.0000 0.0000 29.7822 0.0000 -1.5813
# 5 -20.9503 -5.9835 -12.4683 0.0000 30.6926 0.0000
# 6 0.0000 0.0000 0.0000 -1.5813 0.0000 22.5718
#
#
#
# Elastic Compliance Matrix: (Units=1/GPa)
#
#
# Indices 1 2 3 4 5 6 
#
# 1 0.013603 0.000075 -0.001683 0.000000 0.008616 0.000000
# 2 0.000075 0.015038 -0.004937 0.000000 0.000977 0.000000
# 3 -0.001683 -0.004937 0.019902 0.000000 0.005973 0.000000
# 4 0.000000 0.000000 0.000000 0.033702 0.000000 0.002361
# 5 0.008616 0.000977 0.005973 0.000000 0.041079 0.000000
# 6 0.000000 0.000000 0.000000 0.002361 0.000000 0.044468
#
#
# Mechanical properties :
#
#
# Convention : Reuss Voigt Hill
#
# Bulk Modulus (GPa) = 28.20779 34.01223 31.11001
# Shear Modulus (GPa) = 25.94671 28.66788 27.30730
#
# Velocity S-wave (km/s) = 3.49788 3.67673 3.58842
# Velocity P-wave (km/s) = 5.44196 5.83635 5.64260
#
# Compressibility (1/GPa) = 0.03545120
#
# Stress axis : x y z
#
# Youngs Moduli (GPa) = 73.51235 66.49682 50.24671
#
# Poissons Ratio (x) = -0.00497 0.08459
# Poissons Ratio (y) = -0.00549 0.24808
# Poissons Ratio (z) = 0.12375 0.32832
#
# Static dielectric constant tensor:
#      x y z
#    x 4.034140 0.000000 -0.127340 
#    y 0.000000 3.809240 0.000000 
#    z -0.127340 0.000000 3.469570 
# 
# 
# High freq. dielectric constant tensor:
#      x y z
#    x 1.849880 0.000000 -0.016340 
#    y 0.000000 1.831690 0.000000 
#    z -0.016340 0.000000 1.796440 
# 
# From -- ./inp_files/313132.got.cif
#   From: 2010.06.25/outbox.cif.g09.slc.cpg/sg15_157_cif.got.tgz:313132.got - 2010.06.28 07:06:18.
