data_PCOD8134675
_publ_section_title
;
Structure prediction by ZEFSAII (Michael W. Deem and Ramdas Pophale) SiO2 
 PCOD8134675
Probable space group: C 2/C
;
_chemical_formula_sum "Si O2"
_cell_formula_units_Z 48
_cell_length_a 16.402249
_cell_length_b 28.433853
_cell_length_c 17.664043
_cell_angle_alpha 90.000000
_cell_angle_beta 162.834066
_cell_angle_gamma 90.000000
_cell_volume 2431.405169
_symmetry_space_group_name_H-M "C 2/C"
_symmetry_group_IT_number 15
_symmetry_cell_setting 'monoclinic'
loop_
_space_group_symop_operation_xyz
x,y,z
-x,y,1/2-z
-x,-y,-z
x,-y,1/2+z
1/2+x,1/2+y,z
1/2-x,1/2+y,1/2-z
1/2-x,1/2-y,-z
1/2+x,1/2-y,1/2+z
loop_
_atom_site_type_symbol
_atom_site_label
_atom_site_fract_x
_atom_site_fract_y
_atom_site_fract_z
Si Si1 0.116617 0.387719 0.270616
Si Si2 0.714032 0.637429 0.278127
Si Si3 0.817226 0.356093 0.514560
Si Si4 0.055834 0.718590 0.114963
Si Si5 0.481471 0.068521 0.045179
Si Si6 0.233585 0.526962 0.788609
O O1 0.387352 0.354876 0.501634
O O2 0.225497 0.442083 0.357903
O O3 0.000000 0.380460 0.250000
O O4 0.869916 0.375875 0.993982
O O5 0.844576 0.685829 0.365068
O O6 0.743666 0.597037 0.238435
O O7 0.500000 0.343975 0.250000
O O8 0.816050 0.402395 0.461043
O O9 0.952171 0.311556 0.593936
O O10 0.000000 0.367677 0.750000
O O11 0.306759 0.750230 0.364471
O O12 0.512642 0.015095 0.102350
O O13 0.310259 0.065392 0.815964
O O14 0.500000 0.500000 0.000000
#
# Coordination Sequence:
#
# PCOD8134675 Si02
#       6
#     8   8   8   8   8   8
#     4  11  22  37  60  90 121 156 197 243 303 353
#     4  10  21  40  62  84 118 155 196 244 296 359
#     4  11  25  40  59  89 129 165 195 246 311 359
#     4  11  23  41  68  93 114 153 206 247 296 371
#     4   9  21  37  56  83 116 165 209 243 289 348
#     4  10  19  36  60  83 118 161 209 255 282 337
#
# _framework density 19.741671
#
# number of rings (size 3 to 8) (size 9 to 14) (size 15 to 20)
#    0.000    1.667    1.667    2.500    2.333    5.333 
#    0.000    0.000    0.000   10.000    0.000    0.000 
#    0.000    0.000    0.000    0.000    0.000    0.000 
#
# Total GULP energy -297452.003549 kJ/mol
# GULP energy per Si atom -12393.833481 kJ/mol
# Density = 1.969674 g / cm^3
# Si number density = 19.741671 Si / 1000 Ang^3
#
#
#
# Elastic Constant Matrix: (Units=GPa)
#
#
# Indices 1 2 3 4 5 6 
#
# 1 112.4370 55.3362 33.7501 0.0165 11.2112 0.0136
# 2 55.3362 109.6683 33.4056 0.0210 -4.9012 0.0128
# 3 33.7501 33.4056 103.2768 0.0246 11.0730 0.0219
# 4 0.0165 0.0210 0.0246 11.4703 0.0126 -0.9746
# 5 11.2112 -4.9012 11.0730 0.0126 29.1396 0.0093
# 6 0.0136 0.0128 0.0219 -0.9746 0.0093 17.8644
#
#
#
# Elastic Compliance Matrix: (Units=1/GPa)
#
#
# Indices 1 2 3 4 5 6 
#
# 1 0.013042 -0.006329 -0.001629 0.000002 -0.005463 0.000000
# 2 -0.006329 0.013456 -0.002907 -0.000016 0.005803 -0.000005
# 3 -0.001629 -0.002907 0.011614 -0.000013 -0.004275 -0.000009
# 4 0.000002 -0.000016 -0.000013 0.087588 -0.000038 0.004778
# 5 -0.005463 0.005803 -0.004275 -0.000038 0.039020 -0.000017
# 6 0.000000 -0.000005 -0.000009 0.004778 -0.000017 0.056238
#
#
# Mechanical properties :
#
#
# Convention : Reuss Voigt Hill
#
# Bulk Modulus (GPa) = 61.03782 63.37399 62.20590
# Shear Modulus (GPa) = 20.14919 25.22087 22.68503
#
# Velocity S-wave (km/s) = 3.19822 3.57815 3.39351
# Velocity P-wave (km/s) = 6.68008 7.01728 6.85076
#
# Compressibility (1/GPa) = 0.01638329
#
# Stress axis : x y z
#
# Youngs Moduli (GPa) = 76.67289 74.31380 86.10532
#
# Poissons Ratio (x) = 0.47032 0.14029
# Poissons Ratio (y) = 0.48525 0.25027
# Poissons Ratio (z) = 0.12492 0.21600
#
# Static dielectric constant tensor:
#      x y z
#    x 3.300600 -0.000210 0.096730 
#    y -0.000210 0.811380 0.000540 
#    z 0.096730 0.000540 3.661800 
# 
# 
# High freq. dielectric constant tensor:
#      x y z
#    x 1.761120 0.000000 0.004210 
#    y 0.000000 1.771950 0.000000 
#    z 0.004210 0.000000 1.775720 
# 
# From -- ./inp_files/157698.got.cif
#   From: 2010.06.25/outbox.cif.g09.slc.cpg/sg15_79_cif.got.tgz:157698.got - 2010.06.28 07:06:18.
