data_PCOD8134529
_publ_section_title
;
Structure prediction by ZEFSAII (Michael W. Deem and Ramdas Pophale) SiO2 
 PCOD8134529
Probable space group: C 2/C
;
_chemical_formula_sum "Si O2"
_cell_formula_units_Z 56
_cell_length_a 26.019871
_cell_length_b 15.492752
_cell_length_c 9.430735
_cell_angle_alpha 90.000000
_cell_angle_beta 138.628202
_cell_angle_gamma 90.000000
_cell_volume 2512.713497
_symmetry_space_group_name_H-M "C 2/C"
_symmetry_group_IT_number 15
_symmetry_cell_setting 'monoclinic'
loop_
_space_group_symop_operation_xyz
x,y,z
-x,y,1/2-z
-x,-y,-z
x,-y,1/2+z
1/2+x,1/2+y,z
1/2-x,1/2+y,1/2-z
1/2-x,1/2-y,-z
1/2+x,1/2-y,1/2+z
loop_
_atom_site_type_symbol
_atom_site_label
_atom_site_fract_x
_atom_site_fract_y
_atom_site_fract_z
Si Si1 0.138809 0.889356 0.372021
Si Si2 0.679227 0.495038 0.708688
Si Si3 0.199913 0.630189 0.622197
Si Si4 0.468230 0.077457 0.842575
Si Si5 0.081266 0.704449 0.188308
Si Si6 0.802256 0.372664 0.063922
Si Si7 0.212924 0.292032 0.746668
O O1 0.127735 0.942109 0.202170
O O2 0.084213 0.803047 0.256883
O O3 0.230261 0.867567 0.580729
O O4 0.121082 0.950767 0.472375
O O5 0.751660 0.542249 0.779990
O O6 0.721231 0.425041 0.895130
O O7 0.116441 0.633451 0.371375
O O8 0.182779 0.659842 0.746857
O O9 0.249715 0.700438 0.635506
O O10 0.500000 0.067641 0.750000
O O11 0.375036 0.071441 0.656230
O O12 0.495890 0.169748 0.970120
O O13 0.500000 0.000000 0.000000
O O14 0.128818 0.699974 0.140320
O O15 0.795131 0.292647 0.940890
#
# Coordination Sequence:
#
# PCOD8134529 Si02
#       7
#     8   8   8   8   8   8   8
#     4  10  20  34  58  87 122 159 194 257 313 364
#     4  11  19  32  57  89 121 152 193 256 316 353
#     4  11  20  34  58  86 122 150 197 261 308 364
#     4  12  28  42  60  84 122 173 210 245 291 373
#     4  11  21  40  57  81 126 172 208 240 306 377
#     4  11  24  35  55  86 123 153 199 246 305 365
#     4  10  19  36  57  83 119 161 197 248 313 366
#
# _framework density 22.286663999999998
#
# number of rings (size 3 to 8) (size 9 to 14) (size 15 to 20)
#    0.000    1.143    5.714    2.143    4.000    0.000 
#    0.000    0.000    0.000    0.000    0.000    4.000 
#    8.571    0.143    0.000    0.000    0.000    0.000 
#
# Total GULP energy -347054.633456 kJ/mol
# GULP energy per Si atom -12394.808338 kJ/mol
# Density = 2.223594 g / cm^3
# Si number density = 22.286664 Si / 1000 Ang^3
#
#
#
# Elastic Constant Matrix: (Units=GPa)
#
#
# Indices 1 2 3 4 5 6 
#
# 1 48.5259 8.9190 22.1150 0.0000 -24.2433 0.0000
# 2 8.9190 89.6731 28.6330 0.0000 -9.7478 0.0000
# 3 22.1150 28.6330 71.3602 0.0000 -26.1322 0.0000
# 4 0.0000 0.0000 0.0000 41.6451 0.0000 -6.9838
# 5 -24.2433 -9.7478 -26.1322 0.0000 38.1601 0.0000
# 6 0.0000 0.0000 0.0000 -6.9838 0.0000 22.1700
#
#
#
# Elastic Compliance Matrix: (Units=1/GPa)
#
#
# Indices 1 2 3 4 5 6 
#
# 1 0.030719 -0.000182 -0.003093 0.000000 0.017352 0.000000
# 2 -0.000182 0.012794 -0.005236 0.000000 -0.000433 0.000000
# 3 -0.003093 -0.005236 0.021173 0.000000 0.011197 0.000000
# 4 0.000000 0.000000 0.000000 0.025352 0.000000 0.007986
# 5 0.017352 -0.000433 0.011197 0.000000 0.044786 0.000000
# 6 0.000000 0.000000 0.000000 0.007986 0.000000 0.047622
#
#
# Mechanical properties :
#
#
# Convention : Reuss Voigt Hill
#
# Bulk Modulus (GPa) = 20.97931 36.54366 28.76149
# Shear Modulus (GPa) = 23.21734 30.38785 26.80260
#
# Velocity S-wave (km/s) = 3.23113 3.69657 3.47166
# Velocity P-wave (km/s) = 4.83261 5.88661 5.38546
#
# Compressibility (1/GPa) = 0.04766600
#
# Stress axis : x y z
#
# Youngs Moduli (GPa) = 32.55279 78.15866 47.22953
#
# Poissons Ratio (x) = 0.01419 0.14608
# Poissons Ratio (y) = 0.00591 0.24729
# Poissons Ratio (z) = 0.10069 0.40923
#
# Static dielectric constant tensor:
#      x y z
#    x 3.671290 0.000000 -0.254200 
#    y 0.000000 3.991480 0.000000 
#    z -0.254200 0.000000 4.068520 
# 
# 
# High freq. dielectric constant tensor:
#      x y z
#    x 1.851730 0.000000 -0.040040 
#    y 0.000000 1.873750 0.000000 
#    z -0.040040 0.000000 1.869220 
# 
# From -- ./inp_files/67171.got.cif
#   From: 2010.06.25/outbox.cif.g09.slc.cpg/sg15_34_cif.got.tgz:67171.got - 2010.06.28 07:06:18.
