data_PCOD8134605
_publ_section_title
;
Structure prediction by ZEFSAII (Michael W. Deem and Ramdas Pophale) SiO2 
 PCOD8134605
Probable space group: C 2/C
;
_chemical_formula_sum "Si O2"
_cell_formula_units_Z 56
_cell_length_a 17.967807
_cell_length_b 13.255911
_cell_length_c 13.155790
_cell_angle_alpha 90.000000
_cell_angle_beta 64.547606
_cell_angle_gamma 90.000000
_cell_volume 2829.318022
_symmetry_space_group_name_H-M "C 2/C"
_symmetry_group_IT_number 15
_symmetry_cell_setting 'monoclinic'
loop_
_space_group_symop_operation_xyz
x,y,z
-x,y,1/2-z
-x,-y,-z
x,-y,1/2+z
1/2+x,1/2+y,z
1/2-x,1/2+y,1/2-z
1/2-x,1/2-y,-z
1/2+x,1/2-y,1/2+z
loop_
_atom_site_type_symbol
_atom_site_label
_atom_site_fract_x
_atom_site_fract_y
_atom_site_fract_z
Si Si1 0.794257 0.451481 0.489291
Si Si2 0.831993 0.686093 0.446836
Si Si3 0.208374 0.900720 0.741079
Si Si4 0.378664 0.208015 0.639209
Si Si5 0.367953 0.789711 0.705717
Si Si6 0.963803 0.605714 0.986899
Si Si7 0.725955 0.605396 0.818515
O O1 0.807922 0.568532 0.458679
O O2 0.725183 0.430054 0.614817
O O3 0.881861 0.402581 0.467591
O O4 0.757974 0.391931 0.414628
O O5 0.750000 0.750000 0.500000
O O6 0.885468 0.717262 0.513171
O O7 0.885109 0.720044 0.316431
O O8 0.138694 0.814018 0.793539
O O9 0.291336 0.865654 0.746580
O O10 0.181546 0.000631 0.816896
O O11 0.467620 0.164674 0.621045
O O12 0.306107 0.126805 0.701599
O O13 0.446217 0.835164 0.602241
O O14 0.344092 0.687569 0.661132
O O15 0.000000 0.500000 0.000000
#
# Coordination Sequence:
#
# PCOD8134605 Si02
#       7
#     8   8   8   8   8   8   8
#     4  11  22  36  63  86 125 157 200 244 311 347
#     4  12  18  36  63  92 111 160 203 246 295 351
#     4  10  19  36  58  87 114 157 201 254 285 349
#     4  11  22  36  59  85 127 153 202 242 301 358
#     4  10  22  35  61  86 122 154 201 247 302 349
#     4  11  23  41  54  90 129 161 193 244 303 369
#     4  11  20  39  60  88 118 152 207 261 287 349
#
# _framework density 19.792756000000001
#
# number of rings (size 3 to 8) (size 9 to 14) (size 15 to 20)
#    0.000    1.143    7.143    0.857    0.000    6.286 
#    0.000    0.714    0.000    0.000    0.000    4.000 
#    0.000    0.000    0.000    0.000    0.000    0.000 
#
# Total GULP energy -347147.513902 kJ/mol
# GULP energy per Si atom -12398.125497 kJ/mol
# Density = 1.974771 g / cm^3
# Si number density = 19.792756 Si / 1000 Ang^3
#
#
#
# Elastic Constant Matrix: (Units=GPa)
#
#
# Indices 1 2 3 4 5 6 
#
# 1 52.8534 40.7834 37.7997 0.0000 -2.4114 0.0000
# 2 40.7834 129.6846 43.6999 0.0000 -8.3117 0.0000
# 3 37.7997 43.6999 92.6295 0.0000 7.8572 0.0000
# 4 0.0000 0.0000 0.0000 31.9186 0.0000 0.0659
# 5 -2.4114 -8.3117 7.8572 0.0000 39.5625 0.0000
# 6 0.0000 0.0000 0.0000 0.0659 0.0000 28.0039
#
#
#
# Elastic Compliance Matrix: (Units=1/GPa)
#
#
# Indices 1 2 3 4 5 6 
#
# 1 0.030917 -0.006226 -0.009895 0.000000 0.002542 0.000000
# 2 -0.006226 0.010745 -0.002734 0.000000 0.002421 0.000000
# 3 -0.009895 -0.002734 0.016501 0.000000 -0.004455 0.000000
# 4 0.000000 0.000000 0.000000 0.031330 0.000000 -0.000074
# 5 0.002542 0.002421 -0.004455 0.000000 0.026825 0.000000
# 6 0.000000 0.000000 0.000000 -0.000074 0.000000 0.035709
#
#
# Mechanical properties :
#
#
# Convention : Reuss Voigt Hill
#
# Bulk Modulus (GPa) = 48.88994 57.74816 53.31905
# Shear Modulus (GPa) = 25.43821 30.08931 27.76376
#
# Velocity S-wave (km/s) = 3.58890 3.90323 3.74936
# Velocity P-wave (km/s) = 6.47519 7.03941 6.76319
#
# Compressibility (1/GPa) = 0.02045410
#
# Stress axis : x y z
#
# Youngs Moduli (GPa) = 32.34499 93.06348 60.60116
#
# Poissons Ratio (x) = 0.57937 0.59964
# Poissons Ratio (y) = 0.20137 0.16570
# Poissons Ratio (z) = 0.32005 0.25446
#
# Static dielectric constant tensor:
#      x y z
#    x 3.581890 0.000000 0.103230 
#    y 0.000000 3.740000 0.000000 
#    z 0.103230 0.000000 3.952680 
# 
# 
# High freq. dielectric constant tensor:
#      x y z
#    x 1.737470 0.000000 0.009690 
#    y 0.000000 1.777550 0.000000 
#    z 0.009690 0.000000 1.780770 
# 
# From -- ./inp_files/105287.got.cif
#   From: 2010.06.25/outbox.cif.g09.slc.cpg/sg15_53_cif.got.tgz:105287.got - 2010.06.28 07:06:18.
