data_PCOD8134235
_publ_section_title
;
Structure prediction by ZEFSAII (Michael W. Deem and Ramdas Pophale) SiO2 
 PCOD8134235
Probable space group: C 2/C
;
_chemical_formula_sum "Si O2"
_cell_formula_units_Z 60
_cell_length_a 12.409104
_cell_length_b 21.308521
_cell_length_c 14.543348
_cell_angle_alpha 90.000000
_cell_angle_beta 129.486360
_cell_angle_gamma 90.000000
_cell_volume 2967.900862
_symmetry_space_group_name_H-M "C 2/C"
_symmetry_group_IT_number 15
_symmetry_cell_setting 'monoclinic'
loop_
_space_group_symop_operation_xyz
x,y,z
-x,y,1/2-z
-x,-y,-z
x,-y,1/2+z
1/2+x,1/2+y,z
1/2-x,1/2+y,1/2-z
1/2-x,1/2-y,-z
1/2+x,1/2-y,1/2+z
loop_
_atom_site_type_symbol
_atom_site_label
_atom_site_fract_x
_atom_site_fract_y
_atom_site_fract_z
Si Si1 0.180634 0.190800 0.753252
Si Si2 0.005061 0.670175 0.540009
Si Si3 0.753897 0.611823 0.475007
Si Si4 0.084210 0.669487 0.207808
Si Si5 0.594612 0.304137 0.006128
Si Si6 0.354529 0.380810 0.779403
Si Si7 0.500000 0.404801 0.250000
Si Si8 0.542087 0.490282 0.917143
O O1 0.345886 0.179206 0.831902
O O2 0.148003 0.261947 0.765909
O O3 0.097535 0.177380 0.614670
O O4 0.130433 0.140439 0.800618
O O5 0.919923 0.610405 0.538130
O O6 0.018709 0.667034 0.436471
O O7 0.906533 0.729827 0.508219
O O8 0.734209 0.666255 0.539404
O O9 0.669911 0.636482 0.339887
O O10 0.690423 0.546384 0.481122
O O11 0.210568 0.621420 0.258083
O O12 0.000000 0.644784 0.250000
O O13 0.460064 0.333784 0.885194
O O14 0.413122 0.450961 0.807262
O O15 0.454330 0.444981 0.136515
O O16 0.500000 0.500000 0.000000
#
# Coordination Sequence:
#
# PCOD8134235 Si02
#       8
#     8   8   8   8   8   8   4   8
#     4  11  23  37  56  94 127 158 197 252 313 361
#     4  10  22  36  57  88 127 158 190 249 315 362
#     4  10  20  39  60  87 116 158 204 248 300 364
#     4  10  21  38  61  87 123 162 200 245 309 381
#     4  10  19  35  58  90 121 157 196 239 307 370
#     4  10  19  39  64  86 117 152 207 255 296 361
#     4  12  22  40  62  88 120 158 206 262 300 350
#     4  11  22  39  65  86 113 159 212 256 298 360
#
# _framework density 20.216308000000001
#
# number of rings (size 3 to 8) (size 9 to 14) (size 15 to 20)
#    0.000    1.600    3.333    3.200    0.000    3.200 
#    2.400    0.667    2.933    0.000    0.000    0.000 
#    0.000    0.000    0.000    0.000    0.000    0.000 
#
# Total GULP energy -371798.072881 kJ/mol
# GULP energy per Si atom -12393.269096 kJ/mol
# Density = 2.017029 g / cm^3
# Si number density = 20.216308 Si / 1000 Ang^3
#
#
#
# Elastic Constant Matrix: (Units=GPa)
#
#
# Indices 1 2 3 4 5 6 
#
# 1 110.0244 38.5943 17.6719 0.0000 -7.3341 0.0000
# 2 38.5943 71.4662 7.0837 0.0000 1.2297 0.0000
# 3 17.6719 7.0837 51.1871 0.0000 2.8834 0.0000
# 4 0.0000 0.0000 0.0000 16.5657 0.0000 -7.7243
# 5 -7.3341 1.2297 2.8834 0.0000 27.0459 0.0000
# 6 0.0000 0.0000 0.0000 -7.7243 0.0000 36.8374
#
#
#
# Elastic Compliance Matrix: (Units=1/GPa)
#
#
# Indices 1 2 3 4 5 6 
#
# 1 0.012117 -0.006260 -0.003539 0.000000 0.003948 0.000000
# 2 -0.006260 0.017427 -0.000111 0.000000 -0.002478 0.000000
# 3 -0.003539 -0.000111 0.020953 0.000000 -0.003189 0.000000
# 4 0.000000 0.000000 0.000000 0.066908 0.000000 0.014030
# 5 0.003948 -0.002478 -0.003189 0.000000 0.038497 0.000000
# 6 0.000000 0.000000 0.000000 0.014030 0.000000 0.030088
#
#
# Mechanical properties :
#
#
# Convention : Reuss Voigt Hill
#
# Bulk Modulus (GPa) = 32.59883 39.93081 36.26482
# Shear Modulus (GPa) = 23.14430 27.37830 25.26130
#
# Velocity S-wave (km/s) = 3.38721 3.68403 3.53873
# Velocity P-wave (km/s) = 5.60871 6.15555 5.88848
#
# Compressibility (1/GPa) = 0.03067595
#
# Stress axis : x y z
#
# Youngs Moduli (GPa) = 82.53183 57.38174 47.72595
#
# Poissons Ratio (x) = 0.35924 0.16891
# Poissons Ratio (y) = 0.51669 0.00528
# Poissons Ratio (z) = 0.29209 0.00635
#
# Static dielectric constant tensor:
#      x y z
#    x 3.834750 0.000000 -0.116100 
#    y 0.000000 3.638980 0.000000 
#    z -0.116100 0.000000 3.551520 
# 
# 
# High freq. dielectric constant tensor:
#      x y z
#    x 1.799130 0.000000 -0.013590 
#    y 0.000000 1.769220 0.000000 
#    z -0.013590 0.000000 1.780310 
# 
# From -- ./inp_files/148119.got.cif
#   From: 2010.06.25/outbox.cif.g09.slc.cpg/sg15_75_cif.got.tgz:148119.got - 2010.06.28 07:06:18.
