data_PCOD8134222
_publ_section_title
;
Structure prediction by ZEFSAII (Michael W. Deem and Ramdas Pophale) SiO2 
 PCOD8134222
Probable space group: C 2/C
;
_chemical_formula_sum "Si O2"
_cell_formula_units_Z 56
_cell_length_a 8.936970
_cell_length_b 21.724717
_cell_length_c 16.778258
_cell_angle_alpha 90.000000
_cell_angle_beta 59.997054
_cell_angle_gamma 90.000000
_cell_volume 2821.038639
_symmetry_space_group_name_H-M "C 2/C"
_symmetry_group_IT_number 15
_symmetry_cell_setting 'monoclinic'
loop_
_space_group_symop_operation_xyz
x,y,z
-x,y,1/2-z
-x,-y,-z
x,-y,1/2+z
1/2+x,1/2+y,z
1/2-x,1/2+y,1/2-z
1/2-x,1/2-y,-z
1/2+x,1/2-y,1/2+z
loop_
_atom_site_type_symbol
_atom_site_label
_atom_site_fract_x
_atom_site_fract_y
_atom_site_fract_z
Si Si1 0.528379 0.787331 0.115163
Si Si2 0.255531 0.612662 0.633572
Si Si3 0.822955 0.299295 0.592265
Si Si4 0.647750 0.711159 0.775537
Si Si5 0.310628 0.976651 0.786271
Si Si6 0.481163 0.557540 0.449450
Si Si7 0.819081 0.927540 0.833113
O O1 0.591179 0.848282 0.146460
O O2 0.638664 0.728674 0.114635
O O3 0.330756 0.772906 0.186963
O O4 0.543810 0.796543 0.016524
O O5 0.344831 0.644145 0.685534
O O6 0.197366 0.544606 0.673849
O O7 0.397117 0.612548 0.523546
O O8 0.901125 0.261510 0.645067
O O9 0.805245 0.369406 0.623953
O O10 0.500000 0.710233 0.750000
O O11 0.500000 0.949071 0.750000
O O12 0.174390 0.929441 0.864388
O O13 0.269859 0.977388 0.702211
O O14 0.500000 0.500000 0.500000
O O15 0.353109 0.541071 0.410023
O O16 0.000000 0.903649 0.750000
#
# Coordination Sequence:
#
# PCOD8134222 Si02
#       7
#     8   8   8   8   8   8   8
#     4  10  20  38  66  86 110 156 205 239 281 355
#     4  10  19  40  61  81 113 158 205 238 282 357
#     4  10  20  38  63  87 112 155 204 237 283 359
#     4  11  24  38  57  92 122 149 188 251 309 343
#     4  10  21  36  57  86 120 156 193 245 299 351
#     4   9  19  35  56  82 113 150 198 243 284 346
#     4  10  19  35  58  85 116 156 195 237 292 348
#
# _framework density 19.850845
#
# number of rings (size 3 to 8) (size 9 to 14) (size 15 to 20)
#    0.000    2.000    1.429    3.429    0.000    4.000 
#    2.571    2.857    0.000    0.000    0.000    0.000 
#    0.000    0.000    0.000    0.000    0.000    0.000 
#
# Total GULP energy -347112.967334 kJ/mol
# GULP energy per Si atom -12396.891691 kJ/mol
# Density = 1.980566 g / cm^3
# Si number density = 19.850845 Si / 1000 Ang^3
#
#
#
# Elastic Constant Matrix: (Units=GPa)
#
#
# Indices 1 2 3 4 5 6 
#
# 1 113.5166 14.7676 60.4961 0.0000 14.0749 0.0000
# 2 14.7676 51.2819 25.6308 0.0000 3.8529 0.0000
# 3 60.4961 25.6308 130.5629 0.0000 18.2115 0.0000
# 4 0.0000 0.0000 0.0000 33.5328 0.0000 1.6943
# 5 14.0749 3.8529 18.2115 0.0000 26.4782 0.0000
# 6 0.0000 0.0000 0.0000 1.6943 0.0000 14.8055
#
#
#
# Elastic Compliance Matrix: (Units=1/GPa)
#
#
# Indices 1 2 3 4 5 6 
#
# 1 0.011907 -0.000728 -0.004984 0.000000 -0.002795 0.000000
# 2 -0.000728 0.021667 -0.003905 0.000000 -0.000080 0.000000
# 3 -0.004984 -0.003905 0.011378 0.000000 -0.004608 0.000000
# 4 0.000000 0.000000 0.000000 0.029995 0.000000 -0.003432
# 5 -0.002795 -0.000080 -0.004608 0.000000 0.042434 0.000000
# 6 0.000000 0.000000 0.000000 -0.003432 0.000000 0.067935
#
#
# Mechanical properties :
#
#
# Convention : Reuss Voigt Hill
#
# Bulk Modulus (GPa) = 38.88332 55.23895 47.06114
# Shear Modulus (GPa) = 23.46061 27.92775 25.69418
#
# Velocity S-wave (km/s) = 3.44153 3.75491 3.60163
# Velocity P-wave (km/s) = 5.95167 6.83275 6.40738
#
# Compressibility (1/GPa) = 0.02571797
#
# Stress axis : x y z
#
# Youngs Moduli (GPa) = 83.98590 46.15222 87.88924
#
# Poissons Ratio (x) = 0.03358 0.43806
# Poissons Ratio (y) = 0.06111 0.34322
# Poissons Ratio (z) = 0.41861 0.18023
#
# Static dielectric constant tensor:
#      x y z
#    x 3.490350 0.000000 -0.097540 
#    y 0.000000 3.433030 0.000000 
#    z -0.097540 0.000000 4.383080 
# 
# 
# High freq. dielectric constant tensor:
#      x y z
#    x 1.752430 0.000000 0.005590 
#    y 0.000000 1.754020 0.000000 
#    z 0.005590 0.000000 1.801590 
# 
# From -- ./inp_files/137283.got.cif
#   From: 2010.06.25/outbox.cif.g09.slc.cpg/sg15_69_cif.got.tgz:137283.got - 2010.06.28 07:06:18.
