data_PCOD8134764
_publ_section_title
;
Structure prediction by ZEFSAII (Michael W. Deem and Ramdas Pophale) SiO2 
 PCOD8134764
Probable space group: C 2/C
;
_chemical_formula_sum "Si O2"
_cell_formula_units_Z 52
_cell_length_a 11.656499
_cell_length_b 14.241380
_cell_length_c 19.355556
_cell_angle_alpha 90.000000
_cell_angle_beta 55.400792
_cell_angle_gamma 90.000000
_cell_volume 2644.854519
_symmetry_space_group_name_H-M "C 2/C"
_symmetry_group_IT_number 15
_symmetry_cell_setting 'monoclinic'
loop_
_space_group_symop_operation_xyz
x,y,z
-x,y,1/2-z
-x,-y,-z
x,-y,1/2+z
1/2+x,1/2+y,z
1/2-x,1/2+y,1/2-z
1/2-x,1/2-y,-z
1/2+x,1/2-y,1/2+z
loop_
_atom_site_type_symbol
_atom_site_label
_atom_site_fract_x
_atom_site_fract_y
_atom_site_fract_z
Si Si1 0.640653 0.267946 0.977102
Si Si2 0.208190 0.554958 0.067196
Si Si3 0.112583 0.438948 0.834783
Si Si4 0.500000 0.355120 0.250000
Si Si5 0.727037 0.925412 0.403279
Si Si6 0.840086 0.421266 0.300323
Si Si7 0.379212 0.266370 0.157762
O O1 0.693448 0.367506 0.927571
O O2 0.654004 0.177932 0.921927
O O3 0.750000 0.250000 0.000000
O O4 0.482923 0.277614 0.057320
O O5 0.217690 0.457664 0.106116
O O6 0.048571 0.588983 0.121040
O O7 0.256132 0.540488 0.971601
O O8 0.127791 0.500026 0.899170
O O9 0.175390 0.493499 0.748264
O O10 0.186752 0.338100 0.817166
O O11 0.374090 0.423575 0.313748
O O12 0.461792 0.287987 0.199599
O O13 0.751356 0.334081 0.305885
O O14 0.000000 0.388192 0.250000
#
# Coordination Sequence:
#
# PCOD8134764 Si02
#       7
#     8   8   8   4   8   8   8
#     4  10  19  36  61  92 120 148 206 268 298 359
#     4  10  20  39  62  89 122 165 205 252 311 370
#     4  11  22  37  66  88 123 167 209 254 310 372
#     4  12  22  38  66  92 126 154 208 280 306 350
#     4  11  21  38  61  97 123 159 213 261 306 369
#     4  10  25  42  61  90 129 170 207 253 311 384
#     4  12  23  40  62  93 123 164 207 262 318 360
#
# _framework density 19.660817000000002
#
# number of rings (size 3 to 8) (size 9 to 14) (size 15 to 20)
#    0.000    1.231    7.692    0.462    5.385    0.615 
#    1.385    0.769    0.000    0.000    0.000    0.000 
#    0.000    0.000    0.000    0.000    0.000    0.000 
#
# Total GULP energy -322374.586636 kJ/mol
# GULP energy per Si atom -12399.022563 kJ/mol
# Density = 1.961607 g / cm^3
# Si number density = 19.660817 Si / 1000 Ang^3
#
#
#
# Elastic Constant Matrix: (Units=GPa)
#
#
# Indices 1 2 3 4 5 6 
#
# 1 70.4073 64.7006 29.5932 0.0000 -2.8357 0.0000
# 2 64.7006 133.6460 43.7013 0.0000 -12.1136 0.0000
# 3 29.5932 43.7013 108.2335 0.0000 -10.2661 0.0000
# 4 0.0000 0.0000 0.0000 28.2569 0.0000 3.9047
# 5 -2.8357 -12.1136 -10.2661 0.0000 28.0475 0.0000
# 6 0.0000 0.0000 0.0000 3.9047 0.0000 33.0456
#
#
#
# Elastic Compliance Matrix: (Units=1/GPa)
#
#
# Indices 1 2 3 4 5 6 
#
# 1 0.026427 -0.012264 -0.002614 0.000000 -0.003582 0.000000
# 2 -0.012264 0.014490 -0.002094 0.000000 0.004252 0.000000
# 3 -0.002614 -0.002094 0.011073 0.000000 0.002884 0.000000
# 4 0.000000 0.000000 0.000000 0.035977 0.000000 -0.004251
# 5 -0.003582 0.004252 0.002884 0.000000 0.038184 0.000000
# 6 0.000000 0.000000 0.000000 -0.004251 0.000000 0.030763
#
#
# Mechanical properties :
#
#
# Convention : Reuss Voigt Hill
#
# Bulk Modulus (GPa) = 55.41156 65.36412 60.38784
# Shear Modulus (GPa) = 25.39704 29.48944 27.44324
#
# Velocity S-wave (km/s) = 3.59800 3.87707 3.74014
# Velocity P-wave (km/s) = 6.74580 7.30481 7.03086
#
# Compressibility (1/GPa) = 0.01804678
#
# Stress axis : x y z
#
# Youngs Moduli (GPa) = 37.83965 69.01415 90.30977
#
# Poissons Ratio (x) = 0.84639 0.23604
# Poissons Ratio (y) = 0.46406 0.18911
# Poissons Ratio (z) = 0.09890 0.14452
#
# Static dielectric constant tensor:
#      x y z
#    x 3.400110 0.000000 0.023330 
#    y 0.000000 3.962800 0.000000 
#    z 0.023330 0.000000 3.736750 
# 
# 
# High freq. dielectric constant tensor:
#      x y z
#    x 1.734210 0.000000 -0.002020 
#    y 0.000000 1.763300 0.000000 
#    z -0.002020 0.000000 1.774160 
# 
# From -- ./inp_files/225534.got.cif
#   From: 2010.06.25/outbox.cif.g09.slc.cpg/sg15_113_cif.got.tgz:225534.got - 2010.06.28 07:06:18.
