data_PCOD8134060
_publ_section_title
;
Structure prediction by ZEFSAII (Michael W. Deem and Ramdas Pophale) SiO2 
 PCOD8134060
Probable space group: C 2/C
;
_chemical_formula_sum "Si O2"
_cell_formula_units_Z 56
_cell_length_a 23.383405
_cell_length_b 17.800235
_cell_length_c 22.428317
_cell_angle_alpha 90.000000
_cell_angle_beta 162.106061
_cell_angle_gamma 90.000000
_cell_volume 2868.339002
_symmetry_space_group_name_H-M "C 2/C"
_symmetry_group_IT_number 15
_symmetry_cell_setting 'monoclinic'
loop_
_space_group_symop_operation_xyz
x,y,z
-x,y,1/2-z
-x,-y,-z
x,-y,1/2+z
1/2+x,1/2+y,z
1/2-x,1/2+y,1/2-z
1/2-x,1/2-y,-z
1/2+x,1/2-y,1/2+z
loop_
_atom_site_type_symbol
_atom_site_label
_atom_site_fract_x
_atom_site_fract_y
_atom_site_fract_z
Si Si1 0.978505 0.520500 0.639032
Si Si2 0.382294 0.346236 0.394938
Si Si3 0.077251 0.563881 0.534210
Si Si4 0.802903 0.315775 0.799325
Si Si5 0.693245 0.469700 0.962460
Si Si6 0.362210 0.826969 0.992495
Si Si7 0.436685 0.663022 0.085822
O O1 0.897894 0.468216 0.507426
O O2 0.822970 0.530478 0.534388
O O3 0.011545 0.607542 0.653586
O O4 0.179573 0.488127 0.861121
O O5 0.279517 0.414970 0.260485
O O6 0.600406 0.352932 0.597192
O O7 0.297799 0.272292 0.277755
O O8 0.346403 0.351165 0.430702
O O9 0.000000 0.500000 0.500000
O O10 0.937197 0.634547 0.391179
O O11 0.895207 0.312099 0.955856
O O12 0.500000 0.509988 0.750000
O O13 0.647458 0.387351 0.944448
O O14 0.155012 0.855967 0.800277
O O15 0.409656 0.750952 0.075740
#
# Coordination Sequence:
#
# PCOD8134060 Si02
#       7
#     8   8   8   8   8   8   8
#     4  11  24  39  55  83 119 153 204 252 298 355
#     4  10  21  37  63  91 126 164 203 247 309 373
#     4  12  23  37  62  92 126 164 203 254 314 371
#     4  10  20  37  60  91 129 166 200 249 308 371
#     4  11  23  41  56  78 113 160 205 253 296 350
#     4  10  19  35  54  85 119 160 204 248 291 348
#     4  10  20  34  58  81 116 165 207 241 291 352
#
# _framework density 19.523496000000002
#
# number of rings (size 3 to 8) (size 9 to 14) (size 15 to 20)
#    0.000    1.429    4.286    1.714    2.000    2.286 
#    2.571    0.000    0.000    0.000    0.000    4.000 
#    0.000    0.000    0.000    0.000    0.000    0.000 
#
# Total GULP energy -346941.600481 kJ/mol
# GULP energy per Si atom -12390.771446 kJ/mol
# Density = 1.947906 g / cm^3
# Si number density = 19.523496 Si / 1000 Ang^3
#
#
#
# Elastic Constant Matrix: (Units=GPa)
#
#
# Indices 1 2 3 4 5 6 
#
# 1 83.4281 36.1648 30.2462 -0.0101 -4.0738 0.0217
# 2 36.1648 47.4605 21.1137 -0.0036 -6.1608 0.0597
# 3 30.2462 21.1137 117.5180 0.0398 -14.0259 -0.0042
# 4 -0.0101 -0.0036 0.0398 33.1549 0.0250 2.4752
# 5 -4.0738 -6.1608 -14.0259 0.0250 24.6541 -0.0109
# 6 0.0217 0.0597 -0.0042 2.4752 -0.0109 15.7133
#
#
#
# Elastic Compliance Matrix: (Units=1/GPa)
#
#
# Indices 1 2 3 4 5 6 
#
# 1 0.018580 -0.013219 -0.002612 0.000007 -0.001719 0.000022
# 2 -0.013219 0.032612 -0.001872 0.000006 0.004900 -0.000104
# 3 -0.002612 -0.001872 0.010096 -0.000018 0.004844 0.000020
# 4 0.000007 0.000006 -0.000018 0.030520 -0.000041 -0.004808
# 5 -0.001719 0.004900 0.004844 -0.000041 0.044258 0.000022
# 6 0.000022 -0.000104 0.000020 -0.004808 0.000022 0.064398
#
#
# Mechanical properties :
#
#
# Convention : Reuss Voigt Hill
#
# Bulk Modulus (GPa) = 38.63772 47.05067 42.84419
# Shear Modulus (GPa) = 20.45014 25.42992 22.94003
#
# Velocity S-wave (km/s) = 3.23996 3.61297 3.43154
# Velocity P-wave (km/s) = 5.81634 6.44644 6.13948
#
# Compressibility (1/GPa) = 0.02588145
#
# Stress axis : x y z
#
# Youngs Moduli (GPa) = 53.82255 30.66370 99.04721
#
# Poissons Ratio (x) = 0.40533 0.25873
# Poissons Ratio (y) = 0.71147 0.18543
# Poissons Ratio (z) = 0.14060 0.05741
#
# Static dielectric constant tensor:
#      x y z
#    x 3.361250 0.000340 0.157190 
#    y 0.000340 3.610510 -0.001740 
#    z 0.157190 -0.001740 2.881360 
# 
# 
# High freq. dielectric constant tensor:
#      x y z
#    x 1.734940 -0.000010 0.005630 
#    y -0.000010 1.721710 -0.000020 
#    z 0.005630 -0.000020 1.786500 
# 
# From -- ./inp_files/253383.got.cif
#   From: 2010.06.25/outbox.cif.g09.slc.cpg/sg15_127_cif.got.tgz:253383.got - 2010.06.28 07:06:18.
