data_PCOD8134933
_publ_section_title
;
Structure prediction by ZEFSAII (Michael W. Deem and Ramdas Pophale) SiO2 
 PCOD8134933
Probable space group: C 2/C
;
_chemical_formula_sum "Si O2"
_cell_formula_units_Z 40
_cell_length_a 26.699092
_cell_length_b 5.191576
_cell_length_c 23.367631
_cell_angle_alpha 90.000000
_cell_angle_beta 142.389525
_cell_angle_gamma 90.000000
_cell_volume 1976.726797
_symmetry_space_group_name_H-M "C 2/C"
_symmetry_group_IT_number 15
_symmetry_cell_setting 'monoclinic'
loop_
_space_group_symop_operation_xyz
x,y,z
-x,y,1/2-z
-x,-y,-z
x,-y,1/2+z
1/2+x,1/2+y,z
1/2-x,1/2+y,1/2-z
1/2-x,1/2-y,-z
1/2+x,1/2-y,1/2+z
loop_
_atom_site_type_symbol
_atom_site_label
_atom_site_fract_x
_atom_site_fract_y
_atom_site_fract_z
Si Si1 0.933427 0.749665 0.998825
Si Si2 0.465031 0.744263 0.398573
Si Si3 0.633675 0.100080 0.798486
Si Si4 0.294894 0.662765 0.458537
Si Si5 0.856858 0.901213 0.133879
O O1 0.844035 0.763765 0.946246
O O2 0.966130 0.463755 0.039247
O O3 0.921330 0.790534 0.920219
O O4 0.993150 0.970355 0.079262
O O5 0.395753 0.836435 0.291874
O O6 0.602640 0.333165 0.810033
O O7 0.595580 0.839567 0.792681
O O8 0.733222 0.074274 0.887964
O O9 0.238518 0.898987 0.430683
O O10 0.360073 0.600932 0.567909
#
# Coordination Sequence:
#
# PCOD8134933 Si02
#       5
#     8   8   8   8   8
#     4  10  22  39  58  78 112 157 178 225 280 339
#     4  10  22  40  55  80 118 144 186 227 281 321
#     4  10  19  37  57  83 112 145 178 244 261 328
#     4   9  21  36  61  81 110 148 188 221 280 334
#     4   9  20  34  60  81 115 137 185 231 281 318
#
# _framework density 20.235471
#
# number of rings (size 3 to 8) (size 9 to 14) (size 15 to 20)
#    1.200    1.200    0.000    1.800    2.800    0.000 
#    3.600    6.000    0.000    0.000    0.000    0.000 
#    0.000    0.000    0.000    0.000    0.000    0.000 
#
# Total GULP energy -247808.262281 kJ/mol
# GULP energy per Si atom -12390.413114 kJ/mol
# Density = 2.018941 g / cm^3
# Si number density = 20.235471 Si / 1000 Ang^3
#
#
#
# Elastic Constant Matrix: (Units=GPa)
#
#
# Indices 1 2 3 4 5 6 
#
# 1 36.7997 7.5666 3.0297 0.0196 -4.7572 0.0895
# 2 7.5666 113.8975 22.9489 0.0198 -3.6477 0.0855
# 3 3.0297 22.9489 111.7818 0.0028 -16.2674 0.0239
# 4 0.0196 0.0198 0.0028 35.7289 -0.0046 -0.3638
# 5 -4.7572 -3.6477 -16.2674 -0.0046 11.6211 -0.0086
# 6 0.0895 0.0855 0.0239 -0.3638 -0.0086 10.3174
#
#
#
# Elastic Compliance Matrix: (Units=1/GPa)
#
#
# Indices 1 2 3 4 5 6 
#
# 1 0.029171 -0.001817 0.001554 -0.000016 0.013546 -0.000231
# 2 -0.001817 0.009273 -0.001933 -0.000005 -0.000539 -0.000057
# 3 0.001554 -0.001933 0.011685 0.000001 0.016387 -0.000011
# 4 -0.000016 -0.000005 0.000001 0.027999 0.000006 0.000988
# 5 0.013546 -0.000539 0.016387 0.000006 0.114365 -0.000055
# 6 -0.000231 -0.000057 -0.000011 0.000988 -0.000055 0.096961
#
#
# Mechanical properties :
#
#
# Convention : Reuss Voigt Hill
#
# Bulk Modulus (GPa) = 21.86392 36.61881 29.24137
# Shear Modulus (GPa) = 16.17642 26.79575 21.48608
#
# Velocity S-wave (km/s) = 2.83045 3.64290 3.26207
# Velocity P-wave (km/s) = 4.63790 5.98581 5.35444
#
# Compressibility (1/GPa) = 0.04573744
#
# Stress axis : x y z
#
# Youngs Moduli (GPa) = 34.28004 107.84265 85.57639
#
# Poissons Ratio (x) = 0.19595 -0.13297
# Poissons Ratio (y) = 0.06229 0.16541
# Poissons Ratio (z) = -0.05326 0.20845
#
# Static dielectric constant tensor:
#      x y z
#    x 3.240720 -0.000030 -0.220170 
#    y -0.000030 3.739650 0.000000 
#    z -0.220170 0.000000 3.558790 
# 
# 
# High freq. dielectric constant tensor:
#      x y z
#    x 1.759240 0.000000 -0.020390 
#    y 0.000000 1.798840 0.000000 
#    z -0.020390 0.000000 1.782330 
# 
# From -- ./inp_files/221037.got.cif
#   From: 2010.06.25/outbox.cif.g09.slc.cpg/sg15_111_cif.got.tgz:221037.got - 2010.06.28 07:06:18.
