data_PCOD8134853
_publ_section_title
;
Structure prediction by ZEFSAII (Michael W. Deem and Ramdas Pophale) SiO2 
 PCOD8134853
Probable space group: C 2/C
;
_chemical_formula_sum "Si O2"
_cell_formula_units_Z 32
_cell_length_a 18.194161
_cell_length_b 9.501559
_cell_length_c 14.340900
_cell_angle_alpha 90.000000
_cell_angle_beta 27.878128
_cell_angle_gamma 90.000000
_cell_volume 1159.233081
_symmetry_space_group_name_H-M "C 2/C"
_symmetry_group_IT_number 15
_symmetry_cell_setting 'monoclinic'
loop_
_space_group_symop_operation_xyz
x,y,z
-x,y,1/2-z
-x,-y,-z
x,-y,1/2+z
1/2+x,1/2+y,z
1/2-x,1/2+y,1/2-z
1/2-x,1/2-y,-z
1/2+x,1/2-y,1/2+z
loop_
_atom_site_type_symbol
_atom_site_label
_atom_site_fract_x
_atom_site_fract_y
_atom_site_fract_z
Si Si1 0.285278 0.422295 0.531864
Si Si2 0.744131 0.165880 0.717527
Si Si3 0.178066 0.371894 0.020105
Si Si4 0.959438 0.201262 0.634673
O O1 0.211531 0.545171 0.679343
O O2 0.277662 0.484890 0.433605
O O3 0.460742 0.395444 0.374808
O O4 0.174813 0.286339 0.659486
O O5 0.800578 0.317936 0.610081
O O6 0.586748 0.190000 0.951993
O O7 0.881483 0.117277 0.635374
O O8 0.000000 0.399663 0.250000
O O9 0.250000 0.250000 0.000000
#
# Coordination Sequence:
#
# PCOD8134853 Si02
#       4
#     8   8   8   8
#     4  10  21  38  60  92 133 170 216 271 329 397
#     4  10  19  36  64  96 123 165 223 275 322 388
#     4  10  21  39  63  94 127 166 214 273 329 385
#     4  10  21  37  63  96 127 171 219 273 334 386
#
# _framework density 27.604457
#
# number of rings (size 3 to 8) (size 9 to 14) (size 15 to 20)
#    0.000    2.000    0.000    4.500    0.000    2.000 
#    0.000   11.250    0.000    1.500    0.000    0.000 
#    0.000    0.000    0.000    0.000    0.000    0.000 
#
# Total GULP energy -198350.174806 kJ/mol
# GULP energy per Si atom -12396.885925 kJ/mol
# Density = 2.754163 g / cm^3
# Si number density = 27.604457 Si / 1000 Ang^3
#
#
#
# Elastic Constant Matrix: (Units=GPa)
#
#
# Indices 1 2 3 4 5 6 
#
# 1 139.7488 23.9717 45.0655 0.0000 -5.4680 0.0000
# 2 23.9717 74.8878 3.0100 0.0000 -3.0564 0.0000
# 3 45.0655 3.0100 93.9620 0.0000 -14.4332 0.0000
# 4 0.0000 0.0000 0.0000 28.2585 0.0000 -15.2791
# 5 -5.4680 -3.0564 -14.4332 0.0000 54.7891 0.0000
# 6 0.0000 0.0000 0.0000 -15.2791 0.0000 57.1420
#
#
#
# Elastic Compliance Matrix: (Units=1/GPa)
#
#
# Indices 1 2 3 4 5 6 
#
# 1 0.008988 -0.002721 -0.004283 0.000000 -0.000383 0.000000
# 2 -0.002721 0.014217 0.000969 0.000000 0.000777 0.000000
# 3 -0.004283 0.000969 0.013140 0.000000 0.003088 0.000000
# 4 0.000000 0.000000 0.000000 0.041368 0.000000 0.011061
# 5 -0.000383 0.000777 0.003088 0.000000 0.019070 0.000000
# 6 0.000000 0.000000 0.000000 0.011061 0.000000 0.020458
#
#
# Mechanical properties :
#
#
# Convention : Reuss Voigt Hill
#
# Bulk Modulus (GPa) = 41.19258 50.29922 45.74590
# Shear Modulus (GPa) = 36.38917 43.80801 40.09859
#
# Velocity S-wave (km/s) = 3.63469 3.98803 3.81545
# Velocity P-wave (km/s) = 5.70697 6.28226 6.00151
#
# Compressibility (1/GPa) = 0.02427622
#
# Stress axis : x y z
#
# Youngs Moduli (GPa) = 111.25380 70.33842 76.10385
#
# Poissons Ratio (x) = 0.19137 0.32593
# Poissons Ratio (y) = 0.30269 -0.07373
# Poissons Ratio (z) = 0.47646 -0.06814
#
# Static dielectric constant tensor:
#      x y z
#    x 6.163260 0.000000 -0.440370 
#    y 0.000000 5.275530 0.000000 
#    z -0.440370 0.000000 6.278850 
# 
# 
# High freq. dielectric constant tensor:
#      x y z
#    x 2.140100 0.000000 -0.002200 
#    y 0.000000 2.107740 0.000000 
#    z -0.002200 0.000000 2.123760 
# 
# From -- ./inp_files/213639.got.cif
#   From: 2010.06.25/outbox.cif.g09.slc.cpg/sg15_107_cif.got.tgz:213639.got - 2010.06.28 07:06:18.
