data_PCOD8134202
_publ_section_title
;
Structure prediction by ZEFSAII (Michael W. Deem and Ramdas Pophale) SiO2 
 PCOD8134202
Probable space group: C 2/C
;
_chemical_formula_sum "Si O2"
_cell_formula_units_Z 56
_cell_length_a 5.268311
_cell_length_b 22.718811
_cell_length_c 25.072091
_cell_angle_alpha 90.000000
_cell_angle_beta 88.859669
_cell_angle_gamma 90.000000
_cell_volume 3000.278283
_symmetry_space_group_name_H-M "C 2/C"
_symmetry_group_IT_number 15
_symmetry_cell_setting 'monoclinic'
loop_
_space_group_symop_operation_xyz
x,y,z
-x,y,1/2-z
-x,-y,-z
x,-y,1/2+z
1/2+x,1/2+y,z
1/2-x,1/2+y,1/2-z
1/2-x,1/2-y,-z
1/2+x,1/2-y,1/2+z
loop_
_atom_site_type_symbol
_atom_site_label
_atom_site_fract_x
_atom_site_fract_y
_atom_site_fract_z
Si Si1 0.451555 0.101322 0.632382
Si Si2 0.063485 0.995357 0.129586
Si Si3 0.350427 0.179580 0.446995
Si Si4 0.251768 0.445606 0.216874
Si Si5 0.692113 0.313610 0.064735
Si Si6 0.842335 0.108955 0.428451
Si Si7 0.829821 0.083353 0.545785
O O1 0.273233 0.048234 0.654199
O O2 0.664073 0.109099 0.678227
O O3 0.316264 0.163084 0.619651
O O4 0.555808 0.080321 0.574394
O O5 0.836313 0.996839 0.174587
O O6 0.994432 0.967772 0.072436
O O7 0.150100 0.062273 0.120002
O O8 0.368056 0.245766 0.425307
O O9 0.370672 0.179027 0.511412
O O10 0.593149 0.147838 0.420836
O O11 0.093394 0.149063 0.427413
O O12 0.500000 0.426154 0.250000
O O13 0.000000 0.466383 0.250000
O O14 0.437893 0.350936 0.055777
O O15 0.814212 0.071710 0.483125
#
# Coordination Sequence:
#
# PCOD8134202 Si02
#       7
#     8   8   8   8   8   8   8
#     4  10  19  35  58  82 115 145 186 231 285 340
#     4  10  22  35  56  82 117 143 183 230 283 348
#     4  10  22  33  54  76 118 163 197 226 248 322
#     4  11  22  39  58  83 111 135 179 238 303 350
#     4   9  19  35  51  80 114 159 200 224 268 307
#     4  11  22  35  50  82 118 157 194 220 262 324
#     4   9  19  32  52  80 115 159 184 226 270 326
#
# _framework density 18.664936000000001
#
# number of rings (size 3 to 8) (size 9 to 14) (size 15 to 20)
#    0.000    2.000    2.857    0.429    6.000    2.286 
#    0.000    0.000    0.000    0.000    0.000    1.000 
#   21.429    0.000    0.000    0.000    0.000    0.000 
#
# Total GULP energy -346882.285569 kJ/mol
# GULP energy per Si atom -12388.653056 kJ/mol
# Density = 1.862245 g / cm^3
# Si number density = 18.664936 Si / 1000 Ang^3
#
#
#
# Elastic Constant Matrix: (Units=GPa)
#
#
# Indices 1 2 3 4 5 6 
#
# 1 118.6825 50.0005 41.1020 0.0000 -9.7447 0.0000
# 2 50.0005 115.2302 42.0676 0.0000 -6.2415 0.0000
# 3 41.1020 42.0676 80.8821 0.0000 -2.4631 0.0000
# 4 0.0000 0.0000 0.0000 9.3967 0.0000 -4.4281
# 5 -9.7447 -6.2415 -2.4631 0.0000 28.7366 0.0000
# 6 0.0000 0.0000 0.0000 -4.4281 0.0000 17.4562
#
#
#
# Elastic Compliance Matrix: (Units=1/GPa)
#
#
# Indices 1 2 3 4 5 6 
#
# 1 0.011454 -0.003362 -0.003986 0.000000 0.002812 0.000000
# 2 -0.003362 0.011799 -0.004396 0.000000 0.001046 0.000000
# 3 -0.003986 -0.004396 0.016649 0.000000 -0.000879 0.000000
# 4 0.000000 0.000000 0.000000 0.120869 0.000000 0.030660
# 5 0.002812 0.001046 -0.000879 0.000000 0.035904 0.000000
# 6 0.000000 0.000000 0.000000 0.030660 0.000000 0.065064
#
#
# Mechanical properties :
#
#
# Convention : Reuss Voigt Hill
#
# Bulk Modulus (GPa) = 60.92978 64.57056 62.75017
# Shear Modulus (GPa) = 17.19995 23.22620 20.21308
#
# Velocity S-wave (km/s) = 3.03893 3.53140 3.29438
# Velocity P-wave (km/s) = 6.71032 7.16222 6.93995
#
# Compressibility (1/GPa) = 0.01641234
#
# Stress axis : x y z
#
# Youngs Moduli (GPa) = 87.30761 84.75372 60.06390
#
# Poissons Ratio (x) = 0.28498 0.23941
# Poissons Ratio (y) = 0.29357 0.26405
# Poissons Ratio (z) = 0.34801 0.37259
#
# Static dielectric constant tensor:
#      x y z
#    x 3.638830 0.000000 -0.020270 
#    y 0.000000 3.176560 0.000000 
#    z -0.020270 0.000000 3.413060 
# 
# 
# High freq. dielectric constant tensor:
#      x y z
#    x 1.742020 0.000000 -0.003740 
#    y 0.000000 1.689700 0.000000 
#    z -0.003740 0.000000 1.700490 
# 
# From -- ./inp_files/261584.got.cif
#   From: 2010.06.25/outbox.cif.g09.slc.cpg/sg15_131_cif.got.tgz:261584.got - 2010.06.28 07:06:18.
