data_PCOD8134618
_publ_section_title
;
Structure prediction by ZEFSAII (Michael W. Deem and Ramdas Pophale) SiO2 
 PCOD8134618
Probable space group: C 2/C
;
_chemical_formula_sum "Si O2"
_cell_formula_units_Z 52
_cell_length_a 8.918984
_cell_length_b 10.398942
_cell_length_c 26.652084
_cell_angle_alpha 90.000000
_cell_angle_beta 90.740271
_cell_angle_gamma 90.000000
_cell_volume 2471.721098
_symmetry_space_group_name_H-M "C 2/C"
_symmetry_group_IT_number 15
_symmetry_cell_setting 'monoclinic'
loop_
_space_group_symop_operation_xyz
x,y,z
-x,y,1/2-z
-x,-y,-z
x,-y,1/2+z
1/2+x,1/2+y,z
1/2-x,1/2+y,1/2-z
1/2-x,1/2-y,-z
1/2+x,1/2-y,1/2+z
loop_
_atom_site_type_symbol
_atom_site_label
_atom_site_fract_x
_atom_site_fract_y
_atom_site_fract_z
Si Si1 0.500000 0.133608 0.750000
Si Si2 0.835125 0.609452 0.257160
Si Si3 0.848695 0.067709 0.488007
Si Si4 0.841927 0.429786 0.094415
Si Si5 0.689367 0.355176 0.655262
Si Si6 0.625801 0.702901 0.338228
Si Si7 0.655684 0.828156 0.071609
O O1 0.648694 0.044628 0.744470
O O2 0.475648 0.211066 0.699241
O O3 0.722399 0.664447 0.214540
O O4 0.765355 0.638202 0.311362
O O5 0.000000 0.674572 0.250000
O O6 0.774631 0.088697 0.541848
O O7 0.885493 0.201489 0.460841
O O8 0.748849 0.968501 0.455386
O O9 0.000000 0.000000 0.500000
O O10 0.802448 0.532999 0.137469
O O11 0.804664 0.287013 0.115958
O O12 0.017358 0.424809 0.081034
O O13 0.511124 0.391978 0.644380
O O14 0.723979 0.223530 0.624577
#
# Coordination Sequence:
#
# PCOD8134618 Si02
#       7
#     4   8   8   8   8   8   8
#     4  10  20  36  56  78 112 146 186 232 284 326
#     4  10  21  35  53  85 110 144 196 231 281 343
#     4  10  21  39  60  89 113 148 192 234 290 343
#     4  10  20  38  59  85 115 152 191 233 288 339
#     4  10  19  36  59  81 110 153 191 229 286 343
#     4  11  20  39  58  78 116 152 186 240 279 334
#     4   9  21  38  61  82 116 150 187 236 287 340
#
# _framework density 21.037972
#
# number of rings (size 3 to 8) (size 9 to 14) (size 15 to 20)
#    0.462    1.538    3.077    0.462    0.000    1.846 
#    2.769   13.846    0.000    0.000    0.000    0.000 
#    0.000    0.000    0.000    0.000    0.000    0.000 
#
# Total GULP energy -322125.400942 kJ/mol
# GULP energy per Si atom -12389.438498 kJ/mol
# Density = 2.099009 g / cm^3
# Si number density = 21.037972 Si / 1000 Ang^3
#
#
#
# Elastic Constant Matrix: (Units=GPa)
#
#
# Indices 1 2 3 4 5 6 
#
# 1 113.3059 44.8290 12.4151 0.0000 -28.3479 0.0000
# 2 44.8290 57.5472 5.0746 0.0000 -6.3545 0.0000
# 3 12.4151 5.0746 41.8470 0.0000 -25.3274 0.0000
# 4 0.0000 0.0000 0.0000 23.5782 0.0000 -5.0263
# 5 -28.3479 -6.3545 -25.3274 0.0000 41.1430 0.0000
# 6 0.0000 0.0000 0.0000 -5.0263 0.0000 40.9625
#
#
#
# Elastic Compliance Matrix: (Units=1/GPa)
#
#
# Indices 1 2 3 4 5 6 
#
# 1 0.015739 -0.011328 0.003520 0.000000 0.011262 0.000000
# 2 -0.011328 0.025847 -0.003317 0.000000 -0.005855 0.000000
# 3 0.003520 -0.003317 0.038909 0.000000 0.025866 0.000000
# 4 0.000000 0.000000 0.000000 0.043551 0.000000 0.005344
# 5 0.011262 -0.005855 0.025866 0.000000 0.047084 0.000000
# 6 0.000000 0.000000 0.000000 0.005344 0.000000 0.025068
#
#
# Mechanical properties :
#
#
# Convention : Reuss Voigt Hill
#
# Bulk Modulus (GPa) = 17.16835 37.48195 27.32515
# Shear Modulus (GPa) = 21.02040 31.16217 26.09128
#
# Velocity S-wave (km/s) = 3.16439 3.85286 3.52547
# Velocity P-wave (km/s) = 4.63999 6.13577 5.43954
#
# Compressibility (1/GPa) = 0.05824672
#
# Stress axis : x y z
#
# Youngs Moduli (GPa) = 63.53488 38.68871 25.70078
#
# Poissons Ratio (x) = 0.43826 -0.09048
# Poissons Ratio (y) = 0.71971 0.08526
# Poissons Ratio (z) = -0.22367 0.12834
#
# Static dielectric constant tensor:
#      x y z
#    x 3.832530 0.000000 -0.182790 
#    y 0.000000 3.639050 0.000000 
#    z -0.182790 0.000000 4.054530 
# 
# 
# High freq. dielectric constant tensor:
#      x y z
#    x 1.819210 0.000000 -0.021730 
#    y 0.000000 1.801470 0.000000 
#    z -0.021730 0.000000 1.838990 
# 
# From -- ./inp_files/287659.got.cif
#   From: 2010.06.25/outbox.cif.g09.slc.cpg/sg15_144_cif.got.tgz:287659.got - 2010.06.28 07:06:18.
