data_PCOD8134004
_publ_section_title
;
Structure prediction by ZEFSAII (Michael W. Deem and Ramdas Pophale) SiO2 
 PCOD8134004
Probable space group: C 2/C
;
_chemical_formula_sum "Si O2"
_cell_formula_units_Z 64
_cell_length_a 21.617179
_cell_length_b 17.288813
_cell_length_c 24.783358
_cell_angle_alpha 90.000000
_cell_angle_beta 158.819820
_cell_angle_gamma 90.000000
_cell_volume 3346.530240
_symmetry_space_group_name_H-M "C 2/C"
_symmetry_group_IT_number 15
_symmetry_cell_setting 'monoclinic'
loop_
_space_group_symop_operation_xyz
x,y,z
-x,y,1/2-z
-x,-y,-z
x,-y,1/2+z
1/2+x,1/2+y,z
1/2-x,1/2+y,1/2-z
1/2-x,1/2-y,-z
1/2+x,1/2-y,1/2+z
loop_
_atom_site_type_symbol
_atom_site_label
_atom_site_fract_x
_atom_site_fract_y
_atom_site_fract_z
Si Si1 0.062465 0.803108 0.175627
Si Si2 0.461430 0.864876 0.629665
Si Si3 0.074926 0.670285 0.583231
Si Si4 0.740578 0.070356 0.800013
Si Si5 0.623677 0.085131 0.162511
Si Si6 0.388479 0.579627 0.610278
Si Si7 0.553034 0.330708 0.535340
Si Si8 0.846200 0.497566 0.658200
O O1 0.260546 0.814560 0.321079
O O2 0.023623 0.722811 0.174155
O O3 0.017732 0.868644 0.181663
O O4 0.946401 0.812616 0.027888
O O5 0.464815 0.909816 0.574903
O O6 0.269659 0.868850 0.496515
O O7 0.594759 0.911212 0.776459
O O8 0.124979 0.641201 0.683621
O O9 0.985466 0.754732 0.513112
O O10 0.944896 0.606833 0.452438
O O11 0.710441 0.999066 0.734333
O O12 0.697508 0.050995 0.826423
O O13 0.937738 0.095177 0.956221
O O14 0.755419 0.150539 0.290239
O O15 0.500000 0.543616 0.750000
O O16 0.317932 0.510563 0.514611
O O17 0.000000 0.538337 0.750000
#
# Coordination Sequence:
#
# PCOD8134004 Si02
#       8
#     8   8   8   8   8   8   8   8
#     4  11  21  34  52  77 119 159 195 232 273 331
#     4  10  19  35  51  76 114 163 197 229 279 331
#     4  11  21  36  56  84 115 151 191 246 287 340
#     4  10  22  37  60  83 106 151 193 232 300 357
#     4  11  19  34  54  80 116 148 197 240 284 335
#     4  11  23  32  51  81 114 154 206 238 274 332
#     4  11  21  37  56  82 117 153 186 240 296 344
#     4   9  21  41  59  77 111 150 189 241 289 344
#
# _framework density 19.124285
#
# number of rings (size 3 to 8) (size 9 to 14) (size 15 to 20)
#    0.000    1.500    2.500    4.125    0.000    2.500 
#    0.000    3.750    0.000    0.750    0.000    0.000 
#    0.000    0.000    0.000    0.000    0.000    0.000 
#
# Total GULP energy -396686.950729 kJ/mol
# GULP energy per Si atom -12396.467210 kJ/mol
# Density = 1.908076 g / cm^3
# Si number density = 19.124285 Si / 1000 Ang^3
#
#
#
# Elastic Constant Matrix: (Units=GPa)
#
#
# Indices 1 2 3 4 5 6 
#
# 1 90.3060 40.7788 36.6504 -0.0126 -10.8390 -0.0063
# 2 40.7788 80.7795 25.1850 -0.0228 -2.1367 -0.0172
# 3 36.6504 25.1850 94.5453 0.0084 -19.6154 -0.0402
# 4 -0.0126 -0.0228 0.0084 25.0209 -0.0098 -2.6918
# 5 -10.8390 -2.1367 -19.6154 -0.0098 31.0037 -0.0132
# 6 -0.0063 -0.0172 -0.0402 -2.6918 -0.0132 31.6411
#
#
#
# Elastic Compliance Matrix: (Units=1/GPa)
#
#
# Indices 1 2 3 4 5 6 
#
# 1 0.016039 -0.006829 -0.003836 0.000004 0.002710 -0.000004
# 2 -0.006829 0.016473 -0.002303 0.000012 -0.002709 0.000005
# 3 -0.003836 -0.002303 0.014235 -0.000004 0.007506 0.000019
# 4 0.000004 0.000012 -0.000004 0.040336 0.000014 0.003432
# 5 0.002710 -0.002709 0.007506 0.000014 0.037764 0.000026
# 6 -0.000004 0.000005 0.000019 0.003432 0.000026 0.031896
#
#
# Mechanical properties :
#
#
# Convention : Reuss Voigt Hill
#
# Bulk Modulus (GPa) = 48.05236 52.31770 50.18503
# Shear Modulus (GPa) = 26.36887 28.40090 27.38489
#
# Velocity S-wave (km/s) = 3.71727 3.85784 3.78821
# Velocity P-wave (km/s) = 6.60341 6.87459 6.74036
#
# Compressibility (1/GPa) = 0.02081063
#
# Stress axis : x y z
#
# Youngs Moduli (GPa) = 62.34614 60.70460 70.24998
#
# Poissons Ratio (x) = 0.41457 0.26950
# Poissons Ratio (y) = 0.42578 0.16178
# Poissons Ratio (z) = 0.23918 0.13979
#
# Static dielectric constant tensor:
#      x y z
#    x 3.464810 -0.000020 -0.107910 
#    y -0.000020 3.365040 -0.000090 
#    z -0.107910 -0.000090 3.636140 
# 
# 
# High freq. dielectric constant tensor:
#      x y z
#    x 1.723040 0.000000 -0.010280 
#    y 0.000000 1.719080 -0.000010 
#    z -0.010280 -0.000010 1.757420 
# 
# From -- ./inp_files/302447.got.cif
#   From: 2010.06.25/outbox.cif.g09.slc.cpg/sg15_152_cif.got.tgz:302447.got - 2010.06.28 07:06:18.
