data_PCOD8134463
_publ_section_title
;
Structure prediction by ZEFSAII (Michael W. Deem and Ramdas Pophale) SiO2 
 PCOD8134463
Probable space group: C 2/C
;
_chemical_formula_sum "Si O2"
_cell_formula_units_Z 56
_cell_length_a 29.782719
_cell_length_b 19.578864
_cell_length_c 10.060683
_cell_angle_alpha 90.000000
_cell_angle_beta 32.642274
_cell_angle_gamma 90.000000
_cell_volume 3164.346071
_symmetry_space_group_name_H-M "C 2/C"
_symmetry_group_IT_number 15
_symmetry_cell_setting 'monoclinic'
loop_
_space_group_symop_operation_xyz
x,y,z
-x,y,1/2-z
-x,-y,-z
x,-y,1/2+z
1/2+x,1/2+y,z
1/2-x,1/2+y,1/2-z
1/2-x,1/2-y,-z
1/2+x,1/2-y,1/2+z
loop_
_atom_site_type_symbol
_atom_site_label
_atom_site_fract_x
_atom_site_fract_y
_atom_site_fract_z
Si Si1 0.646355 0.128617 0.997213
Si Si2 0.336160 0.144132 0.995997
Si Si3 0.000000 0.713835 0.250000
Si Si4 0.829072 0.700199 0.282752
Si Si5 0.768028 0.170691 0.479294
Si Si6 0.057780 0.511494 0.733091
Si Si7 0.000000 0.230843 0.250000
Si Si8 0.428683 0.719279 0.168164
O O1 0.579784 0.166588 0.069801
O O2 0.654163 0.157285 0.126278
O O3 0.625074 0.048784 0.052462
O O4 0.731642 0.140917 0.706892
O O5 0.261848 0.128736 0.075787
O O6 0.397760 0.081548 0.845836
O O7 0.385050 0.210893 0.824787
O O8 0.297791 0.152785 0.239023
O O9 0.996017 0.761508 0.389495
O O10 0.750000 0.750000 0.500000
O O11 0.919526 0.727995 0.008717
O O12 0.750000 0.250000 0.500000
O O13 0.866904 0.164371 0.255814
O O14 0.000000 0.518746 0.750000
O O15 0.000000 0.500000 0.000000
O O16 0.029318 0.186241 0.304220
#
# Coordination Sequence:
#
# PCOD8134463 Si02
#       8
#     8   8   4   8   8   8   4   8
#     4  12  21  35  51  76 110 149 189 216 266 326
#     4  10  21  35  49  71 108 145 186 224 264 316
#     4  12  18  30  51  78 102 141 180 220 260 330
#     4  11  23  35  53  77 110 149 185 236 284 327
#     4  10  19  36  53  71 101 145 181 229 275 312
#     4  12  24  34  51  78 113 153 193 215 255 336
#     4  10  20  32  51  76 108 135 176 222 284 326
#     4  10  20  32  53  74 103 140 177 224 276 323
#
# _framework density 17.697179999999999
#
# number of rings (size 3 to 8) (size 9 to 14) (size 15 to 20)
#    0.000    1.143    5.000    5.143    6.000    0.000 
#    0.000    0.000    0.000    0.000    0.000    0.000 
#    0.000   29.714    0.000    0.000    0.000    0.000 
#
# Total GULP energy -346877.197333 kJ/mol
# GULP energy per Si atom -12388.471333 kJ/mol
# Density = 1.765690 g / cm^3
# Si number density = 17.697180 Si / 1000 Ang^3
#
#
#
# Elastic Constant Matrix: (Units=GPa)
#
#
# Indices 1 2 3 4 5 6 
#
# 1 146.6715 28.1361 34.6079 0.0000 23.5168 0.0000
# 2 28.1361 52.6865 24.1067 0.0000 -3.0208 0.0000
# 3 34.6079 24.1067 67.0241 0.0000 9.9626 0.0000
# 4 0.0000 0.0000 0.0000 25.9924 0.0000 -7.0416
# 5 23.5168 -3.0208 9.9626 0.0000 39.3179 0.0000
# 6 0.0000 0.0000 0.0000 -7.0416 0.0000 27.9362
#
#
#
# Elastic Compliance Matrix: (Units=1/GPa)
#
#
# Indices 1 2 3 4 5 6 
#
# 1 0.008965 -0.003952 -0.002458 0.000000 -0.005043 0.000000
# 2 -0.003952 0.025072 -0.007913 0.000000 0.006295 0.000000
# 3 -0.002458 -0.007913 0.019647 0.000000 -0.004116 0.000000
# 4 0.000000 0.000000 0.000000 0.041292 0.000000 0.010408
# 5 -0.005043 0.006295 -0.004116 0.000000 0.029976 0.000000
# 6 0.000000 0.000000 0.000000 0.010408 0.000000 0.038419
#
#
# Mechanical properties :
#
#
# Convention : Reuss Voigt Hill
#
# Bulk Modulus (GPa) = 39.93878 48.89819 44.41848
# Shear Modulus (GPa) = 24.95467 30.61804 27.78636
#
# Velocity S-wave (km/s) = 3.75919 4.16397 3.96675
# Velocity P-wave (km/s) = 6.43886 7.12802 6.79219
#
# Compressibility (1/GPa) = 0.02503832
#
# Stress axis : x y z
#
# Youngs Moduli (GPa) = 111.55085 39.88505 50.89824
#
# Poissons Ratio (x) = 0.15762 0.12510
# Poissons Ratio (y) = 0.44083 0.40275
# Poissons Ratio (z) = 0.27418 0.31561
#
# Static dielectric constant tensor:
#      x y z
#    x 4.517850 0.000000 0.134640 
#    y 0.000000 2.786310 0.000000 
#    z 0.134640 0.000000 3.486600 
# 
# 
# High freq. dielectric constant tensor:
#      x y z
#    x 1.714770 0.000000 0.022180 
#    y 0.000000 1.624060 0.000000 
#    z 0.022180 0.000000 1.689010 
# 
# From -- ./inp_files/70502.got.cif
#   From: 2010.06.25/outbox.cif.g09.slc.cpg/sg15_36_cif.got.tgz:70502.got - 2010.06.28 07:06:18.
