data_PCOD8134706
_publ_section_title
;
Structure prediction by ZEFSAII (Michael W. Deem and Ramdas Pophale) SiO2 
 PCOD8134706
Probable space group: C 2/C
;
_chemical_formula_sum "Si O2"
_cell_formula_units_Z 48
_cell_length_a 18.225284
_cell_length_b 11.488262
_cell_length_c 11.624873
_cell_angle_alpha 90.000000
_cell_angle_beta 63.122543
_cell_angle_gamma 90.000000
_cell_volume 2171.049695
_symmetry_space_group_name_H-M "C 2/C"
_symmetry_group_IT_number 15
_symmetry_cell_setting 'monoclinic'
loop_
_space_group_symop_operation_xyz
x,y,z
-x,y,1/2-z
-x,-y,-z
x,-y,1/2+z
1/2+x,1/2+y,z
1/2-x,1/2+y,1/2-z
1/2-x,1/2-y,-z
1/2+x,1/2-y,1/2+z
loop_
_atom_site_type_symbol
_atom_site_label
_atom_site_fract_x
_atom_site_fract_y
_atom_site_fract_z
Si Si1 0.217930 0.843448 0.153389
Si Si2 0.635511 0.700184 0.370689
Si Si3 0.673534 0.007291 0.571148
Si Si4 0.666322 0.448189 0.410795
Si Si5 0.846725 0.758008 0.907545
Si Si6 0.419816 0.786615 0.873213
O O1 0.271931 0.739259 0.166351
O O2 0.157728 0.884753 0.295636
O O3 0.160199 0.794625 0.093227
O O4 0.271838 0.953516 0.071455
O O5 0.619633 0.569441 0.426885
O O6 0.622386 0.715304 0.243745
O O7 0.571436 0.778319 0.493274
O O8 0.602003 0.916308 0.655131
O O9 0.736142 0.033514 0.631764
O O10 0.624851 0.127697 0.574663
O O11 0.620458 0.365768 0.537953
O O12 0.750000 0.750000 0.000000
O O13 0.500000 0.742527 0.750000
#
# Coordination Sequence:
#
# PCOD8134706 Si02
#       6
#     8   8   8   8   8   8
#     4  11  20  35  64  90 118 154 201 259 302 352
#     4  11  20  37  62  91 119 154 203 254 299 355
#     4  10  19  36  60  90 117 152 200 259 299 344
#     4  11  19  33  64  95 117 147 201 262 308 344
#     4  10  20  34  60  98 121 144 192 265 311 350
#     4  11  24  41  59  86 126 169 202 239 305 373
#
# _framework density 22.109121999999999
#
# number of rings (size 3 to 8) (size 9 to 14) (size 15 to 20)
#    0.000    1.333    6.667    3.000    0.000    0.000 
#    0.000    1.667    0.000    0.000    0.000    0.000 
#    0.000    0.000    0.000    0.000    0.000    0.000 
#
# Total GULP energy -297346.422315 kJ/mol
# GULP energy per Si atom -12389.434263 kJ/mol
# Density = 2.205880 g / cm^3
# Si number density = 22.109122 Si / 1000 Ang^3
#
#
#
# Elastic Constant Matrix: (Units=GPa)
#
#
# Indices 1 2 3 4 5 6 
#
# 1 10.8491 18.6821 13.1588 0.0000 -0.2901 0.0000
# 2 18.6821 176.9213 53.1781 0.0000 15.3096 0.0000
# 3 13.1588 53.1781 124.5820 0.0000 13.5058 0.0000
# 4 0.0000 0.0000 0.0000 38.3882 0.0000 8.2114
# 5 -0.2901 15.3096 13.5058 0.0000 29.3328 0.0000
# 6 0.0000 0.0000 0.0000 8.2114 0.0000 5.4715
#
#
#
# Elastic Compliance Matrix: (Units=1/GPa)
#
#
# Indices 1 2 3 4 5 6 
#
# 1 0.123174 -0.011141 -0.009491 0.000000 0.011403 0.000000
# 2 -0.011141 0.007632 -0.001723 0.000000 -0.003300 0.000000
# 3 -0.009491 -0.001723 0.010186 0.000000 -0.003884 0.000000
# 4 0.000000 0.000000 0.000000 0.038366 0.000000 -0.057577
# 5 0.011403 -0.003300 -0.003884 0.000000 0.037715 0.000000
# 6 0.000000 0.000000 0.000000 -0.057577 0.000000 0.269175
#
#
# Mechanical properties :
#
#
# Convention : Reuss Voigt Hill
#
# Bulk Modulus (GPa) = 10.38612 53.59893 31.99253
# Shear Modulus (GPa) = 8.88019 29.79405 19.33712
#
# Velocity S-wave (km/s) = 2.00630 3.67494 2.96061
# Velocity P-wave (km/s) = 3.17409 6.50403 5.11748
#
# Compressibility (1/GPa) = 0.09628235
#
# Stress axis : x y z
#
# Youngs Moduli (GPa) = 8.11862 131.02408 98.17383
#
# Poissons Ratio (x) = 1.45968 0.93175
# Poissons Ratio (y) = 0.09045 0.16919
# Poissons Ratio (z) = 0.07705 0.22580
#
# Static dielectric constant tensor:
#      x y z
#    x 3.312330 0.000000 0.308510 
#    y 0.000000 4.666040 0.000000 
#    z 0.308510 0.000000 3.989600 
# 
# 
# High freq. dielectric constant tensor:
#      x y z
#    x 1.794540 0.000000 0.021800 
#    y 0.000000 1.892380 0.000000 
#    z 0.021800 0.000000 1.875180 
# 
# From -- ./inp_files/110882.got.cif
#   From: 2010.06.25/outbox.cif.g09.slc.cpg/sg15_56_cif.got.tgz:110882.got - 2010.06.28 07:06:18.
