data_PCOD8134107
_publ_section_title
;
Structure prediction by ZEFSAII (Michael W. Deem and Ramdas Pophale) SiO2 
 PCOD8134107
Probable space group: C 2/C
;
_chemical_formula_sum "Si O2"
_cell_formula_units_Z 60
_cell_length_a 8.775315
_cell_length_b 11.806962
_cell_length_c 32.565801
_cell_angle_alpha 90.000000
_cell_angle_beta 68.671886
_cell_angle_gamma 90.000000
_cell_volume 3143.051570
_symmetry_space_group_name_H-M "C 2/C"
_symmetry_group_IT_number 15
_symmetry_cell_setting 'monoclinic'
loop_
_space_group_symop_operation_xyz
x,y,z
-x,y,1/2-z
-x,-y,-z
x,-y,1/2+z
1/2+x,1/2+y,z
1/2-x,1/2+y,1/2-z
1/2-x,1/2-y,-z
1/2+x,1/2-y,1/2+z
loop_
_atom_site_type_symbol
_atom_site_label
_atom_site_fract_x
_atom_site_fract_y
_atom_site_fract_z
Si Si1 0.951495 0.774723 0.632490
Si Si2 0.500717 0.995150 0.548644
Si Si3 0.697964 0.216060 0.675773
Si Si4 0.710519 0.797206 0.048117
Si Si5 0.500000 0.621617 0.250000
Si Si6 0.898933 0.002656 0.680991
Si Si7 0.796268 0.882592 0.385976
Si Si8 0.469419 0.243337 0.086033
O O1 0.795201 0.704167 0.634594
O O2 0.042719 0.706918 0.660379
O O3 0.079768 0.787558 0.582256
O O4 0.881805 0.897102 0.651740
O O5 0.543995 0.872436 0.561620
O O6 0.500000 0.000000 0.500000
O O7 0.636855 0.077855 0.553348
O O8 0.321569 0.024299 0.582934
O O9 0.643908 0.299555 0.717487
O O10 0.750682 0.092043 0.688081
O O11 0.850300 0.273385 0.636982
O O12 0.874325 0.806779 0.058758
O O13 0.750000 0.750000 0.000000
O O14 0.595329 0.542378 0.273069
O O15 0.072833 0.059079 0.655928
O O16 0.877144 0.819200 0.416595
#
# Coordination Sequence:
#
# PCOD8134107 Si02
#       8
#     8   8   8   8   4   8   8   8
#     4   9  20  37  58  80 113 152 192 228 282 332
#     4  11  21  35  57  79 113 150 187 236 290 319
#     4   9  20  39  61  83 117 149 186 233 280 350
#     4  10  19  35  56  81 112 148 190 241 278 330
#     4  10  20  36  60  92 114 142 182 236 284 338
#     4  10  21  39  62  83 117 151 186 227 292 338
#     4  10  22  37  58  83 110 151 194 233 273 344
#     4  10  21  39  57  80 114 151 193 231 286 336
#
# _framework density 19.089728000000001
#
# number of rings (size 3 to 8) (size 9 to 14) (size 15 to 20)
#    0.000    2.133    1.333    2.400    0.000    6.933 
#    0.000    4.667    0.000    0.000    0.000    0.000 
#    0.000    0.000    0.000    0.000    0.000    0.000 
#
# Total GULP energy -371990.625035 kJ/mol
# GULP energy per Si atom -12399.687501 kJ/mol
# Density = 1.904628 g / cm^3
# Si number density = 19.089728 Si / 1000 Ang^3
#
#
#
# Elastic Constant Matrix: (Units=GPa)
#
#
# Indices 1 2 3 4 5 6 
#
# 1 99.6948 46.5430 30.8510 0.0000 13.2619 0.0000
# 2 46.5430 105.0235 45.0653 0.0000 14.5228 0.0000
# 3 30.8510 45.0653 111.5063 0.0000 16.3398 0.0000
# 4 0.0000 0.0000 0.0000 38.2764 0.0000 4.1850
# 5 13.2619 14.5228 16.3398 0.0000 20.4788 0.0000
# 6 0.0000 0.0000 0.0000 4.1850 0.0000 33.9307
#
#
#
# Elastic Compliance Matrix: (Units=1/GPa)
#
#
# Indices 1 2 3 4 5 6 
#
# 1 0.013165 -0.004778 -0.001086 0.000000 -0.004271 0.000000
# 2 -0.004778 0.013733 -0.003685 0.000000 -0.003704 0.000000
# 3 -0.001086 -0.003685 0.011632 0.000000 -0.005964 0.000000
# 4 0.000000 0.000000 0.000000 0.026483 0.000000 -0.003266
# 5 -0.004271 -0.003704 -0.005964 0.000000 0.058983 0.000000
# 6 0.000000 0.000000 0.000000 -0.003266 0.000000 0.029875
#
#
# Mechanical properties :
#
#
# Convention : Reuss Voigt Hill
#
# Bulk Modulus (GPa) = 51.46135 62.34925 56.90530
# Shear Modulus (GPa) = 27.86361 31.45488 29.65924
#
# Velocity S-wave (km/s) = 3.82463 4.06364 3.94595
# Velocity P-wave (km/s) = 6.82055 7.39930 7.11581
#
# Compressibility (1/GPa) = 0.01943206
#
# Stress axis : x y z
#
# Youngs Moduli (GPa) = 75.95686 72.81884 85.97049
#
# Poissons Ratio (x) = 0.34793 0.09333
# Poissons Ratio (y) = 0.36292 0.31683
# Poissons Ratio (z) = 0.08246 0.26836
#
# Static dielectric constant tensor:
#      x y z
#    x 3.652390 0.000000 0.115950 
#    y 0.000000 3.748470 0.000000 
#    z 0.115950 0.000000 3.616870 
# 
# 
# High freq. dielectric constant tensor:
#      x y z
#    x 1.739390 0.000000 0.005690 
#    y 0.000000 1.742820 0.000000 
#    z 0.005690 0.000000 1.747480 
# 
# From -- ./inp_files/307117.got.cif
#   From: 2010.06.25/outbox.cif.g09.slc.cpg/sg15_154_cif.got.tgz:307117.got - 2010.06.28 07:06:18.
