data_PCOD8134353
_publ_section_title
;
Structure prediction by ZEFSAII (Michael W. Deem and Ramdas Pophale) SiO2 
 PCOD8134353
Probable space group: C 2/C
;
_chemical_formula_sum "Si O2"
_cell_formula_units_Z 56
_cell_length_a 9.028072
_cell_length_b 22.550322
_cell_length_c 15.728386
_cell_angle_alpha 90.000000
_cell_angle_beta 128.371907
_cell_angle_gamma 90.000000
_cell_volume 2510.422576
_symmetry_space_group_name_H-M "C 2/C"
_symmetry_group_IT_number 15
_symmetry_cell_setting 'monoclinic'
loop_
_space_group_symop_operation_xyz
x,y,z
-x,y,1/2-z
-x,-y,-z
x,-y,1/2+z
1/2+x,1/2+y,z
1/2-x,1/2+y,1/2-z
1/2-x,1/2-y,-z
1/2+x,1/2-y,1/2+z
loop_
_atom_site_type_symbol
_atom_site_label
_atom_site_fract_x
_atom_site_fract_y
_atom_site_fract_z
Si Si1 0.786385 0.455527 0.640153
Si Si2 0.419994 0.161938 0.582846
Si Si3 0.632915 0.462149 0.215820
Si Si4 0.167555 0.675370 0.376600
Si Si5 0.795496 0.838109 0.319460
Si Si6 0.017599 0.738626 0.474201
Si Si7 0.545645 0.033837 0.932368
O O1 0.626287 0.482772 0.646861
O O2 0.729317 0.388476 0.595924
O O3 0.791450 0.497697 0.559108
O O4 0.000000 0.453437 0.750000
O O5 0.281186 0.162668 0.612169
O O6 0.635275 0.169857 0.691639
O O7 0.377399 0.212521 0.496835
O O8 0.382227 0.099662 0.522022
O O9 0.500000 0.475291 0.250000
O O10 0.583082 0.398167 0.156098
O O11 0.855058 0.458523 0.311650
O O12 0.096102 0.682455 0.448728
O O13 0.322110 0.726361 0.416169
O O14 0.000000 0.683005 0.250000
O O15 0.929571 0.780747 0.369247
O O16 0.500000 0.000000 0.000000
#
# Coordination Sequence:
#
# PCOD8134353 Si02
#       7
#     8   8   8   8   8   8   8
#     4   9  18  38  61  80 116 158 195 237 299 363
#     4  10  20  38  61  85 121 163 204 248 305 360
#     4  10  21  38  61  89 120 156 198 251 311 356
#     4  10  22  39  60  85 122 162 197 251 307 358
#     4  10  21  38  60  87 123 162 200 256 302 361
#     4  11  22  36  60  92 119 157 211 246 297 367
#     4  10  19  35  61  89 116 158 200 239 299 373
#
# _framework density 22.307003000000002
#
# number of rings (size 3 to 8) (size 9 to 14) (size 15 to 20)
#    0.000    2.000    1.429    2.143    0.000    6.286 
#    2.571    1.429    9.429    0.000    0.000    0.000 
#    0.000    0.000    0.000    0.000    0.000    0.000 
#
# Total GULP energy -346960.688013 kJ/mol
# GULP energy per Si atom -12391.453143 kJ/mol
# Density = 2.225623 g / cm^3
# Si number density = 22.307003 Si / 1000 Ang^3
#
#
#
# Elastic Constant Matrix: (Units=GPa)
#
#
# Indices 1 2 3 4 5 6 
#
# 1 111.4553 55.1155 13.2290 0.0000 -37.9781 0.0000
# 2 55.1155 153.9533 46.0018 0.0000 -33.2640 0.0000
# 3 13.2290 46.0018 53.1713 0.0000 -16.3781 0.0000
# 4 0.0000 0.0000 0.0000 29.2974 0.0000 -20.3219
# 5 -37.9781 -33.2640 -16.3781 0.0000 37.0047 0.0000
# 6 0.0000 0.0000 0.0000 -20.3219 0.0000 28.6828
#
#
#
# Elastic Compliance Matrix: (Units=1/GPa)
#
#
# Indices 1 2 3 4 5 6 
#
# 1 0.014956 -0.003408 0.003487 0.000000 0.013829 0.000000
# 2 -0.003408 0.010509 -0.007424 0.000000 0.002663 0.000000
# 3 0.003487 -0.007424 0.027104 0.000000 0.008902 0.000000
# 4 0.000000 0.000000 0.000000 0.067117 0.000000 0.047553
# 5 0.013829 0.002663 0.008902 0.000000 0.047551 0.000000
# 6 0.000000 0.000000 0.000000 0.047553 0.000000 0.068555
#
#
# Mechanical properties :
#
#
# Convention : Reuss Voigt Hill
#
# Bulk Modulus (GPa) = 26.39910 60.80804 43.60357
# Shear Modulus (GPa) = 19.00348 32.61255 25.80801
#
# Velocity S-wave (km/s) = 2.92191 3.82774 3.40508
# Velocity P-wave (km/s) = 4.82116 6.84502 5.92021
#
# Compressibility (1/GPa) = 0.03788008
#
# Stress axis : x y z
#
# Youngs Moduli (GPa) = 66.86299 95.15281 36.89427
#
# Poissons Ratio (x) = 0.32431 -0.12867
# Poissons Ratio (y) = 0.22789 0.27390
# Poissons Ratio (z) = -0.23318 0.70642
#
# Static dielectric constant tensor:
#      x y z
#    x 3.923880 0.000000 0.280200 
#    y 0.000000 4.453630 0.000000 
#    z 0.280200 0.000000 4.809010 
# 
# 
# High freq. dielectric constant tensor:
#      x y z
#    x 1.867710 0.000000 -0.014750 
#    y 0.000000 1.893560 0.000000 
#    z -0.014750 0.000000 1.861040 
# 
# From -- ./inp_files/137989.got.cif
#   From: 2010.06.25/outbox.cif.g09.slc.cpg/sg15_69_cif.got.tgz:137989.got - 2010.06.28 07:06:18.
