data_PCOD8134581
_publ_section_title
;
Structure prediction by ZEFSAII (Michael W. Deem and Ramdas Pophale) SiO2 
 PCOD8134581
Probable space group: C 2/C
;
_chemical_formula_sum "Si O2"
_cell_formula_units_Z 48
_cell_length_a 14.907170
_cell_length_b 12.186682
_cell_length_c 14.518338
_cell_angle_alpha 90.000000
_cell_angle_beta 77.586908
_cell_angle_gamma 90.000000
_cell_volume 2575.874006
_symmetry_space_group_name_H-M "C 2/C"
_symmetry_group_IT_number 15
_symmetry_cell_setting 'monoclinic'
loop_
_space_group_symop_operation_xyz
x,y,z
-x,y,1/2-z
-x,-y,-z
x,-y,1/2+z
1/2+x,1/2+y,z
1/2-x,1/2+y,1/2-z
1/2-x,1/2-y,-z
1/2+x,1/2-y,1/2+z
loop_
_atom_site_type_symbol
_atom_site_label
_atom_site_fract_x
_atom_site_fract_y
_atom_site_fract_z
Si Si1 0.414606 0.579171 0.520250
Si Si2 0.955752 0.263495 0.002105
Si Si3 0.440598 0.119507 0.174156
Si Si4 0.162448 0.600830 0.852522
Si Si5 0.665140 0.590652 0.579905
Si Si6 0.661409 0.654053 0.776915
O O1 0.500000 0.500000 0.500000
O O2 0.451306 0.700154 0.488638
O O3 0.346430 0.532427 0.457896
O O4 0.368098 0.578787 0.631141
O O5 0.878217 0.182328 0.977363
O O6 0.985688 0.356009 0.922387
O O7 0.920588 0.317872 0.104388
O O8 0.500000 0.089382 0.250000
O O9 0.373378 0.222075 0.205898
O O10 0.375365 0.018368 0.163681
O O11 0.224795 0.600640 0.932459
O O12 0.226646 0.648619 0.755665
O O13 0.618202 0.603097 0.691864
#
# Coordination Sequence:
#
# PCOD8134581 Si02
#       6
#     8   8   8   8   8   8
#     4   9  19  33  61  87 113 146 192 239 277 331
#     4  10  19  36  58  83 112 147 197 228 287 339
#     4  11  20  37  59  80 112 154 189 240 281 341
#     4  10  22  35  56  86 112 150 195 230 286 345
#     4   9  19  38  61  84 113 153 191 235 282 334
#     4   9  21  37  57  86 114 149 198 227 286 340
#
# _framework density 18.634453000000001
#
# number of rings (size 3 to 8) (size 9 to 14) (size 15 to 20)
#    1.000    1.333    1.667    1.000    0.000    4.000 
#    0.000    5.000    0.000    0.000    0.000    0.000 
#    0.000    0.000    0.000    0.000    0.000    0.000 
#
# Total GULP energy -297322.287705 kJ/mol
# GULP energy per Si atom -12388.428654 kJ/mol
# Density = 1.859204 g / cm^3
# Si number density = 18.634453 Si / 1000 Ang^3
#
#
#
# Elastic Constant Matrix: (Units=GPa)
#
#
# Indices 1 2 3 4 5 6 
#
# 1 57.0925 40.9178 29.9720 0.0000 -11.6000 0.0000
# 2 40.9178 92.8518 65.1270 0.0000 -2.8974 0.0000
# 3 29.9720 65.1270 115.1144 0.0000 -26.6228 0.0000
# 4 0.0000 0.0000 0.0000 29.5253 0.0000 -0.6394
# 5 -11.6000 -2.8974 -26.6228 0.0000 27.8362 0.0000
# 6 0.0000 0.0000 0.0000 -0.6394 0.0000 32.6906
#
#
#
# Elastic Compliance Matrix: (Units=1/GPa)
#
#
# Indices 1 2 3 4 5 6 
#
# 1 0.029483 -0.015935 0.004875 0.000000 0.015290 0.000000
# 2 -0.015935 0.028946 -0.016778 0.000000 -0.019674 0.000000
# 3 0.004875 -0.016778 0.021797 0.000000 0.021132 0.000000
# 4 0.000000 0.000000 0.000000 0.033884 0.000000 0.000663
# 5 0.015290 -0.019674 0.021132 0.000000 0.060459 0.000000
# 6 0.000000 0.000000 0.000000 0.000663 0.000000 0.030603
#
#
# Mechanical properties :
#
#
# Convention : Reuss Voigt Hill
#
# Bulk Modulus (GPa) = 40.73062 59.67693 50.20377
# Shear Modulus (GPa) = 18.58521 26.61320 22.59920
#
# Velocity S-wave (km/s) = 3.16152 3.78322 3.48626
# Velocity P-wave (km/s) = 5.93566 7.15389 6.57306
#
# Compressibility (1/GPa) = 0.02455156
#
# Stress axis : x y z
#
# Youngs Moduli (GPa) = 33.91744 34.54698 45.87784
#
# Poissons Ratio (x) = 0.55051 -0.22366
# Poissons Ratio (y) = 0.54048 0.76972
# Poissons Ratio (z) = -0.16535 0.57961
#
# Static dielectric constant tensor:
#      x y z
#    x 3.116940 0.000000 -0.217550 
#    y 0.000000 3.864090 0.000000 
#    z -0.217550 0.000000 3.303360 
# 
# 
# High freq. dielectric constant tensor:
#      x y z
#    x 1.713490 0.000000 -0.016990 
#    y 0.000000 1.716490 0.000000 
#    z -0.016990 0.000000 1.715150 
# 
# From -- ./inp_files/152993.got.cif
#   From: 2010.06.25/outbox.cif.g09.slc.cpg/sg15_77_cif.got.tgz:152993.got - 2010.06.28 07:06:18.
