data_PCOD8134087
_publ_section_title
;
Structure prediction by ZEFSAII (Michael W. Deem and Ramdas Pophale) SiO2 
 PCOD8134087
Probable space group: C 2/C
;
_chemical_formula_sum "Si O2"
_cell_formula_units_Z 48
_cell_length_a 26.867634
_cell_length_b 14.402848
_cell_length_c 14.668799
_cell_angle_alpha 90.000000
_cell_angle_beta 152.535952
_cell_angle_gamma 90.000000
_cell_volume 2617.906115
_symmetry_space_group_name_H-M "C 2/C"
_symmetry_group_IT_number 15
_symmetry_cell_setting 'monoclinic'
loop_
_space_group_symop_operation_xyz
x,y,z
-x,y,1/2-z
-x,-y,-z
x,-y,1/2+z
1/2+x,1/2+y,z
1/2-x,1/2+y,1/2-z
1/2-x,1/2-y,-z
1/2+x,1/2-y,1/2+z
loop_
_atom_site_type_symbol
_atom_site_label
_atom_site_fract_x
_atom_site_fract_y
_atom_site_fract_z
Si Si1 0.548847 0.265359 0.425363
Si Si2 0.849850 0.794486 0.212764
Si Si3 0.694102 0.428806 0.673701
Si Si4 0.880112 0.999415 0.765999
Si Si5 0.622711 0.582092 0.427956
Si Si6 0.785460 0.238805 0.810975
O O1 0.500000 0.235816 0.250000
O O2 0.461624 0.244843 0.363246
O O3 0.579449 0.375022 0.475998
O O4 0.659775 0.206776 0.617747
O O5 0.839206 0.792346 0.303817
O O6 0.851151 0.899907 0.179837
O O7 0.750000 0.750000 0.000000
O O8 0.702099 0.473432 0.786784
O O9 0.700461 0.509489 0.608010
O O10 0.790898 0.352044 0.823199
O O11 0.861822 0.925264 0.655462
O O12 0.000000 0.000000 0.000000
O O13 0.500000 0.557829 0.250000
O O14 0.649806 0.687536 0.503045
#
# Coordination Sequence:
#
# PCOD8134087 Si02
#       6
#     8   8   8   8   8   8
#     4  10  19  35  55  88 122 145 192 252 290 345
#     4  12  19  34  62  90 110 154 204 244 293 349
#     4  10  21  37  56  88 124 144 201 252 296 343
#     4  12  20  34  59  87 115 152 196 250 303 341
#     4  12  21  36  61  89 120 153 201 252 296 355
#     4  10  23  35  56  93 122 154 190 252 305 348
#
# _framework density 18.335265
#
# number of rings (size 3 to 8) (size 9 to 14) (size 15 to 20)
#    1.000    0.000    6.667    2.500    0.000    0.667 
#    0.000    0.000    0.000    7.000    0.000    0.000 
#    0.000    0.000    0.000    0.000    0.000    0.000 
#
# Total GULP energy -297443.594677 kJ/mol
# GULP energy per Si atom -12393.483112 kJ/mol
# Density = 1.829353 g / cm^3
# Si number density = 18.335265 Si / 1000 Ang^3
#
#
#
# Elastic Constant Matrix: (Units=GPa)
#
#
# Indices 1 2 3 4 5 6 
#
# 1 112.4244 10.7271 35.5214 0.0000 -5.9098 0.0000
# 2 10.7271 75.6314 28.4709 0.0000 -6.6966 0.0000
# 3 35.5214 28.4709 55.8621 0.0000 -11.5827 0.0000
# 4 0.0000 0.0000 0.0000 34.9323 0.0000 -5.6689
# 5 -5.9098 -6.6966 -11.5827 0.0000 35.7497 0.0000
# 6 0.0000 0.0000 0.0000 -5.6689 0.0000 28.6555
#
#
#
# Elastic Compliance Matrix: (Units=1/GPa)
#
#
# Indices 1 2 3 4 5 6 
#
# 1 0.011250 0.001352 -0.007938 0.000000 -0.000459 0.000000
# 2 0.001352 0.016529 -0.009214 0.000000 0.000334 0.000000
# 3 -0.007938 -0.009214 0.028960 0.000000 0.006345 0.000000
# 4 0.000000 0.000000 0.000000 0.029576 0.000000 0.005851
# 5 -0.000459 0.000334 0.006345 0.000000 0.030015 0.000000
# 6 0.000000 0.000000 0.000000 0.005851 0.000000 0.036055
#
#
# Mechanical properties :
#
#
# Convention : Reuss Voigt Hill
#
# Bulk Modulus (GPa) = 39.77965 43.70632 41.74298
# Shear Modulus (GPa) = 25.99240 31.14738 28.56989
#
# Velocity S-wave (km/s) = 3.76921 4.12608 3.95168
# Velocity P-wave (km/s) = 6.37851 6.82557 6.60583
#
# Compressibility (1/GPa) = 0.02513848
#
# Stress axis : x y z
#
# Youngs Moduli (GPa) = 88.89136 60.50150 34.53009
#
# Poissons Ratio (x) = -0.08179 0.27408
# Poissons Ratio (y) = -0.12016 0.31817
# Poissons Ratio (z) = 0.70558 0.55748
#
# Static dielectric constant tensor:
#      x y z
#    x 3.923170 0.000000 -0.059840 
#    y 0.000000 3.340480 0.000000 
#    z -0.059840 0.000000 3.127920 
# 
# 
# High freq. dielectric constant tensor:
#      x y z
#    x 1.718150 0.000000 -0.011770 
#    y 0.000000 1.693330 0.000000 
#    z -0.011770 0.000000 1.682570 
# 
# From -- ./inp_files/178211.got.cif
#   From: 2010.06.25/outbox.cif.g09.slc.cpg/sg15_90_cif.got.tgz:178211.got - 2010.06.28 07:06:18.
