data_PCOD8134929
_publ_section_title
;
Structure prediction by ZEFSAII (Michael W. Deem and Ramdas Pophale) SiO2 
 PCOD8134929
Probable space group: C 2/C
;
_chemical_formula_sum "Si O2"
_cell_formula_units_Z 56
_cell_length_a 19.044120
_cell_length_b 14.590006
_cell_length_c 11.689996
_cell_angle_alpha 90.000000
_cell_angle_beta 67.403805
_cell_angle_gamma 90.000000
_cell_volume 2998.771322
_symmetry_space_group_name_H-M "C 2/C"
_symmetry_group_IT_number 15
_symmetry_cell_setting 'monoclinic'
loop_
_space_group_symop_operation_xyz
x,y,z
-x,y,1/2-z
-x,-y,-z
x,-y,1/2+z
1/2+x,1/2+y,z
1/2-x,1/2+y,1/2-z
1/2-x,1/2-y,-z
1/2+x,1/2-y,1/2+z
loop_
_atom_site_type_symbol
_atom_site_label
_atom_site_fract_x
_atom_site_fract_y
_atom_site_fract_z
Si Si1 0.431488 0.681503 0.455870
Si Si2 0.777499 0.480184 0.447034
Si Si3 0.101513 0.228489 0.369885
Si Si4 0.786691 0.325335 0.053588
Si Si5 0.848992 0.920788 0.812933
Si Si6 0.681402 0.590347 0.802754
Si Si7 0.582769 0.857937 0.174581
O O1 0.519648 0.679542 0.438514
O O2 0.416088 0.612871 0.357685
O O3 0.379646 0.653414 0.594859
O O4 0.413873 0.785926 0.432042
O O5 0.793074 0.583839 0.473986
O O6 0.731436 0.422365 0.570850
O O7 0.731298 0.472674 0.357301
O O8 0.861139 0.439961 0.385537
O O9 0.131982 0.279550 0.464014
O O10 0.157545 0.147856 0.290661
O O11 0.105213 0.307013 0.274602
O O12 0.737249 0.342928 0.198449
O O13 0.750000 0.250000 0.000000
O O14 0.864538 0.023174 0.754980
O O15 0.500000 0.901039 0.250000
#
# Coordination Sequence:
#
# PCOD8134929 Si02
#       7
#     8   8   8   8   8   8   8
#     4   9  20  35  58  86 112 152 196 236 292 349
#     4  10  20  36  57  85 114 152 199 233 283 354
#     4  10  19  37  57  82 118 151 186 243 293 335
#     4  11  23  38  58  84 117 148 187 245 295 342
#     4   9  19  32  58  84 113 148 197 236 281 345
#     4  10  20  37  57  85 116 152 192 238 289 348
#     4   9  18  35  58  84 114 148 197 239 279 346
#
# _framework density 18.674315
#
# number of rings (size 3 to 8) (size 9 to 14) (size 15 to 20)
#    0.000    2.286    1.429    2.143    2.000    2.286 
#    0.000    7.857    0.000    0.000    0.000    0.000 
#    0.000    0.000    0.000    0.000    0.000    0.000 
#
# Total GULP energy -347021.588207 kJ/mol
# GULP energy per Si atom -12393.628150 kJ/mol
# Density = 1.863181 g / cm^3
# Si number density = 18.674315 Si / 1000 Ang^3
#
#
#
# Elastic Constant Matrix: (Units=GPa)
#
#
# Indices 1 2 3 4 5 6 
#
# 1 118.0998 71.7272 54.8117 0.0000 -14.3129 0.0000
# 2 71.7272 101.7170 54.3865 0.0000 -17.2619 0.0000
# 3 54.8117 54.3865 98.8877 0.0000 -11.8277 0.0000
# 4 0.0000 0.0000 0.0000 41.5885 0.0000 4.3414
# 5 -14.3129 -17.2619 -11.8277 0.0000 20.9018 0.0000
# 6 0.0000 0.0000 0.0000 4.3414 0.0000 34.2210
#
#
#
# Elastic Compliance Matrix: (Units=1/GPa)
#
#
# Indices 1 2 3 4 5 6 
#
# 1 0.015746 -0.008917 -0.003663 0.000000 0.001346 0.000000
# 2 -0.008917 0.020231 -0.005273 0.000000 0.007618 0.000000
# 3 -0.003663 -0.005273 0.015254 0.000000 0.001769 0.000000
# 4 0.000000 0.000000 0.000000 0.024368 0.000000 -0.003091
# 5 0.001346 0.007618 0.001769 0.000000 0.056057 0.000000
# 6 0.000000 0.000000 0.000000 -0.003091 0.000000 0.029614
#
#
# Mechanical properties :
#
#
# Convention : Reuss Voigt Hill
#
# Bulk Modulus (GPa) = 64.40674 75.61725 70.01200
# Shear Modulus (GPa) = 24.73396 28.52754 26.63075
#
# Velocity S-wave (km/s) = 3.64330 3.91274 3.78042
# Velocity P-wave (km/s) = 7.22929 7.80982 7.52515
#
# Compressibility (1/GPa) = 0.01552633
#
# Stress axis : x y z
#
# Youngs Moduli (GPa) = 63.50853 49.42824 65.55465
#
# Poissons Ratio (x) = 0.44074 0.24011
# Poissons Ratio (y) = 0.56628 0.34569
# Poissons Ratio (z) = 0.23261 0.26065
#
# Static dielectric constant tensor:
#      x y z
#    x 2.082650 0.000000 0.210110 
#    y 0.000000 3.572320 0.000000 
#    z 0.210110 0.000000 3.455130 
# 
# 
# High freq. dielectric constant tensor:
#      x y z
#    x 1.717480 0.000000 0.001150 
#    y 0.000000 1.721040 0.000000 
#    z 0.001150 0.000000 1.720900 
# 
# From -- ./inp_files/105408.got.cif
#   From: 2010.06.25/outbox.cif.g09.slc.cpg/sg15_53_cif.got.tgz:105408.got - 2010.06.28 07:06:18.
