data_PCOD8134617
_publ_section_title
;
Structure prediction by ZEFSAII (Michael W. Deem and Ramdas Pophale) SiO2 
 PCOD8134617
Probable space group: C 2/C
;
_chemical_formula_sum "Si O2"
_cell_formula_units_Z 48
_cell_length_a 12.707010
_cell_length_b 15.577234
_cell_length_c 28.137937
_cell_angle_alpha 90.000000
_cell_angle_beta 151.822839
_cell_angle_gamma 90.000000
_cell_volume 2629.973807
_symmetry_space_group_name_H-M "C 2/C"
_symmetry_group_IT_number 15
_symmetry_cell_setting 'monoclinic'
loop_
_space_group_symop_operation_xyz
x,y,z
-x,y,1/2-z
-x,-y,-z
x,-y,1/2+z
1/2+x,1/2+y,z
1/2-x,1/2+y,1/2-z
1/2-x,1/2-y,-z
1/2+x,1/2-y,1/2+z
loop_
_atom_site_type_symbol
_atom_site_label
_atom_site_fract_x
_atom_site_fract_y
_atom_site_fract_z
Si Si1 0.266195 0.268667 0.631455
Si Si2 0.259343 0.925763 0.131670
Si Si3 0.324260 0.490669 0.999583
Si Si4 0.160083 0.333590 0.989721
Si Si5 0.297169 0.089168 0.461756
Si Si6 0.292425 0.574707 0.633011
O O1 0.500000 0.269204 0.750000
O O2 0.188452 0.171441 0.590610
O O3 0.280431 0.316959 0.586484
O O4 0.095216 0.319020 0.597428
O O5 0.500000 0.930341 0.250000
O O6 0.265700 0.984135 0.087631
O O7 0.081551 0.961710 0.098798
O O8 0.170197 0.413651 0.957788
O O9 0.306787 0.571932 0.027867
O O10 0.250000 0.250000 0.000000
O O11 0.301765 0.355898 0.093656
O O12 0.565171 0.084887 0.572356
O O13 0.200181 0.020626 0.385525
O O14 0.500000 0.591541 0.750000
#
# Coordination Sequence:
#
# PCOD8134617 Si02
#       6
#     8   8   8   8   8   8
#     4  10  20  36  58  82 111 142 181 228 274 324
#     4  10  22  38  55  77 110 148 182 222 270 331
#     4  10  21  37  57  77 109 146 181 225 272 327
#     4  10  19  36  59  80 108 147 184 223 274 330
#     4   9  19  33  56  83 112 142 177 232 278 320
#     4   9  18  33  54  86 114 140 181 232 276 322
#
# _framework density 18.251132999999999
#
# number of rings (size 3 to 8) (size 9 to 14) (size 15 to 20)
#    0.000    2.333    1.667    1.500    0.000    4.667 
#    0.000    0.833    0.000    0.000    0.000    0.000 
#    0.000    0.000    0.000    0.000    0.000    0.000 
#
# Total GULP energy -297609.129739 kJ/mol
# GULP energy per Si atom -12400.380406 kJ/mol
# Density = 1.820959 g / cm^3
# Si number density = 18.251133 Si / 1000 Ang^3
#
#
#
# Elastic Constant Matrix: (Units=GPa)
#
#
# Indices 1 2 3 4 5 6 
#
# 1 112.7874 62.8427 40.3989 0.0004 2.6182 0.0002
# 2 62.8427 94.7435 45.0470 0.0008 1.5143 0.0007
# 3 40.3989 45.0470 100.7352 0.0068 -0.4408 0.0024
# 4 0.0004 0.0008 0.0068 22.9342 0.0005 -2.3856
# 5 2.6182 1.5143 -0.4408 0.0005 16.0830 0.0006
# 6 0.0002 0.0007 0.0024 -2.3856 0.0006 43.1378
#
#
#
# Elastic Compliance Matrix: (Units=1/GPa)
#
#
# Indices 1 2 3 4 5 6 
#
# 1 0.014386 -0.008598 -0.001931 0.000001 -0.001585 0.000000
# 2 -0.008598 0.018577 -0.004861 0.000001 -0.000483 0.000000
# 3 -0.001931 -0.004861 0.012880 -0.000004 0.001125 -0.000001
# 4 0.000001 0.000001 -0.000004 0.043855 -0.000002 0.002425
# 5 -0.001585 -0.000483 0.001125 -0.000002 0.062512 -0.000001
# 6 0.000000 0.000000 -0.000001 0.002425 -0.000001 0.023316
#
#
# Mechanical properties :
#
#
# Convention : Reuss Voigt Hill
#
# Bulk Modulus (GPa) = 66.39394 67.20483 66.79939
# Shear Modulus (GPa) = 23.66000 27.09617 25.37808
#
# Velocity S-wave (km/s) = 3.60440 3.85727 3.73298
# Velocity P-wave (km/s) = 7.33343 7.53261 7.43369
#
# Compressibility (1/GPa) = 0.01506162
#
# Stress axis : x y z
#
# Youngs Moduli (GPa) = 69.51435 53.82994 77.63842
#
# Poissons Ratio (x) = 0.46285 0.14993
# Poissons Ratio (y) = 0.59771 0.37741
# Poissons Ratio (z) = 0.13424 0.26168
#
# Static dielectric constant tensor:
#      x y z
#    x 3.527720 0.000000 0.099910 
#    y 0.000000 3.616710 0.000000 
#    z 0.099910 0.000000 3.092520 
# 
# 
# High freq. dielectric constant tensor:
#      x y z
#    x 1.713260 0.000000 0.008580 
#    y 0.000000 1.712960 0.000000 
#    z 0.008580 0.000000 1.690360 
# 
# From -- ./inp_files/87225.got.cif
#   From: 2010.06.25/outbox.cif.g09.slc.cpg/sg15_44_cif.got.tgz:87225.got - 2010.06.28 07:06:18.
