data_PCOD8134898
_publ_section_title
;
Structure prediction by ZEFSAII (Michael W. Deem and Ramdas Pophale) SiO2 
 PCOD8134898
Probable space group: C 2/C
;
_chemical_formula_sum "Si O2"
_cell_formula_units_Z 52
_cell_length_a 25.772949
_cell_length_b 22.549025
_cell_length_c 5.257887
_cell_angle_alpha 90.000000
_cell_angle_beta 65.938457
_cell_angle_gamma 90.000000
_cell_volume 2790.135528
_symmetry_space_group_name_H-M "C 2/C"
_symmetry_group_IT_number 15
_symmetry_cell_setting 'monoclinic'
loop_
_space_group_symop_operation_xyz
x,y,z
-x,y,1/2-z
-x,-y,-z
x,-y,1/2+z
1/2+x,1/2+y,z
1/2-x,1/2+y,1/2-z
1/2-x,1/2-y,-z
1/2+x,1/2-y,1/2+z
loop_
_atom_site_type_symbol
_atom_site_label
_atom_site_fract_x
_atom_site_fract_y
_atom_site_fract_z
Si Si1 0.697582 0.536868 0.352275
Si Si2 0.102817 0.871146 0.044419
Si Si3 0.063370 0.188314 0.123258
Si Si4 0.000000 0.697950 0.750000
Si Si5 0.669998 0.937224 0.924021
Si Si6 0.500000 0.539284 0.750000
Si Si7 0.878629 0.568036 0.478605
Si Si8 0.500000 0.881055 0.750000
O O1 0.680548 0.499204 0.634206
O O2 0.664570 0.598921 0.420876
O O3 0.763668 0.551412 0.224744
O O4 0.097487 0.830629 0.304674
O O5 0.056220 0.921965 0.137450
O O6 0.097401 0.830464 0.806141
O O7 0.056032 0.259808 0.137320
O O8 0.000000 0.158333 0.250000
O O9 0.999743 0.658965 0.499524
O O10 0.647822 0.901167 0.721821
O O11 0.652810 0.902020 0.214997
O O12 0.635635 0.998734 0.009437
O O13 0.500000 0.500000 0.500000
O O14 0.945858 0.576208 0.358050
#
# Coordination Sequence:
#
# PCOD8134898 Si02
#       8
#     8   8   8   4   8   4   8   4
#     4  12  21  36  54  82 115 154 206 228 254 317
#     4  12  21  34  54  80 103 150 198 229 266 351
#     4  10  20  39  57  72 110 144 180 232 308 339
#     4  10  22  39  59  82 120 137 181 244 300 350
#     4  10  19  37  53  77 120 168 177 217 265 317
#     4  12  20  30  40  68 112 142 160 224 292 292
#     4  10  20  34  57  80 122 149 186 213 279 330
#     4  12  22  35  59 100 106 139 191 230 278 366
#
# _framework density 18.637086
#
# number of rings (size 3 to 8) (size 9 to 14) (size 15 to 20)
#    0.462    0.615    4.615    4.615    0.000    2.462 
#    0.000    0.000    0.000    0.000    0.000   21.538 
#    0.000    0.000    0.000    0.000    0.000    0.000 
#
# Total GULP energy -322321.934129 kJ/mol
# GULP energy per Si atom -12396.997467 kJ/mol
# Density = 1.859467 g / cm^3
# Si number density = 18.637086 Si / 1000 Ang^3
#
#
#
# Elastic Constant Matrix: (Units=GPa)
#
#
# Indices 1 2 3 4 5 6 
#
# 1 80.2588 33.0369 44.2213 0.0000 1.3753 0.0000
# 2 33.0369 45.1148 18.5662 0.0000 -13.6747 0.0000
# 3 44.2213 18.5662 121.1448 0.0000 28.0731 0.0000
# 4 0.0000 0.0000 0.0000 92.5755 0.0000 -191.4905
# 5 1.3753 -13.6747 28.0731 0.0000 42.3463 0.0000
# 6 0.0000 0.0000 0.0000 -191.4905 0.0000 558.7236
#
#
#
# Elastic Compliance Matrix: (Units=1/GPa)
#
#
# Indices 1 2 3 4 5 6 
#
# 1 0.021001 -0.013774 -0.005159 0.000000 -0.001710 0.000000
# 2 -0.013774 0.039107 -0.004721 0.000000 0.016206 0.000000
# 3 -0.005159 -0.004721 0.013204 0.000000 -0.010110 0.000000
# 4 0.000000 0.000000 0.000000 0.037111 0.000000 0.012719
# 5 -0.001710 0.016206 -0.010110 0.000000 0.035606 0.000000
# 6 0.000000 0.000000 0.000000 0.012719 0.000000 0.006149
#
#
# Mechanical properties :
#
#
# Convention : Reuss Voigt Hill
#
# Bulk Modulus (GPa) = 38.45431 48.68525 43.56978
# Shear Modulus (GPa) = 24.02059 148.77536 86.39797
#
# Velocity S-wave (km/s) = 3.59396 8.94432 6.81606
# Velocity P-wave (km/s) = 6.15631 11.52594 9.23979
#
# Compressibility (1/GPa) = 0.02600489
#
# Stress axis : x y z
#
# Youngs Moduli (GPa) = 47.61610 25.57070 75.73400
#
# Poissons Ratio (x) = 0.35222 0.39069
# Poissons Ratio (y) = 0.65588 0.35753
# Poissons Ratio (z) = 0.24564 0.12071
#
# Static dielectric constant tensor:
#      x y z
#    x 4.158600 0.000000 1.437370 
#    y 0.000000 3.075000 0.000000 
#    z 1.437370 0.000000 5.694370 
# 
# 
# High freq. dielectric constant tensor:
#      x y z
#    x 1.724830 0.000000 0.021820 
#    y 0.000000 1.679950 0.000000 
#    z 0.021820 0.000000 1.750610 
# 
# From -- ./inp_files/15810.got.cif
#   From: 2010.06.25/outbox.cif.g09.slc.cpg/sg15_8_cif.got.tgz:15810.got - 2010.06.28 07:06:18.
