data_PCOD8134483
_publ_section_title
;
Structure prediction by ZEFSAII (Michael W. Deem and Ramdas Pophale) SiO2 
 PCOD8134483
Probable space group: C 2/C
;
_chemical_formula_sum "Si O2"
_cell_formula_units_Z 60
_cell_length_a 17.699675
_cell_length_b 20.636015
_cell_length_c 8.493862
_cell_angle_alpha 90.000000
_cell_angle_beta 64.395392
_cell_angle_gamma 90.000000
_cell_volume 2797.727979
_symmetry_space_group_name_H-M "C 2/C"
_symmetry_group_IT_number 15
_symmetry_cell_setting 'monoclinic'
loop_
_space_group_symop_operation_xyz
x,y,z
-x,y,1/2-z
-x,-y,-z
x,-y,1/2+z
1/2+x,1/2+y,z
1/2-x,1/2+y,1/2-z
1/2-x,1/2-y,-z
1/2+x,1/2-y,1/2+z
loop_
_atom_site_type_symbol
_atom_site_label
_atom_site_fract_x
_atom_site_fract_y
_atom_site_fract_z
Si Si1 0.845076 0.727350 0.873638
Si Si2 0.649991 0.819334 0.803283
Si Si3 0.733752 0.316145 0.236912
Si Si4 0.295891 0.615924 0.049625
Si Si5 0.945065 0.811561 0.567784
Si Si6 0.597410 0.598819 0.998471
Si Si7 0.094461 0.983183 0.198237
Si Si8 0.000000 0.283905 0.750000
O O1 0.826660 0.684759 0.733189
O O2 0.912460 0.782577 0.765007
O O3 0.750000 0.750000 0.000000
O O4 0.883482 0.687138 0.985955
O O5 0.702000 0.754622 0.712217
O O6 0.714533 0.880838 0.737569
O O7 0.577555 0.828811 0.736536
O O8 0.666752 0.345070 0.424327
O O9 0.741360 0.362039 0.083153
O O10 0.365744 0.665547 0.041766
O O11 0.338679 0.546454 0.986865
O O12 0.988630 0.759442 0.416027
O O13 0.006759 0.870186 0.552420
O O14 0.613545 0.541021 0.856798
O O15 0.601565 0.561569 0.164900
O O16 0.000000 0.959447 0.250000
#
# Coordination Sequence:
#
# PCOD8134483 Si02
#       8
#     8   8   8   8   8   8   8   4
#     4  10  22  35  52  84 115 148 196 246 310 360
#     4  11  21  37  55  86 110 150 201 248 311 361
#     4  10  19  36  55  80 111 157 199 246 292 358
#     4  11  20  35  58  73 112 164 204 244 289 356
#     4  12  20  36  57  78 119 160 201 247 301 354
#     4  11  24  38  56  83 123 164 209 246 290 342
#     4  11  23  37  52  81 116 166 211 242 282 347
#     4  12  22  36  60  86 114 154 206 246 304 374
#
# _framework density 21.445974
#
# number of rings (size 3 to 8) (size 9 to 14) (size 15 to 20)
#    0.000    1.067    6.667    2.400    0.000    3.733 
#    0.000    0.000    0.000    0.000    0.000    0.000 
#    0.000   17.067    0.267    0.133    0.000    0.400 
#
# Total GULP energy -371714.174872 kJ/mol
# GULP energy per Si atom -12390.472496 kJ/mol
# Density = 2.139716 g / cm^3
# Si number density = 21.445974 Si / 1000 Ang^3
#
#
#
# Elastic Constant Matrix: (Units=GPa)
#
#
# Indices 1 2 3 4 5 6 
#
# 1 93.8488 31.2295 7.7282 0.0000 -1.9471 0.0000
# 2 31.2295 51.7657 25.1391 0.0000 -15.5390 0.0000
# 3 7.7282 25.1391 83.5899 0.0000 -6.5518 0.0000
# 4 0.0000 0.0000 0.0000 39.4867 0.0000 -2.8069
# 5 -1.9471 -15.5390 -6.5518 0.0000 27.1866 0.0000
# 6 0.0000 0.0000 0.0000 -2.8069 0.0000 14.8483
#
#
#
# Elastic Compliance Matrix: (Units=1/GPa)
#
#
# Indices 1 2 3 4 5 6 
#
# 1 0.013944 -0.010550 0.001518 0.000000 -0.004666 0.000000
# 2 -0.010550 0.034790 -0.008142 0.000000 0.017167 0.000000
# 3 0.001518 -0.008142 0.014183 0.000000 -0.001127 0.000000
# 4 0.000000 0.000000 0.000000 0.025670 0.000000 0.004853
# 5 -0.004666 0.017167 -0.001127 0.000000 0.045989 0.000000
# 6 0.000000 0.000000 0.000000 0.004853 0.000000 0.068265
#
#
# Mechanical properties :
#
#
# Convention : Reuss Voigt Hill
#
# Bulk Modulus (GPa) = 35.00273 39.71086 37.35680
# Shear Modulus (GPa) = 20.26653 27.31149 23.78901
#
# Velocity S-wave (km/s) = 3.07743 3.57249 3.33416
# Velocity P-wave (km/s) = 5.38370 5.96438 5.68146
#
# Compressibility (1/GPa) = 0.02856920
#
# Stress axis : x y z
#
# Youngs Moduli (GPa) = 71.71365 28.74423 70.50653
#
# Poissons Ratio (x) = 0.30326 -0.10703
# Poissons Ratio (y) = 0.75659 0.57405
# Poissons Ratio (z) = -0.10886 0.23403
#
# Static dielectric constant tensor:
#      x y z
#    x 4.207710 0.000000 0.189550 
#    y 0.000000 3.629640 0.000000 
#    z 0.189550 0.000000 4.303200 
# 
# 
# High freq. dielectric constant tensor:
#      x y z
#    x 1.839930 0.000000 0.018830 
#    y 0.000000 1.784990 0.000000 
#    z 0.018830 0.000000 1.858060 
# 
# From -- ./inp_files/50644.got.cif
#   From: 2010.06.25/outbox.cif.g09.slc.cpg/sg15_26_cif.got.tgz:50644.got - 2010.06.28 07:06:18.
