data_PCOD8134863
_publ_section_title
;
Structure prediction by ZEFSAII (Michael W. Deem and Ramdas Pophale) SiO2 
 PCOD8134863
Probable space group: C 2/C
;
_chemical_formula_sum "Si O2"
_cell_formula_units_Z 64
_cell_length_a 21.831153
_cell_length_b 19.857180
_cell_length_c 18.330342
_cell_angle_alpha 90.000000
_cell_angle_beta 158.225918
_cell_angle_gamma 90.000000
_cell_volume 2947.661474
_symmetry_space_group_name_H-M "C 2/C"
_symmetry_group_IT_number 15
_symmetry_cell_setting 'monoclinic'
loop_
_space_group_symop_operation_xyz
x,y,z
-x,y,1/2-z
-x,-y,-z
x,-y,1/2+z
1/2+x,1/2+y,z
1/2-x,1/2+y,1/2-z
1/2-x,1/2-y,-z
1/2+x,1/2-y,1/2+z
loop_
_atom_site_type_symbol
_atom_site_label
_atom_site_fract_x
_atom_site_fract_y
_atom_site_fract_z
Si Si1 0.131631 0.700092 0.572518
Si Si2 0.622552 0.802895 0.825168
Si Si3 0.834913 0.463796 0.034446
Si Si4 0.257291 0.052808 0.217323
Si Si5 0.692052 0.648042 0.276680
Si Si6 0.615569 0.946091 0.046387
Si Si7 0.430029 0.242715 0.473107
Si Si8 0.173856 0.065464 0.969830
O O1 0.186845 0.626808 0.605445
O O2 0.295897 0.744457 0.759803
O O3 0.992753 0.731537 0.364784
O O4 0.065014 0.696261 0.582315
O O5 0.500000 0.830255 0.750000
O O6 0.750000 0.750000 0.000000
O O7 0.707424 0.870404 0.890031
O O8 0.000000 0.429657 0.250000
O O9 0.719314 0.405628 0.871862
O O10 0.908600 0.513525 0.054878
O O11 0.735065 0.505324 0.985207
O O12 0.190308 0.113098 0.194576
O O13 0.445521 0.065468 0.401400
O O14 0.249792 0.983832 0.254955
O O15 0.147120 0.040261 0.023529
O O16 0.844983 0.701861 0.445496
O O17 0.519430 0.687989 0.099244
O O18 0.000000 0.092842 0.750000
#
# Coordination Sequence:
#
# PCOD8134863 Si02
#       8
#     8   8   8   8   8   8   8   8
#     4  11  20  37  57  82 113 158 199 255 301 363
#     4  12  24  38  55  83 122 169 210 247 305 377
#     4  11  22  41  66  91 124 169 210 259 320 386
#     4  10  20  37  61  92 118 152 203 256 307 374
#     4  10  22  41  65  96 125 159 211 266 320 378
#     4  10  19  36  65  88 114 155 208 254 307 368
#     4  10  22  37  61  88 120 155 207 262 315 367
#     4  12  25  40  59  92 132 167 208 262 317 380
#
# _framework density 21.712126999999999
#
# number of rings (size 3 to 8) (size 9 to 14) (size 15 to 20)
#    0.000    1.250    3.750    2.250    0.000    6.000 
#    0.000    4.375    0.000    0.000    0.000    0.000 
#    0.000    0.000    0.000    0.000    0.000    0.000 
#
# Total GULP energy -396560.509118 kJ/mol
# GULP energy per Si atom -12392.515910 kJ/mol
# Density = 2.166271 g / cm^3
# Si number density = 21.712127 Si / 1000 Ang^3
#
#
#
# Elastic Constant Matrix: (Units=GPa)
#
#
# Indices 1 2 3 4 5 6 
#
# 1 74.8454 29.0351 24.0389 0.0228 -17.1274 0.0120
# 2 29.0351 107.5540 38.9029 0.0082 -15.1589 0.0073
# 3 24.0389 38.9029 91.4874 0.0377 -15.6110 0.0289
# 4 0.0228 0.0082 0.0377 26.8786 0.0262 0.0587
# 5 -17.1274 -15.1589 -15.6110 0.0262 32.6842 0.0158
# 6 0.0120 0.0073 0.0289 0.0587 0.0158 25.5419
#
#
#
# Elastic Compliance Matrix: (Units=1/GPa)
#
#
# Indices 1 2 3 4 5 6 
#
# 1 0.016584 -0.002830 -0.002064 -0.000017 0.006393 -0.000009
# 2 -0.002830 0.011770 -0.003901 0.000002 0.002113 0.000001
# 3 -0.002064 -0.003901 0.013760 -0.000020 0.003681 -0.000016
# 4 -0.000017 0.000002 -0.000020 0.037205 -0.000047 -0.000085
# 5 0.006393 0.002113 0.003681 -0.000047 0.036684 -0.000030
# 6 -0.000009 0.000001 -0.000016 -0.000085 -0.000030 0.039152
#
#
# Mechanical properties :
#
#
# Convention : Reuss Voigt Hill
#
# Bulk Modulus (GPa) = 40.77327 50.87116 45.82222
# Shear Modulus (GPa) = 27.63678 29.14828 28.39253
#
# Velocity S-wave (km/s) = 3.57160 3.66797 3.62011
# Velocity P-wave (km/s) = 5.98567 6.43579 6.21481
#
# Compressibility (1/GPa) = 0.02452587
#
# Stress axis : x y z
#
# Youngs Moduli (GPa) = 60.29819 84.95903 72.67606
#
# Poissons Ratio (x) = 0.24041 0.14997
# Poissons Ratio (y) = 0.17062 0.28351
# Poissons Ratio (z) = 0.12443 0.33143
#
# Static dielectric constant tensor:
#      x y z
#    x 3.906760 -0.000010 -0.089400 
#    y -0.000010 3.961960 -0.000050 
#    z -0.089400 -0.000050 3.984110 
# 
# 
# High freq. dielectric constant tensor:
#      x y z
#    x 1.840260 0.000000 -0.001010 
#    y 0.000000 1.847960 0.000000 
#    z -0.001010 0.000000 1.849520 
# 
# From -- ./inp_files/256017.got.cif
#   From: 2010.06.25/outbox.cif.g09.slc.cpg/sg15_129_cif.got.tgz:256017.got - 2010.06.28 07:06:18.
