data_PCOD8134911
_publ_section_title
;
Structure prediction by ZEFSAII (Michael W. Deem and Ramdas Pophale) SiO2 
 PCOD8134911
Probable space group: C 2/C
;
_chemical_formula_sum "Si O2"
_cell_formula_units_Z 40
_cell_length_a 8.863952
_cell_length_b 18.166947
_cell_length_c 14.136776
_cell_angle_alpha 90.000000
_cell_angle_beta 67.891919
_cell_angle_gamma 90.000000
_cell_volume 2109.083083
_symmetry_space_group_name_H-M "C 2/C"
_symmetry_group_IT_number 15
_symmetry_cell_setting 'monoclinic'
loop_
_space_group_symop_operation_xyz
x,y,z
-x,y,1/2-z
-x,-y,-z
x,-y,1/2+z
1/2+x,1/2+y,z
1/2-x,1/2+y,1/2-z
1/2-x,1/2-y,-z
1/2+x,1/2-y,1/2+z
loop_
_atom_site_type_symbol
_atom_site_label
_atom_site_fract_x
_atom_site_fract_y
_atom_site_fract_z
Si Si1 0.466830 0.640327 0.647508
Si Si2 0.184978 0.466759 0.190020
Si Si3 0.533001 0.191306 0.353007
Si Si4 0.261377 0.596957 0.053244
Si Si5 0.325935 0.601537 0.243936
O O1 0.500000 0.634316 0.750000
O O2 0.292612 0.606668 0.661259
O O3 0.467474 0.724651 0.613288
O O4 0.607736 0.595396 0.561074
O O5 0.246603 0.519511 0.261354
O O6 0.000000 0.442127 0.250000
O O7 0.201679 0.512990 0.087711
O O8 0.500000 0.180565 0.250000
O O9 0.391404 0.147670 0.442381
O O10 0.709309 0.155479 0.332195
O O11 0.342176 0.629511 0.130996
O O12 0.500000 0.599306 0.250000
#
# Coordination Sequence:
#
# PCOD8134911 Si02
#       5
#     8   8   8   8   8
#     4  11  22  33  55  85 112 138 188 233 266 315
#     4  10  19  37  56  75 112 143 179 226 282 316
#     4   9  17  35  56  81 108 148 182 223 273 326
#     4   9  18  37  56  77 110 151 179 219 276 335
#     4   9  17  33  58  77 101 145 193 210 265 343
#
# _framework density 18.965588
#
# number of rings (size 3 to 8) (size 9 to 14) (size 15 to 20)
#    1.200    1.200    2.000    1.800    0.000    0.800 
#    0.000    4.000    0.000    0.000    0.000    0.000 
#    0.000    0.000    0.000    0.000    0.000    0.000 
#
# Total GULP energy -247887.013981 kJ/mol
# GULP energy per Si atom -12394.350699 kJ/mol
# Density = 1.892242 g / cm^3
# Si number density = 18.965588 Si / 1000 Ang^3
#
#
#
# Elastic Constant Matrix: (Units=GPa)
#
#
# Indices 1 2 3 4 5 6 
#
# 1 147.5909 50.7612 39.4445 0.0000 -29.9561 0.0000
# 2 50.7612 87.3371 9.2995 0.0000 -7.6194 0.0000
# 3 39.4445 9.2995 66.4608 0.0000 -20.3192 0.0000
# 4 0.0000 0.0000 0.0000 -46.6402 0.0000 -49.1769
# 5 -29.9561 -7.6194 -20.3192 0.0000 25.6946 0.0000
# 6 0.0000 0.0000 0.0000 -49.1769 0.0000 7.8384
#
#
#
# Elastic Compliance Matrix: (Units=1/GPa)
#
#
# Indices 1 2 3 4 5 6 
#
# 1 0.011354 -0.005466 -0.003195 0.000000 0.009090 0.000000
# 2 -0.005466 0.014415 0.000772 0.000000 -0.001487 0.000000
# 3 -0.003195 0.000772 0.020793 0.000000 0.012947 0.000000
# 4 0.000000 0.000000 0.000000 -0.002816 0.000000 -0.017664
# 5 0.009090 -0.001487 0.012947 0.000000 0.059314 0.000000
# 6 0.000000 0.000000 0.000000 -0.017664 0.000000 0.016753
#
#
# Mechanical properties :
#
#
# Convention : Reuss Voigt Hill
#
# Bulk Modulus (GPa) = 32.48313 55.59991 44.04152
# Shear Modulus (GPa) = 34.28127 10.83745 22.55936
#
# Velocity S-wave (km/s) = 4.25614 2.39305 3.45264
# Velocity P-wave (km/s) = 6.42788 6.08403 6.25831
#
# Compressibility (1/GPa) = 0.03078521
#
# Stress axis : x y z
#
# Youngs Moduli (GPa) = 88.07300 69.37324 48.09328
#
# Poissons Ratio (x) = 0.37919 0.15365
# Poissons Ratio (y) = 0.48141 -0.03715
# Poissons Ratio (z) = 0.28137 -0.05358
#
# Static dielectric constant tensor:
#      x y z
#    x 3.279470 0.000000 -0.190640 
#    y 0.000000 3.409650 0.000000 
#    z -0.190640 0.000000 3.119630 
# 
# 
# High freq. dielectric constant tensor:
#      x y z
#    x 1.730530 0.000000 -0.026370 
#    y 0.000000 1.729030 0.000000 
#    z -0.026370 0.000000 1.706800 
# 
# From -- ./inp_files/77648.got.cif
#   From: 2010.06.25/outbox.cif.g09.slc.cpg/sg15_39_cif.got.tgz:77648.got - 2010.06.28 07:06:18.
