data_PCOD8134098
_publ_section_title
;
Structure prediction by ZEFSAII (Michael W. Deem and Ramdas Pophale) SiO2 
 PCOD8134098
Probable space group: C 2/C
;
_chemical_formula_sum "Si O2"
_cell_formula_units_Z 40
_cell_length_a 4.884679
_cell_length_b 23.153492
_cell_length_c 17.310175
_cell_angle_alpha 90.000000
_cell_angle_beta 80.664574
_cell_angle_gamma 90.000000
_cell_volume 1931.806359
_symmetry_space_group_name_H-M "C 2/C"
_symmetry_group_IT_number 15
_symmetry_cell_setting 'monoclinic'
loop_
_space_group_symop_operation_xyz
x,y,z
-x,y,1/2-z
-x,-y,-z
x,-y,1/2+z
1/2+x,1/2+y,z
1/2-x,1/2+y,1/2-z
1/2-x,1/2-y,-z
1/2+x,1/2-y,1/2+z
loop_
_atom_site_type_symbol
_atom_site_label
_atom_site_fract_x
_atom_site_fract_y
_atom_site_fract_z
Si Si1 0.544831 0.203847 0.413453
Si Si2 0.500000 0.848091 0.750000
Si Si3 0.999223 0.177385 0.989500
Si Si4 0.797232 0.436970 0.447391
Si Si5 0.813938 0.001532 0.396665
Si Si6 0.000000 0.925603 0.750000
O O1 0.563039 0.191236 0.321759
O O2 0.841492 0.193856 0.439133
O O3 0.472879 0.271311 0.428315
O O4 0.314692 0.163386 0.467598
O O5 0.770346 0.886407 0.718113
O O6 0.160706 0.125460 0.939734
O O7 0.618560 0.483441 0.408712
O O8 0.805897 0.451398 0.537908
O O9 0.110405 0.445271 0.400600
O O10 0.830080 0.033889 0.315372
#
# Coordination Sequence:
#
# PCOD8134098 Si02
#       6
#     8   4   8   8   8   4
#     4  10  21  35  57  87 113 144 192 234 283 346
#     4  12  22  36  59  84 115 150 186 240 300 342
#     4  10  20  37  58  82 114 150 189 237 281 334
#     4  10  19  35  56  79 108 147 187 226 272 332
#     4  10  21  34  54  81 109 143 189 228 274 340
#     4  12  24  38  57  84 119 148 184 246 300 338
#
# _framework density 20.706009999999999
#
# number of rings (size 3 to 8) (size 9 to 14) (size 15 to 20)
#    0.000    1.600    0.000    6.000    0.000    3.200 
#    0.000    1.000    0.000    7.200    0.000    0.000 
#    0.000    0.000    0.000    0.000    0.000    0.000 
#
# Total GULP energy -247999.663775 kJ/mol
# GULP energy per Si atom -12399.983189 kJ/mol
# Density = 2.065888 g / cm^3
# Si number density = 20.706010 Si / 1000 Ang^3
#
#
#
# Elastic Constant Matrix: (Units=GPa)
#
#
# Indices 1 2 3 4 5 6 
#
# 1 94.9227 17.0312 27.8703 0.0000 -8.3492 0.0000
# 2 17.0312 87.9546 45.3550 0.0000 -6.2565 0.0000
# 3 27.8703 45.3550 113.9358 0.0000 3.0081 0.0000
# 4 0.0000 0.0000 0.0000 21.3502 0.0000 -3.4549
# 5 -8.3492 -6.2565 3.0081 0.0000 25.5819 0.0000
# 6 0.0000 0.0000 0.0000 -3.4549 0.0000 38.2893
#
#
#
# Elastic Compliance Matrix: (Units=1/GPa)
#
#
# Indices 1 2 3 4 5 6 
#
# 1 0.011805 -0.000572 -0.002767 0.000000 0.004038 0.000000
# 2 -0.000572 0.014794 -0.005858 0.000000 0.004120 0.000000
# 3 -0.002767 -0.005858 0.011884 0.000000 -0.003733 0.000000
# 4 0.000000 0.000000 0.000000 0.047532 0.000000 0.004289
# 5 0.004038 0.004120 -0.003733 0.000000 0.041855 0.000000
# 6 0.000000 0.000000 0.000000 0.004289 0.000000 0.026504
#
#
# Mechanical properties :
#
#
# Convention : Reuss Voigt Hill
#
# Bulk Modulus (GPa) = 49.77598 53.03623 51.40610
# Shear Modulus (GPa) = 27.86073 30.81470 29.33771
#
# Velocity S-wave (km/s) = 3.67214 3.86191 3.76822
# Velocity P-wave (km/s) = 6.48622 6.74947 6.61915
#
# Compressibility (1/GPa) = 0.02009001
#
# Stress axis : x y z
#
# Youngs Moduli (GPa) = 84.70977 67.59433 84.14585
#
# Poissons Ratio (x) = 0.03866 0.23280
# Poissons Ratio (y) = 0.04845 0.49293
# Poissons Ratio (z) = 0.23436 0.39597
#
# Static dielectric constant tensor:
#      x y z
#    x 4.023610 0.000000 -0.021510 
#    y 0.000000 3.666220 0.000000 
#    z -0.021510 0.000000 3.369190 
# 
# 
# High freq. dielectric constant tensor:
#      x y z
#    x 1.836780 0.000000 0.002700 
#    y 0.000000 1.799570 0.000000 
#    z 0.002700 0.000000 1.778290 
# 
# From -- ./inp_files/185080.got.cif
#   From: 2010.06.25/outbox.cif.g09.slc.cpg/sg15_93_cif.got.tgz:185080.got - 2010.06.28 07:06:18.
