data_PCOD8134173
_publ_section_title
;
Structure prediction by ZEFSAII (Michael W. Deem and Ramdas Pophale) SiO2 
 PCOD8134173
Probable space group: C 2/C
;
_chemical_formula_sum "Si O2"
_cell_formula_units_Z 40
_cell_length_a 15.532946
_cell_length_b 15.076635
_cell_length_c 14.419455
_cell_angle_alpha 90.000000
_cell_angle_beta 142.235103
_cell_angle_gamma 90.000000
_cell_volume 2068.037828
_symmetry_space_group_name_H-M "C 2/C"
_symmetry_group_IT_number 15
_symmetry_cell_setting 'monoclinic'
loop_
_space_group_symop_operation_xyz
x,y,z
-x,y,1/2-z
-x,-y,-z
x,-y,1/2+z
1/2+x,1/2+y,z
1/2-x,1/2+y,1/2-z
1/2-x,1/2-y,-z
1/2+x,1/2-y,1/2+z
loop_
_atom_site_type_symbol
_atom_site_label
_atom_site_fract_x
_atom_site_fract_y
_atom_site_fract_z
Si Si1 0.204180 0.970260 0.191287
Si Si2 0.224255 0.352164 0.970847
Si Si3 0.540703 0.483482 0.380206
Si Si4 0.375822 0.172192 0.920471
Si Si5 0.822244 0.341676 0.767251
O O1 0.330398 0.899086 0.303668
O O2 0.092294 0.946397 0.176088
O O3 0.254576 0.070537 0.254455
O O4 0.135799 0.957935 0.030762
O O5 0.130666 0.367485 0.798194
O O6 0.250000 0.250000 0.000000
O O7 0.374014 0.398933 0.084517
O O8 0.151669 0.379329 0.005340
O O9 0.500000 0.536645 0.250000
O O10 0.294793 0.264319 0.834965
O O11 0.543402 0.189882 0.058393
#
# Coordination Sequence:
#
# PCOD8134173 Si02
#       5
#     8   8   8   8   8
#     4  10  22  35  58  85 120 156 194 234 297 347
#     4   9  19  30  53  86 121 144 182 233 297 354
#     4  10  19  35  57  86 113 153 193 234 287 352
#     4  11  21  36  58  84 122 152 192 245 292 348
#     4  10  23  35  55  88 119 157 191 238 294 351
#
# _framework density 19.342006000000001
#
# number of rings (size 3 to 8) (size 9 to 14) (size 15 to 20)
#    0.000    2.000    2.000    1.200   11.200    0.000 
#    0.000    0.000    0.000    1.200    0.000    0.000 
#    0.000    0.000    0.000    0.000    0.000    0.000 
#
# Total GULP energy -247808.971469 kJ/mol
# GULP energy per Si atom -12390.448573 kJ/mol
# Density = 1.929798 g / cm^3
# Si number density = 19.342006 Si / 1000 Ang^3
#
#
#
# Elastic Constant Matrix: (Units=GPa)
#
#
# Indices 1 2 3 4 5 6 
#
# 1 55.8087 19.5862 31.9092 0.0002 -8.9847 0.0001
# 2 19.5862 85.9070 43.8249 0.0002 1.2928 0.0001
# 3 31.9092 43.8249 159.9838 0.0004 0.8324 0.0002
# 4 0.0002 0.0002 0.0004 30.1754 0.0002 0.5030
# 5 -8.9847 1.2928 0.8324 0.0002 31.5189 0.0001
# 6 0.0001 0.0001 0.0002 0.5030 0.0001 24.4916
#
#
#
# Elastic Compliance Matrix: (Units=1/GPa)
#
#
# Indices 1 2 3 4 5 6 
#
# 1 0.022172 -0.003348 -0.003539 0.000000 0.006551 0.000000
# 2 -0.003348 0.014044 -0.003172 0.000000 -0.001447 0.000000
# 3 -0.003539 -0.003172 0.007831 0.000000 -0.001086 0.000000
# 4 0.000000 0.000000 0.000000 0.033151 0.000000 -0.000681
# 5 0.006551 -0.001447 -0.001086 0.000000 0.033682 0.000000
# 6 0.000000 0.000000 0.000000 -0.000681 0.000000 0.040844
#
#
# Mechanical properties :
#
#
# Convention : Reuss Voigt Hill
#
# Bulk Modulus (GPa) = 41.79136 54.70445 48.24791
# Shear Modulus (GPa) = 27.80592 30.99579 29.40085
#
# Velocity S-wave (km/s) = 3.79567 4.00748 3.90301
# Velocity P-wave (km/s) = 6.39241 7.05389 6.73128
#
# Compressibility (1/GPa) = 0.02392839
#
# Stress axis : x y z
#
# Youngs Moduli (GPa) = 45.10282 71.20663 127.69754
#
# Poissons Ratio (x) = 0.23841 0.45194
# Poissons Ratio (y) = 0.15101 0.40502
# Poissons Ratio (z) = 0.15962 0.22585
#
# Static dielectric constant tensor:
#      x y z
#    x 3.860430 0.000000 -0.294720 
#    y 0.000000 3.234670 0.000000 
#    z -0.294720 0.000000 3.964270 
# 
# 
# High freq. dielectric constant tensor:
#      x y z
#    x 1.723750 0.000000 -0.001310 
#    y 0.000000 1.722660 0.000000 
#    z -0.001310 0.000000 1.777040 
# 
# From -- ./inp_files/37862.got.cif
#   From: 2010.06.25/outbox.cif.g09.slc.cpg/sg15_19_cif.got.tgz:37862.got - 2010.06.28 07:06:18.
