data_PCOD8134126
_publ_section_title
;
Structure prediction by ZEFSAII (Michael W. Deem and Ramdas Pophale) SiO2 
 PCOD8134126
Probable space group: C 2/C
;
_chemical_formula_sum "Si O2"
_cell_formula_units_Z 36
_cell_length_a 27.444858
_cell_length_b 9.098999
_cell_length_c 9.180250
_cell_angle_alpha 90.000000
_cell_angle_beta 126.489689
_cell_angle_gamma 90.000000
_cell_volume 1843.086244
_symmetry_space_group_name_H-M "C 2/C"
_symmetry_group_IT_number 15
_symmetry_cell_setting 'monoclinic'
loop_
_space_group_symop_operation_xyz
x,y,z
-x,y,1/2-z
-x,-y,-z
x,-y,1/2+z
1/2+x,1/2+y,z
1/2-x,1/2+y,1/2-z
1/2-x,1/2-y,-z
1/2+x,1/2-y,1/2+z
loop_
_atom_site_type_symbol
_atom_site_label
_atom_site_fract_x
_atom_site_fract_y
_atom_site_fract_z
Si Si1 0.727933 0.917007 0.807402
Si Si2 0.679565 0.758616 0.180017
Si Si3 0.000000 0.009134 0.250000
Si Si4 0.838322 0.180844 0.661238
Si Si5 0.580405 0.411617 0.644061
O O1 0.763899 0.857194 0.727696
O O2 0.670832 0.809702 0.736354
O O3 0.704799 0.080510 0.750506
O O4 0.774371 0.907729 0.027849
O O5 0.632736 0.711795 0.223879
O O6 0.643286 0.752154 0.961867
O O7 0.045728 0.111457 0.236168
O O8 0.035046 0.903928 0.426151
O O9 0.890618 0.074315 0.810318
#
# Coordination Sequence:
#
# PCOD8134126 Si02
#       5
#     8   8   4   8   8
#     4   9  19  34  55  85 129 148 182 220 294 344
#     4  10  19  35  56  88 117 160 179 238 276 356
#     4  10  22  38  62  84 104 150 208 266 276 338
#     4   9  20  36  53  90 121 153 186 236 271 370
#     4  11  20  39  62  85 111 152 204 244 299 322
#
# _framework density 19.532454999999999
#
# number of rings (size 3 to 8) (size 9 to 14) (size 15 to 20)
#    1.333    0.889    2.222    1.333    0.000    0.889 
#    4.000    0.000    0.000    8.000    0.000    0.000 
#    0.000    0.000    0.000    0.000    0.000    0.000 
#
# Total GULP energy -222999.786248 kJ/mol
# GULP energy per Si atom -12388.877014 kJ/mol
# Density = 1.948800 g / cm^3
# Si number density = 19.532455 Si / 1000 Ang^3
#
#
#
# Elastic Constant Matrix: (Units=GPa)
#
#
# Indices 1 2 3 4 5 6 
#
# 1 159.1879 76.9975 15.1886 0.0000 -16.9798 0.0000
# 2 76.9975 134.7790 31.9910 0.0000 0.0383 0.0000
# 3 15.1886 31.9910 52.3363 0.0000 0.1417 0.0000
# 4 0.0000 0.0000 0.0000 16.1895 0.0000 -7.9913
# 5 -16.9798 0.0383 0.1417 0.0000 22.3208 0.0000
# 6 0.0000 0.0000 0.0000 -7.9913 0.0000 25.3001
#
#
#
# Elastic Compliance Matrix: (Units=1/GPa)
#
#
# Indices 1 2 3 4 5 6 
#
# 1 0.009799 -0.005755 0.000654 0.000000 0.007460 0.000000
# 2 -0.005755 0.012059 -0.005689 0.000000 -0.004363 0.000000
# 3 0.000654 -0.005689 0.022394 0.000000 0.000365 0.000000
# 4 0.000000 0.000000 0.000000 0.073178 0.000000 0.023114
# 5 0.007460 -0.004363 0.000365 0.000000 0.050482 0.000000
# 6 0.000000 0.000000 0.000000 0.023114 0.000000 0.046826
#
#
# Mechanical properties :
#
#
# Convention : Reuss Voigt Hill
#
# Bulk Modulus (GPa) = 44.10902 66.07305 55.09103
# Shear Modulus (GPa) = 20.50223 27.57048 24.03635
#
# Velocity S-wave (km/s) = 3.24334 3.76110 3.51178
# Velocity P-wave (km/s) = 6.05452 7.26374 6.68652
#
# Compressibility (1/GPa) = 0.02267110
#
# Stress axis : x y z
#
# Youngs Moduli (GPa) = 102.05073 82.92439 44.65489
#
# Poissons Ratio (x) = 0.47727 -0.02921
# Poissons Ratio (y) = 0.58735 0.25405
# Poissons Ratio (z) = -0.06675 0.47177
#
# Static dielectric constant tensor:
#      x y z
#    x 3.839800 0.000000 -0.158860 
#    y 0.000000 3.104770 0.000000 
#    z -0.158860 0.000000 3.338080 
# 
# 
# High freq. dielectric constant tensor:
#      x y z
#    x 1.766600 0.000000 -0.013480 
#    y 0.000000 1.724820 0.000000 
#    z -0.013480 0.000000 1.740500 
# 
# From -- ./inp_files/68195.got.cif
#   From: 2010.06.25/outbox.cif.g09.slc.cpg/sg15_35_cif.got.tgz:68195.got - 2010.06.28 07:06:18.
