data_PCOD8134384
_publ_section_title
;
Structure prediction by ZEFSAII (Michael W. Deem and Ramdas Pophale) SiO2 
 PCOD8134384
Probable space group: C 2/C
;
_chemical_formula_sum "Si O2"
_cell_formula_units_Z 56
_cell_length_a 8.683577
_cell_length_b 15.851596
_cell_length_c 22.846163
_cell_angle_alpha 90.000000
_cell_angle_beta 61.520673
_cell_angle_gamma 90.000000
_cell_volume 2764.193712
_symmetry_space_group_name_H-M "C 2/C"
_symmetry_group_IT_number 15
_symmetry_cell_setting 'monoclinic'
loop_
_space_group_symop_operation_xyz
x,y,z
-x,y,1/2-z
-x,-y,-z
x,-y,1/2+z
1/2+x,1/2+y,z
1/2-x,1/2+y,1/2-z
1/2-x,1/2-y,-z
1/2+x,1/2-y,1/2+z
loop_
_atom_site_type_symbol
_atom_site_label
_atom_site_fract_x
_atom_site_fract_y
_atom_site_fract_z
Si Si1 0.831451 0.475311 0.815807
Si Si2 0.802019 0.624028 0.108489
Si Si3 0.428367 0.660999 0.124175
Si Si4 0.032598 0.551423 0.882514
Si Si5 0.309613 0.264566 0.765177
Si Si6 0.824735 0.098511 0.748128
Si Si7 0.571297 0.797611 0.021368
O O1 0.707466 0.409578 0.872210
O O2 0.712208 0.524509 0.790859
O O3 0.000000 0.437397 0.750000
O O4 0.891924 0.533699 0.857775
O O5 0.619647 0.622065 0.104799
O O6 0.883159 0.531499 0.102845
O O7 0.769854 0.665849 0.177061
O O8 0.940170 0.681444 0.046052
O O9 0.331212 0.693682 0.199054
O O10 0.427694 0.732943 0.073642
O O11 0.181542 0.606595 0.824894
O O12 0.937153 0.610683 0.946678
O O13 0.500000 0.229553 0.750000
O O14 0.173151 0.187143 0.786930
O O15 0.000000 0.076103 0.750000
O O16 0.750000 0.750000 0.000000
#
# Coordination Sequence:
#
# PCOD8134384 Si02
#       7
#     8   8   8   8   8   8   8
#     4  10  22  36  63  91 127 153 206 256 315 359
#     4  10  22  37  66  89 123 165 209 250 307 368
#     4  10  20  40  61  91 123 162 208 251 308 368
#     4  11  21  41  62  90 124 163 207 253 307 362
#     4  10  19  35  62  90 122 158 202 254 307 364
#     4  11  22  35  61  96 125 155 202 260 310 365
#     4  10  22  40  64  86 123 171 209 246 303 376
#
# _framework density 20.259072
#
# number of rings (size 3 to 8) (size 9 to 14) (size 15 to 20)
#    0.000    1.714    1.429    4.286    4.000    2.857 
#    0.000    3.571    3.143    0.000    0.000    0.000 
#    0.000    0.000    0.000    0.000    0.000    0.000 
#
# Total GULP energy -347008.843794 kJ/mol
# GULP energy per Si atom -12393.172993 kJ/mol
# Density = 2.021296 g / cm^3
# Si number density = 20.259072 Si / 1000 Ang^3
#
#
#
# Elastic Constant Matrix: (Units=GPa)
#
#
# Indices 1 2 3 4 5 6 
#
# 1 86.9400 39.8850 19.8426 0.0001 -12.9096 -0.0001
# 2 39.8850 121.3963 54.0079 0.0000 -13.6907 0.0000
# 3 19.8426 54.0079 108.7332 0.0000 -2.9760 0.0000
# 4 0.0001 0.0000 0.0000 41.4448 0.0000 -11.6749
# 5 -12.9096 -13.6907 -2.9760 0.0000 12.6038 0.0000
# 6 -0.0001 0.0000 0.0000 -11.6749 0.0000 14.4385
#
#
#
# Elastic Compliance Matrix: (Units=1/GPa)
#
#
# Indices 1 2 3 4 5 6 
#
# 1 0.014881 -0.003235 -0.000793 0.000000 0.011541 0.000000
# 2 -0.003235 0.012801 -0.005514 0.000000 0.009290 0.000000
# 3 -0.000793 -0.005514 0.011971 0.000000 -0.003975 0.000000
# 4 0.000000 0.000000 0.000000 0.031246 0.000000 0.025265
# 5 0.011541 0.009290 -0.003975 0.000000 0.100315 0.000000
# 6 0.000000 0.000000 0.000000 0.025265 0.000000 0.089689
#
#
# Mechanical properties :
#
#
# Convention : Reuss Voigt Hill
#
# Bulk Modulus (GPa) = 48.61378 60.50451 54.55915
# Shear Modulus (GPa) = 17.43121 27.25302 22.34212
#
# Velocity S-wave (km/s) = 2.93647 3.67171 3.32448
# Velocity P-wave (km/s) = 5.96198 6.92138 6.45952
#
# Compressibility (1/GPa) = 0.02057030
#
# Stress axis : x y z
#
# Youngs Moduli (GPa) = 67.20038 78.11940 83.53252
#
# Poissons Ratio (x) = 0.25270 0.06624
# Poissons Ratio (y) = 0.21738 0.46057
# Poissons Ratio (z) = 0.05329 0.43072
#
# Static dielectric constant tensor:
#      x y z
#    x 3.596280 0.000000 -0.001550 
#    y 0.000000 3.761700 0.000000 
#    z -0.001550 0.000000 4.071580 
# 
# 
# High freq. dielectric constant tensor:
#      x y z
#    x 1.770950 0.000000 0.003400 
#    y 0.000000 1.797970 0.000000 
#    z 0.003400 0.000000 1.794340 
# 
# From -- ./inp_files/289387.got.cif
#   From: 2010.06.25/outbox.cif.g09.slc.cpg/sg15_145_cif.got.tgz:289387.got - 2010.06.28 07:06:18.
