data_PCOD8134705
_publ_section_title
;
Structure prediction by ZEFSAII (Michael W. Deem and Ramdas Pophale) SiO2 
 PCOD8134705
Probable space group: C 2/C
;
_chemical_formula_sum "Si O2"
_cell_formula_units_Z 52
_cell_length_a 11.393841
_cell_length_b 13.680798
_cell_length_c 24.457788
_cell_angle_alpha 90.000000
_cell_angle_beta 44.693437
_cell_angle_gamma 90.000000
_cell_volume 2681.313400
_symmetry_space_group_name_H-M "C 2/C"
_symmetry_group_IT_number 15
_symmetry_cell_setting 'monoclinic'
loop_
_space_group_symop_operation_xyz
x,y,z
-x,y,1/2-z
-x,-y,-z
x,-y,1/2+z
1/2+x,1/2+y,z
1/2-x,1/2+y,1/2-z
1/2-x,1/2-y,-z
1/2+x,1/2-y,1/2+z
loop_
_atom_site_type_symbol
_atom_site_label
_atom_site_fract_x
_atom_site_fract_y
_atom_site_fract_z
Si Si1 0.823574 0.733095 0.675149
Si Si2 0.705600 0.073246 0.253906
Si Si3 0.555448 0.414528 0.294081
Si Si4 0.000000 0.432431 0.250000
Si Si5 0.617488 0.896591 0.903715
Si Si6 0.393389 0.748791 0.333875
Si Si7 0.196925 0.608196 0.922753
O O1 0.735606 0.838909 0.701471
O O2 0.705861 0.662811 0.750955
O O3 0.847498 0.692349 0.606350
O O4 0.002780 0.745326 0.644367
O O5 0.627634 0.116134 0.335397
O O6 0.882534 0.019896 0.205933
O O7 0.575278 0.998022 0.272382
O O8 0.500000 0.420454 0.250000
O O9 0.387342 0.381806 0.382192
O O10 0.859832 0.360939 0.324351
O O11 0.725436 0.812744 0.898539
O O12 0.681858 0.003532 0.898242
O O13 0.426315 0.882228 0.985314
O O14 0.500000 0.695043 0.250000
#
# Coordination Sequence:
#
# PCOD8134705 Si02
#       7
#     8   8   8   4   8   8   8
#     4  11  21  35  62  89 118 157 208 246 304 356
#     4  12  21  37  65  89 114 168 203 254 295 365
#     4  10  19  38  61  86 119 152 207 252 287 366
#     4  10  22  36  58  88 122 144 218 250 292 348
#     4  11  21  37  63  89 123 157 204 249 313 342
#     4  10  19  36  60  90 112 158 200 255 287 364
#     4  10  23  37  57  96 124 155 195 262 300 363
#
# _framework density 19.393481000000001
#
# number of rings (size 3 to 8) (size 9 to 14) (size 15 to 20)
#    0.462    0.923    6.154    0.923    3.231    0.615 
#    0.000    2.308    0.000    1.846    0.000    0.000 
#    0.000    0.000    0.000    0.000    0.000    0.000 
#
# Total GULP energy -322293.671448 kJ/mol
# GULP energy per Si atom -12395.910440 kJ/mol
# Density = 1.934934 g / cm^3
# Si number density = 19.393481 Si / 1000 Ang^3
#
#
#
# Elastic Constant Matrix: (Units=GPa)
#
#
# Indices 1 2 3 4 5 6 
#
# 1 78.5401 35.0797 39.9242 0.0000 -4.7234 0.0000
# 2 35.0797 123.7774 33.5353 0.0000 0.1834 0.0000
# 3 39.9242 33.5353 92.1935 -0.0001 -16.7989 0.0001
# 4 0.0000 0.0000 -0.0001 19.7345 0.0000 -5.8718
# 5 -4.7234 0.1834 -16.7989 0.0000 21.5957 0.0000
# 6 0.0000 0.0000 0.0001 -5.8718 0.0000 36.0193
#
#
#
# Elastic Compliance Matrix: (Units=1/GPa)
#
#
# Indices 1 2 3 4 5 6 
#
# 1 0.017435 -0.003137 -0.006652 0.000000 -0.001335 0.000000
# 2 -0.003137 0.009702 -0.002692 0.000000 -0.002863 0.000000
# 3 -0.006652 -0.002692 0.016832 0.000000 0.011661 0.000000
# 4 0.000000 0.000000 0.000000 0.053256 0.000000 0.008682
# 5 -0.001335 -0.002863 0.011661 0.000000 0.055109 0.000000
# 6 0.000000 0.000000 0.000000 0.008682 0.000000 0.029178
#
#
# Mechanical properties :
#
#
# Convention : Reuss Voigt Hill
#
# Bulk Modulus (GPa) = 52.61679 56.84325 54.73002
# Shear Modulus (GPa) = 23.49534 27.86802 25.68168
#
# Velocity S-wave (km/s) = 3.48445 3.79486 3.64296
# Velocity P-wave (km/s) = 6.58624 6.96961 6.78063
#
# Compressibility (1/GPa) = 0.01900534
#
# Stress axis : x y z
#
# Youngs Moduli (GPa) = 57.35697 103.07493 59.41232
#
# Poissons Ratio (x) = 0.32333 0.39522
# Poissons Ratio (y) = 0.17992 0.15995
# Poissons Ratio (z) = 0.38155 0.27750
#
# Static dielectric constant tensor:
#      x y z
#    x 3.517330 0.000000 -0.314110 
#    y 0.000000 3.680560 0.000000 
#    z -0.314110 0.000000 3.548520 
# 
# 
# High freq. dielectric constant tensor:
#      x y z
#    x 1.745810 0.000000 -0.012980 
#    y 0.000000 1.766590 0.000000 
#    z -0.012980 0.000000 1.721340 
# 
# From -- ./inp_files/292670.got.cif
#   From: 2010.06.25/outbox.cif.g09.slc.cpg/sg15_147_cif.got.tgz:292670.got - 2010.06.28 07:06:18.
