data_PCOD8134183
_publ_section_title
;
Structure prediction by ZEFSAII (Michael W. Deem and Ramdas Pophale) SiO2 
 PCOD8134183
Probable space group: C 2/C
;
_chemical_formula_sum "Si O2"
_cell_formula_units_Z 56
_cell_length_a 28.271705
_cell_length_b 14.651808
_cell_length_c 17.403597
_cell_angle_alpha 90.000000
_cell_angle_beta 19.613543
_cell_angle_gamma 90.000000
_cell_volume 2419.915742
_symmetry_space_group_name_H-M "C 2/C"
_symmetry_group_IT_number 15
_symmetry_cell_setting 'monoclinic'
loop_
_space_group_symop_operation_xyz
x,y,z
-x,y,1/2-z
-x,-y,-z
x,-y,1/2+z
1/2+x,1/2+y,z
1/2-x,1/2+y,1/2-z
1/2-x,1/2-y,-z
1/2+x,1/2-y,1/2+z
loop_
_atom_site_type_symbol
_atom_site_label
_atom_site_fract_x
_atom_site_fract_y
_atom_site_fract_z
Si Si1 0.169154 0.906287 0.158719
Si Si2 0.084888 0.025283 0.543606
Si Si3 0.150718 0.250031 0.983611
Si Si4 0.089427 0.848515 0.438140
Si Si5 0.675337 0.090207 0.227888
Si Si6 0.370198 0.122831 0.730048
Si Si7 0.770115 0.889714 0.901403
O O1 0.167089 0.841707 0.236666
O O2 0.012271 0.916467 0.365148
O O3 0.223532 0.002034 0.109792
O O4 0.268663 0.867719 0.938827
O O5 0.211288 0.092867 0.376125
O O6 0.000000 0.992802 0.750000
O O7 0.134875 0.936676 0.419529
O O8 0.000000 0.223314 0.250000
O O9 0.138471 0.240827 0.910054
O O10 0.269718 0.179470 0.828876
O O11 0.200504 0.352580 0.929026
O O12 0.922581 0.845658 0.680833
O O13 0.534692 0.146131 0.463698
O O14 0.652324 0.983312 0.250042
O O15 0.333035 0.147196 0.874363
#
# Coordination Sequence:
#
# PCOD8134183 Si02
#       7
#     8   8   8   8   8   8   8
#     4   9  20  37  61  92 126 156 205 260 304 371
#     4   9  15  30  56  87 117 159 202 247 309 360
#     4  12  23  38  59  87 125 172 206 244 321 379
#     4  11  20  37  61  87 125 165 205 252 310 370
#     4   9  18  34  60  90 122 160 203 257 303 362
#     4  10  19  35  57  87 127 161 202 253 308 359
#     4  10  21  38  58  92 123 156 209 262 308 364
#
# _framework density 23.141300999999999
#
# number of rings (size 3 to 8) (size 9 to 14) (size 15 to 20)
#    0.000    2.000    2.857    3.429    0.000    0.000 
#    5.143    0.714    0.000    0.857    3.714    4.000 
#    0.000    0.000    0.000    0.000    0.000    0.000 
#
# Total GULP energy -347109.862891 kJ/mol
# GULP energy per Si atom -12396.780818 kJ/mol
# Density = 2.308863 g / cm^3
# Si number density = 23.141301 Si / 1000 Ang^3
#
#
#
# Elastic Constant Matrix: (Units=GPa)
#
#
# Indices 1 2 3 4 5 6 
#
# 1 161.5093 36.6601 59.8109 -0.0003 13.8557 0.0004
# 2 36.6601 19.8630 35.0422 0.0046 -5.4556 -0.0029
# 3 59.8109 35.0422 147.4644 0.0001 0.4322 -0.0006
# 4 -0.0003 0.0046 0.0001 24.9904 -0.0011 -8.1967
# 5 13.8557 -5.4556 0.4322 -0.0011 28.7072 0.0005
# 6 0.0004 -0.0029 -0.0006 -8.1967 0.0005 36.3874
#
#
#
# Elastic Compliance Matrix: (Units=1/GPa)
#
#
# Indices 1 2 3 4 5 6 
#
# 1 0.014181 -0.034025 0.002373 0.000005 -0.013346 -0.000001
# 2 -0.034025 0.177242 -0.028466 -0.000029 0.050534 0.000007
# 3 0.002373 -0.028466 0.012603 0.000005 -0.006745 -0.000001
# 4 0.000005 -0.000029 0.000005 0.043208 -0.000007 0.009733
# 5 -0.013346 0.050534 -0.006745 -0.000007 0.050981 0.000002
# 6 -0.000001 0.000007 -0.000001 0.009733 0.000002 0.029675
#
#
# Mechanical properties :
#
#
# Convention : Reuss Voigt Hill
#
# Bulk Modulus (GPa) = 11.93460 65.76258 38.84859
# Shear Modulus (GPa) = 10.50295 31.17188 20.83742
#
# Velocity S-wave (km/s) = 2.13271 3.67416 3.00399
# Velocity P-wave (km/s) = 3.35158 6.81754 5.37178
#
# Compressibility (1/GPa) = 0.08378997
#
# Stress axis : x y z
#
# Youngs Moduli (GPa) = 70.51710 5.64199 79.34509
#
# Poissons Ratio (x) = 0.19197 -0.18827
# Poissons Ratio (y) = 2.39933 2.25866
# Poissons Ratio (z) = -0.16732 0.16061
#
# Static dielectric constant tensor:
#      x y z
#    x 4.431800 0.000000 -0.021750 
#    y 0.000000 3.754840 0.000000 
#    z -0.021750 0.000000 4.362460 
# 
# 
# High freq. dielectric constant tensor:
#      x y z
#    x 1.926420 0.000000 -0.000950 
#    y 0.000000 1.887090 0.000000 
#    z -0.000950 0.000000 1.905670 
# 
# From -- ./inp_files/222936.got.cif
#   From: 2010.06.25/outbox.cif.g09.slc.cpg/sg15_112_cif.got.tgz:222936.got - 2010.06.28 07:06:18.
