data_PCOD8134383
_publ_section_title
;
Structure prediction by ZEFSAII (Michael W. Deem and Ramdas Pophale) SiO2 
 PCOD8134383
Probable space group: C 2/C
;
_chemical_formula_sum "Si O2"
_cell_formula_units_Z 52
_cell_length_a 8.846605
_cell_length_b 19.405806
_cell_length_c 27.969304
_cell_angle_alpha 90.000000
_cell_angle_beta 147.257484
_cell_angle_gamma 90.000000
_cell_volume 2597.039449
_symmetry_space_group_name_H-M "C 2/C"
_symmetry_group_IT_number 15
_symmetry_cell_setting 'monoclinic'
loop_
_space_group_symop_operation_xyz
x,y,z
-x,y,1/2-z
-x,-y,-z
x,-y,1/2+z
1/2+x,1/2+y,z
1/2-x,1/2+y,1/2-z
1/2-x,1/2-y,-z
1/2+x,1/2-y,1/2+z
loop_
_atom_site_type_symbol
_atom_site_label
_atom_site_fract_x
_atom_site_fract_y
_atom_site_fract_z
Si Si1 0.500000 0.255947 0.250000
Si Si2 0.103592 0.357350 0.196777
Si Si3 0.244113 0.756291 0.845646
Si Si4 0.916399 0.182682 0.423388
Si Si5 0.883907 0.679861 0.477575
Si Si6 0.042194 0.134259 0.889759
Si Si7 0.063477 0.924809 0.035652
O O1 0.246110 0.305370 0.197374
O O2 0.615601 0.206649 0.322721
O O3 0.325533 0.393143 0.291668
O O4 0.884268 0.313661 0.168032
O O5 0.899943 0.412791 0.116867
O O6 0.336523 0.813092 0.907997
O O7 0.499820 0.718698 0.885231
O O8 0.000000 0.793101 0.750000
O O9 0.074183 0.244477 0.490761
O O10 0.111224 0.150699 0.432479
O O11 0.872424 0.125092 0.452091
O O12 0.150262 0.629090 0.552730
O O13 0.023289 0.086632 0.931899
O O14 0.000000 0.000000 0.000000
#
# Coordination Sequence:
#
# PCOD8134383 Si02
#       7
#     4   8   8   8   8   8   8
#     4  12  20  36  62  98 126 148 194 266 336 362
#     4  10  19  35  62  90 117 157 200 254 307 368
#     4   9  17  28  49  85 122 148 184 234 299 369
#     4  11  22  35  56  91 126 153 190 260 318 366
#     4  11  18  34  58  91 124 145 193 256 326 362
#     4  10  20  34  61  89 113 160 202 250 302 370
#     4  11  24  43  59  82 124 175 217 244 291 370
#
# _framework density 20.0228
#
# number of rings (size 3 to 8) (size 9 to 14) (size 15 to 20)
#    0.000    1.538    6.154    2.769    0.000    0.000 
#    2.769    0.769    0.000    0.000    0.000    0.000 
#    0.000    0.000    0.000    0.000    0.000    0.000 
#
# Total GULP energy -322164.168030 kJ/mol
# GULP energy per Si atom -12390.929540 kJ/mol
# Density = 1.997723 g / cm^3
# Si number density = 20.022800 Si / 1000 Ang^3
#
#
#
# Elastic Constant Matrix: (Units=GPa)
#
#
# Indices 1 2 3 4 5 6 
#
# 1 52.7571 18.6728 29.7291 0.0021 1.6626 0.0028
# 2 18.6728 68.2037 43.8745 0.0029 -8.3906 0.0040
# 3 29.7291 43.8745 126.5127 0.0051 -12.0946 0.0081
# 4 0.0021 0.0029 0.0051 25.6714 0.0028 0.7568
# 5 1.6626 -8.3906 -12.0946 0.0028 39.1815 0.0037
# 6 0.0028 0.0040 0.0081 0.7568 0.0037 22.7990
#
#
#
# Elastic Compliance Matrix: (Units=1/GPa)
#
#
# Indices 1 2 3 4 5 6 
#
# 1 0.022861 -0.003856 -0.004334 0.000000 -0.003134 0.000000
# 2 -0.003856 0.019689 -0.005671 -0.000001 0.002630 -0.000001
# 3 -0.004334 -0.005671 0.011119 -0.000001 0.002402 -0.000003
# 4 0.000000 -0.000001 -0.000001 0.038992 -0.000003 -0.001294
# 5 -0.003134 0.002630 0.002402 -0.000003 0.026960 -0.000005
# 6 0.000000 -0.000001 -0.000003 -0.001294 -0.000005 0.043905
#
#
# Mechanical properties :
#
#
# Convention : Reuss Voigt Hill
#
# Bulk Modulus (GPa) = 38.54050 48.00294 43.27172
# Shear Modulus (GPa) = 25.01299 27.87685 26.44492
#
# Velocity S-wave (km/s) = 3.53827 3.73534 3.63814
# Velocity P-wave (km/s) = 5.99855 6.52916 6.26947
#
# Compressibility (1/GPa) = 0.02594673
#
# Stress axis : x y z
#
# Youngs Moduli (GPa) = 43.74295 50.78980 89.93584
#
# Poissons Ratio (x) = 0.19585 0.38981
# Poissons Ratio (y) = 0.16868 0.50999
# Poissons Ratio (z) = 0.18960 0.28801
#
# Static dielectric constant tensor:
#      x y z
#    x 1.682270 0.000000 0.542710 
#    y 0.000000 2.913760 -0.000010 
#    z 0.542710 -0.000010 4.076920 
# 
# 
# High freq. dielectric constant tensor:
#      x y z
#    x 1.791710 0.000000 -0.006190 
#    y 0.000000 1.692210 0.000000 
#    z -0.006190 0.000000 1.801690 
# 
# From -- ./inp_files/135994.got.cif
#   From: 2010.06.25/outbox.cif.g09.slc.cpg/sg15_68_cif.got.tgz:135994.got - 2010.06.28 07:06:18.
