data_PCOD8134978
_publ_section_title
;
Structure prediction by ZEFSAII (Michael W. Deem and Ramdas Pophale) SiO2 
 PCOD8134978
Probable space group: C 2/C
;
_chemical_formula_sum "Si O2"
_cell_formula_units_Z 64
_cell_length_a 14.563583
_cell_length_b 12.391457
_cell_length_c 28.555421
_cell_angle_alpha 90.000000
_cell_angle_beta 37.979211
_cell_angle_gamma 90.000000
_cell_volume 3171.169017
_symmetry_space_group_name_H-M "C 2/C"
_symmetry_group_IT_number 15
_symmetry_cell_setting 'monoclinic'
loop_
_space_group_symop_operation_xyz
x,y,z
-x,y,1/2-z
-x,-y,-z
x,-y,1/2+z
1/2+x,1/2+y,z
1/2-x,1/2+y,1/2-z
1/2-x,1/2-y,-z
1/2+x,1/2-y,1/2+z
loop_
_atom_site_type_symbol
_atom_site_label
_atom_site_fract_x
_atom_site_fract_y
_atom_site_fract_z
Si Si1 0.987954 0.181399 0.118824
Si Si2 0.758410 0.539883 0.882487
Si Si3 0.880099 0.870535 0.407952
Si Si4 0.996652 0.590902 0.648017
Si Si5 0.786380 0.574238 0.024272
Si Si6 0.799083 0.176689 0.043574
Si Si7 0.189141 0.028554 0.802283
Si Si8 0.937837 0.237869 0.509000
O O1 0.979838 0.279718 0.158570
O O2 0.153995 0.134016 0.050286
O O3 0.864683 0.093877 0.181784
O O4 0.959529 0.227449 0.078519
O O5 0.926594 0.550876 0.834501
O O6 0.704480 0.419617 0.917421
O O7 0.740455 0.556129 0.834365
O O8 0.663500 0.631832 0.946179
O O9 0.813099 0.873473 0.486976
O O10 0.844924 0.756844 0.396327
O O11 0.057428 0.891337 0.337547
O O12 0.783252 0.967276 0.423239
O O13 0.086450 0.551396 0.565891
O O14 0.831006 0.541030 0.711578
O O15 0.844091 0.651117 0.043150
O O16 0.948087 0.246951 0.993515
#
# Coordination Sequence:
#
# PCOD8134978 Si02
#       8
#     8   8   8   8   8   8   8   8
#     4  10  19  37  59  84 111 155 192 243 287 338
#     4  12  19  36  58  91 116 145 193 246 285 346
#     4  10  22  38  55  83 118 158 186 239 294 345
#     4  11  21  35  57  89 116 149 194 244 292 353
#     4  10  19  37  62  82 113 153 206 235 280 344
#     4  11  21  34  59  85 120 146 189 242 294 340
#     4  11  23  36  58  86 118 152 191 239 302 342
#     4  11  18  33  63  86 109 150 198 247 278 333
#
# _framework density 20.181832
#
# number of rings (size 3 to 8) (size 9 to 14) (size 15 to 20)
#    0.000    1.250    6.250    2.250    0.000    1.500 
#    0.000    0.000    0.000    0.000    0.000    0.000 
#    0.000    0.000    0.000    0.000    0.000    0.000 
#
# Total GULP energy -396686.837643 kJ/mol
# GULP energy per Si atom -12396.463676 kJ/mol
# Density = 2.013590 g / cm^3
# Si number density = 20.181832 Si / 1000 Ang^3
#
#
#
# Elastic Constant Matrix: (Units=GPa)
#
#
# Indices 1 2 3 4 5 6 
#
# 1 71.6492 37.1731 22.0436 0.0000 -22.0387 0.0000
# 2 37.1731 68.6582 31.7973 0.0001 -11.8257 0.0000
# 3 22.0436 31.7973 79.1168 0.0003 -27.9027 -0.0001
# 4 0.0000 0.0001 0.0003 17.8213 0.0000 -7.1883
# 5 -22.0387 -11.8257 -27.9027 0.0000 31.7839 0.0000
# 6 0.0000 0.0000 -0.0001 -7.1883 0.0000 36.8791
#
#
#
# Elastic Compliance Matrix: (Units=1/GPa)
#
#
# Indices 1 2 3 4 5 6 
#
# 1 0.023650 -0.011819 0.003466 0.000000 0.015044 0.000000
# 2 -0.011819 0.023808 -0.008751 0.000000 -0.007019 0.000000
# 3 0.003466 -0.008751 0.021568 0.000000 0.018082 0.000000
# 4 0.000000 0.000000 0.000000 0.060901 0.000000 0.011871
# 5 0.015044 -0.007019 0.018082 0.000000 0.055156 0.000000
# 6 0.000000 0.000000 0.000000 0.011871 0.000000 0.029429
#
#
# Mechanical properties :
#
#
# Convention : Reuss Voigt Hill
#
# Bulk Modulus (GPa) = 28.72015 44.60580 36.66298
# Shear Modulus (GPa) = 19.20683 25.85754 22.53219
#
# Velocity S-wave (km/s) = 3.08829 3.58331 3.34497
# Velocity P-wave (km/s) = 5.19407 6.26658 5.75536
#
# Compressibility (1/GPa) = 0.03481876
#
# Stress axis : x y z
#
# Youngs Moduli (GPa) = 42.28385 42.00345 46.36538
#
# Poissons Ratio (x) = 0.49642 -0.16072
# Poissons Ratio (y) = 0.49974 0.40574
# Poissons Ratio (z) = -0.14658 0.36757
#
# Static dielectric constant tensor:
#      x y z
#    x 3.727520 0.000000 -0.242010 
#    y 0.000000 3.852370 0.000000 
#    z -0.242010 0.000000 3.200050 
# 
# 
# High freq. dielectric constant tensor:
#      x y z
#    x 1.789920 0.000000 -0.020930 
#    y 0.000000 1.794810 0.000000 
#    z -0.020930 0.000000 1.746310 
# 
# From -- ./inp_files/296109.got.cif
#   From: 2010.06.25/outbox.cif.g09.slc.cpg/sg15_149_cif.got.tgz:296109.got - 2010.06.28 07:06:18.
