data_PCOD8134698
_publ_section_title
;
Structure prediction by ZEFSAII (Michael W. Deem and Ramdas Pophale) SiO2 
 PCOD8134698
Probable space group: C 2/C
;
_chemical_formula_sum "Si O2"
_cell_formula_units_Z 52
_cell_length_a 11.534375
_cell_length_b 15.800591
_cell_length_c 18.843284
_cell_angle_alpha 90.000000
_cell_angle_beta 48.678186
_cell_angle_gamma 90.000000
_cell_volume 2579.118702
_symmetry_space_group_name_H-M "C 2/C"
_symmetry_group_IT_number 15
_symmetry_cell_setting 'monoclinic'
loop_
_space_group_symop_operation_xyz
x,y,z
-x,y,1/2-z
-x,-y,-z
x,-y,1/2+z
1/2+x,1/2+y,z
1/2-x,1/2+y,1/2-z
1/2-x,1/2-y,-z
1/2+x,1/2-y,1/2+z
loop_
_atom_site_type_symbol
_atom_site_label
_atom_site_fract_x
_atom_site_fract_y
_atom_site_fract_z
Si Si1 0.685960 0.019977 0.344829
Si Si2 0.500000 0.448285 0.250000
Si Si3 0.162707 0.059750 0.360882
Si Si4 0.312663 0.479682 0.002106
Si Si5 0.630836 0.351041 0.083766
Si Si6 0.559296 0.114362 0.524365
Si Si7 0.122132 0.764523 0.946635
O O1 0.715907 0.048806 0.252068
O O2 0.596797 0.089639 0.427611
O O3 0.587436 0.934579 0.384689
O O4 0.848425 0.005169 0.318552
O O5 0.486433 0.388277 0.186081
O O6 0.179836 0.157043 0.377033
O O7 0.986750 0.043338 0.407894
O O8 0.201994 0.991790 0.406919
O O9 0.264909 0.569964 0.986817
O O10 0.201665 0.404370 0.019905
O O11 0.733828 0.296106 0.095409
O O12 0.558838 0.298494 0.047883
O O13 0.513559 0.213719 0.539656
#
# Coordination Sequence:
#
# PCOD8134698 Si02
#       7
#     8   4   8   8   8   8   8
#     4  11  21  36  64  88 118 161 211 243 297 371
#     4  12  18  36  66  88 108 164 212 242 280 380
#     4  10  22  39  61  90 121 162 207 250 299 373
#     4  10  20  39  63  84 122 168 206 241 300 376
#     4  10  19  36  60  88 118 155 202 249 293 363
#     4  11  21  38  60  90 124 159 199 259 307 357
#     4  10  22  37  57  93 127 148 194 262 319 338
#
# _framework density 20.161925
#
# number of rings (size 3 to 8) (size 9 to 14) (size 15 to 20)
#    0.000    1.538    4.615    0.923    0.000    2.462 
#    0.000    0.000    0.000    1.846    0.000    0.000 
#    0.000    0.000    0.000    0.000    0.000    0.000 
#
# Total GULP energy -322301.692729 kJ/mol
# GULP energy per Si atom -12396.218951 kJ/mol
# Density = 2.011604 g / cm^3
# Si number density = 20.161925 Si / 1000 Ang^3
#
#
#
# Elastic Constant Matrix: (Units=GPa)
#
#
# Indices 1 2 3 4 5 6 
#
# 1 96.0244 43.7902 32.0909 0.0000 3.8123 0.0000
# 2 43.7902 90.6459 33.9740 0.0000 7.6385 0.0000
# 3 32.0909 33.9740 125.4611 -0.0001 12.2974 0.0000
# 4 0.0000 0.0000 -0.0001 20.5842 0.0000 3.9557
# 5 3.8123 7.6385 12.2974 0.0000 25.4092 0.0000
# 6 0.0000 0.0000 0.0000 3.9557 0.0000 42.4289
#
#
#
# Elastic Compliance Matrix: (Units=1/GPa)
#
#
# Indices 1 2 3 4 5 6 
#
# 1 0.013768 -0.005970 -0.001972 0.000000 0.000683 0.000000
# 2 -0.005970 0.014983 -0.002285 0.000000 -0.002503 0.000000
# 3 -0.001972 -0.002285 0.009446 0.000000 -0.003589 0.000000
# 4 0.000000 0.000000 0.000000 0.049467 0.000000 -0.004612
# 5 0.000683 -0.002503 -0.003589 0.000000 0.041742 0.000000
# 6 0.000000 0.000000 0.000000 -0.004612 0.000000 0.023999
#
#
# Mechanical properties :
#
#
# Convention : Reuss Voigt Hill
#
# Bulk Modulus (GPa) = 56.35974 59.09352 57.72663
# Shear Modulus (GPa) = 27.81271 31.16955 29.49113
#
# Velocity S-wave (km/s) = 3.71815 3.93614 3.82869
# Velocity P-wave (km/s) = 6.81521 7.07323 6.94542
#
# Compressibility (1/GPa) = 0.01774316
#
# Stress axis : x y z
#
# Youngs Moduli (GPa) = 72.63013 66.74127 105.86980
#
# Poissons Ratio (x) = 0.39843 0.20879
# Poissons Ratio (y) = 0.43359 0.24192
# Poissons Ratio (z) = 0.14324 0.15251
#
# Static dielectric constant tensor:
#      x y z
#    x 3.599120 0.000000 0.188040 
#    y 0.000000 3.675990 0.000000 
#    z 0.188040 0.000000 3.662820 
# 
# 
# High freq. dielectric constant tensor:
#      x y z
#    x 1.779950 0.000000 0.014440 
#    y 0.000000 1.776680 0.000000 
#    z 0.014440 0.000000 1.785020 
# 
# From -- ./inp_files/238663.got.cif
#   From: 2010.06.25/outbox.cif.g09.slc.cpg/sg15_120_cif.got.tgz:238663.got - 2010.06.28 07:06:18.
