data_PCOD8134138
_publ_section_title
;
Structure prediction by ZEFSAII (Michael W. Deem and Ramdas Pophale) SiO2 
 PCOD8134138
Probable space group: C 2/C
;
_chemical_formula_sum "Si O2"
_cell_formula_units_Z 48
_cell_length_a 24.308983
_cell_length_b 11.964443
_cell_length_c 22.311548
_cell_angle_alpha 90.000000
_cell_angle_beta 155.945305
_cell_angle_gamma 90.000000
_cell_volume 2645.040021
_symmetry_space_group_name_H-M "C 2/C"
_symmetry_group_IT_number 15
_symmetry_cell_setting 'monoclinic'
loop_
_space_group_symop_operation_xyz
x,y,z
-x,y,1/2-z
-x,-y,-z
x,-y,1/2+z
1/2+x,1/2+y,z
1/2-x,1/2+y,1/2-z
1/2-x,1/2-y,-z
1/2+x,1/2-y,1/2+z
loop_
_atom_site_type_symbol
_atom_site_label
_atom_site_fract_x
_atom_site_fract_y
_atom_site_fract_z
Si Si1 0.197116 0.149276 0.102306
Si Si2 0.509820 0.826378 0.612464
Si Si3 0.119432 0.753549 0.910253
Si Si4 0.466614 0.923321 0.086304
Si Si5 0.784200 0.104641 0.884505
Si Si6 0.849149 0.292783 0.863372
O O1 0.339036 0.176592 0.209154
O O2 0.215591 0.176514 0.191729
O O3 0.158113 0.020197 0.058350
O O4 0.083426 0.225040 0.957151
O O5 0.521785 0.808374 0.552144
O O6 0.442218 0.943912 0.563134
O O7 0.079156 0.631085 0.896190
O O8 0.000000 0.800118 0.750000
O O9 0.250000 0.750000 0.000000
O O10 0.142494 0.838257 0.987033
O O11 0.622103 0.892107 0.227922
O O12 0.367464 0.877659 0.936352
O O13 0.831048 0.166979 0.870376
#
# Coordination Sequence:
#
# PCOD8134138 Si02
#       6
#     8   8   8   8   8   8
#     4   9  20  33  52  76 118 148 186 220 265 331
#     4   9  19  34  51  76 112 154 180 217 263 336
#     4  11  22  40  62  83 104 137 190 242 286 324
#     4  10  19  35  57  77 112 149 183 221 285 332
#     4  10  20  35  55  83 112 147 183 233 274 325
#     4   9  19  27  54  77 114 147 189 208 266 326
#
# _framework density 18.147172999999999
#
# number of rings (size 3 to 8) (size 9 to 14) (size 15 to 20)
#    1.000    1.333    1.667    1.500    2.333    0.667 
#    3.000    0.000    0.000    2.000    0.000    0.000 
#    0.000    0.000    0.000    0.000    0.000    0.000 
#
# Total GULP energy -297367.732056 kJ/mol
# GULP energy per Si atom -12390.322169 kJ/mol
# Density = 1.810587 g / cm^3
# Si number density = 18.147173 Si / 1000 Ang^3
#
#
#
# Elastic Constant Matrix: (Units=GPa)
#
#
# Indices 1 2 3 4 5 6 
#
# 1 51.7359 50.2469 23.2811 -0.0006 6.0201 -0.0004
# 2 50.2469 169.1127 47.1920 0.0016 9.6847 0.0011
# 3 23.2811 47.1920 67.5225 0.0025 -0.4339 0.0018
# 4 -0.0006 0.0016 0.0025 28.6418 0.0013 8.5635
# 5 6.0201 9.6847 -0.4339 0.0013 20.2818 0.0008
# 6 -0.0004 0.0011 0.0018 8.5635 0.0008 16.5597
#
#
#
# Elastic Compliance Matrix: (Units=1/GPa)
#
#
# Indices 1 2 3 4 5 6 
#
# 1 0.028954 -0.006827 -0.005247 0.000001 -0.005447 0.000001
# 2 -0.006827 0.009231 -0.004114 0.000000 -0.002470 0.000000
# 3 -0.005247 -0.004114 0.019519 -0.000001 0.003939 -0.000002
# 4 0.000001 0.000000 -0.000001 0.041299 -0.000002 -0.021357
# 5 -0.005447 -0.002470 0.003939 -0.000002 0.052186 -0.000002
# 6 0.000001 0.000000 -0.000002 -0.021357 -0.000002 0.071432
#
#
# Mechanical properties :
#
#
# Convention : Reuss Voigt Hill
#
# Bulk Modulus (GPa) = 39.47906 58.86789 49.17347
# Shear Modulus (GPa) = 18.97974 24.27341 21.62658
#
# Velocity S-wave (km/s) = 3.23751 3.66127 3.45589
# Velocity P-wave (km/s) = 5.98143 7.09808 6.56355
#
# Compressibility (1/GPa) = 0.02532988
#
# Stress axis : x y z
#
# Youngs Moduli (GPa) = 34.53751 108.33109 51.23139
#
# Poissons Ratio (x) = 0.73955 0.26880
# Poissons Ratio (y) = 0.23578 0.21075
# Poissons Ratio (z) = 0.18121 0.44564
#
# Static dielectric constant tensor:
#      x y z
#    x 3.228200 0.000000 0.069820 
#    y 0.000000 3.326720 0.000000 
#    z 0.069820 0.000000 3.229940 
# 
# 
# High freq. dielectric constant tensor:
#      x y z
#    x 1.672610 0.000000 0.006430 
#    y 0.000000 1.701260 0.000000 
#    z 0.006430 0.000000 1.699810 
# 
# From -- ./inp_files/283559.got.cif
#   From: 2010.06.25/outbox.cif.g09.slc.cpg/sg15_142_cif.got.tgz:283559.got - 2010.06.28 07:06:18.
