data_PCOD8134327
_publ_section_title
;
Structure prediction by ZEFSAII (Michael W. Deem and Ramdas Pophale) SiO2 
 PCOD8134327
Probable space group: C 2/C
;
_chemical_formula_sum "Si O2"
_cell_formula_units_Z 56
_cell_length_a 8.798331
_cell_length_b 15.785344
_cell_length_c 25.102161
_cell_angle_alpha 90.000000
_cell_angle_beta 48.990064
_cell_angle_gamma 90.000000
_cell_volume 2630.751582
_symmetry_space_group_name_H-M "C 2/C"
_symmetry_group_IT_number 15
_symmetry_cell_setting 'monoclinic'
loop_
_space_group_symop_operation_xyz
x,y,z
-x,y,1/2-z
-x,-y,-z
x,-y,1/2+z
1/2+x,1/2+y,z
1/2-x,1/2+y,1/2-z
1/2-x,1/2-y,-z
1/2+x,1/2-y,1/2+z
loop_
_atom_site_type_symbol
_atom_site_label
_atom_site_fract_x
_atom_site_fract_y
_atom_site_fract_z
Si Si1 0.455144 0.996972 0.846605
Si Si2 0.010485 0.126541 0.686707
Si Si3 0.379012 0.950809 0.481676
Si Si4 0.058531 0.101166 0.401797
Si Si5 0.083045 0.288365 0.405374
Si Si6 0.393387 0.561838 0.222704
Si Si7 0.914657 0.675726 0.717831
O O1 0.255044 0.950028 0.873994
O O2 0.654735 0.944374 0.786870
O O3 0.455438 0.007516 0.909880
O O4 0.469009 0.086069 0.813230
O O5 0.211049 0.170755 0.618398
O O6 0.000000 0.151046 0.750000
O O7 0.811505 0.165901 0.707610
O O8 0.008997 0.025297 0.681028
O O9 0.417106 0.849122 0.470560
O O10 0.136758 0.957315 0.541732
O O11 0.500000 0.000000 0.500000
O O12 0.054453 0.192218 0.432904
O O13 0.072133 0.122253 0.335662
O O14 0.070670 0.282843 0.343752
O O15 0.500000 0.601825 0.250000
O O16 0.000000 0.726745 0.750000
#
# Coordination Sequence:
#
# PCOD8134327 Si02
#       7
#     8   8   8   8   8   8   8
#     4  10  21  37  60  89 117 154 202 246 293 354
#     4   8  15  31  52  76 108 150 190 228 276 341
#     4  11  23  43  64  81 111 163 209 242 290 363
#     4  12  23  37  59  89 122 150 189 254 308 346
#     4  10  22  37  56  84 120 155 194 243 302 353
#     4  10  19  35  60  89 118 155 200 240 286 356
#     4   9  17  32  56  84 115 153 195 237 288 353
#
# _framework density 21.286694000000001
#
# number of rings (size 3 to 8) (size 9 to 14) (size 15 to 20)
#    0.000    2.000    0.000    7.286    0.000    4.000 
#    0.000    2.143    0.000    0.000    0.000    0.000 
#    0.000    0.000    0.000    0.000    0.000    0.000 
#
# Total GULP energy -346866.736319 kJ/mol
# GULP energy per Si atom -12388.097726 kJ/mol
# Density = 2.123824 g / cm^3
# Si number density = 21.286694 Si / 1000 Ang^3
#
#
#
# Elastic Constant Matrix: (Units=GPa)
#
#
# Indices 1 2 3 4 5 6 
#
# 1 99.1034 31.1426 23.1172 0.0037 -17.7664 -0.0027
# 2 31.1426 84.3332 14.0368 0.0040 -12.8358 -0.0027
# 3 23.1172 14.0368 80.5409 0.0049 -9.9877 -0.0045
# 4 0.0037 0.0040 0.0049 14.7413 -0.0014 -1.4038
# 5 -17.7664 -12.8358 -9.9877 -0.0014 39.0369 0.0014
# 6 -0.0027 -0.0027 -0.0045 -1.4038 0.0014 14.1982
#
#
#
# Elastic Compliance Matrix: (Units=1/GPa)
#
#
# Indices 1 2 3 4 5 6 
#
# 1 0.012497 -0.003614 -0.002478 -0.000001 0.003865 0.000000
# 2 -0.003614 0.013763 -0.001037 -0.000002 0.002615 0.000001
# 3 -0.002478 -0.001037 0.013556 -0.000003 0.002000 0.000003
# 4 -0.000001 -0.000002 -0.000003 0.068482 0.000000 0.006771
# 5 0.003865 0.002615 0.002000 0.000000 0.028748 -0.000001
# 6 0.000000 0.000001 0.000003 0.006771 -0.000001 0.071101
#
#
# Mechanical properties :
#
#
# Convention : Reuss Voigt Hill
#
# Bulk Modulus (GPa) = 39.12637 44.50786 41.81712
# Shear Modulus (GPa) = 21.65222 26.64067 24.14645
#
# Velocity S-wave (km/s) = 3.19277 3.54152 3.37166
# Velocity P-wave (km/s) = 5.65794 6.13818 5.90295
#
# Compressibility (1/GPa) = 0.02555821
#
# Stress axis : x y z
#
# Youngs Moduli (GPa) = 80.01836 72.65843 73.76841
#
# Poissons Ratio (x) = 0.26260 0.18278
# Poissons Ratio (y) = 0.28920 0.07649
# Poissons Ratio (z) = 0.19827 0.07534
#
# Static dielectric constant tensor:
#      x y z
#    x 4.550320 0.000000 -0.481270 
#    y 0.000000 3.535730 0.000000 
#    z -0.481270 0.000000 4.043490 
# 
# 
# High freq. dielectric constant tensor:
#      x y z
#    x 1.844850 0.000000 -0.014010 
#    y 0.000000 1.815280 0.000000 
#    z -0.014010 0.000000 1.824230 
# 
# From -- ./inp_files/289395.got.cif
#   From: 2010.06.25/outbox.cif.g09.slc.cpg/sg15_145_cif.got.tgz:289395.got - 2010.06.28 07:06:18.
