data_PCOD8134137
_publ_section_title
;
Structure prediction by ZEFSAII (Michael W. Deem and Ramdas Pophale) SiO2 
 PCOD8134137
Probable space group: C 2/C
;
_chemical_formula_sum "Si O2"
_cell_formula_units_Z 56
_cell_length_a 23.106866
_cell_length_b 12.947496
_cell_length_c 27.371361
_cell_angle_alpha 90.000000
_cell_angle_beta 158.867798
_cell_angle_gamma 90.000000
_cell_volume 2952.255303
_symmetry_space_group_name_H-M "C 2/C"
_symmetry_group_IT_number 15
_symmetry_cell_setting 'monoclinic'
loop_
_space_group_symop_operation_xyz
x,y,z
-x,y,1/2-z
-x,-y,-z
x,-y,1/2+z
1/2+x,1/2+y,z
1/2-x,1/2+y,1/2-z
1/2-x,1/2-y,-z
1/2+x,1/2-y,1/2+z
loop_
_atom_site_type_symbol
_atom_site_label
_atom_site_fract_x
_atom_site_fract_y
_atom_site_fract_z
Si Si1 0.659064 0.822584 0.140203
Si Si2 0.153739 0.847036 0.771686
Si Si3 0.041517 0.667733 0.923869
Si Si4 0.855028 0.927728 0.218214
Si Si5 0.058549 0.557603 0.421731
Si Si6 0.437905 0.761246 0.647184
Si Si7 0.133539 0.659427 0.151983
O O1 0.594702 0.853474 0.142764
O O2 0.750248 0.916922 0.185444
O O3 0.789188 0.732845 0.246759
O O4 0.511938 0.782599 0.990759
O O5 0.013862 0.761505 0.655008
O O6 0.234570 0.874633 0.783472
O O7 0.074684 0.955174 0.727293
O O8 0.287165 0.807103 0.915670
O O9 0.053717 0.562653 0.901393
O O10 0.994033 0.842851 0.324232
O O11 0.738735 0.912400 0.080084
O O12 0.007386 0.636143 0.339001
O O13 0.938909 0.564255 0.374356
O O14 0.500000 0.777473 0.750000
O O15 0.250000 0.750000 0.500000
#
# Coordination Sequence:
#
# PCOD8134137 Si02
#       7
#     8   8   8   8   8   8   8
#     4   9  16  28  50  79 110 144 177 210 261 329
#     4   9  18  33  53  81 113 145 178 211 262 331
#     4   9  18  33  53  81 113 144 178 213 262 329
#     4  10  19  35  57  77 108 147 179 222 275 319
#     4  10  19  35  57  77 108 146 179 225 273 317
#     4  12  24  40  58  82 104 139 189 232 275 316
#     4   9  16  28  50  79 110 144 177 210 261 329
#
# _framework density 18.968551000000001
#
# number of rings (size 3 to 8) (size 9 to 14) (size 15 to 20)
#    0.000    2.286    2.857    0.857    0.000    3.429 
#    2.571    0.000    0.000    8.571    0.000    0.000 
#    0.000    0.000    0.000    0.000    0.000    0.000 
#
# Total GULP energy -346971.805144 kJ/mol
# GULP energy per Si atom -12391.850184 kJ/mol
# Density = 1.892538 g / cm^3
# Si number density = 18.968551 Si / 1000 Ang^3
#
#
#
# Elastic Constant Matrix: (Units=GPa)
#
#
# Indices 1 2 3 4 5 6 
#
# 1 42.1572 36.5065 25.4625 -0.0095 -4.4713 -0.0014
# 2 36.5065 130.6575 51.9650 -0.0679 -15.3187 -0.0401
# 3 25.4625 51.9650 80.1603 -0.0854 -11.5288 -0.0480
# 4 -0.0095 -0.0679 -0.0854 32.8452 -0.0437 -3.1816
# 5 -4.4713 -15.3187 -11.5288 -0.0437 19.7003 -0.0229
# 6 -0.0014 -0.0401 -0.0480 -3.1816 -0.0229 16.8277
#
#
#
# Elastic Compliance Matrix: (Units=1/GPa)
#
#
# Indices 1 2 3 4 5 6 
#
# 1 0.033438 -0.007022 -0.006293 -0.000027 -0.001554 -0.000039
# 2 -0.007022 0.012163 -0.004939 0.000019 0.004974 0.000025
# 3 -0.006293 -0.004939 0.018473 0.000049 0.005542 0.000057
# 4 -0.000027 0.000019 0.000049 0.031014 0.000113 0.005864
# 5 -0.001554 0.004974 0.005542 0.000113 0.057519 0.000127
# 6 -0.000039 0.000025 0.000057 0.005864 0.000127 0.060535
#
#
# Mechanical properties :
#
#
# Convention : Reuss Voigt Hill
#
# Bulk Modulus (GPa) = 36.27667 53.42701 44.85184
# Shear Modulus (GPa) = 19.31713 23.14405 21.23059
#
# Velocity S-wave (km/s) = 3.19466 3.49682 3.34915
# Velocity P-wave (km/s) = 5.72486 6.67315 6.21711
#
# Compressibility (1/GPa) = 0.02756593
#
# Stress axis : x y z
#
# Youngs Moduli (GPa) = 29.90649 82.21581 54.13395
#
# Poissons Ratio (x) = 0.57733 0.34064
# Poissons Ratio (y) = 0.21001 0.26737
# Poissons Ratio (z) = 0.18819 0.40606
#
# Static dielectric constant tensor:
#      x y z
#    x 3.228830 0.000000 -0.051850 
#    y 0.000000 3.507710 -0.000050 
#    z -0.051850 -0.000050 3.431320 
# 
# 
# High freq. dielectric constant tensor:
#      x y z
#    x 1.712960 0.000000 -0.001770 
#    y 0.000000 1.730980 0.000000 
#    z -0.001770 0.000000 1.727920 
# 
# From -- ./inp_files/117212.got.cif
#   From: 2010.06.25/outbox.cif.g09.slc.cpg/sg15_59_cif.got.tgz:117212.got - 2010.06.28 07:06:18.
