data_PCOD8134842
_publ_section_title
;
Structure prediction by ZEFSAII (Michael W. Deem and Ramdas Pophale) SiO2 
 PCOD8134842
Probable space group: C 2/C
;
_chemical_formula_sum "Si O2"
_cell_formula_units_Z 24
_cell_length_a 14.131560
_cell_length_b 7.564977
_cell_length_c 19.988731
_cell_angle_alpha 90.000000
_cell_angle_beta 25.722810
_cell_angle_gamma 90.000000
_cell_volume 927.449905
_symmetry_space_group_name_H-M "C 2/C"
_symmetry_group_IT_number 15
_symmetry_cell_setting 'monoclinic'
loop_
_space_group_symop_operation_xyz
x,y,z
-x,y,1/2-z
-x,-y,-z
x,-y,1/2+z
1/2+x,1/2+y,z
1/2-x,1/2+y,1/2-z
1/2-x,1/2-y,-z
1/2+x,1/2-y,1/2+z
loop_
_atom_site_type_symbol
_atom_site_label
_atom_site_fract_x
_atom_site_fract_y
_atom_site_fract_z
Si Si1 0.195997 0.484114 0.074683
Si Si2 0.027272 0.830624 0.434030
Si Si3 0.500393 0.834075 0.080659
O O1 0.000000 0.433939 0.250000
O O2 0.099315 0.499762 0.060118
O O3 0.315026 0.667320 0.020278
O O4 0.385894 0.335979 0.957516
O O5 0.039534 0.659018 0.475348
O O6 0.241882 0.829140 0.253342
O O7 0.000000 0.000000 0.500000
#
# Coordination Sequence:
#
# PCOD8134842 Si02
#       3
#     8   8   8
#     4  10  19  36  65  87 117 165 202 247 309 360
#     4  10  20  37  62  90 122 161 202 254 305 363
#     4  10  19  36  64  85 121 166 199 249 314 356
#
# _framework density 25.877409
#
# number of rings (size 3 to 8) (size 9 to 14) (size 15 to 20)
#    0.000    2.000    6.667    0.000    0.000    0.000 
#    0.000    8.333    7.333    0.000    0.000    0.000 
#    0.000    0.000    0.000    0.000    0.000    0.000 
#
# Total GULP energy -148660.368921 kJ/mol
# GULP energy per Si atom -12388.364077 kJ/mol
# Density = 2.581851 g / cm^3
# Si number density = 25.877409 Si / 1000 Ang^3
#
#
#
# Elastic Constant Matrix: (Units=GPa)
#
#
# Indices 1 2 3 4 5 6 
#
# 1 227.3098 3.5806 44.4085 0.0004 -20.0061 0.0001
# 2 3.5806 50.9007 8.3491 0.0005 -12.8652 -0.0003
# 3 44.4085 8.3491 156.7243 0.0019 -27.7610 -0.0010
# 4 0.0004 0.0005 0.0019 34.0248 -0.0019 -15.9309
# 5 -20.0061 -12.8652 -27.7610 -0.0019 25.4943 -0.0005
# 6 0.0001 -0.0003 -0.0010 -15.9309 -0.0005 20.8994
#
#
#
# Elastic Compliance Matrix: (Units=1/GPa)
#
#
# Indices 1 2 3 4 5 6 
#
# 1 0.004834 0.000602 -0.000838 0.000000 0.003185 0.000000
# 2 0.000602 0.022722 0.000909 0.000001 0.012929 0.000002
# 3 -0.000838 0.000909 0.008096 0.000000 0.008617 0.000001
# 4 0.000000 0.000001 0.000000 0.045701 0.000006 0.034836
# 5 0.003185 0.012929 0.008617 0.000006 0.057632 0.000006
# 6 0.000000 0.000002 0.000001 0.034836 0.000006 0.074403
#
#
# Mechanical properties :
#
#
# Convention : Reuss Voigt Hill
#
# Bulk Modulus (GPa) = 27.02723 60.84570 43.93646
# Shear Modulus (GPa) = 22.28430 41.32348 31.80389
#
# Velocity S-wave (km/s) = 2.93772 4.00045 3.50954
# Velocity P-wave (km/s) = 4.68763 6.70091 5.78257
#
# Compressibility (1/GPa) = 0.03699973
#
# Stress axis : x y z
#
# Youngs Moduli (GPa) = 206.87838 44.00939 123.51895
#
# Poissons Ratio (x) = -0.02651 0.10346
# Poissons Ratio (y) = -0.12462 -0.11228
# Poissons Ratio (z) = 0.17327 -0.04000
#
# Static dielectric constant tensor:
#      x y z
#    x 6.622800 0.000000 -0.305150 
#    y 0.000000 5.070030 0.000010 
#    z -0.305150 0.000010 4.371890 
# 
# 
# High freq. dielectric constant tensor:
#      x y z
#    x 2.066010 0.000000 -0.013590 
#    y 0.000000 2.013230 0.000000 
#    z -0.013590 0.000000 2.028240 
# 
# From -- ./inp_files/27153.got.cif
#   From: 2010.06.25/outbox.cif.g09.slc.cpg/sg15_14_cif.got.tgz:27153.got - 2010.06.28 07:06:18.
