data_PCOD8134434
_publ_section_title
;
Structure prediction by ZEFSAII (Michael W. Deem and Ramdas Pophale) SiO2 
 PCOD8134434
Probable space group: C 2/C
;
_chemical_formula_sum "Si O2"
_cell_formula_units_Z 52
_cell_length_a 13.414924
_cell_length_b 8.505333
_cell_length_c 21.431283
_cell_angle_alpha 90.000000
_cell_angle_beta 89.898884
_cell_angle_gamma 90.000000
_cell_volume 2445.271202
_symmetry_space_group_name_H-M "C 2/C"
_symmetry_group_IT_number 15
_symmetry_cell_setting 'monoclinic'
loop_
_space_group_symop_operation_xyz
x,y,z
-x,y,1/2-z
-x,-y,-z
x,-y,1/2+z
1/2+x,1/2+y,z
1/2-x,1/2+y,1/2-z
1/2-x,1/2-y,-z
1/2+x,1/2-y,1/2+z
loop_
_atom_site_type_symbol
_atom_site_label
_atom_site_fract_x
_atom_site_fract_y
_atom_site_fract_z
Si Si1 0.532918 0.706213 0.938597
Si Si2 0.268872 0.083559 0.567498
Si Si3 0.339930 0.848597 0.660180
Si Si4 0.339714 0.104081 0.435380
Si Si5 0.000000 0.476491 0.750000
Si Si6 0.570640 0.396092 0.568886
Si Si7 0.352158 0.164122 0.837493
O O1 0.631980 0.752013 0.901806
O O2 0.444676 0.820067 0.915758
O O3 0.515935 0.523335 0.921614
O O4 0.546022 0.724003 0.012895
O O5 0.342662 0.054318 0.508566
O O6 0.248518 0.269058 0.575106
O O7 0.311842 0.021865 0.633718
O O8 0.169736 0.989268 0.550315
O O9 0.246185 0.753430 0.690574
O O10 0.433697 0.862305 0.706554
O O11 0.317512 0.959086 0.390024
O O12 0.918218 0.583984 0.784293
O O13 0.578584 0.296737 0.631774
#
# Coordination Sequence:
#
# PCOD8134434 Si02
#       7
#     8   8   8   8   4   8   8
#     4  10  19  36  64  99 132 163 198 264 334 402
#     4   9  20  36  62  99 131 164 206 261 337 409
#     4  11  24  45  66  88 130 173 216 280 323 383
#     4  10  19  35  65 100 132 165 202 266 338 400
#     4  12  28  48  64  94 126 178 246 272 310 380
#     4   9  20  37  61  98 133 159 208 255 336 408
#     4  11  24  45  66  90 127 174 218 276 324 383
#
# _framework density 21.265535
#
# number of rings (size 3 to 8) (size 9 to 14) (size 15 to 20)
#    0.000    1.846    1.538    1.846    2.154    6.154 
#    5.538    0.000    0.000    0.000    0.000    0.000 
#    0.000    0.000    0.000    0.000    0.000    0.000 
#
# Total GULP energy -322363.350260 kJ/mol
# GULP energy per Si atom -12398.590395 kJ/mol
# Density = 2.121713 g / cm^3
# Si number density = 21.265535 Si / 1000 Ang^3
#
#
#
# Elastic Constant Matrix: (Units=GPa)
#
#
# Indices 1 2 3 4 5 6 
#
# 1 81.6540 21.1107 30.9625 0.0000 8.0211 0.0000
# 2 21.1107 62.5139 23.7062 0.0000 2.7719 0.0000
# 3 30.9625 23.7062 63.8871 0.0000 -0.3177 0.0000
# 4 0.0000 0.0000 0.0000 23.1939 0.0000 -0.9454
# 5 8.0211 2.7719 -0.3177 0.0000 41.8267 0.0000
# 6 0.0000 0.0000 0.0000 -0.9454 0.0000 25.0966
#
#
#
# Elastic Compliance Matrix: (Units=1/GPa)
#
#
# Indices 1 2 3 4 5 6 
#
# 1 0.015744 -0.002664 -0.006656 0.000000 -0.002893 0.000000
# 2 -0.002664 0.019136 -0.005814 0.000000 -0.000801 0.000000
# 3 -0.006656 -0.005814 0.021045 0.000000 0.001821 0.000000
# 4 0.000000 0.000000 0.000000 0.043181 0.000000 0.001627
# 5 -0.002893 -0.000801 0.001821 0.000000 0.024530 0.000000
# 6 0.000000 0.000000 0.000000 0.001627 0.000000 0.039907
#
#
# Mechanical properties :
#
#
# Convention : Reuss Voigt Hill
#
# Bulk Modulus (GPa) = 38.97543 39.95708 39.46626
# Shear Modulus (GPa) = 24.70812 26.84180 25.77496
#
# Velocity S-wave (km/s) = 3.41234 3.55663 3.48523
# Velocity P-wave (km/s) = 5.82179 5.97466 5.89872
#
# Compressibility (1/GPa) = 0.02565719
#
# Stress axis : x y z
#
# Youngs Moduli (GPa) = 63.51761 52.25675 47.51818
#
# Poissons Ratio (x) = 0.13923 0.31627
# Poissons Ratio (y) = 0.16923 0.27625
# Poissons Ratio (z) = 0.42276 0.30380
#
# Static dielectric constant tensor:
#      x y z
#    x 3.812170 0.000000 0.017080 
#    y 0.000000 3.971280 0.000000 
#    z 0.017080 0.000000 3.556390 
# 
# 
# High freq. dielectric constant tensor:
#      x y z
#    x 1.836950 0.000000 -0.002390 
#    y 0.000000 1.841700 0.000000 
#    z -0.002390 0.000000 1.806390 
# 
# From -- ./inp_files/242412.got.cif
#   From: 2010.06.25/outbox.cif.g09.slc.cpg/sg15_122_cif.got.tgz:242412.got - 2010.06.28 07:06:18.
