data_PCOD8134827
_publ_section_title
;
Structure prediction by ZEFSAII (Michael W. Deem and Ramdas Pophale) SiO2 
 PCOD8134827
Probable space group: C 2/C
;
_chemical_formula_sum "Si O2"
_cell_formula_units_Z 36
_cell_length_a 18.375082
_cell_length_b 17.388555
_cell_length_c 8.593898
_cell_angle_alpha 90.000000
_cell_angle_beta 144.008398
_cell_angle_gamma 90.000000
_cell_volume 1613.667422
_symmetry_space_group_name_H-M "C 2/C"
_symmetry_group_IT_number 15
_symmetry_cell_setting 'monoclinic'
loop_
_space_group_symop_operation_xyz
x,y,z
-x,y,1/2-z
-x,-y,-z
x,-y,1/2+z
1/2+x,1/2+y,z
1/2-x,1/2+y,1/2-z
1/2-x,1/2-y,-z
1/2+x,1/2-y,1/2+z
loop_
_atom_site_type_symbol
_atom_site_label
_atom_site_fract_x
_atom_site_fract_y
_atom_site_fract_z
Si Si1 0.500000 0.804081 0.250000
Si Si2 0.203607 0.554997 0.650477
Si Si3 0.118240 0.157414 0.366519
Si Si4 0.873309 0.920043 0.941581
Si Si5 0.635593 0.086156 0.202539
O O1 0.613454 0.750106 0.385770
O O2 0.534443 0.856954 0.456087
O O3 0.126237 0.589220 0.372778
O O4 0.114066 0.501759 0.603306
O O5 0.254721 0.624656 0.843092
O O6 0.317765 0.501796 0.782989
O O7 0.000000 0.119591 0.250000
O O8 0.107331 0.138483 0.166063
O O9 0.000000 0.934935 0.250000
O O10 0.772456 0.884652 0.886814
#
# Coordination Sequence:
#
# PCOD8134827 Si02
#       5
#     4   8   8   8   8
#     4  10  26  40  56  88 136 156 192 240 318 352
#     4  10  19  36  65  89 111 155 210 243 286 346
#     4  10  21  37  60  90 122 157 193 251 299 357
#     4  10  19  36  63  92 115 148 205 254 290 341
#     4  10  22  39  62  90 120 161 197 254 290 360
#
# _framework density 22.309429000000002
#
# number of rings (size 3 to 8) (size 9 to 14) (size 15 to 20)
#    2.000    0.000    2.222    2.000    0.000    5.333 
#    0.000    0.000    0.000    0.000    0.000    0.000 
#    0.000    0.000    0.000    0.000    0.000    0.000 
#
# Total GULP energy -223087.322230 kJ/mol
# GULP energy per Si atom -12393.740124 kJ/mol
# Density = 2.225865 g / cm^3
# Si number density = 22.309429 Si / 1000 Ang^3
#
#
#
# Elastic Constant Matrix: (Units=GPa)
#
#
# Indices 1 2 3 4 5 6 
#
# 1 41.1098 2.6291 10.8676 0.0000 -18.5374 0.0000
# 2 2.6291 125.1131 69.1422 0.0000 -8.6557 0.0000
# 3 10.8676 69.1422 134.5805 0.0000 -36.6877 0.0000
# 4 0.0000 0.0000 0.0000 47.0859 0.0000 3.7059
# 5 -18.5374 -8.6557 -36.6877 0.0000 31.5590 0.0000
# 6 0.0000 0.0000 0.0000 3.7059 0.0000 2.0410
#
#
#
# Elastic Compliance Matrix: (Units=1/GPa)
#
#
# Indices 1 2 3 4 5 6 
#
# 1 0.034782 -0.001809 0.005204 0.000000 0.025985 0.000000
# 2 -0.001809 0.011891 -0.007852 0.000000 -0.006929 0.000000
# 3 0.005204 -0.007852 0.016529 0.000000 0.020118 0.000000
# 4 0.000000 0.000000 0.000000 0.024779 0.000000 -0.044991
# 5 0.025985 -0.006929 0.020118 0.000000 0.068437 0.000000
# 6 0.000000 0.000000 0.000000 -0.044991 0.000000 0.571638
#
#
# Mechanical properties :
#
#
# Convention : Reuss Voigt Hill
#
# Bulk Modulus (GPa) = 18.42040 51.78681 35.10360
# Shear Modulus (GPa) = 6.62195 30.68148 18.65172
#
# Velocity S-wave (km/s) = 1.72472 3.71249 2.89458
# Velocity P-wave (km/s) = 3.49870 6.45291 5.19043
#
# Compressibility (1/GPa) = 0.05428764
#
# Stress axis : x y z
#
# Youngs Moduli (GPa) = 28.75049 84.09994 60.50135
#
# Poissons Ratio (x) = 0.15217 -0.31488
# Poissons Ratio (y) = 0.05202 0.47505
# Poissons Ratio (z) = -0.14963 0.66034
#
# Static dielectric constant tensor:
#      x y z
#    x 3.652970 0.000000 -0.004100 
#    y 0.000000 3.684860 0.000000 
#    z -0.004100 0.000000 3.749960 
# 
# 
# High freq. dielectric constant tensor:
#      x y z
#    x 1.866740 0.000000 -0.006610 
#    y 0.000000 1.852620 0.000000 
#    z -0.006610 0.000000 1.876720 
# 
# From -- ./inp_files/56310.got.cif
#   From: 2010.06.25/outbox.cif.g09.slc.cpg/sg15_29_cif.got.tgz:56310.got - 2010.06.28 07:06:18.
