data_PCOD8134347
_publ_section_title
;
Structure prediction by ZEFSAII (Michael W. Deem and Ramdas Pophale) SiO2 
 PCOD8134347
Probable space group: C 2/C
;
_chemical_formula_sum "Si O2"
_cell_formula_units_Z 44
_cell_length_a 7.513860
_cell_length_b 30.502954
_cell_length_c 12.775650
_cell_angle_alpha 90.000000
_cell_angle_beta 137.427824
_cell_angle_gamma 90.000000
_cell_volume 1980.923180
_symmetry_space_group_name_H-M "C 2/C"
_symmetry_group_IT_number 15
_symmetry_cell_setting 'monoclinic'
loop_
_space_group_symop_operation_xyz
x,y,z
-x,y,1/2-z
-x,-y,-z
x,-y,1/2+z
1/2+x,1/2+y,z
1/2-x,1/2+y,1/2-z
1/2-x,1/2-y,-z
1/2+x,1/2-y,1/2+z
loop_
_atom_site_type_symbol
_atom_site_label
_atom_site_fract_x
_atom_site_fract_y
_atom_site_fract_z
Si Si1 0.090358 0.873271 0.449114
Si Si2 0.027887 0.465135 0.136174
Si Si3 0.435060 0.870072 0.404121
Si Si4 0.000000 0.751062 0.750000
Si Si5 0.107213 0.189690 0.479786
Si Si6 0.082013 0.973011 0.435149
O O1 0.306476 0.857583 0.459551
O O2 0.148128 0.923843 0.500520
O O3 0.790089 0.867758 0.281147
O O4 0.104001 0.843166 0.558545
O O5 0.945554 0.419339 0.046372
O O6 0.339580 0.473202 0.246363
O O7 0.000000 0.461975 0.250000
O O8 0.849071 0.503968 0.008029
O O9 0.664818 0.836037 0.483060
O O10 0.053748 0.781089 0.672014
O O11 0.740453 0.721334 0.623538
O O12 0.000000 0.000000 0.500000
#
# Coordination Sequence:
#
# PCOD8134347 Si02
#       6
#     8   8   8   4   8   8
#     4  10  20  35  61  88 118 159 209 247 307 373
#     4   9  17  31  53  83 120 165 213 258 306 364
#     4  10  19  35  61  87 116 161 206 251 305 372
#     4  10  24  38  70  88 120 154 206 244 332 374
#     4  11  20  44  61  92 118 159 193 262 305 384
#     4   9  17  31  52  82 117 167 208 258 304 363
#
# _framework density 22.211865
#
# number of rings (size 3 to 8) (size 9 to 14) (size 15 to 20)
#    0.000    2.182    1.818    3.273    0.000    0.727 
#    0.000   13.636    0.000    2.182    0.000    0.000 
#    0.000    0.000    0.000    0.000    0.000    0.000 
#
# Total GULP energy -272793.859175 kJ/mol
# GULP energy per Si atom -12399.720872 kJ/mol
# Density = 2.216131 g / cm^3
# Si number density = 22.211865 Si / 1000 Ang^3
#
#
#
# Elastic Constant Matrix: (Units=GPa)
#
#
# Indices 1 2 3 4 5 6 
#
# 1 113.2698 64.9920 26.5736 0.0000 10.3494 0.0000
# 2 64.9920 163.5186 54.6725 0.0000 1.5398 0.0000
# 3 26.5736 54.6725 73.3448 0.0000 1.2109 0.0000
# 4 0.0000 0.0000 0.0000 19.8012 0.0000 -1.7992
# 5 10.3494 1.5398 1.2109 0.0000 20.5836 0.0000
# 6 0.0000 0.0000 0.0000 -1.7992 0.0000 24.3523
#
#
#
# Elastic Compliance Matrix: (Units=1/GPa)
#
#
# Indices 1 2 3 4 5 6 
#
# 1 0.012127 -0.004434 -0.000995 0.000000 -0.005707 0.000000
# 2 -0.004434 0.009768 -0.005705 0.000000 0.001834 0.000000
# 3 -0.000995 -0.005705 0.018250 0.000000 -0.000147 0.000000
# 4 0.000000 0.000000 0.000000 0.050843 0.000000 0.003756
# 5 -0.005707 0.001834 -0.000147 0.000000 0.051323 0.000000
# 6 0.000000 0.000000 0.000000 0.003756 0.000000 0.041341
#
#
# Mechanical properties :
#
#
# Convention : Reuss Voigt Hill
#
# Bulk Modulus (GPa) = 55.93465 71.40104 63.66784
# Shear Modulus (GPa) = 23.59830 26.54043 25.06936
#
# Velocity S-wave (km/s) = 3.26301 3.46045 3.36318
# Velocity P-wave (km/s) = 6.27960 6.94129 6.61872
#
# Compressibility (1/GPa) = 0.01787801
#
# Stress axis : x y z
#
# Youngs Moduli (GPa) = 82.45823 102.37486 54.79551
#
# Poissons Ratio (x) = 0.45392 0.05450
# Poissons Ratio (y) = 0.36561 0.31261
# Poissons Ratio (z) = 0.08201 0.58406
#
# Static dielectric constant tensor:
#      x y z
#    x 5.668530 0.000000 1.178160 
#    y 0.000000 4.217820 0.000000 
#    z 1.178160 0.000000 4.579790 
# 
# 
# High freq. dielectric constant tensor:
#      x y z
#    x 1.886740 0.000000 -0.007080 
#    y 0.000000 1.880720 0.000000 
#    z -0.007080 0.000000 1.844180 
# 
# From -- ./inp_files/139335.got.cif
#   From: 2010.06.25/outbox.cif.g09.slc.cpg/sg15_70_cif.got.tgz:139335.got - 2010.06.28 07:06:18.
