data_PCOD8134342
_publ_section_title
;
Structure prediction by ZEFSAII (Michael W. Deem and Ramdas Pophale) SiO2 
 PCOD8134342
Probable space group: C 2/C
;
_chemical_formula_sum "Si O2"
_cell_formula_units_Z 44
_cell_length_a 7.948065
_cell_length_b 16.085839
_cell_length_c 18.178195
_cell_angle_alpha 90.000000
_cell_angle_beta 72.518117
_cell_angle_gamma 90.000000
_cell_volume 2216.759925
_symmetry_space_group_name_H-M "C 2/C"
_symmetry_group_IT_number 15
_symmetry_cell_setting 'monoclinic'
loop_
_space_group_symop_operation_xyz
x,y,z
-x,y,1/2-z
-x,-y,-z
x,-y,1/2+z
1/2+x,1/2+y,z
1/2-x,1/2+y,1/2-z
1/2-x,1/2-y,-z
1/2+x,1/2-y,1/2+z
loop_
_atom_site_type_symbol
_atom_site_label
_atom_site_fract_x
_atom_site_fract_y
_atom_site_fract_z
Si Si1 0.005926 0.478038 0.664752
Si Si2 0.500000 0.682274 0.750000
Si Si3 0.784131 0.677366 0.204527
Si Si4 0.998239 0.877607 0.854454
Si Si5 0.656318 0.438161 0.965305
Si Si6 0.192406 0.054198 0.623220
O O1 0.949982 0.381228 0.664841
O O2 0.880654 0.538778 0.635325
O O3 0.000000 0.508103 0.750000
O O4 0.198804 0.484848 0.603895
O O5 0.646833 0.735635 0.774226
O O6 0.595196 0.628137 0.676823
O O7 0.657227 0.687268 0.148686
O O8 0.666652 0.628804 0.279565
O O9 0.070556 0.862251 0.928199
O O10 0.925508 0.971537 0.857365
O O11 0.500000 0.500000 0.000000
O O12 0.730724 0.412099 0.035136
#
# Coordination Sequence:
#
# PCOD8134342 Si02
#       6
#     8   4   8   8   8   8
#     4  11  19  37  65  86 111 165 208 227 291 375
#     4  12  22  38  54  92 126 158 194 258 302 340
#     4  10  19  35  61  84 115 162 210 231 282 374
#     4   9  18  39  62  85 112 163 204 242 285 368
#     4  10  20  36  60  92 121 145 200 257 298 344
#     4  10  23  36  60  90 124 149 195 261 304 336
#
# _framework density 19.848789
#
# number of rings (size 3 to 8) (size 9 to 14) (size 15 to 20)
#    0.000    1.818    2.727    2.727    2.545    0.000 
#    3.273    4.545    0.000    0.000    0.000    0.000 
#    0.000    0.000    0.000    0.000    0.000    0.000 
#
# Total GULP energy -272638.497307 kJ/mol
# GULP energy per Si atom -12392.658969 kJ/mol
# Density = 1.980361 g / cm^3
# Si number density = 19.848789 Si / 1000 Ang^3
#
#
#
# Elastic Constant Matrix: (Units=GPa)
#
#
# Indices 1 2 3 4 5 6 
#
# 1 135.5617 40.1389 83.3584 0.0000 13.8326 0.0000
# 2 40.1389 65.1254 36.4793 0.0000 8.8994 0.0000
# 3 83.3584 36.4793 159.7693 0.0000 20.1625 0.0000
# 4 0.0000 0.0000 0.0000 12.1850 0.0000 5.9129
# 5 13.8326 8.8994 20.1625 0.0000 53.8943 0.0000
# 6 0.0000 0.0000 0.0000 5.9129 0.0000 15.5332
#
#
#
# Elastic Compliance Matrix: (Units=1/GPa)
#
#
# Indices 1 2 3 4 5 6 
#
# 1 0.011881 -0.004385 -0.005147 0.000000 -0.000400 0.000000
# 2 -0.004385 0.019337 -0.001959 0.000000 -0.001335 0.000000
# 3 -0.005147 -0.001959 0.009639 0.000000 -0.001962 0.000000
# 4 0.000000 0.000000 0.000000 0.100662 0.000000 -0.038318
# 5 -0.000400 -0.001335 -0.001962 0.000000 0.019612 0.000000
# 6 0.000000 0.000000 0.000000 -0.038318 0.000000 0.078964
#
#
# Mechanical properties :
#
#
# Convention : Reuss Voigt Hill
#
# Bulk Modulus (GPa) = 55.94239 75.60104 65.77172
# Shear Modulus (GPa) = 18.58489 29.68784 24.13637
#
# Velocity S-wave (km/s) = 3.06326 3.87162 3.49092
# Velocity P-wave (km/s) = 6.38411 7.62608 7.03257
#
# Compressibility (1/GPa) = 0.01787553
#
# Stress axis : x y z
#
# Youngs Moduli (GPa) = 84.16912 51.71386 103.74157
#
# Poissons Ratio (x) = 0.22676 0.53397
# Poissons Ratio (y) = 0.36907 0.20323
# Poissons Ratio (z) = 0.43323 0.10131
#
# Static dielectric constant tensor:
#      x y z
#    x 4.236640 0.000000 0.631200 
#    y 0.000000 3.118810 0.000000 
#    z 0.631200 0.000000 4.360180 
# 
# 
# High freq. dielectric constant tensor:
#      x y z
#    x 1.803060 0.000000 0.011750 
#    y 0.000000 1.719040 0.000000 
#    z 0.011750 0.000000 1.780910 
# 
# From -- ./inp_files/188769.got.cif
#   From: 2010.06.25/outbox.cif.g09.slc.cpg/sg15_95_cif.got.tgz:188769.got - 2010.06.28 07:06:18.
