data_PCOD8134284
_publ_section_title
;
Structure prediction by ZEFSAII (Michael W. Deem and Ramdas Pophale) SiO2 
 PCOD8134284
Probable space group: C 2/C
;
_chemical_formula_sum "Si O2"
_cell_formula_units_Z 56
_cell_length_a 8.090061
_cell_length_b 17.132711
_cell_length_c 30.298184
_cell_angle_alpha 90.000000
_cell_angle_beta 42.409160
_cell_angle_gamma 90.000000
_cell_volume 2832.208401
_symmetry_space_group_name_H-M "C 2/C"
_symmetry_group_IT_number 15
_symmetry_cell_setting 'monoclinic'
loop_
_space_group_symop_operation_xyz
x,y,z
-x,y,1/2-z
-x,-y,-z
x,-y,1/2+z
1/2+x,1/2+y,z
1/2-x,1/2+y,1/2-z
1/2-x,1/2-y,-z
1/2+x,1/2-y,1/2+z
loop_
_atom_site_type_symbol
_atom_site_label
_atom_site_fract_x
_atom_site_fract_y
_atom_site_fract_z
Si Si1 0.995263 0.757611 0.179625
Si Si2 0.646067 0.718866 0.317580
Si Si3 0.022556 0.893444 0.110020
Si Si4 0.513810 0.434395 0.881659
Si Si5 0.465522 0.107905 0.464846
Si Si6 0.295905 0.364704 0.567100
Si Si7 0.612284 0.278331 0.438360
O O1 0.166485 0.762262 0.187964
O O2 0.004582 0.843970 0.157947
O O3 0.084017 0.691894 0.127968
O O4 0.719031 0.737527 0.252252
O O5 0.664187 0.624958 0.320900
O O6 0.388113 0.748636 0.385977
O O7 0.889777 0.844409 0.098327
O O8 0.895702 0.977141 0.144457
O O9 0.299480 0.913097 0.039868
O O10 0.571061 0.415749 0.921613
O O11 0.228945 0.426911 0.923628
O O12 0.337947 0.079747 0.443597
O O13 0.449693 0.201795 0.460482
O O14 0.519740 0.314317 0.502614
#
# Coordination Sequence:
#
# PCOD8134284 Si02
#       7
#     8   8   8   8   8   8   8
#     4  10  19  38  62  78 113 156 194 237 283 343
#     4   9  22  38  57  84 109 153 201 230 284 355
#     4  11  20  36  59  86 118 146 190 247 289 332
#     4  10  23  36  57  89 120 148 189 242 299 338
#     4  10  19  36  57  91 116 155 191 234 283 359
#     4  10  19  37  61  82 117 157 190 238 286 340
#     4  10  19  35  59  88 112 149 207 232 271 360
#
# _framework density 19.772556000000002
#
# number of rings (size 3 to 8) (size 9 to 14) (size 15 to 20)
#    0.000    2.000    2.857    1.286    2.000    4.571 
#    2.571    5.714    3.143    0.000    0.000    0.000 
#    0.000    0.000    0.000    0.000    0.000    0.000 
#
# Total GULP energy -346948.041159 kJ/mol
# GULP energy per Si atom -12391.001470 kJ/mol
# Density = 1.972755 g / cm^3
# Si number density = 19.772556 Si / 1000 Ang^3
#
#
#
# Elastic Constant Matrix: (Units=GPa)
#
#
# Indices 1 2 3 4 5 6 
#
# 1 80.6170 34.7342 24.4462 0.0117 10.9279 0.0141
# 2 34.7342 133.0691 34.8543 0.0032 19.0123 0.0078
# 3 24.4462 34.8543 111.6787 0.0044 19.1137 0.0053
# 4 0.0117 0.0032 0.0044 9.6479 -0.0021 5.4632
# 5 10.9279 19.0123 19.1137 -0.0021 18.7245 -0.0065
# 6 0.0141 0.0078 0.0053 5.4632 -0.0065 16.4894
#
#
#
# Elastic Compliance Matrix: (Units=1/GPa)
#
#
# Indices 1 2 3 4 5 6 
#
# 1 0.014663 -0.002824 -0.001641 -0.000012 -0.004015 -0.000008
# 2 -0.002824 0.009539 -0.001191 0.000002 -0.006821 -0.000005
# 3 -0.001641 -0.001191 0.011286 -0.000002 -0.009353 -0.000005
# 4 -0.000012 0.000002 -0.000002 0.127586 0.000007 -0.042271
# 5 -0.004015 -0.006821 -0.009353 0.000007 0.072223 0.000036
# 6 -0.000008 -0.000005 -0.000005 -0.042271 0.000036 0.074650
#
#
# Mechanical properties :
#
#
# Convention : Reuss Voigt Hill
#
# Bulk Modulus (GPa) = 41.36546 57.04823 49.20684
# Shear Modulus (GPa) = 15.18290 24.39436 19.78863
#
# Velocity S-wave (km/s) = 2.77407 3.51629 3.16699
# Velocity P-wave (km/s) = 5.58808 6.73799 6.18980
#
# Compressibility (1/GPa) = 0.02417476
#
# Stress axis : x y z
#
# Youngs Moduli (GPa) = 68.19925 104.83723 88.60420
#
# Poissons Ratio (x) = 0.29604 0.14542
# Poissons Ratio (y) = 0.19258 0.10556
# Poissons Ratio (z) = 0.11193 0.12490
#
# Static dielectric constant tensor:
#      x y z
#    x 3.551910 -0.000030 0.145770 
#    y -0.000030 3.589780 0.000020 
#    z 0.145770 0.000020 4.339440 
# 
# 
# High freq. dielectric constant tensor:
#      x y z
#    x 1.767640 0.000000 0.002880 
#    y 0.000000 1.758280 0.000000 
#    z 0.002880 0.000000 1.767440 
# 
# From -- ./inp_files/232111.got.cif
#   From: 2010.06.25/outbox.cif.g09.slc.cpg/sg15_117_cif.got.tgz:232111.got - 2010.06.28 07:06:18.
