data_PCOD8134690
_publ_section_title
;
Structure prediction by ZEFSAII (Michael W. Deem and Ramdas Pophale) SiO2 
 PCOD8134690
Probable space group: C 2/C
;
_chemical_formula_sum "Si O2"
_cell_formula_units_Z 64
_cell_length_a 17.720510
_cell_length_b 18.106696
_cell_length_c 14.911292
_cell_angle_alpha 90.000000
_cell_angle_beta 139.219693
_cell_angle_gamma 90.000000
_cell_volume 3125.003694
_symmetry_space_group_name_H-M "C 2/C"
_symmetry_group_IT_number 15
_symmetry_cell_setting 'monoclinic'
loop_
_space_group_symop_operation_xyz
x,y,z
-x,y,1/2-z
-x,-y,-z
x,-y,1/2+z
1/2+x,1/2+y,z
1/2-x,1/2+y,1/2-z
1/2-x,1/2-y,-z
1/2+x,1/2-y,1/2+z
loop_
_atom_site_type_symbol
_atom_site_label
_atom_site_fract_x
_atom_site_fract_y
_atom_site_fract_z
Si Si1 0.585890 0.905358 0.501366
Si Si2 0.255149 0.276882 0.713528
Si Si3 0.597769 0.175373 0.764006
Si Si4 0.192681 0.542051 0.927495
Si Si5 0.369971 0.573347 0.629873
Si Si6 0.155475 0.129767 0.700933
Si Si7 0.112437 0.881175 0.548066
Si Si8 0.293982 0.003025 0.250010
O O1 0.676307 0.838679 0.595905
O O2 0.458760 0.869848 0.372512
O O3 0.601357 0.955365 0.425894
O O4 0.600816 0.962584 0.597149
O O5 0.342189 0.249480 0.714724
O O6 0.177355 0.212927 0.687569
O O7 0.337585 0.306260 0.866203
O O8 0.500000 0.194284 0.750000
O O9 0.701511 0.126800 0.901008
O O10 0.155632 0.494877 0.806172
O O11 0.307769 0.506334 0.071190
O O12 0.500000 0.546860 0.750000
O O13 0.329966 0.622415 0.678360
O O14 0.353151 0.622407 0.525910
O O15 0.023946 0.109343 0.556355
O O16 0.251617 0.078187 0.741111
O O17 0.177151 0.949124 0.654337
#
# Coordination Sequence:
#
# PCOD8134690 Si02
#       8
#     8   8   8   8   8   8   8   8
#     4  10  22  39  58  81 122 147 191 239 286 335
#     4  11  22  39  55  85 115 158 192 230 283 343
#     4  10  22  38  56  80 116 155 189 234 285 341
#     4  10  19  37  56  85 115 145 187 237 288 333
#     4   9  19  36  60  89 115 144 186 243 290 332
#     4  11  19  36  62  83 113 153 193 234 284 343
#     4   9  21  36  57  84 120 145 189 241 284 331
#     4  10  19  36  60  87 110 149 192 237 281 338
#
# _framework density 20.479976000000001
#
# number of rings (size 3 to 8) (size 9 to 14) (size 15 to 20)
#    0.000    2.000    2.500    1.125    0.000    3.000 
#    2.250    0.000    0.000    0.000    0.000    0.000 
#    0.000    0.000    0.000    0.000    0.000    0.000 
#
# Total GULP energy -396432.849467 kJ/mol
# GULP energy per Si atom -12388.526546 kJ/mol
# Density = 2.043336 g / cm^3
# Si number density = 20.479976 Si / 1000 Ang^3
#
#
#
# Elastic Constant Matrix: (Units=GPa)
#
#
# Indices 1 2 3 4 5 6 
#
# 1 91.0547 36.2901 37.9397 0.0000 -5.9414 0.0000
# 2 36.2901 75.8740 30.1076 0.0000 1.7228 0.0000
# 3 37.9397 30.1076 84.5032 0.0000 -5.9954 0.0000
# 4 0.0000 0.0000 0.0000 31.8149 0.0000 -2.8751
# 5 -5.9414 1.7228 -5.9954 0.0000 29.3804 0.0000
# 6 0.0000 0.0000 0.0000 -2.8751 0.0000 23.3360
#
#
#
# Elastic Compliance Matrix: (Units=1/GPa)
#
#
# Indices 1 2 3 4 5 6 
#
# 1 0.015308 -0.005496 -0.004741 0.000000 0.002451 0.000000
# 2 -0.005496 0.017445 -0.003957 0.000000 -0.002942 0.000000
# 3 -0.004741 -0.003957 0.015546 0.000000 0.002446 0.000000
# 4 0.000000 0.000000 0.000000 0.031786 0.000000 0.003916
# 5 0.002451 -0.002942 0.002446 0.000000 0.035203 0.000000
# 6 0.000000 0.000000 0.000000 0.003916 0.000000 0.043335
#
#
# Mechanical properties :
#
#
# Convention : Reuss Voigt Hill
#
# Bulk Modulus (GPa) = 50.22174 51.12295 50.67235
# Shear Modulus (GPa) = 25.82007 26.71257 26.26632
#
# Velocity S-wave (km/s) = 3.55455 3.61546 3.58514
# Velocity P-wave (km/s) = 6.43600 6.51501 6.47562
#
# Compressibility (1/GPa) = 0.01991169
#
# Stress axis : x y z
#
# Youngs Moduli (GPa) = 65.32432 57.32170 64.32676
#
# Poissons Ratio (x) = 0.31505 0.30497
# Poissons Ratio (y) = 0.35904 0.25452
# Poissons Ratio (z) = 0.30969 0.22680
#
# Static dielectric constant tensor:
#      x y z
#    x 3.696780 0.000000 -0.206600 
#    y 0.000000 3.600840 0.000000 
#    z -0.206600 0.000000 4.056370 
# 
# 
# High freq. dielectric constant tensor:
#      x y z
#    x 1.799350 0.000000 -0.009780 
#    y 0.000000 1.786780 0.000000 
#    z -0.009780 0.000000 1.812350 
# 
# From -- ./inp_files/163299.got.cif
#   From: 2010.06.25/outbox.cif.g09.slc.cpg/sg15_82_cif.got.tgz:163299.got - 2010.06.28 07:06:18.
