data_PCOD8134874
_publ_section_title
;
Structure prediction by ZEFSAII (Michael W. Deem and Ramdas Pophale) SiO2 
 PCOD8134874
Probable space group: C 2/C
;
_chemical_formula_sum "Si O2"
_cell_formula_units_Z 64
_cell_length_a 14.611404
_cell_length_b 13.748751
_cell_length_c 25.033744
_cell_angle_alpha 90.000000
_cell_angle_beta 37.071249
_cell_angle_gamma 90.000000
_cell_volume 3031.515425
_symmetry_space_group_name_H-M "C 2/C"
_symmetry_group_IT_number 15
_symmetry_cell_setting 'monoclinic'
loop_
_space_group_symop_operation_xyz
x,y,z
-x,y,1/2-z
-x,-y,-z
x,-y,1/2+z
1/2+x,1/2+y,z
1/2-x,1/2+y,1/2-z
1/2-x,1/2-y,-z
1/2+x,1/2-y,1/2+z
loop_
_atom_site_type_symbol
_atom_site_label
_atom_site_fract_x
_atom_site_fract_y
_atom_site_fract_z
Si Si1 0.313977 0.471875 0.435268
Si Si2 0.536679 0.697338 0.476776
Si Si3 0.110014 0.180653 0.060041
Si Si4 0.589961 0.407440 0.365089
Si Si5 0.218015 0.573204 0.178184
Si Si6 0.922840 0.518077 0.362968
Si Si7 0.388992 0.088411 0.562442
Si Si8 0.390374 0.846459 0.181109
O O1 0.354668 0.586395 0.420757
O O2 0.469686 0.414475 0.373046
O O3 0.179403 0.445203 0.539980
O O4 0.262720 0.437933 0.400244
O O5 0.409514 0.660257 0.493945
O O6 0.508934 0.634985 0.541492
O O7 0.706923 0.675191 0.374473
O O8 0.531009 0.811473 0.493784
O O9 0.955254 0.237278 0.148559
O O10 0.250000 0.250000 0.000000
O O11 0.653364 0.514465 0.349253
O O12 0.729925 0.337284 0.285790
O O13 0.175466 0.511477 0.145116
O O14 0.068112 0.589945 0.284881
O O15 0.987743 0.410548 0.343448
O O16 0.356887 0.100568 0.640191
O O17 0.500000 0.000000 0.500000
#
# Coordination Sequence:
#
# PCOD8134874 Si02
#       8
#     8   8   8   8   8   8   8   8
#     4  12  21  40  69  93 127 177 217 269 332 401
#     4  11  22  41  66  96 126 177 217 271 337 398
#     4  11  21  39  68  93 126 175 227 265 328 398
#     4  11  23  40  66  98 132 162 223 287 331 388
#     4  10  20  37  63 101 129 160 216 282 330 375
#     4  10  19  36  66  96 129 163 212 271 332 378
#     4  11  24  45  64  89 135 181 220 263 333 405
#     4  10  23  43  63  97 132 175 220 279 327 392
#
# _framework density 21.111554999999999
#
# number of rings (size 3 to 8) (size 9 to 14) (size 15 to 20)
#    0.000    1.250    5.000    1.875    0.000    1.000 
#    6.750    2.500    2.750    0.000    0.000    0.000 
#    0.000    0.000    0.000    0.000    0.000    0.000 
#
# Total GULP energy -396654.667900 kJ/mol
# GULP energy per Si atom -12395.458372 kJ/mol
# Density = 2.106350 g / cm^3
# Si number density = 21.111555 Si / 1000 Ang^3
#
#
#
# Elastic Constant Matrix: (Units=GPa)
#
#
# Indices 1 2 3 4 5 6 
#
# 1 133.0296 19.8345 11.4767 0.0000 -11.6885 0.0000
# 2 19.8345 76.4449 31.9180 0.0000 -4.9030 0.0000
# 3 11.4767 31.9180 101.4929 0.0002 -15.0708 -0.0001
# 4 0.0000 0.0000 0.0002 27.7500 0.0000 -2.9844
# 5 -11.6885 -4.9030 -15.0708 0.0000 27.6679 0.0000
# 6 0.0000 0.0000 -0.0001 -2.9844 0.0000 32.2956
#
#
#
# Elastic Compliance Matrix: (Units=1/GPa)
#
#
# Indices 1 2 3 4 5 6 
#
# 1 0.008072 -0.001965 0.000174 0.000000 0.003157 0.000000
# 2 -0.001965 0.015537 -0.004764 0.000000 -0.000671 0.000000
# 3 0.000174 -0.004764 0.012204 0.000000 0.005877 0.000000
# 4 0.000000 0.000000 0.000000 0.036398 0.000000 0.003364
# 5 0.003157 -0.000671 0.005877 0.000000 0.040559 0.000000
# 6 0.000000 0.000000 0.000000 0.003364 0.000000 0.031275
#
#
# Mechanical properties :
#
#
# Convention : Reuss Voigt Hill
#
# Bulk Modulus (GPa) = 44.04432 48.60285 46.32359
# Shear Modulus (GPa) = 30.35421 34.05858 32.20640
#
# Velocity S-wave (km/s) = 3.79595 4.02091 3.91005
# Velocity P-wave (km/s) = 6.33405 6.68048 6.50957
#
# Compressibility (1/GPa) = 0.02270440
#
# Stress axis : x y z
#
# Youngs Moduli (GPa) = 123.87871 64.36268 81.94017
#
# Poissons Ratio (x) = 0.12644 -0.01424
# Poissons Ratio (y) = 0.24337 0.39034
# Poissons Ratio (z) = -0.02153 0.30660
#
# Static dielectric constant tensor:
#      x y z
#    x 4.251370 0.000000 -0.139730 
#    y 0.000000 3.903720 0.000000 
#    z -0.139730 0.000000 3.884830 
# 
# 
# High freq. dielectric constant tensor:
#      x y z
#    x 1.843690 0.000000 -0.015360 
#    y 0.000000 1.809570 0.000000 
#    z -0.015360 0.000000 1.817620 
# 
# From -- ./inp_files/296393.got.cif
#   From: 2010.06.25/outbox.cif.g09.slc.cpg/sg15_149_cif.got.tgz:296393.got - 2010.06.28 07:06:18.
