data_PCOD8134767
_publ_section_title
;
Structure prediction by ZEFSAII (Michael W. Deem and Ramdas Pophale) SiO2 
 PCOD8134767
Probable space group: C 2/C
;
_chemical_formula_sum "Si O2"
_cell_formula_units_Z 44
_cell_length_a 7.855277
_cell_length_b 12.883432
_cell_length_c 20.041263
_cell_angle_alpha 90.000000
_cell_angle_beta 94.392289
_cell_angle_gamma 90.000000
_cell_volume 2022.277692
_symmetry_space_group_name_H-M "C 2/C"
_symmetry_group_IT_number 15
_symmetry_cell_setting 'monoclinic'
loop_
_space_group_symop_operation_xyz
x,y,z
-x,y,1/2-z
-x,-y,-z
x,-y,1/2+z
1/2+x,1/2+y,z
1/2-x,1/2+y,1/2-z
1/2-x,1/2-y,-z
1/2+x,1/2-y,1/2+z
loop_
_atom_site_type_symbol
_atom_site_label
_atom_site_fract_x
_atom_site_fract_y
_atom_site_fract_z
Si Si1 0.340177 0.692180 0.789221
Si Si2 0.912786 0.311382 0.527411
Si Si3 0.758359 0.508893 0.959090
Si Si4 0.558164 0.097926 0.151563
Si Si5 0.500000 0.080933 0.750000
Si Si6 0.596385 0.622795 0.563129
O O1 0.500000 0.651911 0.750000
O O2 0.353483 0.818296 0.795815
O O3 0.334525 0.638196 0.860720
O O4 0.164583 0.655956 0.748821
O O5 0.750000 0.250000 0.500000
O O6 0.917966 0.413160 0.480276
O O7 0.903265 0.346207 0.605915
O O8 0.074224 0.234436 0.524909
O O9 0.803242 0.433173 0.900196
O O10 0.587527 0.569236 0.935197
O O11 0.729789 0.443773 0.025691
O O12 0.492182 0.995260 0.186161
#
# Coordination Sequence:
#
# PCOD8134767 Si02
#       6
#     8   8   8   8   4   8
#     4  11  24  46  65  94 136 178 232 287 330 403
#     4   9  19  35  60  90 125 164 207 271 338 394
#     4  10  19  36  61  96 125 170 215 272 348 401
#     4  11  23  41  64  95 136 173 232 284 333 420
#     4  12  26  46  70  94 132 194 232 276 352 402
#     4   9  20  37  60  91 130 169 216 278 337 401
#
# _framework density 21.757646000000001
#
# number of rings (size 3 to 8) (size 9 to 14) (size 15 to 20)
#    0.000    1.818    0.909    2.727    0.000    4.364 
#    4.909    3.636    0.000    0.000    0.000    0.000 
#    0.000    0.000    0.000    0.000    0.000    0.000 
#
# Total GULP energy -272610.496353 kJ/mol
# GULP energy per Si atom -12391.386198 kJ/mol
# Density = 2.170812 g / cm^3
# Si number density = 21.757646 Si / 1000 Ang^3
#
#
#
# Elastic Constant Matrix: (Units=GPa)
#
#
# Indices 1 2 3 4 5 6 
#
# 1 99.9151 49.2687 38.6507 0.0000 2.4045 0.0000
# 2 49.2687 117.6536 33.3803 0.0000 13.9630 0.0000
# 3 38.6507 33.3803 59.8885 0.0000 1.3207 0.0000
# 4 0.0000 0.0000 0.0000 37.1593 0.0000 0.7900
# 5 2.4045 13.9630 1.3207 0.0000 29.5588 0.0000
# 6 0.0000 0.0000 0.0000 0.7900 0.0000 19.7950
#
#
#
# Elastic Compliance Matrix: (Units=1/GPa)
#
#
# Indices 1 2 3 4 5 6 
#
# 1 0.014916 -0.004330 -0.007239 0.000000 0.001155 0.000000
# 2 -0.004330 0.011995 -0.003778 0.000000 -0.005145 0.000000
# 3 -0.007239 -0.003778 0.023446 0.000000 0.001326 0.000000
# 4 0.000000 0.000000 0.000000 0.026934 0.000000 -0.001075
# 5 0.001155 -0.005145 0.001326 0.000000 0.036108 0.000000
# 6 0.000000 0.000000 0.000000 -0.001075 0.000000 0.050561
#
#
# Mechanical properties :
#
#
# Convention : Reuss Voigt Hill
#
# Bulk Modulus (GPa) = 50.85363 57.78406 54.31885
# Shear Modulus (GPa) = 24.85003 27.71311 26.28157
#
# Velocity S-wave (km/s) = 3.38321 3.57279 3.47929
# Velocity P-wave (km/s) = 6.21972 6.60572 6.41562
#
# Compressibility (1/GPa) = 0.01966428
#
# Stress axis : x y z
#
# Youngs Moduli (GPa) = 67.04315 83.36734 42.65139
#
# Poissons Ratio (x) = 0.36094 0.30874
# Poissons Ratio (y) = 0.29026 0.16114
# Poissons Ratio (z) = 0.48530 0.31497
#
# Static dielectric constant tensor:
#      x y z
#    x 3.694420 0.000000 0.206390 
#    y 0.000000 4.700930 0.000000 
#    z 0.206390 0.000000 4.085640 
# 
# 
# High freq. dielectric constant tensor:
#      x y z
#    x 1.835850 0.000000 0.011450 
#    y 0.000000 1.880140 0.000000 
#    z 0.011450 0.000000 1.851790 
# 
# From -- ./inp_files/230249.got.cif
#   From: 2010.06.25/outbox.cif.g09.slc.cpg/sg15_116_cif.got.tgz:230249.got - 2010.06.28 07:06:18.
