data_PCOD8134589
_publ_section_title
;
Structure prediction by ZEFSAII (Michael W. Deem and Ramdas Pophale) SiO2 
 PCOD8134589
Probable space group: C 2/C
;
_chemical_formula_sum "Si O2"
_cell_formula_units_Z 64
_cell_length_a 12.399498
_cell_length_b 15.678950
_cell_length_c 29.377411
_cell_angle_alpha 90.000000
_cell_angle_beta 143.348815
_cell_angle_gamma 90.000000
_cell_volume 3409.310931
_symmetry_space_group_name_H-M "C 2/C"
_symmetry_group_IT_number 15
_symmetry_cell_setting 'monoclinic'
loop_
_space_group_symop_operation_xyz
x,y,z
-x,y,1/2-z
-x,-y,-z
x,-y,1/2+z
1/2+x,1/2+y,z
1/2-x,1/2+y,1/2-z
1/2-x,1/2-y,-z
1/2+x,1/2-y,1/2+z
loop_
_atom_site_type_symbol
_atom_site_label
_atom_site_fract_x
_atom_site_fract_y
_atom_site_fract_z
Si Si1 0.375811 0.414704 0.329220
Si Si2 0.041520 0.240762 0.941558
Si Si3 0.231124 0.985902 0.925936
Si Si4 0.476287 0.378429 0.985890
Si Si5 0.247146 0.989377 0.125703
Si Si6 0.550925 0.937515 0.161134
Si Si7 0.558325 0.931187 0.587118
Si Si8 0.734921 0.848852 0.490831
O O1 0.441126 0.326236 0.374125
O O2 0.538560 0.469131 0.363473
O O3 0.249209 0.475197 0.318787
O O4 0.239653 0.396102 0.241177
O O5 0.932742 0.329475 0.902112
O O6 0.250000 0.250000 0.000000
O O7 0.041317 0.211939 0.994663
O O8 0.281889 0.968353 0.890611
O O9 0.368447 0.048179 0.998691
O O10 0.233514 0.893185 0.950102
O O11 0.281783 0.412615 0.901242
O O12 0.556195 0.442747 0.050419
O O13 0.609711 0.381093 0.989119
O O14 0.420742 0.949610 0.160598
O O15 0.461854 0.871168 0.095767
O O16 0.577368 0.026605 0.143308
O O17 0.750000 0.750000 0.500000
#
# Coordination Sequence:
#
# PCOD8134589 Si02
#       8
#     8   8   8   8   8   8   8   8
#     4  11  21  37  59  87 118 153 194 246 307 353
#     4  11  20  34  59  89 116 149 205 252 284 348
#     4  10  20  37  61  83 114 156 198 238 292 360
#     4   9  17  29  57  84 107 139 189 239 284 331
#     4   9  17  33  56  84 109 142 186 236 289 348
#     4  10  22  37  58  81 120 155 187 240 305 352
#     4  10  21  38  58  86 115 157 200 238 288 357
#     4  10  19  36  58  85 111 147 199 243 284 346
#
# _framework density 18.772122
#
# number of rings (size 3 to 8) (size 9 to 14) (size 15 to 20)
#    0.000    2.000    2.500    1.875    3.500    0.500 
#    2.250    0.000    5.500    0.000    0.000    0.000 
#    0.000    0.000    0.000    0.000    0.000    0.000 
#
# Total GULP energy -396618.329913 kJ/mol
# GULP energy per Si atom -12394.322810 kJ/mol
# Density = 1.872940 g / cm^3
# Si number density = 18.772122 Si / 1000 Ang^3
#
#
#
# Elastic Constant Matrix: (Units=GPa)
#
#
# Indices 1 2 3 4 5 6 
#
# 1 92.3996 21.7851 26.0769 0.0000 4.0315 0.0000
# 2 21.7851 119.4149 39.3827 0.0000 3.0330 0.0000
# 3 26.0769 39.3827 92.2798 0.0000 9.6135 0.0000
# 4 0.0000 0.0000 0.0000 17.9407 0.0000 -0.3064
# 5 4.0315 3.0330 9.6135 0.0000 16.6280 0.0000
# 6 0.0000 0.0000 0.0000 -0.3064 0.0000 29.1419
#
#
#
# Elastic Compliance Matrix: (Units=1/GPa)
#
#
# Indices 1 2 3 4 5 6 
#
# 1 0.011934 -0.001251 -0.002725 0.000000 -0.001090 0.000000
# 2 -0.001251 0.009884 -0.003946 0.000000 0.000782 0.000000
# 3 -0.002725 -0.003946 0.013990 0.000000 -0.006708 0.000000
# 4 0.000000 0.000000 0.000000 0.055749 0.000000 0.000586
# 5 -0.001090 0.000782 -0.006708 0.000000 0.064139 0.000000
# 6 0.000000 0.000000 0.000000 0.000586 0.000000 0.034321
#
#
# Mechanical properties :
#
#
# Convention : Reuss Voigt Hill
#
# Bulk Modulus (GPa) = 50.09140 53.17596 51.63368
# Shear Modulus (GPa) = 23.52768 27.19876 25.36322
#
# Velocity S-wave (km/s) = 3.54408 3.81056 3.67973
# Velocity P-wave (km/s) = 6.59464 6.91007 6.75419
#
# Compressibility (1/GPa) = 0.01996351
#
# Stress axis : x y z
#
# Youngs Moduli (GPa) = 83.79381 101.17425 71.48163
#
# Poissons Ratio (x) = 0.12654 0.19479
# Poissons Ratio (y) = 0.10481 0.28208
# Poissons Ratio (z) = 0.22834 0.39926
#
# Static dielectric constant tensor:
#      x y z
#    x 3.461990 0.000000 -0.061760 
#    y 0.000000 3.387440 0.000000 
#    z -0.061760 0.000000 3.295700 
# 
# 
# High freq. dielectric constant tensor:
#      x y z
#    x 1.741740 0.000000 -0.000900 
#    y 0.000000 1.718170 0.000000 
#    z -0.000900 0.000000 1.706250 
# 
# From -- ./inp_files/311231.got.cif
#   From: 2010.06.25/outbox.cif.g09.slc.cpg/sg15_156_cif.got.tgz:311231.got - 2010.06.28 07:06:18.
