data_PCOD8134489
_publ_section_title
;
Structure prediction by ZEFSAII (Michael W. Deem and Ramdas Pophale) SiO2 
 PCOD8134489
Probable space group: C 2/C
;
_chemical_formula_sum "Si O2"
_cell_formula_units_Z 44
_cell_length_a 13.207201
_cell_length_b 20.902036
_cell_length_c 8.019563
_cell_angle_alpha 90.000000
_cell_angle_beta 78.176517
_cell_angle_gamma 90.000000
_cell_volume 2166.889268
_symmetry_space_group_name_H-M "C 2/C"
_symmetry_group_IT_number 15
_symmetry_cell_setting 'monoclinic'
loop_
_space_group_symop_operation_xyz
x,y,z
-x,y,1/2-z
-x,-y,-z
x,-y,1/2+z
1/2+x,1/2+y,z
1/2-x,1/2+y,1/2-z
1/2-x,1/2-y,-z
1/2+x,1/2-y,1/2+z
loop_
_atom_site_type_symbol
_atom_site_label
_atom_site_fract_x
_atom_site_fract_y
_atom_site_fract_z
Si Si1 0.304435 0.259361 0.223139
Si Si2 0.597006 0.774597 0.492184
Si Si3 0.708812 0.651272 0.060339
Si Si4 0.079407 0.421418 0.458853
Si Si5 0.640197 0.046447 0.567054
Si Si6 0.000000 0.197644 0.250000
O O1 0.399656 0.253829 0.321018
O O2 0.198581 0.256666 0.358560
O O3 0.298401 0.198105 0.101847
O O4 0.316555 0.325345 0.118759
O O5 0.591676 0.850081 0.517866
O O6 0.503454 0.743405 0.414962
O O7 0.601574 0.652712 0.201783
O O8 0.755698 0.579654 0.039820
O O9 0.147729 0.468930 0.554043
O O10 0.121047 0.428175 0.257865
O O11 0.957799 0.436752 0.516561
#
# Coordination Sequence:
#
# PCOD8134489 Si02
#       6
#     8   8   8   8   8   4
#     4   9  20  33  57  83 113 154 186 234 307 335
#     4  10  19  36  55  88 117 145 190 239 289 359
#     4  10  20  38  54  83 118 158 193 240 288 346
#     4  10  21  35  56  84 113 153 183 239 280 351
#     4  10  21  37  55  81 119 148 194 227 289 343
#     4  10  22  36  60  84 122 154 190 248 292 336
#
# _framework density 20.305606999999998
#
# number of rings (size 3 to 8) (size 9 to 14) (size 15 to 20)
#    0.000    2.182    1.818    1.091    7.636    0.727 
#    0.000    0.000    0.000    1.091    0.000    0.000 
#    0.000    0.000    0.000    0.000    0.000    0.000 
#
# Total GULP energy -272708.444722 kJ/mol
# GULP energy per Si atom -12395.838396 kJ/mol
# Density = 2.025939 g / cm^3
# Si number density = 20.305607 Si / 1000 Ang^3
#
#
#
# Elastic Constant Matrix: (Units=GPa)
#
#
# Indices 1 2 3 4 5 6 
#
# 1 84.1297 49.8479 32.1871 0.0000 0.7855 0.0000
# 2 49.8479 106.5755 23.0697 0.0000 -4.2501 0.0000
# 3 32.1871 23.0697 63.0231 0.0000 16.8339 0.0000
# 4 0.0000 0.0000 0.0000 22.9277 0.0000 -1.2213
# 5 0.7855 -4.2501 16.8339 0.0000 29.7516 0.0000
# 6 0.0000 0.0000 0.0000 -1.2213 0.0000 31.9818
#
#
#
# Elastic Compliance Matrix: (Units=1/GPa)
#
#
# Indices 1 2 3 4 5 6 
#
# 1 0.019107 -0.007095 -0.007959 0.000000 0.002985 0.000000
# 2 -0.007095 0.013291 -0.002119 0.000000 0.003285 0.000000
# 3 -0.007959 -0.002119 0.024423 0.000000 -0.013912 0.000000
# 4 0.000000 0.000000 0.000000 0.043704 0.000000 0.001669
# 5 0.002985 0.003285 -0.013912 0.000000 0.041874 0.000000
# 6 0.000000 0.000000 0.000000 0.001669 0.000000 0.031332
#
#
# Mechanical properties :
#
#
# Convention : Reuss Voigt Hill
#
# Bulk Modulus (GPa) = 44.49137 51.54866 48.02001
# Shear Modulus (GPa) = 23.19434 26.84044 25.01739
#
# Velocity S-wave (km/s) = 3.38340 3.63963 3.51386
# Velocity P-wave (km/s) = 6.10096 6.56537 6.33742
#
# Compressibility (1/GPa) = 0.02247627
#
# Stress axis : x y z
#
# Youngs Moduli (GPa) = 52.33560 75.23694 40.94421
#
# Poissons Ratio (x) = 0.53382 0.32586
# Poissons Ratio (y) = 0.37133 0.08677
# Poissons Ratio (z) = 0.41652 0.15944
#
# Static dielectric constant tensor:
#      x y z
#    x 3.708060 0.000000 0.232450 
#    y 0.000000 3.549100 0.000000 
#    z 0.232450 0.000000 3.893880 
# 
# 
# High freq. dielectric constant tensor:
#      x y z
#    x 1.775960 0.000000 0.001180 
#    y 0.000000 1.765770 0.000000 
#    z 0.001180 0.000000 1.802770 
# 
# From -- ./inp_files/30870.got.cif
#   From: 2010.06.25/outbox.cif.g09.slc.cpg/sg15_16_cif.got.tgz:30870.got - 2010.06.28 07:06:18.
