data_PCOD8134570
_publ_section_title
;
Structure prediction by ZEFSAII (Michael W. Deem and Ramdas Pophale) SiO2 
 PCOD8134570
Probable space group: C 2/C
;
_chemical_formula_sum "Si O2"
_cell_formula_units_Z 52
_cell_length_a 20.090586
_cell_length_b 28.994052
_cell_length_c 9.121731
_cell_angle_alpha 90.000000
_cell_angle_beta 150.164642
_cell_angle_gamma 90.000000
_cell_volume 2643.504467
_symmetry_space_group_name_H-M "C 2/C"
_symmetry_group_IT_number 15
_symmetry_cell_setting 'monoclinic'
loop_
_space_group_symop_operation_xyz
x,y,z
-x,y,1/2-z
-x,-y,-z
x,-y,1/2+z
1/2+x,1/2+y,z
1/2-x,1/2+y,1/2-z
1/2-x,1/2-y,-z
1/2+x,1/2-y,1/2+z
loop_
_atom_site_type_symbol
_atom_site_label
_atom_site_fract_x
_atom_site_fract_y
_atom_site_fract_z
Si Si1 0.865717 0.445684 0.241113
Si Si2 0.760160 0.296781 0.105379
Si Si3 0.994613 0.645084 0.408072
Si Si4 0.949012 0.955301 0.816551
Si Si5 0.500000 0.996039 0.250000
Si Si6 0.234374 0.799503 0.398548
Si Si7 0.985571 0.144791 0.396370
O O1 0.947139 0.397574 0.388839
O O2 0.925171 0.474567 0.486836
O O3 0.888340 0.466492 0.122795
O O4 0.708967 0.445132 0.976282
O O5 0.912493 0.311664 0.378922
O O6 0.729645 0.289916 0.217320
O O7 0.750000 0.250000 0.000000
O O8 0.660654 0.334859 0.844649
O O9 0.000000 0.629664 0.250000
O O10 0.846225 0.663156 0.163022
O O11 0.008905 0.907683 0.998277
O O12 0.000000 0.962883 0.750000
O O13 0.000000 0.000000 0.000000
O O14 0.250000 0.750000 0.500000
O O15 0.094975 0.822431 0.181762
O O16 0.000000 0.143685 0.250000
#
# Coordination Sequence:
#
# PCOD8134570 Si02
#       7
#     8   8   8   8   4   8   8
#     4  11  21  42  59  93 122 161 210 255 311 373
#     4  10  19  36  58  81 110 155 194 242 303 362
#     4  10  20  35  62  83 119 158 199 250 306 371
#     4  11  23  39  64  90 122 163 208 257 308 369
#     4  10  24  36  66  86 126 162 204 258 306 364
#     4  10  21  37  56  86 115 151 200 247 303 363
#     4   9  19  35  58  81 114 155 194 235 297 371
#
# _framework density 19.670857999999999
#
# number of rings (size 3 to 8) (size 9 to 14) (size 15 to 20)
#    0.000    1.846    2.308    1.846    2.154    2.462 
#    2.769    1.538    0.000    0.000    0.000    0.000 
#    0.000    0.000    0.000    0.000    0.000    0.000 
#
# Total GULP energy -322192.611530 kJ/mol
# GULP energy per Si atom -12392.023520 kJ/mol
# Density = 1.962609 g / cm^3
# Si number density = 19.670858 Si / 1000 Ang^3
#
#
#
# Elastic Constant Matrix: (Units=GPa)
#
#
# Indices 1 2 3 4 5 6 
#
# 1 76.0787 34.8638 32.8718 0.0000 6.8611 0.0000
# 2 34.8638 151.4788 51.4308 0.0000 -7.0380 0.0000
# 3 32.8718 51.4308 96.2201 0.0000 16.9788 0.0000
# 4 0.0000 0.0000 0.0000 39.0716 0.0000 3.2768
# 5 6.8611 -7.0380 16.9788 0.0000 26.7662 0.0000
# 6 0.0000 0.0000 0.0000 3.2768 0.0000 24.6966
#
#
#
# Elastic Compliance Matrix: (Units=1/GPa)
#
#
# Indices 1 2 3 4 5 6 
#
# 1 0.016147 -0.002572 -0.003706 0.000000 -0.002464 0.000000
# 2 -0.002572 0.009254 -0.005195 0.000000 0.006388 0.000000
# 3 -0.003706 -0.005195 0.016338 0.000000 -0.010780 0.000000
# 4 0.000000 0.000000 0.000000 0.025882 0.000000 -0.003434
# 5 -0.002464 0.006388 -0.010780 0.000000 0.046510 0.000000
# 6 0.000000 0.000000 0.000000 -0.003434 0.000000 0.040947
#
#
# Mechanical properties :
#
#
# Convention : Reuss Voigt Hill
#
# Bulk Modulus (GPa) = 53.21543 62.45671 57.83607
# Shear Modulus (GPa) = 27.13125 31.74762 29.43944
#
# Velocity S-wave (km/s) = 3.71787 4.02175 3.87279
# Velocity P-wave (km/s) = 6.74846 7.30656 7.03305
#
# Compressibility (1/GPa) = 0.01879154
#
# Stress axis : x y z
#
# Youngs Moduli (GPa) = 61.93179 108.05861 61.20700
#
# Poissons Ratio (x) = 0.27796 0.22686
# Poissons Ratio (y) = 0.15931 0.31797
# Poissons Ratio (z) = 0.22955 0.56136
#
# Static dielectric constant tensor:
#      x y z
#    x 3.564460 0.000000 0.236070 
#    y 0.000000 3.760950 0.000000 
#    z 0.236070 0.000000 3.670090 
# 
# 
# High freq. dielectric constant tensor:
#      x y z
#    x 1.745210 0.000000 0.020160 
#    y 0.000000 1.783330 0.000000 
#    z 0.020160 0.000000 1.769470 
# 
# From -- ./inp_files/59320.got.cif
#   From: 2010.06.25/outbox.cif.g09.slc.cpg/sg15_30_cif.got.tgz:59320.got - 2010.06.28 07:06:18.
