data_PCOD8134466
_publ_section_title
;
Structure prediction by ZEFSAII (Michael W. Deem and Ramdas Pophale) SiO2 
 PCOD8134466
Probable space group: C 2/C
;
_chemical_formula_sum "Si O2"
_cell_formula_units_Z 44
_cell_length_a 15.839999
_cell_length_b 27.257178
_cell_length_c 13.109068
_cell_angle_alpha 90.000000
_cell_angle_beta 159.271924
_cell_angle_gamma 90.000000
_cell_volume 2003.222282
_symmetry_space_group_name_H-M "C 2/C"
_symmetry_group_IT_number 15
_symmetry_cell_setting 'monoclinic'
loop_
_space_group_symop_operation_xyz
x,y,z
-x,y,1/2-z
-x,-y,-z
x,-y,1/2+z
1/2+x,1/2+y,z
1/2-x,1/2+y,1/2-z
1/2-x,1/2-y,-z
1/2+x,1/2-y,1/2+z
loop_
_atom_site_type_symbol
_atom_site_label
_atom_site_fract_x
_atom_site_fract_y
_atom_site_fract_z
Si Si1 0.054137 0.637557 0.196460
Si Si2 0.500000 0.409409 0.250000
Si Si3 0.500000 0.610404 0.250000
Si Si4 0.236055 0.952705 0.331548
Si Si5 0.000000 0.723062 0.750000
Si Si6 0.942292 0.650894 0.856169
Si Si7 0.777550 0.063168 0.182927
O O1 0.335135 0.629078 0.501994
O O2 0.000000 0.658843 0.250000
O O3 0.956232 0.582940 0.068054
O O4 0.954975 0.670276 0.989267
O O5 0.639403 0.446292 0.335781
O O6 0.666300 0.644624 0.509982
O O7 0.319061 0.577295 0.111569
O O8 0.326959 0.008411 0.422068
O O9 0.037313 0.935750 0.026898
O O10 0.928021 0.689707 0.571494
O O11 0.750000 0.750000 0.500000
O O12 0.087680 0.599842 0.018104
#
# Coordination Sequence:
#
# PCOD8134466 Si02
#       7
#     8   4   4   8   4   8   8
#     4  10  22  39  61  91 132 185 229 276 322 406
#     4  10  19  36  53  82 122 178 228 269 316 374
#     4  12  22  38  60  94 128 186 232 294 352 417
#     4  10  21  34  54  85 135 182 241 277 329 380
#     4  12  29  52  81 114 138 174 226 305 390 459
#     4  12  24  43  69  96 135 172 232 285 370 432
#     4  11  22  35  56  90 127 188 227 289 337 408
#
# _framework density 21.964611000000001
#
# number of rings (size 3 to 8) (size 9 to 14) (size 15 to 20)
#    0.000    1.091    5.455    1.091    0.000    6.545 
#    0.000    0.000    0.000    1.091    0.000    0.000 
#    0.000    0.000    0.000    0.000    0.000    0.000 
#
# Total GULP energy -272587.900945 kJ/mol
# GULP energy per Si atom -12390.359134 kJ/mol
# Density = 2.191462 g / cm^3
# Si number density = 21.964611 Si / 1000 Ang^3
#
#
#
# Elastic Constant Matrix: (Units=GPa)
#
#
# Indices 1 2 3 4 5 6 
#
# 1 139.1074 39.5077 42.3178 0.0023 -27.1408 0.0002
# 2 39.5077 57.6610 24.6011 0.0022 -2.3831 0.0003
# 3 42.3178 24.6011 112.0176 0.0095 -13.0232 0.0011
# 4 0.0023 0.0022 0.0095 20.2000 0.0039 7.7684
# 5 -27.1408 -2.3831 -13.0232 0.0039 46.0094 0.0005
# 6 0.0002 0.0003 0.0011 7.7684 0.0005 26.2943
#
#
#
# Elastic Compliance Matrix: (Units=1/GPa)
#
#
# Indices 1 2 3 4 5 6 
#
# 1 0.010607 -0.006182 -0.002026 -0.000001 0.005363 0.000000
# 2 -0.006182 0.022740 -0.003046 0.000000 -0.003331 0.000000
# 3 -0.002026 -0.003046 0.010551 -0.000005 0.001634 0.000001
# 4 -0.000001 0.000000 -0.000005 0.055851 -0.000006 -0.016501
# 5 0.005363 -0.003331 0.001634 -0.000006 0.025188 0.000001
# 6 0.000000 0.000000 0.000001 -0.016501 0.000001 0.042906
#
#
# Mechanical properties :
#
#
# Convention : Reuss Voigt Hill
#
# Bulk Modulus (GPa) = 46.74800 57.95989 52.35394
# Shear Modulus (GPa) = 25.31879 31.99137 28.65508
#
# Velocity S-wave (km/s) = 3.39884 3.82055 3.61585
# Velocity P-wave (km/s) = 6.06072 6.77549 6.42805
#
# Compressibility (1/GPa) = 0.02139129
#
# Stress axis : x y z
#
# Youngs Moduli (GPa) = 94.27657 43.97499 94.77359
#
# Poissons Ratio (x) = 0.27184 0.19201
# Poissons Ratio (y) = 0.58278 0.28869
# Poissons Ratio (z) = 0.19100 0.13395
#
# Static dielectric constant tensor:
#      x y z
#    x 4.326780 0.000000 -0.288160 
#    y 0.000000 3.572150 0.000000 
#    z -0.288160 0.000000 4.219390 
# 
# 
# High freq. dielectric constant tensor:
#      x y z
#    x 1.880700 0.000000 -0.009740 
#    y 0.000000 1.802140 0.000000 
#    z -0.009740 0.000000 1.881200 
# 
# From -- ./inp_files/8033.got.cif
#   From: 2010.06.25/outbox.cif.g09.slc.cpg/sg15_5_cif.got.tgz:8033.got - 2010.06.28 07:06:18.
