data_PCOD8134571
_publ_section_title
;
Structure prediction by ZEFSAII (Michael W. Deem and Ramdas Pophale) SiO2 
 PCOD8134571
Probable space group: C 2/C
;
_chemical_formula_sum "Si O2"
_cell_formula_units_Z 56
_cell_length_a 21.692287
_cell_length_b 12.027146
_cell_length_c 17.867561
_cell_angle_alpha 90.000000
_cell_angle_beta 35.038704
_cell_angle_gamma 90.000000
_cell_volume 2676.351654
_symmetry_space_group_name_H-M "C 2/C"
_symmetry_group_IT_number 15
_symmetry_cell_setting 'monoclinic'
loop_
_space_group_symop_operation_xyz
x,y,z
-x,y,1/2-z
-x,-y,-z
x,-y,1/2+z
1/2+x,1/2+y,z
1/2-x,1/2+y,1/2-z
1/2-x,1/2-y,-z
1/2+x,1/2-y,1/2+z
loop_
_atom_site_type_symbol
_atom_site_label
_atom_site_fract_x
_atom_site_fract_y
_atom_site_fract_z
Si Si1 0.392531 0.828236 0.324854
Si Si2 0.091661 0.331727 0.465415
Si Si3 0.734871 0.826308 0.901852
Si Si4 0.900133 0.224558 0.587308
Si Si5 0.720092 0.514637 0.762982
Si Si6 0.439544 0.928802 0.737513
Si Si7 0.749553 0.156079 0.151518
O O1 0.500000 0.768840 0.250000
O O2 0.314155 0.866139 0.470546
O O3 0.338506 0.748023 0.317909
O O4 0.428456 0.939363 0.246958
O O5 0.170018 0.413686 0.342550
O O6 0.160535 0.249812 0.451560
O O7 0.026255 0.255638 0.470388
O O8 0.011649 0.403363 0.594137
O O9 0.645078 0.747914 0.951179
O O10 0.775900 0.932287 0.812771
O O11 0.880293 0.100310 0.639588
O O12 0.833426 0.309787 0.702523
O O13 0.700327 0.455042 0.862260
O O14 0.500000 0.882257 0.750000
O O15 0.321352 0.870594 0.851745
#
# Coordination Sequence:
#
# PCOD8134571 Si02
#       7
#     8   8   8   8   8   8   8
#     4  10  21  37  58  84 111 147 188 223 272 331
#     4  10  21  37  56  82 111 143 184 229 274 324
#     4  10  21  36  57  85 116 143 180 234 275 322
#     4   9  20  35  56  83 111 145 183 227 277 327
#     4  10  19  36  58  81 112 143 178 227 282 329
#     4  10  20  35  57  80 107 148 188 221 269 329
#     4   9  20  34  53  83 111 139 183 229 272 326
#
# _framework density 20.924005999999999
#
# number of rings (size 3 to 8) (size 9 to 14) (size 15 to 20)
#    0.000    2.286    0.000    2.571    0.000   12.000 
#    0.000    4.286    0.000    3.429    0.000    0.000 
#    0.000    0.000    0.000    0.000    0.000    0.000 
#
# Total GULP energy -347000.494011 kJ/mol
# GULP energy per Si atom -12392.874786 kJ/mol
# Density = 2.087638 g / cm^3
# Si number density = 20.924006 Si / 1000 Ang^3
#
#
#
# Elastic Constant Matrix: (Units=GPa)
#
#
# Indices 1 2 3 4 5 6 
#
# 1 128.8528 56.9079 27.5284 0.0000 -28.6599 0.0000
# 2 56.9079 118.0156 44.0035 0.0000 -11.9192 0.0000
# 3 27.5284 44.0035 54.2921 0.0000 -10.4215 0.0000
# 4 0.0000 0.0000 0.0000 32.3425 0.0000 -5.4528
# 5 -28.6599 -11.9192 -10.4215 0.0000 35.0161 0.0000
# 6 0.0000 0.0000 0.0000 -5.4528 0.0000 28.7142
#
#
#
# Elastic Compliance Matrix: (Units=1/GPa)
#
#
# Indices 1 2 3 4 5 6 
#
# 1 0.011662 -0.004571 -0.000715 0.000000 0.007776 0.000000
# 2 -0.004571 0.013989 -0.009359 0.000000 -0.001765 0.000000
# 3 -0.000715 -0.009359 0.027197 0.000000 0.004323 0.000000
# 4 0.000000 0.000000 0.000000 0.031942 0.000000 0.006066
# 5 0.007776 -0.001765 0.004323 0.000000 0.035609 0.000000
# 6 0.000000 0.000000 0.000000 0.006066 0.000000 0.035978
#
#
# Mechanical properties :
#
#
# Convention : Reuss Voigt Hill
#
# Bulk Modulus (GPa) = 42.45128 62.00447 52.22788
# Shear Modulus (GPa) = 25.83698 30.72928 28.28313
#
# Velocity S-wave (km/s) = 3.51779 3.83641 3.68055
# Velocity P-wave (km/s) = 6.06895 7.02293 6.56329
#
# Compressibility (1/GPa) = 0.02355642
#
# Stress axis : x y z
#
# Youngs Moduli (GPa) = 85.74659 71.48353 36.76874
#
# Poissons Ratio (x) = 0.32679 0.02630
# Poissons Ratio (y) = 0.39199 0.34412
# Poissons Ratio (z) = 0.06134 0.66902
#
# Static dielectric constant tensor:
#      x y z
#    x 4.263780 0.000000 -0.385970 
#    y 0.000000 3.785410 0.000000 
#    z -0.385970 0.000000 3.633210 
# 
# 
# High freq. dielectric constant tensor:
#      x y z
#    x 1.818990 0.000000 -0.016370 
#    y 0.000000 1.817370 0.000000 
#    z -0.016370 0.000000 1.802680 
# 
# From -- ./inp_files/255441.got.cif
#   From: 2010.06.25/outbox.cif.g09.slc.cpg/sg15_128_cif.got.tgz:255441.got - 2010.06.28 07:06:18.
