data_PCOD8134643
_publ_section_title
;
Structure prediction by ZEFSAII (Michael W. Deem and Ramdas Pophale) SiO2 
 PCOD8134643
Probable space group: C 2/C
;
_chemical_formula_sum "Si O2"
_cell_formula_units_Z 60
_cell_length_a 18.401790
_cell_length_b 20.770580
_cell_length_c 8.870448
_cell_angle_alpha 90.000000
_cell_angle_beta 123.553396
_cell_angle_gamma 90.000000
_cell_volume 2825.482873
_symmetry_space_group_name_H-M "C 2/C"
_symmetry_group_IT_number 15
_symmetry_cell_setting 'monoclinic'
loop_
_space_group_symop_operation_xyz
x,y,z
-x,y,1/2-z
-x,-y,-z
x,-y,1/2+z
1/2+x,1/2+y,z
1/2-x,1/2+y,1/2-z
1/2-x,1/2-y,-z
1/2+x,1/2-y,1/2+z
loop_
_atom_site_type_symbol
_atom_site_label
_atom_site_fract_x
_atom_site_fract_y
_atom_site_fract_z
Si Si1 0.485553 0.291917 0.410451
Si Si2 0.333665 0.211283 0.160803
Si Si3 0.500000 0.513488 0.750000
Si Si4 0.768076 0.585214 0.712448
Si Si5 0.077462 0.082406 0.572789
Si Si6 0.405180 0.091221 0.361052
Si Si7 0.657014 0.994318 0.451239
Si Si8 0.080949 0.328931 0.042355
O O1 0.500000 0.305640 0.250000
O O2 0.388162 0.263296 0.316821
O O3 0.490112 0.357745 0.511158
O O4 0.554728 0.243067 0.566838
O O5 0.325771 0.145420 0.253120
O O6 0.250000 0.250000 0.000000
O O7 0.395397 0.180114 0.104621
O O8 0.569857 0.554969 0.734582
O O9 0.444005 0.471433 0.572094
O O10 0.672300 0.610420 0.642088
O O11 0.770375 0.544028 0.562288
O O12 0.834833 0.645293 0.771393
O O13 0.793389 0.542018 0.882840
O O14 0.398108 0.057363 0.515946
O O15 0.501052 0.122177 0.467217
O O16 0.403076 0.036068 0.230130
#
# Coordination Sequence:
#
# PCOD8134643 Si02
#       8
#     8   8   4   8   8   8   8   8
#     4   9  19  35  59  86 117 154 205 245 296 361
#     4  10  19  36  59  87 117 160 207 257 293 346
#     4  10  24  40  68  90 122 154 200 246 314 378
#     4  11  22  37  60  90 128 157 203 248 308 354
#     4  11  21  43  64  92 118 158 195 257 307 370
#     4  10  21  39  59  89 128 162 210 243 304 369
#     4  10  23  37  58  92 126 170 195 250 300 367
#     4  10  21  37  59  91 121 161 210 249 290 372
#
# _framework density 21.235309000000001
#
# number of rings (size 3 to 8) (size 9 to 14) (size 15 to 20)
#    0.000    1.867    2.000    2.800    0.000    3.733 
#    0.000    5.333    0.000    4.800    0.000    0.000 
#    0.000    0.000    0.000    0.000    0.000    0.000 
#
# Total GULP energy -371648.583879 kJ/mol
# GULP energy per Si atom -12388.286129 kJ/mol
# Density = 2.118698 g / cm^3
# Si number density = 21.235309 Si / 1000 Ang^3
#
#
#
# Elastic Constant Matrix: (Units=GPa)
#
#
# Indices 1 2 3 4 5 6 
#
# 1 118.3337 65.8941 42.9698 0.0000 4.8637 0.0000
# 2 65.8941 140.2535 32.4905 0.0000 0.7752 0.0000
# 3 42.9698 32.4905 51.4610 0.0000 -3.8434 0.0000
# 4 0.0000 0.0000 0.0000 9.3968 0.0000 3.0734
# 5 4.8637 0.7752 -3.8434 0.0000 34.3455 0.0000
# 6 0.0000 0.0000 0.0000 3.0734 0.0000 31.7306
#
#
#
# Elastic Compliance Matrix: (Units=1/GPa)
#
#
# Indices 1 2 3 4 5 6 
#
# 1 0.014610 -0.004649 -0.009490 0.000000 -0.003026 0.000000
# 2 -0.004649 0.009852 -0.002325 0.000000 0.000176 0.000000
# 3 -0.009490 -0.002325 0.029172 0.000000 0.004661 0.000000
# 4 0.000000 0.000000 0.000000 0.109900 0.000000 -0.010645
# 5 -0.003026 0.000176 0.004661 0.000000 0.030062 0.000000
# 6 0.000000 0.000000 0.000000 -0.010645 0.000000 0.032546
#
#
# Mechanical properties :
#
#
# Convention : Reuss Voigt Hill
#
# Bulk Modulus (GPa) = 48.29520 65.86189 57.07854
# Shear Modulus (GPa) = 18.79892 26.34085 22.56989
#
# Velocity S-wave (km/s) = 2.97857 3.52579 3.26367
# Velocity P-wave (km/s) = 5.88400 6.90344 6.41401
#
# Compressibility (1/GPa) = 0.02070599
#
# Stress axis : x y z
#
# Youngs Moduli (GPa) = 68.44698 101.50507 34.27891
#
# Poissons Ratio (x) = 0.47188 0.32531
# Poissons Ratio (y) = 0.31820 0.07970
# Poissons Ratio (z) = 0.64957 0.23601
#
# Static dielectric constant tensor:
#      x y z
#    x 3.876180 0.000000 -0.123250 
#    y 0.000000 4.263080 0.000000 
#    z -0.123250 0.000000 3.556510 
# 
# 
# High freq. dielectric constant tensor:
#      x y z
#    x 1.824660 0.000000 -0.005290 
#    y 0.000000 1.852020 0.000000 
#    z -0.005290 0.000000 1.796090 
# 
# From -- ./inp_files/58118.got.cif
#   From: 2010.06.25/outbox.cif.g09.slc.cpg/sg15_30_cif.got.tgz:58118.got - 2010.06.28 07:06:18.
