data_PCOD8134435
_publ_section_title
;
Structure prediction by ZEFSAII (Michael W. Deem and Ramdas Pophale) SiO2 
 PCOD8134435
Probable space group: C 2/C
;
_chemical_formula_sum "Si O2"
_cell_formula_units_Z 52
_cell_length_a 8.512033
_cell_length_b 13.409938
_cell_length_c 23.505687
_cell_angle_alpha 90.000000
_cell_angle_beta 65.946396
_cell_angle_gamma 90.000000
_cell_volume 2450.090073
_symmetry_space_group_name_H-M "C 2/C"
_symmetry_group_IT_number 15
_symmetry_cell_setting 'monoclinic'
loop_
_space_group_symop_operation_xyz
x,y,z
-x,y,1/2-z
-x,-y,-z
x,-y,1/2+z
1/2+x,1/2+y,z
1/2-x,1/2+y,1/2-z
1/2-x,1/2-y,-z
1/2+x,1/2-y,1/2+z
loop_
_atom_site_type_symbol
_atom_site_label
_atom_site_fract_x
_atom_site_fract_y
_atom_site_fract_z
Si Si1 0.902986 0.898325 0.162635
Si Si2 0.908243 0.480854 0.933108
Si Si3 0.218434 0.410737 0.435019
Si Si4 0.975353 0.782328 0.561552
Si Si5 0.500000 0.255965 0.250000
Si Si6 0.221606 0.590446 0.159771
Si Si7 0.222591 0.821044 0.431450
O O1 0.918811 0.830528 0.215884
O O2 0.806514 0.829572 0.131121
O O3 0.086226 0.932948 0.110920
O O4 0.781315 0.996570 0.190404
O O5 0.920824 0.437843 0.867022
O O6 0.794906 0.580160 0.950325
O O7 0.102407 0.500896 0.925318
O O8 0.812567 0.407323 0.992043
O O9 0.164262 0.305926 0.415355
O O10 0.888546 0.881341 0.598334
O O11 0.040056 0.795708 0.487426
O O12 0.139203 0.765452 0.578346
O O13 0.652387 0.182994 0.206651
#
# Coordination Sequence:
#
# PCOD8134435 Si02
#       7
#     8   8   8   8   4   8   8
#     4  11  24  45  66  89 129 172 219 279 321 385
#     4   9  20  36  62  99 131 166 203 265 340 402
#     4  10  19  35  65 100 134 163 205 267 334 406
#     4  10  19  36  64  99 133 160 205 258 336 409
#     4  12  28  48  64  94 126 178 246 272 310 382
#     4  11  24  45  66  89 128 175 215 278 328 381
#     4   9  20  37  61  98 132 163 203 261 335 405
#
# _framework density 21.223710000000001
#
# number of rings (size 3 to 8) (size 9 to 14) (size 15 to 20)
#    0.000    1.846    1.538    1.846    2.154    6.154 
#    5.538    0.000    0.000    0.000    0.000    0.000 
#    0.000    0.000    0.000    0.000    0.000    0.000 
#
# Total GULP energy -322359.281571 kJ/mol
# GULP energy per Si atom -12398.433907 kJ/mol
# Density = 2.117540 g / cm^3
# Si number density = 21.223710 Si / 1000 Ang^3
#
#
#
# Elastic Constant Matrix: (Units=GPa)
#
#
# Indices 1 2 3 4 5 6 
#
# 1 74.3233 30.0589 34.9055 0.0000 16.9958 0.0000
# 2 30.0589 85.3036 38.9080 0.0000 17.8130 0.0000
# 3 34.9055 38.9080 72.7293 0.0000 18.5186 0.0000
# 4 0.0000 0.0000 0.0000 41.1268 0.0000 2.1537
# 5 16.9958 17.8130 18.5186 0.0000 30.3966 0.0000
# 6 0.0000 0.0000 0.0000 2.1537 0.0000 24.9998
#
#
#
# Elastic Compliance Matrix: (Units=1/GPa)
#
#
# Indices 1 2 3 4 5 6 
#
# 1 0.018609 -0.002666 -0.006218 0.000000 -0.005055 0.000000
# 2 -0.002666 0.016497 -0.006467 0.000000 -0.004237 0.000000
# 3 -0.006218 -0.006467 0.021711 0.000000 -0.005961 0.000000
# 4 0.000000 0.000000 0.000000 0.024425 0.000000 -0.002104
# 5 -0.005055 -0.004237 -0.005961 0.000000 0.041839 0.000000
# 6 0.000000 0.000000 0.000000 -0.002104 0.000000 0.040182
#
#
# Mechanical properties :
#
#
# Convention : Reuss Voigt Hill
#
# Bulk Modulus (GPa) = 38.29169 48.90010 43.59590
# Shear Modulus (GPa) = 24.67073 27.87021 26.27047
#
# Velocity S-wave (km/s) = 3.41312 3.62769 3.52204
# Velocity P-wave (km/s) = 5.79772 6.37473 6.09306
#
# Compressibility (1/GPa) = 0.02611532
#
# Stress axis : x y z
#
# Youngs Moduli (GPa) = 53.73757 60.61858 46.05902
#
# Poissons Ratio (x) = 0.16159 0.28640
# Poissons Ratio (y) = 0.14325 0.29786
# Poissons Ratio (z) = 0.33414 0.39202
#
# Static dielectric constant tensor:
#      x y z
#    x 4.005110 0.000000 0.099600 
#    y 0.000000 3.817110 0.000000 
#    z 0.099600 0.000000 3.550250 
# 
# 
# High freq. dielectric constant tensor:
#      x y z
#    x 1.841400 0.000000 0.003070 
#    y 0.000000 1.835410 0.000000 
#    z 0.003070 0.000000 1.805230 
# 
# From -- ./inp_files/287899.got.cif
#   From: 2010.06.25/outbox.cif.g09.slc.cpg/sg15_144_cif.got.tgz:287899.got - 2010.06.28 07:06:18.
