data_PCOD8134504
_publ_section_title
;
Structure prediction by ZEFSAII (Michael W. Deem and Ramdas Pophale) SiO2 
 PCOD8134504
Probable space group: C 2/C
;
_chemical_formula_sum "Si O2"
_cell_formula_units_Z 64
_cell_length_a 29.511270
_cell_length_b 20.752839
_cell_length_c 19.627355
_cell_angle_alpha 90.000000
_cell_angle_beta 16.725704
_cell_angle_gamma 90.000000
_cell_volume 3459.419092
_symmetry_space_group_name_H-M "C 2/C"
_symmetry_group_IT_number 15
_symmetry_cell_setting 'monoclinic'
loop_
_space_group_symop_operation_xyz
x,y,z
-x,y,1/2-z
-x,-y,-z
x,-y,1/2+z
1/2+x,1/2+y,z
1/2-x,1/2+y,1/2-z
1/2-x,1/2-y,-z
1/2+x,1/2-y,1/2+z
loop_
_atom_site_type_symbol
_atom_site_label
_atom_site_fract_x
_atom_site_fract_y
_atom_site_fract_z
Si Si1 0.033439 0.176311 0.536007
Si Si2 0.703969 0.545689 0.758286
Si Si3 0.134498 0.701301 0.202084
Si Si4 0.369830 0.586166 0.214127
Si Si5 0.100205 0.463483 0.174058
Si Si6 0.335556 0.373743 0.521715
Si Si7 0.709408 0.899948 0.500522
Si Si8 0.611392 0.979068 0.900565
O O1 0.130519 0.150578 0.331158
O O2 0.136969 0.173903 0.454845
O O3 0.001381 0.252912 0.571169
O O4 0.883717 0.128871 0.763449
O O5 0.669534 0.475186 0.776674
O O6 0.807848 0.589154 0.556025
O O7 0.806385 0.540147 0.679764
O O8 0.536565 0.579375 0.012847
O O9 0.217564 0.662425 0.141961
O O10 0.250000 0.750000 0.000000
O O11 0.083877 0.650049 0.215492
O O12 0.232847 0.591038 0.468577
O O13 0.000000 0.475078 0.250000
O O14 0.991959 0.441306 0.393249
O O15 0.187573 0.530721 0.068478
O O16 0.253469 0.437788 0.666872
O O17 0.500000 0.392933 0.250000
O O18 0.500000 0.000000 0.000000
#
# Coordination Sequence:
#
# PCOD8134504 Si02
#       8
#     8   8   8   8   8   8   8   8
#     4  10  19  36  56  83 109 154 204 240 288 355
#     4   9  17  33  53  79 109 152 196 234 285 358
#     4  10  20  35  51  82 111 143 199 243 293 349
#     4   9  17  33  63  79 105 145 209 243 273 354
#     4  11  19  35  54  86 117 148 192 244 296 344
#     4  12  22  38  56  77 120 161 189 241 312 371
#     4   9  17  31  53  81 112 145 185 244 279 348
#     4  12  25  35  51  86 124 155 190 241 317 366
#
# _framework density 18.500215000000001
#
# number of rings (size 3 to 8) (size 9 to 14) (size 15 to 20)
#    0.000    1.750    6.250    1.500    0.000    0.000 
#    4.500    1.250    0.000    0.750    0.000    0.000 
#    0.000    1.000    0.000    0.000    0.000    0.000 
#
# Total GULP energy -396438.333530 kJ/mol
# GULP energy per Si atom -12388.697923 kJ/mol
# Density = 1.845811 g / cm^3
# Si number density = 18.500215 Si / 1000 Ang^3
#
#
#
# Elastic Constant Matrix: (Units=GPa)
#
#
# Indices 1 2 3 4 5 6 
#
# 1 129.3081 45.6628 47.1824 0.0396 -0.7133 -0.0297
# 2 45.6628 90.7448 44.9552 0.0761 12.2074 -0.0507
# 3 47.1824 44.9552 110.8558 0.0810 18.2313 -0.0698
# 4 0.0396 0.0761 0.0810 28.2168 -0.0440 7.6124
# 5 -0.7133 12.2074 18.2313 -0.0440 24.1526 0.0391
# 6 -0.0297 -0.0507 -0.0698 7.6124 0.0391 29.1301
#
#
#
# Elastic Compliance Matrix: (Units=1/GPa)
#
#
# Indices 1 2 3 4 5 6 
#
# 1 0.010583 -0.004217 -0.003649 0.000020 0.005198 -0.000017
# 2 -0.004217 0.015682 -0.003700 -0.000043 -0.005258 0.000032
# 3 -0.003649 -0.003700 0.013455 -0.000049 -0.008394 0.000046
# 4 0.000020 -0.000043 -0.000049 0.038129 0.000145 -0.009964
# 5 0.005198 -0.005258 -0.008394 0.000145 0.050551 -0.000130
# 6 -0.000017 0.000032 0.000046 -0.009964 -0.000130 0.036933
#
#
# Mechanical properties :
#
#
# Convention : Reuss Voigt Hill
#
# Bulk Modulus (GPa) = 60.28510 67.38996 63.83753
# Shear Modulus (GPa) = 25.77404 29.17378 27.47391
#
# Velocity S-wave (km/s) = 3.73658 3.97538 3.85783
# Velocity P-wave (km/s) = 7.16051 7.58796 7.37733
#
# Compressibility (1/GPa) = 0.01658785
#
# Stress axis : x y z
#
# Youngs Moduli (GPa) = 94.49364 63.76658 74.32233
#
# Poissons Ratio (x) = 0.26889 0.27121
# Poissons Ratio (y) = 0.39846 0.27500
# Poissons Ratio (z) = 0.34482 0.23594
#
# Static dielectric constant tensor:
#      x y z
#    x 3.523330 0.000060 0.092010 
#    y 0.000060 3.433040 0.000060 
#    z 0.092010 0.000060 3.777690 
# 
# 
# High freq. dielectric constant tensor:
#      x y z
#    x 1.712040 0.000000 -0.004730 
#    y 0.000000 1.679920 0.000000 
#    z -0.004730 0.000000 1.713900 
# 
# From -- ./inp_files/223149.got.cif
#   From: 2010.06.25/outbox.cif.g09.slc.cpg/sg15_112_cif.got.tgz:223149.got - 2010.06.28 07:06:18.
