data_PCOD8134481
_publ_section_title
;
Structure prediction by ZEFSAII (Michael W. Deem and Ramdas Pophale) SiO2 
 PCOD8134481
Probable space group: C 2/C
;
_chemical_formula_sum "Si O2"
_cell_formula_units_Z 56
_cell_length_a 14.495201
_cell_length_b 17.596905
_cell_length_c 15.215733
_cell_angle_alpha 90.000000
_cell_angle_beta 49.918271
_cell_angle_gamma 90.000000
_cell_volume 2969.523764
_symmetry_space_group_name_H-M "C 2/C"
_symmetry_group_IT_number 15
_symmetry_cell_setting 'monoclinic'
loop_
_space_group_symop_operation_xyz
x,y,z
-x,y,1/2-z
-x,-y,-z
x,-y,1/2+z
1/2+x,1/2+y,z
1/2-x,1/2+y,1/2-z
1/2-x,1/2-y,-z
1/2+x,1/2-y,1/2+z
loop_
_atom_site_type_symbol
_atom_site_label
_atom_site_fract_x
_atom_site_fract_y
_atom_site_fract_z
Si Si1 0.949940 0.834284 0.547201
Si Si2 0.936662 0.088509 0.875932
Si Si3 0.114259 0.331995 0.360899
Si Si4 0.861322 0.016133 0.182082
Si Si5 0.299774 0.041175 0.568186
Si Si6 0.709108 0.617293 0.892746
Si Si7 0.079284 0.421699 0.119328
O O1 0.942214 0.847665 0.447413
O O2 0.892743 0.753801 0.603045
O O3 0.872479 0.896744 0.647254
O O4 0.089138 0.836987 0.492729
O O5 0.799486 0.065831 0.942061
O O6 0.000000 0.123234 0.750000
O O7 0.010434 0.013648 0.860398
O O8 0.136273 0.384704 0.431865
O O9 0.226385 0.338130 0.225977
O O10 0.991040 0.355205 0.387973
O O11 0.759094 0.009751 0.318899
O O12 0.824869 0.967505 0.118725
O O13 0.402007 0.992376 0.457092
O O14 0.793226 0.612102 0.926804
O O15 0.000000 0.451316 0.250000
#
# Coordination Sequence:
#
# PCOD8134481 Si02
#       7
#     8   8   8   8   8   8   8
#     4  11  20  35  57  82 108 138 176 215 272 325
#     4   9  18  34  57  82 105 135 178 228 265 301
#     4  10  23  35  50  80 114 140 170 220 270 314
#     4   9  18  33  59  84 101 133 181 222 261 310
#     4  10  19  36  55  78 110 140 177 220 256 309
#     4   9  19  38  56  74 105 140 177 224 262 303
#     4  10  20  37  56  73 102 148 186 214 258 314
#
# _framework density 18.858242000000001
#
# number of rings (size 3 to 8) (size 9 to 14) (size 15 to 20)
#    0.000    2.286    0.000    4.714    0.000    2.286 
#    0.000   11.429    0.000    0.000    0.000    0.000 
#    0.000    0.000    0.000    0.000    0.000    0.000 
#
# Total GULP energy -347298.186271 kJ/mol
# GULP energy per Si atom -12403.506653 kJ/mol
# Density = 1.881532 g / cm^3
# Si number density = 18.858242 Si / 1000 Ang^3
#
#
#
# Elastic Constant Matrix: (Units=GPa)
#
#
# Indices 1 2 3 4 5 6 
#
# 1 94.9330 39.7015 27.7089 0.0000 5.9878 0.0000
# 2 39.7015 147.2622 69.1407 0.0000 6.6716 0.0000
# 3 27.7089 69.1407 77.9457 0.0000 1.5819 0.0000
# 4 0.0000 0.0000 0.0000 26.8730 0.0000 0.2716
# 5 5.9878 6.6716 1.5819 0.0000 25.5548 0.0000
# 6 0.0000 0.0000 0.0000 0.2716 0.0000 14.9325
#
#
#
# Elastic Compliance Matrix: (Units=1/GPa)
#
#
# Indices 1 2 3 4 5 6 
#
# 1 0.012252 -0.002022 -0.002517 0.000000 -0.002187 0.000000
# 2 -0.002022 0.012120 -0.009990 0.000000 -0.002072 0.000000
# 3 -0.002517 -0.009990 0.022549 0.000000 0.001802 0.000000
# 4 0.000000 0.000000 0.000000 0.037219 0.000000 -0.000677
# 5 -0.002187 -0.002072 0.001802 0.000000 0.040073 0.000000
# 6 0.000000 0.000000 0.000000 -0.000677 0.000000 0.066980
#
#
# Mechanical properties :
#
#
# Convention : Reuss Voigt Hill
#
# Bulk Modulus (GPa) = 55.98372 65.91590 60.94981
# Shear Modulus (GPa) = 22.10362 25.71139 23.90751
#
# Velocity S-wave (km/s) = 3.42730 3.69644 3.56441
# Velocity P-wave (km/s) = 6.73891 7.29708 7.02354
#
# Compressibility (1/GPa) = 0.01786234
#
# Stress axis : x y z
#
# Youngs Moduli (GPa) = 81.61851 82.50820 44.34732
#
# Poissons Ratio (x) = 0.16684 0.11164
# Poissons Ratio (y) = 0.16504 0.44303
# Poissons Ratio (z) = 0.20547 0.82426
#
# Static dielectric constant tensor:
#      x y z
#    x 3.666630 0.000000 0.038580 
#    y 0.000000 3.046910 0.000000 
#    z 0.038580 0.000000 3.511340 
# 
# 
# High freq. dielectric constant tensor:
#      x y z
#    x 1.747380 0.000000 0.001460 
#    y 0.000000 1.698960 0.000000 
#    z 0.001460 0.000000 1.735990 
# 
# From -- ./inp_files/155140.got.cif
#   From: 2010.06.25/outbox.cif.g09.slc.cpg/sg15_78_cif.got.tgz:155140.got - 2010.06.28 07:06:18.
