data_PCOD8134907
_publ_section_title
;
Structure prediction by ZEFSAII (Michael W. Deem and Ramdas Pophale) SiO2 
 PCOD8134907
Probable space group: C 2/C
;
_chemical_formula_sum "Si O2"
_cell_formula_units_Z 48
_cell_length_a 25.135511
_cell_length_b 14.962201
_cell_length_c 12.615794
_cell_angle_alpha 90.000000
_cell_angle_beta 32.319284
_cell_angle_gamma 90.000000
_cell_volume 2536.627216
_symmetry_space_group_name_H-M "C 2/C"
_symmetry_group_IT_number 15
_symmetry_cell_setting 'monoclinic'
loop_
_space_group_symop_operation_xyz
x,y,z
-x,y,1/2-z
-x,-y,-z
x,-y,1/2+z
1/2+x,1/2+y,z
1/2-x,1/2+y,1/2-z
1/2-x,1/2-y,-z
1/2+x,1/2-y,1/2+z
loop_
_atom_site_type_symbol
_atom_site_label
_atom_site_fract_x
_atom_site_fract_y
_atom_site_fract_z
Si Si1 0.285045 0.386145 0.967491
Si Si2 0.278973 0.571829 0.067638
Si Si3 0.606874 0.563885 0.413796
Si Si4 0.389477 0.195299 0.070030
Si Si5 0.385707 0.784636 0.337659
Si Si6 0.090445 0.879077 0.347332
O O1 0.265970 0.464490 0.084422
O O2 0.185807 0.326696 0.130584
O O3 0.303527 0.425109 0.819860
O O4 0.379830 0.323807 0.839370
O O5 0.356002 0.591984 0.032664
O O6 0.172164 0.619472 0.263793
O O7 0.322770 0.605628 0.883684
O O8 0.576648 0.459138 0.456409
O O9 0.513627 0.627934 0.541834
O O10 0.375987 0.290927 0.147639
O O11 0.506815 0.175006 0.869840
O O12 0.349766 0.193654 0.016917
#
# Coordination Sequence:
#
# PCOD8134907 Si02
#       6
#     8   8   8   8   8   8
#     4  10  20  38  58  82 109 154 198 237 280 338
#     4  11  22  35  58  85 120 149 186 243 297 341
#     4  10  19  37  55  83 114 149 195 237 284 347
#     4  11  21  36  57  88 115 149 190 237 295 347
#     4  10  21  37  61  80 112 153 200 238 276 348
#     4  10  21  35  57  83 118 149 191 239 291 345
#
# _framework density 18.922765999999999
#
# number of rings (size 3 to 8) (size 9 to 14) (size 15 to 20)
#    0.000    1.667    3.333    2.000    0.000    0.667 
#    0.000    0.000    0.000    0.000    0.000    0.000 
#    0.000    0.000    0.000    0.000    0.000    0.000 
#
# Total GULP energy -297511.558201 kJ/mol
# GULP energy per Si atom -12396.314925 kJ/mol
# Density = 1.887970 g / cm^3
# Si number density = 18.922766 Si / 1000 Ang^3
#
#
#
# Elastic Constant Matrix: (Units=GPa)
#
#
# Indices 1 2 3 4 5 6 
#
# 1 62.4679 14.0479 28.0138 0.0000 -14.7344 0.0000
# 2 14.0479 78.1011 39.0764 0.0000 -17.9293 0.0000
# 3 28.0138 39.0764 91.1491 0.0000 -2.3750 0.0000
# 4 0.0000 0.0000 0.0000 34.6359 0.0000 -1.0223
# 5 -14.7344 -17.9293 -2.3750 0.0000 23.6091 0.0000
# 6 0.0000 0.0000 0.0000 -1.0223 0.0000 26.9784
#
#
#
# Elastic Compliance Matrix: (Units=1/GPa)
#
#
# Indices 1 2 3 4 5 6 
#
# 1 0.022613 0.003686 -0.008111 0.000000 0.016096 0.000000
# 2 0.003686 0.020925 -0.009655 0.000000 0.017220 0.000000
# 3 -0.008111 -0.009655 0.017325 0.000000 -0.010651 0.000000
# 4 0.000000 0.000000 0.000000 0.028904 0.000000 0.001095
# 5 0.016096 0.017220 -0.010651 0.000000 0.064408 0.000000
# 6 0.000000 0.000000 0.000000 0.001095 0.000000 0.037108
#
#
# Mechanical properties :
#
#
# Convention : Reuss Voigt Hill
#
# Bulk Modulus (GPa) = 30.57743 43.77716 37.17730
# Shear Modulus (GPa) = 21.70673 27.08334 24.39503
#
# Velocity S-wave (km/s) = 3.39059 3.78730 3.59442
# Velocity P-wave (km/s) = 5.61447 6.50459 6.07586
#
# Compressibility (1/GPa) = 0.03270386
#
# Stress axis : x y z
#
# Youngs Moduli (GPa) = 44.22198 47.79084 57.71921
#
# Poissons Ratio (x) = -0.17614 0.46814
# Poissons Ratio (y) = -0.16299 0.55726
# Poissons Ratio (z) = 0.35867 0.46140
#
# Static dielectric constant tensor:
#      x y z
#    x 3.363490 0.000000 0.030950 
#    y 0.000000 3.437860 0.000000 
#    z 0.030950 0.000000 3.389400 
# 
# 
# High freq. dielectric constant tensor:
#      x y z
#    x 1.732760 0.000000 0.001400 
#    y 0.000000 1.725050 0.000000 
#    z 0.001400 0.000000 1.733210 
# 
# From -- ./inp_files/96218.got.cif
#   From: 2010.06.25/outbox.cif.g09.slc.cpg/sg15_49_cif.got.tgz:96218.got - 2010.06.28 07:06:18.
