data_PCOD8134238
_publ_section_title
;
Structure prediction by ZEFSAII (Michael W. Deem and Ramdas Pophale) SiO2 
 PCOD8134238
Probable space group: C 2/C
;
_chemical_formula_sum "Si O2"
_cell_formula_units_Z 52
_cell_length_a 15.418266
_cell_length_b 28.430517
_cell_length_c 8.216702
_cell_angle_alpha 90.000000
_cell_angle_beta 135.100648
_cell_angle_gamma 90.000000
_cell_volume 2542.369030
_symmetry_space_group_name_H-M "C 2/C"
_symmetry_group_IT_number 15
_symmetry_cell_setting 'monoclinic'
loop_
_space_group_symop_operation_xyz
x,y,z
-x,y,1/2-z
-x,-y,-z
x,-y,1/2+z
1/2+x,1/2+y,z
1/2-x,1/2+y,1/2-z
1/2-x,1/2-y,-z
1/2+x,1/2-y,1/2+z
loop_
_atom_site_type_symbol
_atom_site_label
_atom_site_fract_x
_atom_site_fract_y
_atom_site_fract_z
Si Si1 0.500000 0.676601 0.250000
Si Si2 0.046538 0.330875 0.986652
Si Si3 0.420012 0.276370 0.980968
Si Si4 0.633541 0.432898 0.479443
Si Si5 0.369216 0.527781 0.162035
Si Si6 0.739819 0.618792 0.577878
Si Si7 0.211444 0.348096 0.711754
O O1 0.476424 0.706156 0.383741
O O2 0.611505 0.643232 0.449377
O O3 0.103165 0.278799 0.073876
O O4 0.000000 0.343461 0.750000
O O5 0.930378 0.337177 0.948592
O O6 0.154925 0.368123 0.155773
O O7 0.500000 0.286043 0.250000
O O8 0.289256 0.300596 0.841981
O O9 0.679507 0.473978 0.417383
O O10 0.619024 0.456325 0.636935
O O11 0.730526 0.390242 0.602410
O O12 0.500000 0.412652 0.250000
O O13 0.500000 0.529825 0.250000
O O14 0.276340 0.562552 0.944496
O O15 0.786850 0.637215 0.470184
#
# Coordination Sequence:
#
# PCOD8134238 Si02
#       7
#     4   8   8   8   8   8   8
#     4  10  22  38  68  88 118 170 202 254 326 344
#     4  11  26  39  61  89 121 165 202 254 308 368
#     4  10  24  40  61  92 123 162 214 260 303 370
#     4  10  20  35  60  90 122 158 198 253 305 359
#     4  10  19  35  58  91 120 155 202 250 304 357
#     4  10  22  40  61  89 123 157 208 252 299 376
#     4  10  23  41  59  88 123 162 204 250 315 359
#
# _framework density 20.453365000000002
#
# number of rings (size 3 to 8) (size 9 to 14) (size 15 to 20)
#    0.000    1.846    0.769    2.769    6.462    4.923 
#    0.000    0.769    0.000    0.000    0.000    0.000 
#    0.000    0.000    0.000    0.000    0.000    0.000 
#
# Total GULP energy -322289.877307 kJ/mol
# GULP energy per Si atom -12395.764512 kJ/mol
# Density = 2.040681 g / cm^3
# Si number density = 20.453365 Si / 1000 Ang^3
#
#
#
# Elastic Constant Matrix: (Units=GPa)
#
#
# Indices 1 2 3 4 5 6 
#
# 1 56.0436 10.2622 24.4790 0.0000 8.9095 0.0000
# 2 10.2622 101.2662 56.3551 0.0000 11.6665 0.0000
# 3 24.4790 56.3551 99.1032 0.0000 14.0972 0.0000
# 4 0.0000 0.0000 0.0000 153.9345 0.0000 52.6560
# 5 8.9095 11.6665 14.0972 0.0000 34.1746 0.0000
# 6 0.0000 0.0000 0.0000 52.6560 0.0000 48.9690
#
#
#
# Elastic Compliance Matrix: (Units=1/GPa)
#
#
# Indices 1 2 3 4 5 6 
#
# 1 0.020485 0.001272 -0.005271 0.000000 -0.003601 0.000000
# 2 0.001272 0.014613 -0.008357 0.000000 -0.001873 0.000000
# 3 -0.005271 -0.008357 0.016513 0.000000 -0.002584 0.000000
# 4 0.000000 0.000000 0.000000 0.010276 0.000000 -0.011050
# 5 -0.003601 -0.001873 -0.002584 0.000000 0.031906 0.000000
# 6 0.000000 0.000000 0.000000 -0.011050 0.000000 0.032303
#
#
# Mechanical properties :
#
#
# Convention : Reuss Voigt Hill
#
# Bulk Modulus (GPa) = 37.17790 48.73394 42.95592
# Shear Modulus (GPa) = 31.29433 58.43672 44.86553
#
# Velocity S-wave (km/s) = 3.91581 5.35096 4.68862
# Velocity P-wave (km/s) = 6.21781 7.87754 7.09636
#
# Compressibility (1/GPa) = 0.02689770
#
# Stress axis : x y z
#
# Youngs Moduli (GPa) = 48.81600 68.43360 60.55993
#
# Poissons Ratio (x) = -0.08707 0.31923
# Poissons Ratio (y) = -0.06211 0.50612
# Poissons Ratio (z) = 0.25732 0.57193
#
# Static dielectric constant tensor:
#      x y z
#    x 3.111660 0.000000 -0.688460 
#    y 0.000000 4.092510 0.000000 
#    z -0.688460 0.000000 3.284850 
# 
# 
# High freq. dielectric constant tensor:
#      x y z
#    x 1.794390 0.000000 -0.016850 
#    y 0.000000 1.806960 0.000000 
#    z -0.016850 0.000000 1.801240 
# 
# From -- ./inp_files/44906.got.cif
#   From: 2010.06.25/outbox.cif.g09.slc.cpg/sg15_23_cif.got.tgz:44906.got - 2010.06.28 07:06:18.
