data_PCOD8134108
_publ_section_title
;
Structure prediction by ZEFSAII (Michael W. Deem and Ramdas Pophale) SiO2 
 PCOD8134108
Probable space group: C 2/C
;
_chemical_formula_sum "Si O2"
_cell_formula_units_Z 60
_cell_length_a 11.814287
_cell_length_b 8.778573
_cell_length_c 30.859604
_cell_angle_alpha 90.000000
_cell_angle_beta 79.572891
_cell_angle_gamma 90.000000
_cell_volume 3147.675476
_symmetry_space_group_name_H-M "C 2/C"
_symmetry_group_IT_number 15
_symmetry_cell_setting 'monoclinic'
loop_
_space_group_symop_operation_xyz
x,y,z
-x,y,1/2-z
-x,-y,-z
x,-y,1/2+z
1/2+x,1/2+y,z
1/2-x,1/2+y,1/2-z
1/2-x,1/2-y,-z
1/2+x,1/2-y,1/2+z
loop_
_atom_site_type_symbol
_atom_site_label
_atom_site_fract_x
_atom_site_fract_y
_atom_site_fract_z
Si Si1 0.962505 0.620298 0.632316
Si Si2 0.383160 0.815378 0.675706
Si Si3 0.033618 0.835012 0.413876
Si Si4 0.186038 0.107014 0.386005
Si Si5 0.000000 0.427659 0.750000
Si Si6 0.777537 0.815845 0.451315
Si Si7 0.667495 0.107546 0.680817
Si Si8 0.430158 0.025102 0.048118
O O1 0.881853 0.491341 0.660246
O O2 0.890889 0.773616 0.634513
O O3 0.998911 0.559955 0.582102
O O4 0.075828 0.663662 0.651501
O O5 0.458996 0.715050 0.637093
O O6 0.447869 0.814138 0.717395
O O7 0.253415 0.746407 0.687844
O O8 0.084350 0.703096 0.441059
O O9 0.906337 0.876398 0.438240
O O10 0.108072 0.984895 0.416586
O O11 0.264289 0.182771 0.417153
O O12 0.263931 0.032447 0.344109
O O13 0.898736 0.540497 0.773134
O O14 0.750000 0.750000 0.500000
O O15 0.697171 0.958411 0.446625
O O16 0.500000 0.000000 0.000000
#
# Coordination Sequence:
#
# PCOD8134108 Si02
#       8
#     8   8   8   8   4   8   8   8
#     4   9  20  37  58  79 112 152 191 232 283 340
#     4   9  20  39  62  82 117 150 185 231 287 349
#     4  10  21  39  57  82 115 152 196 235 287 348
#     4  10  22  37  58  83 111 153 196 234 283 345
#     4  10  20  36  60  92 114 142 182 236 286 340
#     4  11  21  35  57  79 114 152 191 245 291 327
#     4  10  21  39  61  84 117 150 187 231 288 348
#     4  10  19  35  56  81 112 151 194 242 288 334
#
# _framework density 19.061686999999999
#
# number of rings (size 3 to 8) (size 9 to 14) (size 15 to 20)
#    0.000    2.133    1.333    2.400    0.000    6.933 
#    0.000    4.667    0.000    1.600    0.000    0.000 
#    0.000    0.000    0.000    0.000    0.000    0.000 
#
# Total GULP energy -371988.502941 kJ/mol
# GULP energy per Si atom -12399.616765 kJ/mol
# Density = 1.901830 g / cm^3
# Si number density = 19.061687 Si / 1000 Ang^3
#
#
#
# Elastic Constant Matrix: (Units=GPa)
#
#
# Indices 1 2 3 4 5 6 
#
# 1 101.3177 41.9034 36.5555 0.0000 -12.7024 0.0000
# 2 41.9034 95.4420 23.2489 0.0000 -4.0747 0.0000
# 3 36.5555 23.2489 98.6245 0.0000 -6.4248 0.0000
# 4 0.0000 0.0000 0.0000 17.6834 0.0000 -0.8577
# 5 -12.7024 -4.0747 -6.4248 0.0000 39.2772 0.0000
# 6 0.0000 0.0000 0.0000 -0.8577 0.0000 33.7025
#
#
#
# Elastic Compliance Matrix: (Units=1/GPa)
#
#
# Indices 1 2 3 4 5 6 
#
# 1 0.013664 -0.004962 -0.003680 0.000000 0.003302 0.000000
# 2 -0.004962 0.012938 -0.001241 0.000000 -0.000465 0.000000
# 3 -0.003680 -0.001241 0.011836 0.000000 0.000617 0.000000
# 4 0.000000 0.000000 0.000000 0.056620 0.000000 0.001441
# 5 0.003302 -0.000465 0.000617 0.000000 0.026581 0.000000
# 6 0.000000 0.000000 0.000000 0.001441 0.000000 0.029708
#
#
# Mechanical properties :
#
#
# Convention : Reuss Voigt Hill
#
# Bulk Modulus (GPa) = 53.55326 55.42221 54.48774
# Shear Modulus (GPa) = 28.19495 31.04440 29.61968
#
# Velocity S-wave (km/s) = 3.85013 4.04000 3.94621
# Velocity P-wave (km/s) = 6.92246 7.13446 7.02926
#
# Compressibility (1/GPa) = 0.01867300
#
# Stress axis : x y z
#
# Youngs Moduli (GPa) = 73.18684 77.28902 84.48659
#
# Poissons Ratio (x) = 0.38348 0.31089
# Poissons Ratio (y) = 0.36313 0.10487
# Poissons Ratio (z) = 0.26931 0.09594
#
# Static dielectric constant tensor:
#      x y z
#    x 3.709820 0.000000 0.001510 
#    y 0.000000 3.626260 0.000000 
#    z 0.001510 0.000000 3.609430 
# 
# 
# High freq. dielectric constant tensor:
#      x y z
#    x 1.741200 0.000000 -0.001630 
#    y 0.000000 1.737450 0.000000 
#    z -0.001630 0.000000 1.746780 
# 
# From -- ./inp_files/309979.got.cif
#   From: 2010.06.25/outbox.cif.g09.slc.cpg/sg15_155_cif.got.tgz:309979.got - 2010.06.28 07:06:18.
