data_PCOD8134992
_publ_section_title
;
Structure prediction by ZEFSAII (Michael W. Deem and Ramdas Pophale) SiO2 
 PCOD8134992
Probable space group: C 2/C
;
_chemical_formula_sum "Si O2"
_cell_formula_units_Z 52
_cell_length_a 19.202724
_cell_length_b 16.185105
_cell_length_c 8.865261
_cell_angle_alpha 90.000000
_cell_angle_beta 63.247970
_cell_angle_gamma 90.000000
_cell_volume 2460.386579
_symmetry_space_group_name_H-M "C 2/C"
_symmetry_group_IT_number 15
_symmetry_cell_setting 'monoclinic'
loop_
_space_group_symop_operation_xyz
x,y,z
-x,y,1/2-z
-x,-y,-z
x,-y,1/2+z
1/2+x,1/2+y,z
1/2-x,1/2+y,1/2-z
1/2-x,1/2-y,-z
1/2+x,1/2-y,1/2+z
loop_
_atom_site_type_symbol
_atom_site_label
_atom_site_fract_x
_atom_site_fract_y
_atom_site_fract_z
Si Si1 0.442531 0.461502 0.176664
Si Si2 0.697039 0.420804 0.675215
Si Si3 0.704825 0.008946 0.152622
Si Si4 0.500000 0.175461 0.250000
Si Si5 0.206942 0.234876 0.331823
Si Si6 0.135045 0.793132 0.216082
Si Si7 0.372394 0.902205 0.043280
O O1 0.500000 0.430548 0.250000
O O2 0.383717 0.533592 0.285181
O O3 0.392453 0.379828 0.180517
O O4 0.500000 0.500000 0.000000
O O5 0.756494 0.434896 0.480303
O O6 0.730161 0.452841 0.802668
O O7 0.685044 0.322816 0.710150
O O8 0.634127 0.973931 0.325248
O O9 0.672869 0.077497 0.068739
O O10 0.562705 0.231390 0.274197
O O11 0.461763 0.116504 0.414556
O O12 0.174407 0.190256 0.514924
O O13 0.300216 0.249098 0.243079
O O14 0.165887 0.321842 0.346465
#
# Coordination Sequence:
#
# PCOD8134992 Si02
#       7
#     8   8   8   4   8   8   8
#     4  12  24  37  59  92 132 167 199 251 316 385
#     4  11  21  37  62  89 122 163 211 252 296 369
#     4  10  21  39  59  87 119 156 208 255 302 361
#     4  10  20  34  62  86 118 156 202 254 302 378
#     4  10  20  36  64  88 115 161 213 256 294 361
#     4  10  19  37  59  87 122 163 209 245 305 374
#     4  10  22  38  61  90 116 155 201 258 312 363
#
# _framework density 21.134891
#
# number of rings (size 3 to 8) (size 9 to 14) (size 15 to 20)
#    0.000    1.538    0.769    7.385    2.154    1.231 
#    0.000    0.000    0.000    0.000    2.000    0.000 
#    0.000    0.000    0.000    0.000    0.000    0.000 
#
# Total GULP energy -322347.104029 kJ/mol
# GULP energy per Si atom -12397.965540 kJ/mol
# Density = 2.108679 g / cm^3
# Si number density = 21.134891 Si / 1000 Ang^3
#
#
#
# Elastic Constant Matrix: (Units=GPa)
#
#
# Indices 1 2 3 4 5 6 
#
# 1 71.8976 25.6940 28.7558 0.0000 -24.8849 0.0000
# 2 25.6940 102.2836 35.8499 0.0000 -14.7392 0.0000
# 3 28.7558 35.8499 90.0875 0.0000 -19.2504 0.0000
# 4 0.0000 0.0000 0.0000 40.9225 0.0000 -9.2372
# 5 -24.8849 -14.7392 -19.2504 0.0000 37.7552 0.0000
# 6 0.0000 0.0000 0.0000 -9.2372 0.0000 29.9429
#
#
#
# Elastic Compliance Matrix: (Units=1/GPa)
#
#
# Indices 1 2 3 4 5 6 
#
# 1 0.019588 -0.002333 -0.003097 0.000000 0.010421 0.000000
# 2 -0.002333 0.011835 -0.003710 0.000000 0.001190 0.000000
# 3 -0.003097 -0.003710 0.014387 0.000000 0.003846 0.000000
# 4 0.000000 0.000000 0.000000 0.026265 0.000000 0.008103
# 5 0.010421 0.001190 0.003846 0.000000 0.035780 0.000000
# 6 0.000000 0.000000 0.000000 0.008103 0.000000 0.035896
#
#
# Mechanical properties :
#
#
# Convention : Reuss Voigt Hill
#
# Bulk Modulus (GPa) = 36.32642 49.42979 42.87810
# Shear Modulus (GPa) = 29.20379 33.32206 31.26293
#
# Velocity S-wave (km/s) = 3.72126 3.97500 3.85022
# Velocity P-wave (km/s) = 5.97402 6.67128 6.33226
#
# Compressibility (1/GPa) = 0.02752817
#
# Stress axis : x y z
#
# Youngs Moduli (GPa) = 51.05157 84.49560 69.50579
#
# Poissons Ratio (x) = 0.19716 0.21527
# Poissons Ratio (y) = 0.11912 0.25790
# Poissons Ratio (z) = 0.15812 0.31352
#
# Static dielectric constant tensor:
#      x y z
#    x 3.681260 0.000000 -0.259250 
#    y 0.000000 3.894230 0.000000 
#    z -0.259250 0.000000 3.820130 
# 
# 
# High freq. dielectric constant tensor:
#      x y z
#    x 1.810220 0.000000 -0.020220 
#    y 0.000000 1.836240 0.000000 
#    z -0.020220 0.000000 1.821110 
# 
# From -- ./inp_files/48939.got.cif
#   From: 2010.06.25/outbox.cif.g09.slc.cpg/sg15_25_cif.got.tgz:48939.got - 2010.06.28 07:06:18.
