data_PCOD8134172
_publ_section_title
;
Structure prediction by ZEFSAII (Michael W. Deem and Ramdas Pophale) SiO2 
 PCOD8134172
Probable space group: C 2/C
;
_chemical_formula_sum "Si O2"
_cell_formula_units_Z 64
_cell_length_a 22.457189
_cell_length_b 9.517690
_cell_length_c 19.830347
_cell_angle_alpha 90.000000
_cell_angle_beta 127.945301
_cell_angle_gamma 90.000000
_cell_volume 3342.512334
_symmetry_space_group_name_H-M "C 2/C"
_symmetry_group_IT_number 15
_symmetry_cell_setting 'monoclinic'
loop_
_space_group_symop_operation_xyz
x,y,z
-x,y,1/2-z
-x,-y,-z
x,-y,1/2+z
1/2+x,1/2+y,z
1/2-x,1/2+y,1/2-z
1/2-x,1/2-y,-z
1/2+x,1/2-y,1/2+z
loop_
_atom_site_type_symbol
_atom_site_label
_atom_site_fract_x
_atom_site_fract_y
_atom_site_fract_z
Si Si1 0.085933 0.160757 0.830743
Si Si2 0.110210 0.811298 0.704717
Si Si3 0.092565 0.323271 0.608274
Si Si4 0.663104 0.385298 0.250649
Si Si5 0.552392 0.822656 0.429358
Si Si6 0.413390 0.344053 0.667590
Si Si7 0.933286 0.351959 0.557827
Si Si8 0.334472 0.888175 0.361440
O O1 0.137348 0.194307 0.801250
O O2 0.100773 0.269007 0.901913
O O3 0.000000 0.175951 0.750000
O O4 0.106921 0.002735 0.868111
O O5 0.132744 0.787147 0.799231
O O6 0.169454 0.736680 0.696404
O O7 0.029028 0.749517 0.628703
O O8 0.110805 0.980313 0.696563
O O9 0.155573 0.223767 0.684262
O O10 0.089549 0.291708 0.526969
O O11 0.116083 0.485228 0.635119
O O12 0.012630 0.288661 0.587733
O O13 0.749396 0.435769 0.317827
O O14 0.605227 0.753918 0.408864
O O15 0.550145 0.987260 0.411505
O O16 0.500000 0.335944 0.750000
O O17 0.871981 0.334400 0.456407
#
# Coordination Sequence:
#
# PCOD8134172 Si02
#       8
#     8   8   8   8   8   8   8   8
#     4  10  20  37  56  86 117 146 198 244 287 342
#     4  10  19  37  57  82 117 151 191 239 289 347
#     4  11  21  38  59  86 117 152 196 243 287 346
#     4  11  24  37  60  85 118 160 189 244 299 348
#     4  10  19  35  57  86 111 145 191 240 289 334
#     4   8  18  32  53  82 113 144 180 235 291 334
#     4  11  21  36  61  84 117 153 193 248 282 346
#     4  11  22  40  57  85 121 156 197 235 300 350
#
# _framework density 19.147273999999999
#
# number of rings (size 3 to 8) (size 9 to 14) (size 15 to 20)
#    0.000    1.750    3.750    2.250    0.000    4.500 
#    0.000    0.000    0.000   18.750    0.000    0.000 
#    0.000    0.000    0.000    0.000    0.000    0.000 
#
# Total GULP energy -396739.466288 kJ/mol
# GULP energy per Si atom -12398.108322 kJ/mol
# Density = 1.910369 g / cm^3
# Si number density = 19.147274 Si / 1000 Ang^3
#
#
#
# Elastic Constant Matrix: (Units=GPa)
#
#
# Indices 1 2 3 4 5 6 
#
# 1 87.0155 46.9793 53.6623 0.0000 -18.7648 0.0000
# 2 46.9793 93.8099 62.2724 0.0000 -26.6650 0.0000
# 3 53.6623 62.2724 89.1190 0.0000 -18.3775 0.0000
# 4 0.0000 0.0000 0.0000 27.9817 0.0000 -14.4823
# 5 -18.7648 -26.6650 -18.3775 0.0000 35.8393 0.0000
# 6 0.0000 0.0000 0.0000 -14.4823 0.0000 31.0684
#
#
#
# Elastic Compliance Matrix: (Units=1/GPa)
#
#
# Indices 1 2 3 4 5 6 
#
# 1 0.019232 -0.002673 -0.008998 0.000000 0.003467 0.000000
# 2 -0.002673 0.022927 -0.012504 0.000000 0.009247 0.000000
# 3 -0.008998 -0.012504 0.025145 0.000000 -0.001121 0.000000
# 4 0.000000 0.000000 0.000000 0.047101 0.000000 0.021956
# 5 0.003467 0.009247 -0.001121 0.000000 0.036023 0.000000
# 6 0.000000 0.000000 0.000000 0.021956 0.000000 0.042422
#
#
# Mechanical properties :
#
#
# Convention : Reuss Voigt Hill
#
# Bulk Modulus (GPa) = 52.75755 66.19694 59.47724
# Shear Modulus (GPa) = 20.20057 26.11324 23.15690
#
# Velocity S-wave (km/s) = 3.25162 3.69699 3.48143
# Velocity P-wave (km/s) = 6.45838 7.27126 6.87684
#
# Compressibility (1/GPa) = 0.01895463
#
# Stress axis : x y z
#
# Youngs Moduli (GPa) = 51.99736 43.61594 39.76903
#
# Poissons Ratio (x) = 0.11658 0.35783
# Poissons Ratio (y) = 0.13898 0.49729
# Poissons Ratio (z) = 0.46785 0.54539
#
# Static dielectric constant tensor:
#      x y z
#    x 3.661050 0.000000 -0.333260 
#    y 0.000000 3.524400 0.000000 
#    z -0.333260 0.000000 3.359140 
# 
# 
# High freq. dielectric constant tensor:
#      x y z
#    x 1.742980 0.000000 -0.020960 
#    y 0.000000 1.743260 0.000000 
#    z -0.020960 0.000000 1.728160 
# 
# From -- ./inp_files/255070.got.cif
#   From: 2010.06.25/outbox.cif.g09.slc.cpg/sg15_128_cif.got.tgz:255070.got - 2010.06.28 07:06:18.
