data_PCOD8134450
_publ_section_title
;
Structure prediction by ZEFSAII (Michael W. Deem and Ramdas Pophale) SiO2 
 PCOD8134450
Probable space group: C 2/C
;
_chemical_formula_sum "Si O2"
_cell_formula_units_Z 44
_cell_length_a 7.708520
_cell_length_b 27.435496
_cell_length_c 11.004771
_cell_angle_alpha 90.000000
_cell_angle_beta 125.665089
_cell_angle_gamma 90.000000
_cell_volume 1890.843380
_symmetry_space_group_name_H-M "C 2/C"
_symmetry_group_IT_number 15
_symmetry_cell_setting 'monoclinic'
loop_
_space_group_symop_operation_xyz
x,y,z
-x,y,1/2-z
-x,-y,-z
x,-y,1/2+z
1/2+x,1/2+y,z
1/2-x,1/2+y,1/2-z
1/2-x,1/2-y,-z
1/2+x,1/2-y,1/2+z
loop_
_atom_site_type_symbol
_atom_site_label
_atom_site_fract_x
_atom_site_fract_y
_atom_site_fract_z
Si Si1 0.979910 0.188337 0.971526
Si Si2 0.283093 0.896543 0.219936
Si Si3 0.876041 0.646593 0.010385
Si Si4 0.677523 0.221077 0.218121
Si Si5 0.878587 0.999825 0.822229
Si Si6 0.500000 0.933293 0.750000
O O1 0.181133 0.181971 0.964622
O O2 0.082356 0.207664 0.139844
O O3 0.856091 0.136443 0.930948
O O4 0.815945 0.229020 0.855311
O O5 0.500000 0.915467 0.250000
O O6 0.336455 0.864162 0.355915
O O7 0.163584 0.943707 0.219896
O O8 0.100066 0.675458 0.105015
O O9 0.880916 0.599799 0.101238
O O10 0.500000 0.225642 0.250000
O O11 0.000000 0.980408 0.750000
O O12 0.668421 0.966911 0.748049
O O13 0.000000 0.000000 0.000000
#
# Coordination Sequence:
#
# PCOD8134450 Si02
#       6
#     8   8   8   8   8   4
#     4  11  20  40  66 101 133 181 234 289 354 422
#     4  12  26  44  65  98 141 186 235 297 358 420
#     4  11  22  42  69 100 139 179 230 298 351 428
#     4  10  19  35  68 102 132 174 235 288 349 427
#     4  12  28  47  75 105 144 194 246 304 371 434
#     4  12  24  46  74 108 144 182 248 298 360 432
#
# _framework density 23.270040000000002
#
# number of rings (size 3 to 8) (size 9 to 14) (size 15 to 20)
#    0.000    0.727    3.636    8.182    2.545    1.455 
#    0.000    4.545    0.000    0.000    0.000    0.000 
#    0.000    0.000    0.000    0.000    0.000    0.000 
#
# Total GULP energy -272737.838723 kJ/mol
# GULP energy per Si atom -12397.174487 kJ/mol
# Density = 2.321708 g / cm^3
# Si number density = 23.270040 Si / 1000 Ang^3
#
#
#
# Elastic Constant Matrix: (Units=GPa)
#
#
# Indices 1 2 3 4 5 6 
#
# 1 83.2431 24.9849 30.1795 0.0000 1.9165 0.0000
# 2 24.9849 132.0758 37.4336 0.0000 7.3190 0.0000
# 3 30.1795 37.4336 123.5881 0.0000 3.3233 0.0000
# 4 0.0000 0.0000 0.0000 21.0508 0.0000 -5.9658
# 5 1.9165 7.3190 3.3233 0.0000 24.0001 0.0000
# 6 0.0000 0.0000 0.0000 -5.9658 0.0000 14.1386
#
#
#
# Elastic Compliance Matrix: (Units=1/GPa)
#
#
# Indices 1 2 3 4 5 6 
#
# 1 0.013552 -0.001770 -0.002769 0.000000 -0.000159 0.000000
# 2 -0.001770 0.008630 -0.002123 0.000000 -0.002196 0.000000
# 3 -0.002769 -0.002123 0.009422 0.000000 -0.000436 0.000000
# 4 0.000000 0.000000 0.000000 0.053956 0.000000 0.022767
# 5 -0.000159 -0.002196 -0.000436 0.000000 0.042409 0.000000
# 6 0.000000 0.000000 0.000000 0.022767 0.000000 0.080335
#
#
# Mechanical properties :
#
#
# Convention : Reuss Voigt Hill
#
# Bulk Modulus (GPa) = 54.70263 58.23367 56.46815
# Shear Modulus (GPa) = 21.95674 28.25850 25.10762
#
# Velocity S-wave (km/s) = 3.07508 3.48857 3.28833
# Velocity P-wave (km/s) = 6.01389 6.42700 6.22387
#
# Compressibility (1/GPa) = 0.01828066
#
# Stress axis : x y z
#
# Youngs Moduli (GPa) = 73.79101 115.88120 106.13284
#
# Poissons Ratio (x) = 0.20511 0.29387
# Poissons Ratio (y) = 0.13061 0.22527
# Poissons Ratio (z) = 0.20432 0.24596
#
# Static dielectric constant tensor:
#      x y z
#    x 3.963260 0.000000 0.134700 
#    y 0.000000 4.376830 0.000000 
#    z 0.134700 0.000000 4.541740 
# 
# 
# High freq. dielectric constant tensor:
#      x y z
#    x 1.892490 0.000000 0.010220 
#    y 0.000000 1.934660 0.000000 
#    z 0.010220 0.000000 1.932820 
# 
# From -- ./inp_files/81594.got.cif
#   From: 2010.06.25/outbox.cif.g09.slc.cpg/sg15_41_cif.got.tgz:81594.got - 2010.06.28 07:06:18.
