data_PCOD8134377
_publ_section_title
;
Structure prediction by ZEFSAII (Michael W. Deem and Ramdas Pophale) SiO2 
 PCOD8134377
Probable space group: C 2/C
;
_chemical_formula_sum "Si O2"
_cell_formula_units_Z 56
_cell_length_a 26.531465
_cell_length_b 9.673518
_cell_length_c 15.341939
_cell_angle_alpha 90.000000
_cell_angle_beta 136.879084
_cell_angle_gamma 90.000000
_cell_volume 2691.473056
_symmetry_space_group_name_H-M "C 2/C"
_symmetry_group_IT_number 15
_symmetry_cell_setting 'monoclinic'
loop_
_space_group_symop_operation_xyz
x,y,z
-x,y,1/2-z
-x,-y,-z
x,-y,1/2+z
1/2+x,1/2+y,z
1/2-x,1/2+y,1/2-z
1/2-x,1/2-y,-z
1/2+x,1/2-y,1/2+z
loop_
_atom_site_type_symbol
_atom_site_label
_atom_site_fract_x
_atom_site_fract_y
_atom_site_fract_z
Si Si1 0.113051 0.911073 0.509116
Si Si2 0.844697 0.389114 0.613869
Si Si3 0.886401 0.795031 0.421931
Si Si4 0.085774 0.332467 0.358267
Si Si5 0.577583 0.461502 0.798453
Si Si6 0.749314 0.274456 0.642536
Si Si7 0.461923 0.708995 0.848392
O O1 0.192543 0.851519 0.636561
O O2 0.049460 0.794285 0.440453
O O3 0.089216 0.048542 0.529018
O O4 0.129867 0.951012 0.428934
O O5 0.864622 0.547524 0.619428
O O6 0.794829 0.378903 0.637741
O O7 0.798006 0.334805 0.473015
O O8 0.921187 0.305275 0.725652
O O9 0.889806 0.699837 0.511638
O O10 0.805230 0.801054 0.278139
O O11 0.945266 0.738020 0.425096
O O12 0.101830 0.197873 0.316564
O O13 0.000000 0.374566 0.250000
O O14 0.500000 0.457171 0.750000
O O15 0.570856 0.550570 0.701476
#
# Coordination Sequence:
#
# PCOD8134377 Si02
#       7
#     8   8   8   8   8   8   8
#     4  10  19  35  62  88 116 163 210 243 296 364
#     4  10  22  39  63  87 122 164 200 254 302 369
#     4  10  23  40  59  92 129 156 200 261 307 357
#     4  10  22  39  63  87 126 158 200 257 323 349
#     4   8  16  33  57  88 113 151 202 253 287 353
#     4  10  22  39  58  88 124 159 209 243 302 371
#     4  10  19  38  68  91 115 158 218 251 292 359
#
# _framework density 20.806450000000002
#
# number of rings (size 3 to 8) (size 9 to 14) (size 15 to 20)
#    0.000    2.286    1.429    1.286    4.000    0.000 
#    0.000    8.571    0.000    0.000    0.000    0.000 
#    0.000    0.000    0.000    0.000    0.000    0.000 
#
# Total GULP energy -346937.478904 kJ/mol
# GULP energy per Si atom -12390.624247 kJ/mol
# Density = 2.075909 g / cm^3
# Si number density = 20.806450 Si / 1000 Ang^3
#
#
#
# Elastic Constant Matrix: (Units=GPa)
#
#
# Indices 1 2 3 4 5 6 
#
# 1 62.1085 34.9929 37.2225 0.0000 11.3762 0.0000
# 2 34.9929 96.1983 22.1641 0.0000 2.5739 0.0000
# 3 37.2225 22.1641 106.9417 0.0000 9.2887 0.0000
# 4 0.0000 0.0000 0.0000 23.5062 0.0000 5.7943
# 5 11.3762 2.5739 9.2887 0.0000 35.7676 0.0000
# 6 0.0000 0.0000 0.0000 5.7943 0.0000 27.7347
#
#
#
# Elastic Compliance Matrix: (Units=1/GPa)
#
#
# Indices 1 2 3 4 5 6 
#
# 1 0.025496 -0.007551 -0.006806 0.000000 -0.005798 0.000000
# 2 -0.007551 0.013154 -0.000230 0.000000 0.001515 0.000000
# 3 -0.006806 -0.000230 0.011845 0.000000 -0.000895 0.000000
# 4 0.000000 0.000000 0.000000 0.044852 0.000000 -0.009370
# 5 -0.005798 0.001515 -0.000895 0.000000 0.029926 0.000000
# 6 0.000000 0.000000 0.000000 -0.009370 0.000000 0.038014
#
#
# Mechanical properties :
#
#
# Convention : Reuss Voigt Hill
#
# Bulk Modulus (GPa) = 46.89845 50.44529 48.67187
# Shear Modulus (GPa) = 25.05424 28.79297 26.92361
#
# Velocity S-wave (km/s) = 3.47386 3.72405 3.60113
# Velocity P-wave (km/s) = 6.21929 6.54133 6.38234
#
# Compressibility (1/GPa) = 0.02132267
#
# Stress axis : x y z
#
# Youngs Moduli (GPa) = 39.22168 76.02026 84.42396
#
# Poissons Ratio (x) = 0.57405 0.57455
# Poissons Ratio (y) = 0.29617 0.01938
# Poissons Ratio (z) = 0.26693 0.01745
#
# Static dielectric constant tensor:
#      x y z
#    x 3.539510 0.000000 -0.017100 
#    y 0.000000 3.720600 0.000000 
#    z -0.017100 0.000000 4.129740 
# 
# 
# High freq. dielectric constant tensor:
#      x y z
#    x 1.792260 0.000000 0.005690 
#    y 0.000000 1.795800 0.000000 
#    z 0.005690 0.000000 1.824670 
# 
# From -- ./inp_files/224431.got.cif
#   From: 2010.06.25/outbox.cif.g09.slc.cpg/sg15_113_cif.got.tgz:224431.got - 2010.06.28 07:06:18.
