data_PCOD8134233
_publ_section_title
;
Structure prediction by ZEFSAII (Michael W. Deem and Ramdas Pophale) SiO2 
 PCOD8134233
Probable space group: C 2/C
;
_chemical_formula_sum "Si O2"
_cell_formula_units_Z 60
_cell_length_a 14.114570
_cell_length_b 10.902547
_cell_length_c 21.144126
_cell_angle_alpha 90.000000
_cell_angle_beta 58.098712
_cell_angle_gamma 90.000000
_cell_volume 2762.310459
_symmetry_space_group_name_H-M "C 2/C"
_symmetry_group_IT_number 15
_symmetry_cell_setting 'monoclinic'
loop_
_space_group_symop_operation_xyz
x,y,z
-x,y,1/2-z
-x,-y,-z
x,-y,1/2+z
1/2+x,1/2+y,z
1/2-x,1/2+y,1/2-z
1/2-x,1/2-y,-z
1/2+x,1/2-y,1/2+z
loop_
_atom_site_type_symbol
_atom_site_label
_atom_site_fract_x
_atom_site_fract_y
_atom_site_fract_z
Si Si1 0.187237 0.082262 0.828773
Si Si2 0.000000 0.627358 0.250000
Si Si3 0.829778 0.891447 0.567426
Si Si4 0.605291 0.033747 0.821086
Si Si5 0.508501 0.752967 0.074991
Si Si6 0.441738 0.503249 0.912750
Si Si7 0.925162 0.685979 0.084806
Si Si8 0.629619 0.256744 0.100584
O O1 0.272795 0.084979 0.739972
O O2 0.170410 0.221341 0.857738
O O3 0.069046 0.028137 0.847283
O O4 0.234236 0.997015 0.869746
O O5 0.937858 0.544982 0.221567
O O6 0.912400 0.714857 0.315942
O O7 0.889952 0.801083 0.594959
O O8 0.923846 0.958097 0.492242
O O9 0.748037 0.813191 0.550054
O O10 0.517160 0.142845 0.864505
O O11 0.612253 0.950022 0.881419
O O12 0.581351 0.643683 0.083185
O O13 0.571519 0.810501 0.992386
O O14 0.361029 0.593174 0.900027
O O15 0.045749 0.720662 0.072872
#
# Coordination Sequence:
#
# PCOD8134233 Si02
#       8
#     8   4   8   8   8   8   8   8
#     4  10  19  35  58  89 119 156 208 259 310 365
#     4  10  22  42  54  86 114 164 206 268 312 378
#     4  11  18  35  61  93 120 157 202 257 320 377
#     4  11  24  37  65  82 121 171 211 254 322 388
#     4  11  21  37  59  91 126 163 204 258 324 373
#     4  10  20  35  58  93 122 155 199 265 318 366
#     4  10  21  39  58  91 125 158 210 266 304 382
#     4  10  20  34  64  87 123 155 208 256 318 378
#
# _framework density 21.720946999999999
#
# number of rings (size 3 to 8) (size 9 to 14) (size 15 to 20)
#    0.000    1.600    5.333    1.600    3.733    1.067 
#    0.000    0.667    2.933    4.000    0.000    0.000 
#    0.000    0.000    0.000    0.000    0.000    0.000 
#
# Total GULP energy -371826.573909 kJ/mol
# GULP energy per Si atom -12394.219130 kJ/mol
# Density = 2.167151 g / cm^3
# Si number density = 21.720947 Si / 1000 Ang^3
#
#
#
# Elastic Constant Matrix: (Units=GPa)
#
#
# Indices 1 2 3 4 5 6 
#
# 1 38.9581 28.2600 7.4716 0.0000 -7.5548 0.0000
# 2 28.2600 151.7184 53.6331 0.0000 -2.5805 0.0000
# 3 7.4716 53.6331 93.9114 0.0000 -16.5172 0.0000
# 4 0.0000 0.0000 0.0000 29.0842 0.0000 0.3437
# 5 -7.5548 -2.5805 -16.5172 0.0000 25.8461 0.0000
# 6 0.0000 0.0000 0.0000 0.3437 0.0000 35.6915
#
#
#
# Elastic Compliance Matrix: (Units=1/GPa)
#
#
# Indices 1 2 3 4 5 6 
#
# 1 0.032207 -0.006996 0.003341 0.000000 0.010851 0.000000
# 2 -0.006996 0.009920 -0.005965 0.000000 -0.004866 0.000000
# 3 0.003341 -0.005965 0.015611 0.000000 0.010357 0.000000
# 4 0.000000 0.000000 0.000000 0.034387 0.000000 -0.000331
# 5 0.010851 -0.004866 0.010357 0.000000 0.047995 0.000000
# 6 0.000000 0.000000 0.000000 -0.000331 0.000000 0.028021
#
#
# Mechanical properties :
#
#
# Convention : Reuss Voigt Hill
#
# Bulk Modulus (GPa) = 25.97453 51.47971 38.72712
# Shear Modulus (GPa) = 24.97362 31.13923 28.05643
#
# Velocity S-wave (km/s) = 3.39447 3.79040 3.59789
# Velocity P-wave (km/s) = 5.22948 6.55043 5.92687
#
# Compressibility (1/GPa) = 0.03849925
#
# Stress axis : x y z
#
# Youngs Moduli (GPa) = 31.04958 100.80700 64.05924
#
# Poissons Ratio (x) = 0.70521 -0.21404
# Poissons Ratio (y) = 0.21721 0.38209
# Poissons Ratio (z) = -0.10375 0.60127
#
# Static dielectric constant tensor:
#      x y z
#    x 3.414550 0.000000 -0.090570 
#    y 0.000000 4.272060 0.000000 
#    z -0.090570 0.000000 4.081710 
# 
# 
# High freq. dielectric constant tensor:
#      x y z
#    x 1.801450 0.000000 -0.014640 
#    y 0.000000 1.863930 0.000000 
#    z -0.014640 0.000000 1.863760 
# 
# From -- ./inp_files/243669.got.cif
#   From: 2010.06.25/outbox.cif.g09.slc.cpg/sg15_122_cif.got.tgz:243669.got - 2010.06.28 07:06:18.
