data_PCOD8134895
_publ_section_title
;
Structure prediction by ZEFSAII (Michael W. Deem and Ramdas Pophale) SiO2 
 PCOD8134895
Probable space group: C 2/C
;
_chemical_formula_sum "Si O2"
_cell_formula_units_Z 64
_cell_length_a 24.968970
_cell_length_b 17.781823
_cell_length_c 21.683538
_cell_angle_alpha 90.000000
_cell_angle_beta 159.596129
_cell_angle_gamma 90.000000
_cell_volume 3356.437019
_symmetry_space_group_name_H-M "C 2/C"
_symmetry_group_IT_number 15
_symmetry_cell_setting 'monoclinic'
loop_
_space_group_symop_operation_xyz
x,y,z
-x,y,1/2-z
-x,-y,-z
x,-y,1/2+z
1/2+x,1/2+y,z
1/2-x,1/2+y,1/2-z
1/2-x,1/2-y,-z
1/2+x,1/2-y,1/2+z
loop_
_atom_site_type_symbol
_atom_site_label
_atom_site_fract_x
_atom_site_fract_y
_atom_site_fract_z
Si Si1 0.254803 0.971999 0.646355
Si Si2 0.217225 0.122850 0.323119
Si Si3 0.463788 0.418564 0.986021
Si Si4 0.239062 0.210518 0.642199
Si Si5 0.967638 0.910735 0.644547
Si Si6 0.989767 0.401745 0.427328
Si Si7 0.282243 0.303188 0.235549
Si Si8 0.559543 0.157123 0.134971
O O1 0.150516 0.926208 0.581124
O O2 0.361263 0.904546 0.732820
O O3 0.142721 0.015721 0.478046
O O4 0.364938 0.032291 0.798545
O O5 0.109551 0.131255 0.147118
O O6 0.259484 0.207901 0.388178
O O7 0.373228 0.078105 0.472771
O O8 0.129585 0.077471 0.283003
O O9 0.500000 0.500000 0.000000
O O10 0.617637 0.376310 0.173261
O O11 0.107834 0.161915 0.467925
O O12 0.405388 0.172994 0.810943
O O13 0.206996 0.215729 0.680523
O O14 0.000000 0.893430 0.750000
O O15 0.058775 0.386160 0.568719
O O16 0.340042 0.232335 0.259018
O O17 0.110943 0.321655 0.027840
#
# Coordination Sequence:
#
# PCOD8134895 Si02
#       8
#     8   8   8   8   8   8   8   8
#     4  11  22  37  53  81 117 148 191 243 285 345
#     4  12  20  34  59  79 113 152 195 239 292 342
#     4  12  20  33  54  86 116 149 182 227 298 360
#     4  10  19  37  52  81 113 152 191 239 286 337
#     4  11  25  41  56  77 111 160 211 246 280 329
#     4  10  20  30  53  83 113 148 182 225 292 349
#     4  11  21  33  54  90 121 149 178 228 291 372
#     4  11  20  32  53  82 119 146 177 224 295 354
#
# _framework density 19.067838999999999
#
# number of rings (size 3 to 8) (size 9 to 14) (size 15 to 20)
#    0.000    1.000    5.000    4.875    1.750    0.500 
#    0.000    2.500    0.000    0.000    0.000    3.500 
#    0.000    0.000    0.000    0.250    0.000    0.000 
#
# Total GULP energy -396702.246642 kJ/mol
# GULP energy per Si atom -12396.945208 kJ/mol
# Density = 1.902444 g / cm^3
# Si number density = 19.067839 Si / 1000 Ang^3
#
#
#
# Elastic Constant Matrix: (Units=GPa)
#
#
# Indices 1 2 3 4 5 6 
#
# 1 42.3887 10.5510 32.3151 -0.0147 13.3720 -0.0070
# 2 10.5510 116.4300 41.6876 -0.0301 13.1414 -0.0202
# 3 32.3151 41.6876 85.3311 -0.0331 33.2033 -0.0235
# 4 -0.0147 -0.0301 -0.0331 31.6523 -0.0175 11.3411
# 5 13.3720 13.1414 33.2033 -0.0175 27.8150 -0.0111
# 6 -0.0070 -0.0202 -0.0235 11.3411 -0.0111 15.7079
#
#
#
# Elastic Compliance Matrix: (Units=1/GPa)
#
#
# Indices 1 2 3 4 5 6 
#
# 1 0.033514 0.001781 -0.013007 0.000005 -0.001427 -0.000007
# 2 0.001781 0.010574 -0.006654 0.000004 0.002091 0.000003
# 3 -0.013007 -0.006654 0.030324 0.000000 -0.026802 0.000012
# 4 0.000005 0.000004 0.000000 0.042618 0.000010 -0.030771
# 5 -0.001427 0.002091 -0.026802 0.000010 0.067645 0.000003
# 6 -0.000007 0.000003 0.000012 -0.030771 0.000003 0.085879
#
#
# Mechanical properties :
#
#
# Convention : Reuss Voigt Hill
#
# Bulk Modulus (GPa) = 25.87108 45.91746 35.89427
# Shear Modulus (GPa) = 15.66433 25.67475 20.66954
#
# Velocity S-wave (km/s) = 2.86930 3.67344 3.29599
# Velocity P-wave (km/s) = 4.95727 6.49043 5.77495
#
# Compressibility (1/GPa) = 0.03865320
#
# Stress axis : x y z
#
# Youngs Moduli (GPa) = 29.83865 94.57304 32.97676
#
# Poissons Ratio (x) = -0.16843 0.42891
# Poissons Ratio (y) = -0.05314 0.21942
# Poissons Ratio (z) = 0.38810 0.62927
#
# Static dielectric constant tensor:
#      x y z
#    x 2.978260 0.000110 0.425960 
#    y 0.000110 3.609400 0.000080 
#    z 0.425960 0.000080 3.746150 
# 
# 
# High freq. dielectric constant tensor:
#      x y z
#    x 1.673250 0.000000 0.049460 
#    y 0.000000 1.754070 0.000000 
#    z 0.049460 0.000000 1.748960 
# 
# From -- ./inp_files/283732.got.cif
#   From: 2010.06.25/outbox.cif.g09.slc.cpg/sg15_142_cif.got.tgz:283732.got - 2010.06.28 07:06:18.
