data_PCOD8134103
_publ_section_title
;
Structure prediction by ZEFSAII (Michael W. Deem and Ramdas Pophale) SiO2 
 PCOD8134103
Probable space group: C 2/C
;
_chemical_formula_sum "Si O2"
_cell_formula_units_Z 36
_cell_length_a 10.974131
_cell_length_b 17.524408
_cell_length_c 12.508302
_cell_angle_alpha 90.000000
_cell_angle_beta 127.731181
_cell_angle_gamma 90.000000
_cell_volume 1902.515820
_symmetry_space_group_name_H-M "C 2/C"
_symmetry_group_IT_number 15
_symmetry_cell_setting 'monoclinic'
loop_
_space_group_symop_operation_xyz
x,y,z
-x,y,1/2-z
-x,-y,-z
x,-y,1/2+z
1/2+x,1/2+y,z
1/2-x,1/2+y,1/2-z
1/2-x,1/2-y,-z
1/2+x,1/2-y,1/2+z
loop_
_atom_site_type_symbol
_atom_site_label
_atom_site_fract_x
_atom_site_fract_y
_atom_site_fract_z
Si Si1 0.892836 0.297412 0.792661
Si Si2 0.305619 0.054902 0.353519
Si Si3 0.547618 0.749221 0.088622
Si Si4 0.958096 0.578703 0.846955
Si Si5 0.500000 0.640426 0.250000
O O1 0.898296 0.386140 0.827375
O O2 0.720420 0.279095 0.662977
O O3 0.000000 0.279710 0.750000
O O4 0.949402 0.247885 0.925968
O O5 0.395180 0.046139 0.512024
O O6 0.136884 0.084834 0.290323
O O7 0.306147 0.971585 0.297213
O O8 0.568509 0.832975 0.146922
O O9 0.459072 0.695017 0.126897
O O10 0.000000 0.562351 0.750000
#
# Coordination Sequence:
#
# PCOD8134103 Si02
#       5
#     8   8   8   8   4
#     4  10  20  36  55  82 111 149 186 231 276 337
#     4   9  21  35  56  78 113 148 180 224 289 319
#     4  10  21  33  61  82 112 146 189 231 280 318
#     4  10  19  35  56  81 107 148 188 227 265 344
#     4  10  20  38  56  86 114 140 184 234 278 334
#
# _framework density 18.922312999999999
#
# number of rings (size 3 to 8) (size 9 to 14) (size 15 to 20)
#    0.000    2.222    1.111    1.333    3.111    2.667 
#    2.000    1.111    0.000    0.000    0.000    0.000 
#    0.000    0.000    0.000    0.000    0.000    0.000 
#
# Total GULP energy -223112.135518 kJ/mol
# GULP energy per Si atom -12395.118640 kJ/mol
# Density = 1.887924 g / cm^3
# Si number density = 18.922313 Si / 1000 Ang^3
#
#
#
# Elastic Constant Matrix: (Units=GPa)
#
#
# Indices 1 2 3 4 5 6 
#
# 1 90.9026 39.3256 19.2619 0.0000 -18.7571 0.0000
# 2 39.3256 94.7241 15.7827 0.0000 -6.1344 0.0000
# 3 19.2619 15.7827 61.0562 0.0000 -12.6120 0.0000
# 4 0.0000 0.0000 0.0000 -11.2629 0.0000 44.4263
# 5 -18.7571 -6.1344 -12.6120 0.0000 30.5928 0.0000
# 6 0.0000 0.0000 0.0000 44.4263 0.0000 -27.7275
#
#
#
# Elastic Compliance Matrix: (Units=1/GPa)
#
#
# Indices 1 2 3 4 5 6 
#
# 1 0.015362 -0.005582 -0.001846 0.000000 0.007539 0.000000
# 2 -0.005582 0.013096 -0.001955 0.000000 -0.001602 0.000000
# 3 -0.001846 -0.001955 0.018748 0.000000 0.006205 0.000000
# 4 0.000000 0.000000 0.000000 0.016689 0.000000 0.026740
# 5 0.007539 -0.001602 0.006205 0.000000 0.039546 0.000000
# 6 0.000000 0.000000 0.000000 0.026740 0.000000 0.006779
#
#
# Mechanical properties :
#
#
# Convention : Reuss Voigt Hill
#
# Bulk Modulus (GPa) = 35.16264 43.93591 39.54927
# Shear Modulus (GPa) = 36.10929 9.80800 22.95865
#
# Velocity S-wave (km/s) = 4.37314 2.27916 3.48704
# Velocity P-wave (km/s) = 6.64245 5.49505 6.09580
#
# Compressibility (1/GPa) = 0.02843928
#
# Stress axis : x y z
#
# Youngs Moduli (GPa) = 65.09406 76.35677 53.33913
#
# Poissons Ratio (x) = 0.42622 0.09848
# Poissons Ratio (y) = 0.36335 0.10430
# Poissons Ratio (z) = 0.12019 0.14931
#
# Static dielectric constant tensor:
#      x y z
#    x 3.391920 0.000000 -0.144680 
#    y 0.000000 3.690860 0.000000 
#    z -0.144680 0.000000 3.514600 
# 
# 
# High freq. dielectric constant tensor:
#      x y z
#    x 1.732250 0.000000 -0.012100 
#    y 0.000000 1.737460 0.000000 
#    z -0.012100 0.000000 1.735060 
# 
# From -- ./inp_files/28817.got.cif
#   From: 2010.06.25/outbox.cif.g09.slc.cpg/sg15_15_cif.got.tgz:28817.got - 2010.06.28 07:06:18.
