data_PCOD8134684
_publ_section_title
;
Structure prediction by ZEFSAII (Michael W. Deem and Ramdas Pophale) SiO2 
 PCOD8134684
Probable space group: C 2/C
;
_chemical_formula_sum "Si O2"
_cell_formula_units_Z 44
_cell_length_a 12.433515
_cell_length_b 23.692824
_cell_length_c 9.948348
_cell_angle_alpha 90.000000
_cell_angle_beta 51.185346
_cell_angle_gamma 90.000000
_cell_volume 2283.485313
_symmetry_space_group_name_H-M "C 2/C"
_symmetry_group_IT_number 15
_symmetry_cell_setting 'monoclinic'
loop_
_space_group_symop_operation_xyz
x,y,z
-x,y,1/2-z
-x,-y,-z
x,-y,1/2+z
1/2+x,1/2+y,z
1/2-x,1/2+y,1/2-z
1/2-x,1/2-y,-z
1/2+x,1/2-y,1/2+z
loop_
_atom_site_type_symbol
_atom_site_label
_atom_site_fract_x
_atom_site_fract_y
_atom_site_fract_z
Si Si1 0.104642 0.732880 0.550431
Si Si2 0.369096 0.031284 0.926220
Si Si3 0.010586 0.843689 0.900694
Si Si4 0.000000 0.425033 0.750000
Si Si5 0.181040 0.626429 0.324533
Si Si6 0.422078 0.538027 0.453859
O O1 0.250000 0.750000 0.500000
O O2 0.108600 0.676891 0.459120
O O3 0.000000 0.717888 0.750000
O O4 0.051158 0.784566 0.495499
O O5 0.500000 0.061953 0.750000
O O6 0.420203 0.966832 0.919560
O O7 0.319390 0.067939 0.091211
O O8 0.238024 0.021423 0.930871
O O9 0.164462 0.854956 0.831207
O O10 0.000000 0.834553 0.750000
O O11 0.920128 0.897831 0.011520
O O12 0.104250 0.384148 0.745196
O O13 0.500000 0.534097 0.250000
O O14 0.500000 0.500000 0.500000
#
# Coordination Sequence:
#
# PCOD8134684 Si02
#       6
#     8   8   8   4   8   8
#     4  11  20  36  63  93 111 148 202 252 294 346
#     4  10  22  37  59  90 120 153 206 246 296 362
#     4  10  19  36  60  86 117 151 198 250 302 348
#     4  10  26  36  58  86 128 162 194 244 304 358
#     4  12  20  41  59  87 124 160 197 248 303 357
#     4  11  21  37  63  88 123 162 199 249 313 365
#
# _framework density 19.268789999999999
#
# number of rings (size 3 to 8) (size 9 to 14) (size 15 to 20)
#    0.545    0.727    7.273    2.182    0.000    0.000 
#    0.000    0.909    2.000    0.000    0.000    0.000 
#    0.000    0.000    0.000    0.000    0.000    0.000 
#
# Total GULP energy -272605.644626 kJ/mol
# GULP energy per Si atom -12391.165665 kJ/mol
# Density = 1.922493 g / cm^3
# Si number density = 19.268790 Si / 1000 Ang^3
#
#
#
# Elastic Constant Matrix: (Units=GPa)
#
#
# Indices 1 2 3 4 5 6 
#
# 1 139.2272 50.7864 31.0176 0.0000 -25.7512 0.0000
# 2 50.7864 125.7848 19.2825 0.0000 -0.5352 0.0000
# 3 31.0176 19.2825 53.8883 0.0000 -23.0727 0.0000
# 4 0.0000 0.0000 0.0000 19.0103 0.0000 -8.9054
# 5 -25.7512 -0.5352 -23.0727 0.0000 35.7149 0.0000
# 6 0.0000 0.0000 0.0000 -8.9054 0.0000 28.8326
#
#
#
# Elastic Compliance Matrix: (Units=1/GPa)
#
#
# Indices 1 2 3 4 5 6 
#
# 1 0.010082 -0.003755 -0.001896 0.000000 0.005988 0.000000
# 2 -0.003755 0.009976 -0.003461 0.000000 -0.004794 0.000000
# 3 -0.001896 -0.003461 0.028033 0.000000 0.016691 0.000000
# 4 0.000000 0.000000 0.000000 0.061502 0.000000 0.018996
# 5 0.005988 -0.004794 0.016691 0.000000 0.043028 0.000000
# 6 0.000000 0.000000 0.000000 0.018996 0.000000 0.040550
#
#
# Mechanical properties :
#
#
# Convention : Reuss Voigt Hill
#
# Bulk Modulus (GPa) = 33.47982 57.89705 45.68844
# Shear Modulus (GPa) = 22.58866 31.23250 26.91058
#
# Velocity S-wave (km/s) = 3.42759 4.03039 3.74115
# Velocity P-wave (km/s) = 5.75129 7.19521 6.51339
#
# Compressibility (1/GPa) = 0.02986874
#
# Stress axis : x y z
#
# Youngs Moduli (GPa) = 99.18657 100.23861 35.67229
#
# Poissons Ratio (x) = 0.37636 0.06762
# Poissons Ratio (y) = 0.37241 0.12346
# Poissons Ratio (z) = 0.18802 0.34693
#
# Static dielectric constant tensor:
#      x y z
#    x 3.506110 0.000000 -0.415570 
#    y 0.000000 4.021630 0.000000 
#    z -0.415570 0.000000 3.559900 
# 
# 
# High freq. dielectric constant tensor:
#      x y z
#    x 1.746610 0.000000 -0.039810 
#    y 0.000000 1.764690 0.000000 
#    z -0.039810 0.000000 1.714760 
# 
# From -- ./inp_files/90238.got.cif
#   From: 2010.06.25/outbox.cif.g09.slc.cpg/sg15_46_cif.got.tgz:90238.got - 2010.06.28 07:06:18.
