data_PCOD8134549
_publ_section_title
;
Structure prediction by ZEFSAII (Michael W. Deem and Ramdas Pophale) SiO2 
 PCOD8134549
Probable space group: C 2/C
;
_chemical_formula_sum "Si O2"
_cell_formula_units_Z 56
_cell_length_a 13.381187
_cell_length_b 9.570750
_cell_length_c 25.071676
_cell_angle_alpha 90.000000
_cell_angle_beta 122.206151
_cell_angle_gamma 90.000000
_cell_volume 2716.840411
_symmetry_space_group_name_H-M "C 2/C"
_symmetry_group_IT_number 15
_symmetry_cell_setting 'monoclinic'
loop_
_space_group_symop_operation_xyz
x,y,z
-x,y,1/2-z
-x,-y,-z
x,-y,1/2+z
1/2+x,1/2+y,z
1/2-x,1/2+y,1/2-z
1/2-x,1/2-y,-z
1/2+x,1/2-y,1/2+z
loop_
_atom_site_type_symbol
_atom_site_label
_atom_site_fract_x
_atom_site_fract_y
_atom_site_fract_z
Si Si1 0.149772 0.769522 0.064884
Si Si2 0.775718 0.500698 0.048353
Si Si3 0.736550 0.976297 0.076912
Si Si4 0.484424 0.595303 0.686914
Si Si5 0.844634 0.993904 0.849722
Si Si6 0.600750 0.289542 0.553020
Si Si7 0.905317 0.588217 0.184296
O O1 0.201820 0.620066 0.094907
O O2 0.220782 0.845471 0.037204
O O3 0.162729 0.862191 0.120645
O O4 0.015409 0.745220 0.010537
O O5 0.679724 0.617298 0.036040
O O6 0.886200 0.513433 0.121289
O O7 0.811997 0.525252 0.997763
O O8 0.877425 0.966322 0.121759
O O9 0.674302 0.848579 0.090087
O O10 0.500000 0.529340 0.750000
O O11 0.605535 0.542974 0.692975
O O12 0.460454 0.760327 0.686112
O O13 0.931174 0.881772 0.903629
O O14 0.716715 0.915719 0.815776
O O15 0.000000 0.510718 0.250000
#
# Coordination Sequence:
#
# PCOD8134549 Si02
#       7
#     8   8   8   8   8   8   8
#     4  10  21  35  56  94 132 163 200 273 325 364
#     4  10  20  36  64  87 123 169 214 252 315 380
#     4  12  21  36  58  97 130 158 216 262 321 378
#     4  11  23  43  67  90 125 172 214 262 326 388
#     4  10  21  42  67  88 121 171 219 257 316 394
#     4  10  19  36  57  90 121 168 212 253 313 387
#     4   9  20  42  68  95 120 167 223 255 316 388
#
# _framework density 20.612178
#
# number of rings (size 3 to 8) (size 9 to 14) (size 15 to 20)
#    0.000    2.000    2.857    4.714    2.000    0.000 
#    5.143    2.857    0.000    0.000    0.000    0.000 
#    0.000    0.000    0.000    0.000    0.000    0.000 
#
# Total GULP energy -346918.574180 kJ/mol
# GULP energy per Si atom -12389.949078 kJ/mol
# Density = 2.056526 g / cm^3
# Si number density = 20.612178 Si / 1000 Ang^3
#
#
#
# Elastic Constant Matrix: (Units=GPa)
#
#
# Indices 1 2 3 4 5 6 
#
# 1 77.3056 41.3392 36.5291 0.0000 -12.3647 0.0000
# 2 41.3392 124.5449 11.7882 0.0000 -13.1240 0.0000
# 3 36.5291 11.7882 113.3647 0.0000 -7.3736 0.0000
# 4 0.0000 0.0000 0.0000 -1.3188 0.0000 3.4188
# 5 -12.3647 -13.1240 -7.3736 0.0000 35.0512 0.0000
# 6 0.0000 0.0000 0.0000 3.4188 0.0000 23.6159
#
#
#
# Elastic Compliance Matrix: (Units=1/GPa)
#
#
# Indices 1 2 3 4 5 6 
#
# 1 0.018888 -0.005396 -0.005296 0.000000 0.003528 0.000000
# 2 -0.005396 0.009952 0.000834 0.000000 0.001998 0.000000
# 3 -0.005296 0.000834 0.010483 0.000000 0.000649 0.000000
# 4 0.000000 0.000000 0.000000 -0.551346 0.000000 0.079816
# 5 0.003528 0.001998 0.000649 0.000000 0.030659 0.000000
# 6 0.000000 0.000000 0.000000 0.079816 0.000000 0.030790
#
#
# Mechanical properties :
#
#
# Convention : Reuss Voigt Hill
#
# Bulk Modulus (GPa) = 51.00191 54.94757 52.97474
# Shear Modulus (GPa) = -11.78348 26.50690 7.36171
#
# Velocity S-wave (km/s) = -2.39357 3.58995 1.89190
# Velocity P-wave (km/s) = 4.14227 6.62566 5.52529
#
# Compressibility (1/GPa) = 0.01960711
#
# Stress axis : x y z
#
# Youngs Moduli (GPa) = 52.94357 100.48218 95.39267
#
# Poissons Ratio (x) = 0.54223 0.50516
# Poissons Ratio (y) = 0.28570 -0.07955
# Poissons Ratio (z) = 0.28037 -0.08380
#
# Static dielectric constant tensor:
#      x y z
#    x 3.623570 0.000000 0.167080 
#    y 0.000000 3.826910 0.000000 
#    z 0.167080 0.000000 3.878590 
# 
# 
# High freq. dielectric constant tensor:
#      x y z
#    x 1.789090 0.000000 0.011120 
#    y 0.000000 1.805110 0.000000 
#    z 0.011120 0.000000 1.798820 
# 
# From -- ./inp_files/273232.got.cif
#   From: 2010.06.25/outbox.cif.g09.slc.cpg/sg15_137_cif.got.tgz:273232.got - 2010.06.28 07:06:18.
