data_PCOD8134709
_publ_section_title
;
Structure prediction by ZEFSAII (Michael W. Deem and Ramdas Pophale) SiO2 
 PCOD8134709
Probable space group: C 2/C
;
_chemical_formula_sum "Si O2"
_cell_formula_units_Z 64
_cell_length_a 9.533911
_cell_length_b 18.231908
_cell_length_c 30.864218
_cell_angle_alpha 90.000000
_cell_angle_beta 142.643103
_cell_angle_gamma 90.000000
_cell_volume 3255.279967
_symmetry_space_group_name_H-M "C 2/C"
_symmetry_group_IT_number 15
_symmetry_cell_setting 'monoclinic'
loop_
_space_group_symop_operation_xyz
x,y,z
-x,y,1/2-z
-x,-y,-z
x,-y,1/2+z
1/2+x,1/2+y,z
1/2-x,1/2+y,1/2-z
1/2-x,1/2-y,-z
1/2+x,1/2-y,1/2+z
loop_
_atom_site_type_symbol
_atom_site_label
_atom_site_fract_x
_atom_site_fract_y
_atom_site_fract_z
Si Si1 0.549341 0.514225 0.078791
Si Si2 0.132928 0.470894 0.419051
Si Si3 0.749858 0.454588 0.209803
Si Si4 0.742568 0.559765 0.288091
Si Si5 0.002258 0.668926 0.565654
Si Si6 0.545334 0.331364 0.911162
Si Si7 0.511269 0.339459 0.203804
Si Si8 0.165728 0.325240 0.753198
O O1 0.758062 0.481088 0.101692
O O2 0.557457 0.473006 0.126535
O O3 0.572184 0.602610 0.090018
O O4 0.304352 0.494894 0.996821
O O5 0.898634 0.518586 0.362175
O O6 0.082795 0.384840 0.416163
O O7 0.714671 0.514768 0.237457
O O8 0.703759 0.377039 0.221308
O O9 0.000000 0.454950 0.250000
O O10 0.500000 0.577407 0.250000
O O11 0.857214 0.635166 0.298860
O O12 0.265608 0.648322 0.619192
O O13 0.826315 0.658377 0.481508
O O14 0.010999 0.753497 0.581337
O O15 0.433575 0.330116 0.835753
O O16 0.500000 0.373494 0.250000
O O17 0.583793 0.256258 0.225090
O O18 0.000000 0.360368 0.750000
#
# Coordination Sequence:
#
# PCOD8134709 Si02
#       8
#     8   8   8   8   8   8   8   8
#     4  10  21  38  62  91 120 161 203 251 305 373
#     4  10  21  38  60  92 125 157 200 254 313 362
#     4  12  23  38  63  89 122 162 209 249 302 373
#     4  12  24  39  61  90 124 159 199 257 310 364
#     4  10  20  36  60  90 121 155 201 253 307 364
#     4  10  19  36  60  91 115 157 208 250 298 369
#     4  11  23  39  61  90 124 160 203 260 308 363
#     4  11  21  39  64  86 119 162 208 247 304 373
#
# _framework density 19.660367999999998
#
# number of rings (size 3 to 8) (size 9 to 14) (size 15 to 20)
#    0.000    1.250    5.000    3.000    0.000    0.500 
#    2.250    1.875    0.000    0.750    0.000    0.000 
#    0.000    0.000    0.000    0.000    0.000    0.000 
#
# Total GULP energy -396581.177526 kJ/mol
# GULP energy per Si atom -12393.161798 kJ/mol
# Density = 1.961562 g / cm^3
# Si number density = 19.660368 Si / 1000 Ang^3
#
#
#
# Elastic Constant Matrix: (Units=GPa)
#
#
# Indices 1 2 3 4 5 6 
#
# 1 99.2567 52.2628 27.7335 0.0002 4.0815 0.0001
# 2 52.2628 87.7100 30.2843 -0.0001 -0.8110 0.0000
# 3 27.7335 30.2843 115.6176 0.0001 -3.3179 0.0002
# 4 0.0002 -0.0001 0.0001 26.2283 0.0003 -1.1026
# 5 4.0815 -0.8110 -3.3179 0.0003 14.1554 0.0003
# 6 0.0001 0.0000 0.0002 -1.1026 0.0003 24.2188
#
#
#
# Elastic Compliance Matrix: (Units=1/GPa)
#
#
# Indices 1 2 3 4 5 6 
#
# 1 0.015255 -0.008601 -0.001557 0.000000 -0.005256 0.000000
# 2 -0.008601 0.017384 -0.002407 0.000000 0.002912 0.000000
# 3 -0.001557 -0.002407 0.009728 0.000000 0.002591 0.000000
# 4 0.000000 0.000000 0.000000 0.038200 -0.000001 0.001739
# 5 -0.005256 0.002912 0.002591 -0.000001 0.072934 -0.000001
# 6 0.000000 0.000000 0.000000 0.001739 -0.000001 0.041369
#
#
# Mechanical properties :
#
#
# Convention : Reuss Voigt Hill
#
# Bulk Modulus (GPa) = 58.01537 58.12728 58.07132
# Shear Modulus (GPa) = 22.14892 25.74075 23.94484
#
# Velocity S-wave (km/s) = 3.36009 3.62231 3.49366
# Velocity P-wave (km/s) = 6.68031 6.86475 6.77315
#
# Compressibility (1/GPa) = 0.01723681
#
# Stress axis : x y z
#
# Youngs Moduli (GPa) = 65.55358 57.52458 102.80093
#
# Poissons Ratio (x) = 0.49474 0.16009
# Poissons Ratio (y) = 0.56380 0.24743
# Poissons Ratio (z) = 0.10208 0.13845
#
# Static dielectric constant tensor:
#      x y z
#    x 3.757440 0.000000 -0.002620 
#    y 0.000000 3.733970 0.000000 
#    z -0.002620 0.000000 4.175810 
# 
# 
# High freq. dielectric constant tensor:
#      x y z
#    x 1.725960 0.000000 0.012520 
#    y 0.000000 1.769680 0.000000 
#    z 0.012520 0.000000 1.790330 
# 
# From -- ./inp_files/308824.got.cif
#   From: 2010.06.25/outbox.cif.g09.slc.cpg/sg15_155_cif.got.tgz:308824.got - 2010.06.28 07:06:18.
