data_PCOD8134232
_publ_section_title
;
Structure prediction by ZEFSAII (Michael W. Deem and Ramdas Pophale) SiO2 
 PCOD8134232
Probable space group: C 2/C
;
_chemical_formula_sum "Si O2"
_cell_formula_units_Z 44
_cell_length_a 5.184700
_cell_length_b 16.637183
_cell_length_c 27.900081
_cell_angle_alpha 90.000000
_cell_angle_beta 121.370486
_cell_angle_gamma 90.000000
_cell_volume 2054.824511
_symmetry_space_group_name_H-M "C 2/C"
_symmetry_group_IT_number 15
_symmetry_cell_setting 'monoclinic'
loop_
_space_group_symop_operation_xyz
x,y,z
-x,y,1/2-z
-x,-y,-z
x,-y,1/2+z
1/2+x,1/2+y,z
1/2-x,1/2+y,1/2-z
1/2-x,1/2-y,-z
1/2+x,1/2-y,1/2+z
loop_
_atom_site_type_symbol
_atom_site_label
_atom_site_fract_x
_atom_site_fract_y
_atom_site_fract_z
Si Si1 0.835109 0.262489 0.782481
Si Si2 0.278520 0.064809 0.921556
Si Si3 0.598693 0.963167 0.358285
Si Si4 0.500000 0.891649 0.250000
Si Si5 0.118977 0.618225 0.041095
Si Si6 0.197848 0.354178 0.895060
O O1 0.500000 0.303595 0.750000
O O2 0.795983 0.165752 0.782530
O O3 0.000000 0.288852 0.750000
O O4 0.035458 0.288580 0.846642
O O5 0.386268 0.078650 0.877411
O O6 0.923639 0.079388 0.893198
O O7 0.355017 0.974709 0.943715
O O8 0.454796 0.126313 0.973693
O O9 0.461772 0.948069 0.292550
O O10 0.615421 0.058278 0.367078
O O11 0.444115 0.660659 0.070787
O O12 0.916292 0.660143 0.062026
#
# Coordination Sequence:
#
# PCOD8134232 Si02
#       6
#     8   8   8   4   8   8
#     4  10  23  39  57  79 111 161 188 230 284 341
#     4   9  18  33  54  87 116 144 177 234 289 338
#     4  10  21  34  58  85 114 145 192 233 277 331
#     4  10  26  40  58  80 116 162 186 236 288 338
#     4   9  17  32  57  85 117 141 179 232 293 331
#     4  10  19  35  58  89 109 145 190 238 272 336
#
# _framework density 21.413019999999999
#
# number of rings (size 3 to 8) (size 9 to 14) (size 15 to 20)
#    0.545    1.818    0.000    2.182    3.818    4.364 
#    0.000    0.000    0.000    6.545    0.000    0.000 
#    0.000    0.000    0.000    0.000    0.000    0.000 
#
# Total GULP energy -272773.609219 kJ/mol
# GULP energy per Si atom -12398.800419 kJ/mol
# Density = 2.136428 g / cm^3
# Si number density = 21.413020 Si / 1000 Ang^3
#
#
#
# Elastic Constant Matrix: (Units=GPa)
#
#
# Indices 1 2 3 4 5 6 
#
# 1 159.2848 11.0889 30.8159 -0.0002 -16.7421 0.0000
# 2 11.0889 26.4768 16.0534 0.0000 -1.3820 0.0000
# 3 30.8159 16.0534 88.4517 0.0000 -26.9985 0.0000
# 4 -0.0002 0.0000 0.0000 7.3045 -0.0001 1.8694
# 5 -16.7421 -1.3820 -26.9985 -0.0001 44.2571 0.0000
# 6 0.0000 0.0000 0.0000 1.8694 0.0000 10.5564
#
#
#
# Elastic Compliance Matrix: (Units=1/GPa)
#
#
# Indices 1 2 3 4 5 6 
#
# 1 0.006878 -0.001840 -0.001580 0.000000 0.001581 0.000000
# 2 -0.001840 0.043560 -0.008678 0.000000 -0.004630 0.000000
# 3 -0.001580 -0.008678 0.016178 0.000000 0.009001 0.000000
# 4 0.000000 0.000000 0.000000 0.143402 0.000000 -0.025394
# 5 0.001581 -0.004630 0.009001 0.000000 0.028539 0.000000
# 6 0.000000 0.000000 0.000000 -0.025394 0.000000 0.099226
#
#
# Mechanical properties :
#
#
# Convention : Reuss Voigt Hill
#
# Bulk Modulus (GPa) = 23.57366 43.34774 33.46070
# Shear Modulus (GPa) = 13.29367 26.84060 20.06713
#
# Velocity S-wave (km/s) = 2.49433 3.54428 3.06461
# Velocity P-wave (km/s) = 4.39642 6.08579 5.30874
#
# Compressibility (1/GPa) = 0.04242022
#
# Stress axis : x y z
#
# Youngs Moduli (GPa) = 145.39236 22.95706 61.81122
#
# Poissons Ratio (x) = 0.04225 0.09765
# Poissons Ratio (y) = 0.26756 0.53639
# Poissons Ratio (z) = 0.22968 0.19922
#
# Static dielectric constant tensor:
#      x y z
#    x 4.049700 0.000000 -0.066630 
#    y 0.000000 3.385750 0.000000 
#    z -0.066630 0.000000 3.848990 
# 
# 
# High freq. dielectric constant tensor:
#      x y z
#    x 1.854990 0.000000 -0.005040 
#    y 0.000000 1.797660 0.000000 
#    z -0.005040 0.000000 1.845240 
# 
# From -- ./inp_files/286182.got.cif
#   From: 2010.06.25/outbox.cif.g09.slc.cpg/sg15_144_cif.got.tgz:286182.got - 2010.06.28 07:06:18.
