data_PCOD8134044
_publ_section_title
;
Structure prediction by ZEFSAII (Michael W. Deem and Ramdas Pophale) SiO2 
 PCOD8134044
Probable space group: C 2/C
;
_chemical_formula_sum "Si O2"
_cell_formula_units_Z 64
_cell_length_a 20.697965
_cell_length_b 17.191389
_cell_length_c 26.291473
_cell_angle_alpha 90.000000
_cell_angle_beta 159.420265
_cell_angle_gamma 90.000000
_cell_volume 3288.454968
_symmetry_space_group_name_H-M "C 2/C"
_symmetry_group_IT_number 15
_symmetry_cell_setting 'monoclinic'
loop_
_space_group_symop_operation_xyz
x,y,z
-x,y,1/2-z
-x,-y,-z
x,-y,1/2+z
1/2+x,1/2+y,z
1/2-x,1/2+y,1/2-z
1/2-x,1/2-y,-z
1/2+x,1/2-y,1/2+z
loop_
_atom_site_type_symbol
_atom_site_label
_atom_site_fract_x
_atom_site_fract_y
_atom_site_fract_z
Si Si1 0.714999 0.921478 0.403583
Si Si2 0.968653 0.336056 0.063490
Si Si3 0.780897 0.800316 0.368752
Si Si4 0.745663 0.159803 0.680298
Si Si5 0.462616 0.410570 0.169689
Si Si6 0.169121 0.083181 0.403310
Si Si7 0.712168 0.101097 0.401308
Si Si8 0.545547 0.287680 0.475748
O O1 0.500000 0.912623 0.250000
O O2 0.784664 0.875626 0.406619
O O3 0.803210 0.883574 0.519527
O O4 0.769372 0.011323 0.435877
O O5 0.091915 0.292616 0.197275
O O6 0.099646 0.370930 0.115097
O O7 0.818614 0.276745 0.929778
O O8 0.854554 0.405776 0.006292
O O9 0.950230 0.816476 0.456724
O O10 0.638957 0.204659 0.556479
O O11 0.854625 0.089057 0.732288
O O12 0.895634 0.215626 0.819394
O O13 0.500000 0.363962 0.250000
O O14 0.383348 0.493475 0.128661
O O15 0.302076 0.367843 0.020141
O O16 0.000000 0.126336 0.250000
O O17 0.500000 0.115603 0.250000
O O18 0.793107 0.150269 0.414732
#
# Coordination Sequence:
#
# PCOD8134044 Si02
#       8
#     8   8   8   8   8   8   8   8
#     4  10  19  35  54  78 109 148 187 230 270 325
#     4  10  21  37  56  83 113 147 183 229 277 329
#     4  10  21  35  56  81 112 145 187 228 278 328
#     4   9  19  37  59  81 113 145 184 230 278 327
#     4   9  19  37  57  79 109 147 184 229 273 325
#     4  10  21  36  55  78 113 146 186 225 273 328
#     4   9  19  34  56  79 111 146 187 229 277 326
#     4   9  19  36  55  82 111 146 183 231 277 330
#
# _framework density 19.462026999999999
#
# number of rings (size 3 to 8) (size 9 to 14) (size 15 to 20)
#    0.000    2.500    1.250    0.000    1.750    3.000 
#    0.000    5.000    0.000    0.000    0.000    0.000 
#    0.000    0.000    0.000    0.000    0.000    0.000 
#
# Total GULP energy -396432.027138 kJ/mol
# GULP energy per Si atom -12388.500848 kJ/mol
# Density = 1.941773 g / cm^3
# Si number density = 19.462027 Si / 1000 Ang^3
#
#
#
# Elastic Constant Matrix: (Units=GPa)
#
#
# Indices 1 2 3 4 5 6 
#
# 1 118.0553 51.2060 55.1481 0.0234 4.2931 0.0002
# 2 51.2060 53.5784 37.8135 -0.1492 12.4515 0.0546
# 3 55.1481 37.8135 100.3442 -0.2426 0.5052 0.0806
# 4 0.0234 -0.1492 -0.2426 12.6928 0.0455 11.6842
# 5 4.2931 12.4515 0.5052 0.0455 37.9893 0.0335
# 6 0.0002 0.0546 0.0806 11.6842 0.0335 34.6557
#
#
#
# Elastic Compliance Matrix: (Units=1/GPa)
#
#
# Indices 1 2 3 4 5 6 
#
# 1 0.015791 -0.013004 -0.003792 -0.000418 0.002529 0.000168
# 2 -0.013004 0.038982 -0.007485 0.000594 -0.011208 -0.000233
# 3 -0.003792 -0.007485 0.014857 0.000314 0.002684 -0.000131
# 4 -0.000418 0.000594 0.000314 0.114264 -0.000255 -0.038526
# 5 0.002529 -0.011208 0.002684 -0.000255 0.029676 0.000069
# 6 0.000168 -0.000233 -0.000131 -0.038526 0.000069 0.041845
#
#
# Mechanical properties :
#
#
# Convention : Reuss Voigt Hill
#
# Bulk Modulus (GPa) = 47.46458 62.25704 54.86081
# Shear Modulus (GPa) = 16.07724 25.58824 20.83274
#
# Velocity S-wave (km/s) = 2.87728 3.62992 3.27529
# Velocity P-wave (km/s) = 5.95647 7.04463 6.52328
#
# Compressibility (1/GPa) = 0.02106834
#
# Stress axis : x y z
#
# Youngs Moduli (GPa) = 63.32904 25.65297 67.30636
#
# Poissons Ratio (x) = 0.33360 0.25520
# Poissons Ratio (y) = 0.82355 0.50377
# Poissons Ratio (z) = 0.24012 0.19201
#
# Static dielectric constant tensor:
#      x y z
#    x 4.042760 -0.000230 -0.391680 
#    y -0.000230 3.177370 -0.000190 
#    z -0.391680 -0.000190 4.101490 
# 
# 
# High freq. dielectric constant tensor:
#      x y z
#    x 1.771280 0.000000 -0.009760 
#    y 0.000000 1.710220 -0.000030 
#    z -0.009760 -0.000030 1.778450 
# 
# From -- ./inp_files/301360.got.cif
#   From: 2010.06.25/outbox.cif.g09.slc.cpg/sg15_151_cif.got.tgz:301360.got - 2010.06.28 07:06:18.
