data_PCOD8134109
_publ_section_title
;
Structure prediction by ZEFSAII (Michael W. Deem and Ramdas Pophale) SiO2 
 PCOD8134109
Probable space group: C 2/C
;
_chemical_formula_sum "Si O2"
_cell_formula_units_Z 48
_cell_length_a 12.260311
_cell_length_b 15.116478
_cell_length_c 27.579438
_cell_angle_alpha 90.000000
_cell_angle_beta 151.692577
_cell_angle_gamma 90.000000
_cell_volume 2423.824379
_symmetry_space_group_name_H-M "C 2/C"
_symmetry_group_IT_number 15
_symmetry_cell_setting 'monoclinic'
loop_
_space_group_symop_operation_xyz
x,y,z
-x,y,1/2-z
-x,-y,-z
x,-y,1/2+z
1/2+x,1/2+y,z
1/2-x,1/2+y,1/2-z
1/2-x,1/2-y,-z
1/2+x,1/2-y,1/2+z
loop_
_atom_site_type_symbol
_atom_site_label
_atom_site_fract_x
_atom_site_fract_y
_atom_site_fract_z
Si Si1 0.864925 0.670121 0.516322
Si Si2 0.735110 0.202548 0.134796
Si Si3 0.016166 0.073108 0.434969
Si Si4 0.017563 0.888686 0.045516
Si Si5 0.926422 0.313697 0.594473
Si Si6 0.199300 0.264686 0.789726
O O1 0.750000 0.750000 0.500000
O O2 0.824861 0.675542 0.443191
O O3 0.746133 0.581386 0.491069
O O4 0.135474 0.680526 0.634222
O O5 0.661500 0.303440 0.118622
O O6 0.586293 0.142694 0.114631
O O7 0.000000 0.187706 0.250000
O O8 0.824416 0.140481 0.341096
O O9 0.088877 0.095539 0.518148
O O10 0.917267 0.972883 0.395057
O O11 0.736769 0.880887 0.939340
O O12 0.750000 0.250000 0.500000
O O13 0.092684 0.257384 0.694690
O O14 0.000000 0.260723 0.750000
#
# Coordination Sequence:
#
# PCOD8134109 Si02
#       6
#     8   8   8   8   8   8
#     4  10  19  35  56  82 109 150 194 231 280 347
#     4  11  20  35  59  84 112 147 192 242 282 337
#     4  10  20  35  56  81 115 145 184 237 287 345
#     4  10  20  37  52  83 114 145 184 235 292 334
#     4  10  21  36  54  82 115 149 189 237 286 339
#     4  11  18  34  58  84 109 150 193 235 286 342
#
# _framework density 19.803415999999999
#
# number of rings (size 3 to 8) (size 9 to 14) (size 15 to 20)
#    0.000    1.667    5.000    3.000    0.000    0.667 
#    0.000    0.833    0.000    1.000    0.000    0.000 
#    0.000    0.000    0.000    0.000    0.000    0.000 
#
# Total GULP energy -297358.036116 kJ/mol
# GULP energy per Si atom -12389.918171 kJ/mol
# Density = 1.975834 g / cm^3
# Si number density = 19.803416 Si / 1000 Ang^3
#
#
#
# Elastic Constant Matrix: (Units=GPa)
#
#
# Indices 1 2 3 4 5 6 
#
# 1 166.0868 21.4762 58.4595 0.0003 3.3306 0.0001
# 2 21.4762 49.5374 12.1047 0.0001 2.5991 0.0001
# 3 58.4595 12.1047 126.2145 0.0016 -0.9206 0.0006
# 4 0.0003 0.0001 0.0016 12.3355 0.0001 0.4927
# 5 3.3306 2.5991 -0.9206 0.0001 42.6008 0.0001
# 6 0.0001 0.0001 0.0006 0.4927 0.0001 23.8952
#
#
#
# Elastic Compliance Matrix: (Units=1/GPa)
#
#
# Indices 1 2 3 4 5 6 
#
# 1 0.007485 -0.002427 -0.003238 0.000000 -0.000507 0.000000
# 2 -0.002427 0.021531 -0.000949 0.000000 -0.001144 0.000000
# 3 -0.003238 -0.000949 0.009517 -0.000001 0.000517 0.000000
# 4 0.000000 0.000000 -0.000001 0.081134 0.000000 -0.001673
# 5 -0.000507 -0.001144 0.000517 0.000000 0.023594 0.000000
# 6 0.000000 0.000000 0.000000 -0.001673 0.000000 0.041884
#
#
# Mechanical properties :
#
#
# Convention : Reuss Voigt Hill
#
# Bulk Modulus (GPa) = 39.51744 58.43552 48.97648
# Shear Modulus (GPa) = 24.17704 32.41951 28.29828
#
# Velocity S-wave (km/s) = 3.49786 4.05046 3.78426
# Velocity P-wave (km/s) = 6.02591 7.17264 6.62414
#
# Compressibility (1/GPa) = 0.02530529
#
# Stress axis : x y z
#
# Youngs Moduli (GPa) = 133.60902 46.44476 105.07091
#
# Poissons Ratio (x) = 0.11273 0.34018
# Poissons Ratio (y) = 0.32428 0.09973
# Poissons Ratio (z) = 0.43257 0.04408
#
# Static dielectric constant tensor:
#      x y z
#    x 4.555760 0.000010 0.385950 
#    y 0.000010 3.745940 0.000030 
#    z 0.385950 0.000030 3.815790 
# 
# 
# High freq. dielectric constant tensor:
#      x y z
#    x 1.803620 0.000000 0.007470 
#    y 0.000000 1.721640 0.000000 
#    z 0.007470 0.000000 1.767280 
# 
# From -- ./inp_files/87349.got.cif
#   From: 2010.06.25/outbox.cif.g09.slc.cpg/sg15_44_cif.got.tgz:87349.got - 2010.06.28 07:06:18.
