data_PCOD8134803
_publ_section_title
;
Structure prediction by ZEFSAII (Michael W. Deem and Ramdas Pophale) SiO2 
 PCOD8134803
Probable space group: C 2/C
;
_chemical_formula_sum "Si O2"
_cell_formula_units_Z 56
_cell_length_a 15.050960
_cell_length_b 15.189182
_cell_length_c 25.546598
_cell_angle_alpha 90.000000
_cell_angle_beta 152.016843
_cell_angle_gamma 90.000000
_cell_volume 2740.316712
_symmetry_space_group_name_H-M "C 2/C"
_symmetry_group_IT_number 15
_symmetry_cell_setting 'monoclinic'
loop_
_space_group_symop_operation_xyz
x,y,z
-x,y,1/2-z
-x,-y,-z
x,-y,1/2+z
1/2+x,1/2+y,z
1/2-x,1/2+y,1/2-z
1/2-x,1/2-y,-z
1/2+x,1/2-y,1/2+z
loop_
_atom_site_type_symbol
_atom_site_label
_atom_site_fract_x
_atom_site_fract_y
_atom_site_fract_z
Si Si1 0.317774 0.395028 0.626061
Si Si2 0.753502 0.064600 0.660162
Si Si3 0.455439 0.946026 0.874523
Si Si4 0.614570 0.466739 0.411546
Si Si5 0.520581 0.191033 0.030131
Si Si6 0.003736 0.108505 0.540666
Si Si7 0.188413 0.521756 0.314080
O O1 0.500000 0.357234 0.750000
O O2 0.245015 0.488081 0.612408
O O3 0.368599 0.426752 0.592721
O O4 0.158891 0.319415 0.550993
O O5 0.683629 0.154262 0.595451
O O6 0.966684 0.077238 0.793177
O O7 0.605389 0.038157 0.629537
O O8 0.381999 0.866747 0.873066
O O9 0.357501 0.944256 0.767520
O O10 0.677402 0.926486 0.983768
O O11 0.538186 0.447629 0.429155
O O12 0.510042 0.287030 0.049653
O O13 0.209529 0.073808 0.629457
O O14 0.837157 0.092533 0.412855
O O15 0.000000 0.515650 0.250000
#
# Coordination Sequence:
#
# PCOD8134803 Si02
#       7
#     8   8   8   8   8   8   8
#     4   9  18  34  63  92 123 163 205 253 318 386
#     4  10  19  36  62  93 127 163 201 262 320 383
#     4  11  20  39  66  88 124 168 208 256 322 390
#     4  11  19  36  63  94 118 170 210 243 322 391
#     4  11  22  39  60  99 135 152 209 280 321 360
#     4  11  26  41  64  92 124 170 216 268 311 383
#     4  11  24  47  65  80 123 178 215 245 320 397
#
# _framework density 20.435593000000001
#
# number of rings (size 3 to 8) (size 9 to 14) (size 15 to 20)
#    0.000    1.429    5.714    0.857    0.000    2.286 
#    2.571    0.000    0.000    2.571    0.000    0.000 
#    0.000    0.000    0.000    0.000    0.000    0.000 
#
# Total GULP energy -346886.048193 kJ/mol
# GULP energy per Si atom -12388.787435 kJ/mol
# Density = 2.038908 g / cm^3
# Si number density = 20.435593 Si / 1000 Ang^3
#
#
#
# Elastic Constant Matrix: (Units=GPa)
#
#
# Indices 1 2 3 4 5 6 
#
# 1 86.6154 40.0608 42.1614 0.0004 -8.3558 0.0002
# 2 40.0608 73.3550 37.9542 0.0005 1.5458 0.0001
# 3 42.1614 37.9542 132.5192 0.0029 -0.5971 0.0005
# 4 0.0004 0.0005 0.0029 8.0696 0.0006 -0.9534
# 5 -8.3558 1.5458 -0.5971 0.0006 42.1514 0.0002
# 6 0.0002 0.0001 0.0005 -0.9534 0.0002 17.9881
#
#
#
# Elastic Compliance Matrix: (Units=1/GPa)
#
#
# Indices 1 2 3 4 5 6 
#
# 1 0.017015 -0.007720 -0.003186 0.000000 0.003611 0.000000
# 2 -0.007720 0.019524 -0.003146 0.000001 -0.002291 0.000000
# 3 -0.003186 -0.003146 0.009459 -0.000003 -0.000382 0.000000
# 4 0.000000 0.000001 -0.000003 0.124703 -0.000002 0.006609
# 5 0.003611 -0.002291 -0.000382 -0.000002 0.024518 0.000000
# 6 0.000000 0.000000 0.000000 0.006609 0.000000 0.055943
#
#
# Mechanical properties :
#
#
# Convention : Reuss Voigt Hill
#
# Bulk Modulus (GPa) = 55.88352 59.20469 57.54410
# Shear Modulus (GPa) = 17.52960 25.12936 21.32948
#
# Velocity S-wave (km/s) = 2.93200 3.51049 3.23420
# Velocity P-wave (km/s) = 6.23439 6.74282 6.49359
#
# Compressibility (1/GPa) = 0.01789436
#
# Stress axis : x y z
#
# Youngs Moduli (GPa) = 58.77138 51.21788 105.71851
#
# Poissons Ratio (x) = 0.39540 0.33683
# Poissons Ratio (y) = 0.45371 0.33260
# Poissons Ratio (z) = 0.18725 0.16114
#
# Static dielectric constant tensor:
#      x y z
#    x 4.121810 0.000000 0.068070 
#    y 0.000000 3.209560 0.000000 
#    z 0.068070 0.000000 3.957660 
# 
# 
# High freq. dielectric constant tensor:
#      x y z
#    x 1.807280 0.000000 0.009610 
#    y 0.000000 1.737670 0.000000 
#    z 0.009610 0.000000 1.819930 
# 
# From -- ./inp_files/296593.got.cif
#   From: 2010.06.25/outbox.cif.g09.slc.cpg/sg15_149_cif.got.tgz:296593.got - 2010.06.28 07:06:18.
