data_PCOD8134646
_publ_section_title
;
Structure prediction by ZEFSAII (Michael W. Deem and Ramdas Pophale) SiO2 
 PCOD8134646
Probable space group: C 2/C
;
_chemical_formula_sum "Si O2"
_cell_formula_units_Z 52
_cell_length_a 21.830967
_cell_length_b 10.108908
_cell_length_c 14.586707
_cell_angle_alpha 90.000000
_cell_angle_beta 54.496755
_cell_angle_gamma 90.000000
_cell_volume 2620.613441
_symmetry_space_group_name_H-M "C 2/C"
_symmetry_group_IT_number 15
_symmetry_cell_setting 'monoclinic'
loop_
_space_group_symop_operation_xyz
x,y,z
-x,y,1/2-z
-x,-y,-z
x,-y,1/2+z
1/2+x,1/2+y,z
1/2-x,1/2+y,1/2-z
1/2-x,1/2-y,-z
1/2+x,1/2-y,1/2+z
loop_
_atom_site_type_symbol
_atom_site_label
_atom_site_fract_x
_atom_site_fract_y
_atom_site_fract_z
Si Si1 0.539765 0.131789 0.550981
Si Si2 0.670901 0.303549 0.457574
Si Si3 0.242338 0.953432 0.552816
Si Si4 0.000000 0.443367 0.750000
Si Si5 0.773431 0.841859 0.290125
Si Si6 0.156086 0.403958 0.670445
Si Si7 0.882102 0.421838 0.137106
O O1 0.582506 0.266325 0.541016
O O2 0.457370 0.168019 0.581571
O O3 0.531706 0.035742 0.643225
O O4 0.593402 0.060164 0.430326
O O5 0.721794 0.175537 0.432880
O O6 0.684461 0.415117 0.522508
O O7 0.688861 0.360342 0.341590
O O8 0.200192 0.034195 0.670089
O O9 0.304448 0.053957 0.458193
O O10 0.929662 0.354367 0.776491
O O11 0.797133 0.706506 0.317477
O O12 0.682029 0.842905 0.361955
O O13 0.151940 0.538254 0.734410
#
# Coordination Sequence:
#
# PCOD8134646 Si02
#       7
#     8   8   8   4   8   8   8
#     4  10  19  36  59  88 120 154 199 264 301 349
#     4  11  22  39  62  89 129 160 204 257 305 367
#     4  11  23  37  58  92 122 163 204 247 305 371
#     4  10  20  34  60  90 122 148 212 256 308 350
#     4  12  21  37  62  92 126 159 202 252 313 364
#     4  11  20  36  60  91 122 158 199 260 304 365
#     4  10  20  35  59  93 122 153 205 254 308 357
#
# _framework density 19.842682
#
# number of rings (size 3 to 8) (size 9 to 14) (size 15 to 20)
#    0.000    1.231    6.154    0.462    0.000    0.000 
#    0.000    0.000    0.000    5.538    0.000    0.000 
#    0.000    0.000    0.000    0.000    0.000    0.000 
#
# Total GULP energy -322349.106684 kJ/mol
# GULP energy per Si atom -12398.042565 kJ/mol
# Density = 1.979752 g / cm^3
# Si number density = 19.842682 Si / 1000 Ang^3
#
#
#
# Elastic Constant Matrix: (Units=GPa)
#
#
# Indices 1 2 3 4 5 6 
#
# 1 153.5917 60.8052 49.7082 0.0000 -13.7650 0.0000
# 2 60.8052 64.8664 34.8518 0.0000 -3.6847 0.0000
# 3 49.7082 34.8518 77.2624 0.0000 14.5572 0.0000
# 4 0.0000 0.0000 0.0000 27.7165 0.0000 8.3628
# 5 -13.7650 -3.6847 14.5572 0.0000 39.4032 0.0000
# 6 0.0000 0.0000 0.0000 8.3628 0.0000 45.2732
#
#
#
# Elastic Compliance Matrix: (Units=1/GPa)
#
#
# Indices 1 2 3 4 5 6 
#
# 1 0.011764 -0.008112 -0.004880 0.000000 0.005154 0.000000
# 2 -0.008112 0.027203 -0.007520 0.000000 0.002488 0.000000
# 3 -0.004880 -0.007520 0.021419 0.000000 -0.010321 0.000000
# 4 0.000000 0.000000 0.000000 0.038209 0.000000 -0.007058
# 5 0.005154 0.002488 -0.010321 0.000000 0.031225 0.000000
# 6 0.000000 0.000000 0.000000 -0.007058 0.000000 0.023392
#
#
# Mechanical properties :
#
#
# Convention : Reuss Voigt Hill
#
# Bulk Modulus (GPa) = 51.65154 65.16121 58.40637
# Shear Modulus (GPa) = 24.91402 32.50225 28.70814
#
# Velocity S-wave (km/s) = 3.54726 4.05161 3.80779
# Velocity P-wave (km/s) = 6.54709 7.40254 6.98792
#
# Compressibility (1/GPa) = 0.01936051
#
# Stress axis : x y z
#
# Youngs Moduli (GPa) = 85.00793 36.76115 46.68655
#
# Poissons Ratio (x) = 0.29822 0.22783
# Poissons Ratio (y) = 0.68962 0.35109
# Poissons Ratio (z) = 0.41484 0.27645
#
# Static dielectric constant tensor:
#      x y z
#    x 4.443570 0.000000 0.660760 
#    y 0.000000 3.226140 0.000000 
#    z 0.660760 0.000000 4.571650 
# 
# 
# High freq. dielectric constant tensor:
#      x y z
#    x 1.792530 0.000000 0.017820 
#    y 0.000000 1.721160 0.000000 
#    z 0.017820 0.000000 1.780740 
# 
# From -- ./inp_files/167573.got.cif
#   From: 2010.06.25/outbox.cif.g09.slc.cpg/sg15_84_cif.got.tgz:167573.got - 2010.06.28 07:06:18.
