data_PCOD8134062
_publ_section_title
;
Structure prediction by ZEFSAII (Michael W. Deem and Ramdas Pophale) SiO2 
 PCOD8134062
Probable space group: C 2/C
;
_chemical_formula_sum "Si O2"
_cell_formula_units_Z 56
_cell_length_a 16.545887
_cell_length_b 14.669252
_cell_length_c 12.540976
_cell_angle_alpha 90.000000
_cell_angle_beta 110.324206
_cell_angle_gamma 90.000000
_cell_volume 2854.387017
_symmetry_space_group_name_H-M "C 2/C"
_symmetry_group_IT_number 15
_symmetry_cell_setting 'monoclinic'
loop_
_space_group_symop_operation_xyz
x,y,z
-x,y,1/2-z
-x,-y,-z
x,-y,1/2+z
1/2+x,1/2+y,z
1/2-x,1/2+y,1/2-z
1/2-x,1/2-y,-z
1/2+x,1/2-y,1/2+z
loop_
_atom_site_type_symbol
_atom_site_label
_atom_site_fract_x
_atom_site_fract_y
_atom_site_fract_z
Si Si1 0.728951 0.047071 0.351850
Si Si2 0.747170 0.866994 0.248105
Si Si3 0.930837 0.405475 0.412896
Si Si4 0.817148 0.830189 0.053164
Si Si5 0.614177 0.058532 0.963952
Si Si6 0.517445 0.784658 0.876120
Si Si7 0.169654 0.691527 0.147004
O O1 0.774254 0.962815 0.313158
O O2 0.652733 0.002813 0.388399
O O3 0.802089 0.090610 0.460126
O O4 0.691633 0.124784 0.256645
O O5 0.643510 0.859277 0.190641
O O6 0.797933 0.868369 0.160901
O O7 0.767245 0.777999 0.327661
O O8 0.901305 0.507626 0.429115
O O9 0.936164 0.360449 0.532018
O O10 0.019628 0.403916 0.385963
O O11 0.917528 0.801592 0.095440
O O12 0.750000 0.750000 0.000000
O O13 0.675826 0.140723 0.034449
O O14 0.500000 0.822825 0.750000
O O15 0.424797 0.762548 0.884167
#
# Coordination Sequence:
#
# PCOD8134062 Si02
#       7
#     8   8   8   8   8   8   8
#     4  12  22  39  62  88 126 160 191 254 302 356
#     4  12  23  38  57  89 122 158 205 238 296 363
#     4  10  19  35  54  89 125 143 196 247 298 370
#     4  12  20  38  61  88 118 158 203 245 294 354
#     4  10  21  35  54  89 122 153 191 245 309 356
#     4  11  19  32  62  89 114 153 198 254 297 338
#     4  11  22  38  60  88 119 160 201 247 301 356
#
# _framework density 19.618922000000001
#
# number of rings (size 3 to 8) (size 9 to 14) (size 15 to 20)
#    0.000    0.857    7.143    0.857    0.000    1.143 
#    2.571    0.714    0.000    0.000    0.000    0.000 
#    0.000    0.000    0.000    0.000    0.000    0.000 
#
# Total GULP energy -347006.986006 kJ/mol
# GULP energy per Si atom -12393.106643 kJ/mol
# Density = 1.957427 g / cm^3
# Si number density = 19.618922 Si / 1000 Ang^3
#
#
#
# Elastic Constant Matrix: (Units=GPa)
#
#
# Indices 1 2 3 4 5 6 
#
# 1 59.9598 42.8574 17.0253 0.0000 7.9286 0.0000
# 2 42.8574 121.2568 50.0988 0.0000 10.7413 0.0000
# 3 17.0253 50.0988 53.8523 0.0000 10.2964 0.0000
# 4 0.0000 0.0000 0.0000 47.8578 0.0000 1.9615
# 5 7.9286 10.7413 10.2964 0.0000 28.8214 0.0000
# 6 0.0000 0.0000 0.0000 1.9615 0.0000 36.6568
#
#
#
# Elastic Compliance Matrix: (Units=1/GPa)
#
#
# Indices 1 2 3 4 5 6 
#
# 1 0.022663 -0.008147 0.001101 0.000000 -0.003592 0.000000
# 2 -0.008147 0.016333 -0.012755 0.000000 0.000711 0.000000
# 3 0.001101 -0.012755 0.031380 0.000000 -0.006760 0.000000
# 4 0.000000 0.000000 0.000000 0.020941 0.000000 -0.001121
# 5 -0.003592 0.000711 -0.006760 0.000000 0.037834 0.000000
# 6 0.000000 0.000000 0.000000 -0.001121 0.000000 0.027340
#
#
# Mechanical properties :
#
#
# Convention : Reuss Voigt Hill
#
# Bulk Modulus (GPa) = 32.49499 50.55908 41.52704
# Shear Modulus (GPa) = 24.23032 31.00638 27.61835
#
# Velocity S-wave (km/s) = 3.51814 3.97978 3.75606
# Velocity P-wave (km/s) = 5.75344 6.85162 6.32641
#
# Compressibility (1/GPa) = 0.03077397
#
# Stress axis : x y z
#
# Youngs Moduli (GPa) = 44.12424 61.22407 31.86745
#
# Poissons Ratio (x) = 0.49878 -0.03508
# Poissons Ratio (y) = 0.35947 0.40648
# Poissons Ratio (z) = -0.04857 0.78093
#
# Static dielectric constant tensor:
#      x y z
#    x 3.502770 0.000000 0.169030 
#    y 0.000000 3.702320 0.000000 
#    z 0.169030 0.000000 3.738690 
# 
# 
# High freq. dielectric constant tensor:
#      x y z
#    x 1.743160 0.000000 0.008130 
#    y 0.000000 1.752900 0.000000 
#    z 0.008130 0.000000 1.772670 
# 
# From -- ./inp_files/161014.got.cif
#   From: 2010.06.25/outbox.cif.g09.slc.cpg/sg15_81_cif.got.tgz:161014.got - 2010.06.28 07:06:18.
