data_PCOD8134612
_publ_section_title
;
Structure prediction by ZEFSAII (Michael W. Deem and Ramdas Pophale) SiO2 
 PCOD8134612
Probable space group: C 2/C
;
_chemical_formula_sum "Si O2"
_cell_formula_units_Z 48
_cell_length_a 12.722901
_cell_length_b 18.204633
_cell_length_c 15.138947
_cell_angle_alpha 90.000000
_cell_angle_beta 137.586152
_cell_angle_gamma 90.000000
_cell_volume 2365.012097
_symmetry_space_group_name_H-M "C 2/C"
_symmetry_group_IT_number 15
_symmetry_cell_setting 'monoclinic'
loop_
_space_group_symop_operation_xyz
x,y,z
-x,y,1/2-z
-x,-y,-z
x,-y,1/2+z
1/2+x,1/2+y,z
1/2-x,1/2+y,1/2-z
1/2-x,1/2-y,-z
1/2+x,1/2-y,1/2+z
loop_
_atom_site_type_symbol
_atom_site_label
_atom_site_fract_x
_atom_site_fract_y
_atom_site_fract_z
Si Si1 0.326624 0.802822 0.119437
Si Si2 0.197414 0.939762 0.962713
Si Si3 0.296152 0.243238 0.293164
Si Si4 0.661620 0.593952 0.252367
Si Si5 0.639691 0.724884 0.011284
Si Si6 0.636415 0.444291 0.554384
O O1 0.500000 0.776710 0.250000
O O2 0.231816 0.808652 0.153703
O O3 0.250000 0.750000 0.000000
O O4 0.327231 0.884121 0.078606
O O5 0.216673 0.954788 0.869690
O O6 0.026017 0.905126 0.873447
O O7 0.227133 0.016644 0.030838
O O8 0.223231 0.175909 0.303541
O O9 0.479408 0.233105 0.391447
O O10 0.211684 0.254985 0.147272
O O11 0.736880 0.564563 0.206914
O O12 0.750000 0.750000 0.000000
O O13 0.600139 0.637503 0.994082
O O14 0.500000 0.500000 0.500000
#
# Coordination Sequence:
#
# PCOD8134612 Si02
#       6
#     8   8   8   8   8   8
#     4  12  22  35  61  96 129 162 205 259 319 379
#     4  10  19  36  58  92 122 159 211 254 307 378
#     4  11  21  38  61  88 128 159 207 254 315 372
#     4   9  18  34  61  86 119 164 197 252 320 360
#     4  11  24  43  63  92 121 171 214 262 312 376
#     4   9  19  39  62  89 122 164 213 259 309 377
#
# _framework density 20.295878999999999
#
# number of rings (size 3 to 8) (size 9 to 14) (size 15 to 20)
#    0.000    1.667    1.667    5.500    0.000    0.000 
#   15.000    3.333    0.000    2.000    0.000    0.000 
#    0.000    0.000    0.000    0.000    0.000    0.000 
#
# Total GULP energy -297328.697352 kJ/mol
# GULP energy per Si atom -12388.695723 kJ/mol
# Density = 2.024968 g / cm^3
# Si number density = 20.295879 Si / 1000 Ang^3
#
#
#
# Elastic Constant Matrix: (Units=GPa)
#
#
# Indices 1 2 3 4 5 6 
#
# 1 91.6161 28.1100 46.7578 -0.0004 -14.9249 -0.0002
# 2 28.1100 82.8503 41.8101 -0.0003 -16.9195 -0.0001
# 3 46.7578 41.8101 136.8150 -0.0007 -15.1869 -0.0004
# 4 -0.0004 -0.0003 -0.0007 21.8881 -0.0006 -9.6740
# 5 -14.9249 -16.9195 -15.1869 -0.0006 47.4251 -0.0003
# 6 -0.0002 -0.0001 -0.0004 -9.6740 -0.0003 34.9424
#
#
#
# Elastic Compliance Matrix: (Units=1/GPa)
#
#
# Indices 1 2 3 4 5 6 
#
# 1 0.013950 -0.002341 -0.003792 0.000000 0.002340 0.000000
# 2 -0.002341 0.015368 -0.003494 0.000000 0.003627 0.000000
# 3 -0.003792 -0.003494 0.009749 0.000000 0.000682 0.000000
# 4 0.000000 0.000000 0.000000 0.052057 0.000001 0.014412
# 5 0.002340 0.003627 0.000682 0.000001 0.023335 0.000000
# 6 0.000000 0.000000 0.000000 0.014412 0.000000 0.032609
#
#
# Mechanical properties :
#
#
# Convention : Reuss Voigt Hill
#
# Bulk Modulus (GPa) = 50.47375 60.51525 55.49450
# Shear Modulus (GPa) = 28.91409 33.82468 31.36939
#
# Velocity S-wave (km/s) = 3.77852 4.08680 3.93568
# Velocity P-wave (km/s) = 6.63018 7.22153 6.93216
#
# Compressibility (1/GPa) = 0.01981228
#
# Stress axis : x y z
#
# Youngs Moduli (GPa) = 71.68323 65.06961 102.57957
#
# Poissons Ratio (x) = 0.15235 0.38901
# Poissons Ratio (y) = 0.16784 0.35837
# Poissons Ratio (z) = 0.27185 0.22733
#
# Static dielectric constant tensor:
#      x y z
#    x 3.885920 0.000000 -0.450860 
#    y 0.000000 3.758760 0.000000 
#    z -0.450860 0.000000 3.866040 
# 
# 
# High freq. dielectric constant tensor:
#      x y z
#    x 1.783700 0.000000 -0.033770 
#    y 0.000000 1.774900 0.000000 
#    z -0.033770 0.000000 1.798890 
# 
# From -- ./inp_files/155275.got.cif
#   From: 2010.06.25/outbox.cif.g09.slc.cpg/sg15_78_cif.got.tgz:155275.got - 2010.06.28 07:06:18.
