data_PCOD8134215
_publ_section_title
;
Structure prediction by ZEFSAII (Michael W. Deem and Ramdas Pophale) SiO2 
 PCOD8134215
Probable space group: C 2/C
;
_chemical_formula_sum "Si O2"
_cell_formula_units_Z 56
_cell_length_a 9.266824
_cell_length_b 27.722254
_cell_length_c 11.475393
_cell_angle_alpha 90.000000
_cell_angle_beta 65.929316
_cell_angle_gamma 90.000000
_cell_volume 2691.647878
_symmetry_space_group_name_H-M "C 2/C"
_symmetry_group_IT_number 15
_symmetry_cell_setting 'monoclinic'
loop_
_space_group_symop_operation_xyz
x,y,z
-x,y,1/2-z
-x,-y,-z
x,-y,1/2+z
1/2+x,1/2+y,z
1/2-x,1/2+y,1/2-z
1/2-x,1/2-y,-z
1/2+x,1/2-y,1/2+z
loop_
_atom_site_type_symbol
_atom_site_label
_atom_site_fract_x
_atom_site_fract_y
_atom_site_fract_z
Si Si1 0.002453 0.410154 0.885957
Si Si2 0.934643 0.207886 0.026691
Si Si3 0.810064 0.086555 0.416795
Si Si4 0.500000 0.330312 0.750000
Si Si5 0.695555 0.574910 0.624806
Si Si6 0.607671 0.619675 0.872693
Si Si7 0.000000 0.991021 0.750000
Si Si8 0.072213 0.301775 0.604885
O O1 0.004282 0.352674 0.903617
O O2 0.000000 0.423978 0.750000
O O3 0.153926 0.432492 0.901928
O O4 0.851362 0.433298 0.998746
O O5 0.760060 0.191054 0.048311
O O6 0.948596 0.203923 0.161108
O O7 0.970652 0.262879 0.979863
O O8 0.060188 0.174401 0.917884
O O9 0.781938 0.098227 0.561492
O O10 0.950185 0.046047 0.369647
O O11 0.856106 0.135540 0.334769
O O12 0.707485 0.617465 0.718962
O O13 0.552501 0.587744 0.584358
O O14 0.653174 0.526078 0.712750
O O15 0.000000 0.282814 0.750000
#
# Coordination Sequence:
#
# PCOD8134215 Si02
#       8
#     8   8   8   4   8   8   4   8
#     4  11  23  40  58  89 124 156 189 249 302 346
#     4  10  19  35  58  83 114 159 204 242 280 353
#     4  10  21  38  63  86 119 155 195 241 300 354
#     4   9  18  36  58  84 116 156 200 240 286 345
#     4  10  22  39  63  88 118 149 200 248 291 353
#     4   9  20  38  62  87 115 159 196 242 287 350
#     4   9  22  40  66  92 108 154 208 234 292 363
#     4  10  21  33  56  84 115 156 203 242 288 347
#
# _framework density 20.805099999999999
#
# number of rings (size 3 to 8) (size 9 to 14) (size 15 to 20)
#    0.000    2.286    1.429    1.714    6.000    3.429 
#    0.000    7.857    0.000    0.000    0.000    0.000 
#    0.000    0.000    0.000    0.000    0.000    0.000 
#
# Total GULP energy -346960.216428 kJ/mol
# GULP energy per Si atom -12391.436301 kJ/mol
# Density = 2.075775 g / cm^3
# Si number density = 20.805100 Si / 1000 Ang^3
#
#
#
# Elastic Constant Matrix: (Units=GPa)
#
#
# Indices 1 2 3 4 5 6 
#
# 1 89.6004 19.7069 52.7432 0.0000 10.6526 0.0000
# 2 19.7069 82.4751 40.6165 0.0000 6.9272 0.0000
# 3 52.7432 40.6165 144.9460 0.0000 2.0193 0.0000
# 4 0.0000 0.0000 0.0000 21.1959 0.0000 -4.0932
# 5 10.6526 6.9272 2.0193 0.0000 36.1264 0.0000
# 6 0.0000 0.0000 0.0000 -4.0932 0.0000 15.7096
#
#
#
# Elastic Compliance Matrix: (Units=1/GPa)
#
#
# Indices 1 2 3 4 5 6 
#
# 1 0.014806 -0.000673 -0.005144 0.000000 -0.003949 0.000000
# 2 -0.000673 0.014322 -0.003736 0.000000 -0.002339 0.000000
# 3 -0.005144 -0.003736 0.009794 0.000000 0.001686 0.000000
# 4 0.000000 0.000000 0.000000 0.049679 0.000000 0.012944
# 5 -0.003949 -0.002339 0.001686 0.000000 0.029199 0.000000
# 6 0.000000 0.000000 0.000000 0.012944 0.000000 0.067028
#
#
# Mechanical properties :
#
#
# Convention : Reuss Voigt Hill
#
# Bulk Modulus (GPa) = 50.46201 60.35051 55.40626
# Shear Modulus (GPa) = 23.74850 28.20340 25.97595
#
# Velocity S-wave (km/s) = 3.38224 3.68584 3.53730
# Velocity P-wave (km/s) = 6.28967 6.86909 6.58576
#
# Compressibility (1/GPa) = 0.01981689
#
# Stress axis : x y z
#
# Youngs Moduli (GPa) = 67.53878 69.82324 102.09951
#
# Poissons Ratio (x) = 0.04698 0.52522
# Poissons Ratio (y) = 0.04544 0.38143
# Poissons Ratio (z) = 0.34743 0.26085
#
# Static dielectric constant tensor:
#      x y z
#    x 3.494840 0.000000 -0.070670 
#    y 0.000000 3.748880 0.000000 
#    z -0.070670 0.000000 3.858850 
# 
# 
# High freq. dielectric constant tensor:
#      x y z
#    x 1.786020 0.000000 -0.003500 
#    y 0.000000 1.805870 0.000000 
#    z -0.003500 0.000000 1.819020 
# 
# From -- ./inp_files/81296.got.cif
#   From: 2010.06.25/outbox.cif.g09.slc.cpg/sg15_41_cif.got.tgz:81296.got - 2010.06.28 07:06:18.
