data_PCOD8134765
_publ_section_title
;
Structure prediction by ZEFSAII (Michael W. Deem and Ramdas Pophale) SiO2 
 PCOD8134765
Probable space group: C 2/C
;
_chemical_formula_sum "Si O2"
_cell_formula_units_Z 56
_cell_length_a 16.572035
_cell_length_b 11.168037
_cell_length_c 18.042520
_cell_angle_alpha 90.000000
_cell_angle_beta 56.532884
_cell_angle_gamma 90.000000
_cell_volume 2785.616637
_symmetry_space_group_name_H-M "C 2/C"
_symmetry_group_IT_number 15
_symmetry_cell_setting 'monoclinic'
loop_
_space_group_symop_operation_xyz
x,y,z
-x,y,1/2-z
-x,-y,-z
x,-y,1/2+z
1/2+x,1/2+y,z
1/2-x,1/2+y,1/2-z
1/2-x,1/2-y,-z
1/2+x,1/2-y,1/2+z
loop_
_atom_site_type_symbol
_atom_site_label
_atom_site_fract_x
_atom_site_fract_y
_atom_site_fract_z
Si Si1 0.886623 0.026959 0.550828
Si Si2 0.514367 0.865042 0.067502
Si Si3 0.165414 0.940269 0.716661
Si Si4 0.389586 0.917193 0.631639
Si Si5 0.652223 0.297373 0.859300
Si Si6 0.346404 0.677262 0.713149
Si Si7 0.650480 0.313687 0.567415
O O1 0.844593 0.120266 0.632069
O O2 0.865872 0.079262 0.481326
O O3 0.828084 0.901537 0.589960
O O4 0.000000 0.000000 0.500000
O O5 0.433895 0.785106 0.066778
O O6 0.568704 0.789871 0.104018
O O7 0.459351 0.980296 0.130434
O O8 0.589477 0.901111 0.966058
O O9 0.276217 0.949667 0.690061
O O10 0.111344 0.858731 0.804543
O O11 0.149974 0.878593 0.646421
O O12 0.118354 0.074941 0.745973
O O13 0.409887 0.798560 0.671952
O O14 0.742122 0.214336 0.795974
O O15 0.750000 0.250000 0.500000
#
# Coordination Sequence:
#
# PCOD8134765 Si02
#       7
#     8   8   8   8   8   8   8
#     4  11  21  39  64  88 121 169 212 247 303 382
#     4  11  20  35  64  91 122 158 213 250 308 375
#     4  10  21  35  60  91 127 156 203 264 321 346
#     4  10  19  36  61  94 118 169 206 254 300 386
#     4  10  20  36  61  91 116 164 209 253 304 378
#     4  10  19  38  60  89 125 161 209 254 306 379
#     4  12  22  39  60  97 126 157 206 272 309 361
#
# _framework density 20.103269000000001
#
# number of rings (size 3 to 8) (size 9 to 14) (size 15 to 20)
#    0.000    1.429    5.714    0.857    0.000    0.571 
#    0.000    0.714    0.000    1.714    0.000    0.000 
#    0.000    0.000    0.000    0.000    0.000    0.000 
#
# Total GULP energy -346901.555903 kJ/mol
# GULP energy per Si atom -12389.341282 kJ/mol
# Density = 2.005751 g / cm^3
# Si number density = 20.103269 Si / 1000 Ang^3
#
#
#
# Elastic Constant Matrix: (Units=GPa)
#
#
# Indices 1 2 3 4 5 6 
#
# 1 53.2547 37.6656 19.4756 0.0000 6.0482 0.0000
# 2 37.6656 151.1096 33.1339 0.0000 13.0267 0.0000
# 3 19.4756 33.1339 58.8143 0.0000 6.2552 0.0000
# 4 0.0000 0.0000 0.0000 52.4189 0.0000 -6.3905
# 5 6.0482 13.0267 6.2552 0.0000 31.7987 0.0000
# 6 0.0000 0.0000 0.0000 -6.3905 0.0000 29.5374
#
#
#
# Elastic Compliance Matrix: (Units=1/GPa)
#
#
# Indices 1 2 3 4 5 6 
#
# 1 0.024221 -0.004764 -0.005162 0.000000 -0.001640 0.000000
# 2 -0.004764 0.008657 -0.003083 0.000000 -0.002034 0.000000
# 3 -0.005162 -0.003083 0.020642 0.000000 -0.001816 0.000000
# 4 0.000000 0.000000 0.000000 0.019594 0.000000 0.004239
# 5 -0.001640 -0.002034 -0.001816 0.000000 0.032950 0.000000
# 6 0.000000 0.000000 0.000000 0.004239 0.000000 0.034773
#
#
# Mechanical properties :
#
#
# Convention : Reuss Voigt Hill
#
# Bulk Modulus (GPa) = 36.36192 49.30319 42.83255
# Shear Modulus (GPa) = 28.40555 34.27790 31.34172
#
# Velocity S-wave (km/s) = 3.76304 4.13375 3.95275
# Velocity P-wave (km/s) = 6.08338 6.88201 6.49498
#
# Compressibility (1/GPa) = 0.02750130
#
# Stress axis : x y z
#
# Youngs Moduli (GPa) = 41.28596 115.51970 48.44492
#
# Poissons Ratio (x) = 0.55035 0.25008
# Poissons Ratio (y) = 0.19669 0.14935
# Poissons Ratio (z) = 0.21313 0.35614
#
# Static dielectric constant tensor:
#      x y z
#    x 3.271070 0.000000 -0.247190 
#    y 0.000000 4.339760 0.000000 
#    z -0.247190 0.000000 3.820810 
# 
# 
# High freq. dielectric constant tensor:
#      x y z
#    x 1.726040 0.000000 -0.030060 
#    y 0.000000 1.815390 0.000000 
#    z -0.030060 0.000000 1.797840 
# 
# From -- ./inp_files/204359.got.cif
#   From: 2010.06.25/outbox.cif.g09.slc.cpg/sg15_103_cif.got.tgz:204359.got - 2010.06.28 07:06:18.
