data_PCOD8134644
_publ_section_title
;
Structure prediction by ZEFSAII (Michael W. Deem and Ramdas Pophale) SiO2 
 PCOD8134644
Probable space group: C 2/C
;
_chemical_formula_sum "Si O2"
_cell_formula_units_Z 52
_cell_length_a 29.818758
_cell_length_b 16.023205
_cell_length_c 17.664158
_cell_angle_alpha 90.000000
_cell_angle_beta 160.666734
_cell_angle_gamma 90.000000
_cell_volume 2794.097906
_symmetry_space_group_name_H-M "C 2/C"
_symmetry_group_IT_number 15
_symmetry_cell_setting 'monoclinic'
loop_
_space_group_symop_operation_xyz
x,y,z
-x,y,1/2-z
-x,-y,-z
x,-y,1/2+z
1/2+x,1/2+y,z
1/2-x,1/2+y,1/2-z
1/2-x,1/2-y,-z
1/2+x,1/2-y,1/2+z
loop_
_atom_site_type_symbol
_atom_site_label
_atom_site_fract_x
_atom_site_fract_y
_atom_site_fract_z
Si Si1 0.000000 0.715999 0.250000
Si Si2 0.584440 0.762565 0.532693
Si Si3 0.075690 0.889259 0.798847
Si Si4 0.826223 0.291057 0.191962
Si Si5 0.039712 0.043510 0.639323
Si Si6 0.845804 0.184595 0.373648
Si Si7 0.243276 0.816809 0.422588
O O1 0.073488 0.772006 0.430018
O O2 0.108133 0.660386 0.375119
O O3 0.510247 0.689018 0.368649
O O4 0.469906 0.823352 0.386781
O O5 0.685854 0.816360 0.641169
O O6 0.660867 0.720177 0.722640
O O7 0.000000 0.925306 0.750000
O O8 0.089865 0.967700 0.768651
O O9 0.229529 0.864475 0.067291
O O10 0.860508 0.228815 0.315673
O O11 0.750000 0.250000 0.000000
O O12 0.170609 0.101885 0.838929
O O13 0.909315 0.092390 0.465602
O O14 0.000000 0.000000 0.500000
O O15 0.250000 0.750000 0.500000
#
# Coordination Sequence:
#
# PCOD8134644 Si02
#       7
#     4   8   8   8   8   8   8
#     4  10  22  36  64  90 112 160 214 252 284 354
#     4  10  20  37  63  88 115 162 205 247 293 364
#     4  11  22  36  59  90 125 154 196 256 313 350
#     4  10  19  36  59  87 120 161 200 247 297 367
#     4  12  23  39  59  92 124 160 195 258 313 352
#     4  11  21  38  63  92 119 160 216 243 296 374
#     4  11  20  38  62  89 120 160 209 244 293 370
#
# _framework density 18.610658000000001
#
# number of rings (size 3 to 8) (size 9 to 14) (size 15 to 20)
#    0.000    1.231    6.154    0.923    1.077    0.000 
#    0.000    1.538    0.000    2.769    0.000    0.000 
#    0.000    0.000    0.000    0.000    0.000    0.000 
#
# Total GULP energy -322128.074213 kJ/mol
# GULP energy per Si atom -12389.541316 kJ/mol
# Density = 1.856830 g / cm^3
# Si number density = 18.610658 Si / 1000 Ang^3
#
#
#
# Elastic Constant Matrix: (Units=GPa)
#
#
# Indices 1 2 3 4 5 6 
#
# 1 85.2844 4.0326 32.9159 0.0000 26.9360 0.0000
# 2 4.0326 59.0835 18.8432 0.0000 20.1645 0.0000
# 3 32.9159 18.8432 90.4095 0.0000 33.3758 0.0000
# 4 0.0000 0.0000 0.0000 20.2357 0.0000 1.9648
# 5 26.9360 20.1645 33.3758 0.0000 59.6577 0.0000
# 6 0.0000 0.0000 0.0000 1.9648 0.0000 33.5402
#
#
#
# Elastic Compliance Matrix: (Units=1/GPa)
#
#
# Indices 1 2 3 4 5 6 
#
# 1 0.014762 0.001994 -0.003883 0.000000 -0.005167 0.000000
# 2 0.001994 0.019698 -0.002573 0.000000 -0.006119 0.000000
# 3 -0.003883 -0.002573 0.015177 0.000000 -0.005868 0.000000
# 4 0.000000 0.000000 0.000000 0.049700 0.000000 -0.002911
# 5 -0.005167 -0.006119 -0.005868 0.000000 0.024447 0.000000
# 6 0.000000 0.000000 0.000000 -0.002911 0.000000 0.029986
#
#
# Mechanical properties :
#
#
# Convention : Reuss Voigt Hill
#
# Bulk Modulus (GPa) = 24.56128 38.48453 31.52291
# Shear Modulus (GPa) = 28.36689 34.61910 31.49299
#
# Velocity S-wave (km/s) = 3.90837 4.31765 4.11810
# Velocity P-wave (km/s) = 5.79597 6.75128 6.29178
#
# Compressibility (1/GPa) = 0.04071448
#
# Stress axis : x y z
#
# Youngs Moduli (GPa) = 67.74351 50.76683 65.88997
#
# Poissons Ratio (x) = -0.10124 0.25582
# Poissons Ratio (y) = -0.13509 0.16950
# Poissons Ratio (z) = 0.26301 0.13060
#
# Static dielectric constant tensor:
#      x y z
#    x 3.962900 0.000000 0.381870 
#    y 0.000000 3.138620 0.000000 
#    z 0.381870 0.000000 4.149970 
# 
# 
# High freq. dielectric constant tensor:
#      x y z
#    x 1.754490 0.000000 0.005150 
#    y 0.000000 1.675810 0.000000 
#    z 0.005150 0.000000 1.739650 
# 
# From -- ./inp_files/145050.got.cif
#   From: 2010.06.25/outbox.cif.g09.slc.cpg/sg15_73_cif.got.tgz:145050.got - 2010.06.28 07:06:18.
