data_PCOD8134534
_publ_section_title
;
Structure prediction by ZEFSAII (Michael W. Deem and Ramdas Pophale) SiO2 
 PCOD8134534
Probable space group: C 2/C
;
_chemical_formula_sum "Si O2"
_cell_formula_units_Z 64
_cell_length_a 8.704186
_cell_length_b 22.959885
_cell_length_c 16.554720
_cell_angle_alpha 90.000000
_cell_angle_beta 78.707814
_cell_angle_gamma 90.000000
_cell_volume 3244.366608
_symmetry_space_group_name_H-M "C 2/C"
_symmetry_group_IT_number 15
_symmetry_cell_setting 'monoclinic'
loop_
_space_group_symop_operation_xyz
x,y,z
-x,y,1/2-z
-x,-y,-z
x,-y,1/2+z
1/2+x,1/2+y,z
1/2-x,1/2+y,1/2-z
1/2-x,1/2-y,-z
1/2+x,1/2-y,1/2+z
loop_
_atom_site_type_symbol
_atom_site_label
_atom_site_fract_x
_atom_site_fract_y
_atom_site_fract_z
Si Si1 0.342694 0.843718 0.813992
Si Si2 0.175468 0.774190 0.248810
Si Si3 0.038585 0.960064 0.419172
Si Si4 0.185464 0.857251 0.105928
Si Si5 0.560439 0.572276 0.331641
Si Si6 0.586079 0.282314 0.434976
Si Si7 0.299866 0.616296 0.482149
Si Si8 0.518097 0.842037 0.526071
O O1 0.500000 0.860235 0.750000
O O2 0.244900 0.785792 0.792833
O O3 0.226553 0.897708 0.823919
O O4 0.389451 0.837831 0.901231
O O5 0.206962 0.834748 0.197148
O O6 0.197551 0.781748 0.342855
O O7 0.000000 0.754070 0.250000
O O8 0.181540 0.919466 0.435149
O O9 0.896084 0.920435 0.397872
O O10 0.089396 0.003215 0.342310
O O11 0.000000 0.000000 0.500000
O O12 0.082761 0.809760 0.069353
O O13 0.361297 0.860293 0.055553
O O14 0.500000 0.584793 0.250000
O O15 0.430216 0.596302 0.405914
O O16 0.671584 0.316940 0.497069
O O17 0.558266 0.220717 0.479515
O O18 0.125200 0.610977 0.462574
#
# Coordination Sequence:
#
# PCOD8134534 Si02
#       8
#     8   8   8   8   8   8   8   8
#     4  11  20  37  59  88 125 152 202 257 305 371
#     4   9  18  34  56  85 118 154 198 247 296 370
#     4   9  20  42  58  80 114 157 208 253 294 363
#     4  10  20  34  62  88 112 162 213 246 301 368
#     4  11  24  41  64  88 117 165 206 254 312 360
#     4  10  19  36  57  84 125 167 192 240 311 368
#     4  10  23  38  58  88 126 157 206 250 304 363
#     4  12  20  34  58  91 122 157 198 250 305 364
#
# _framework density 19.726500999999999
#
# number of rings (size 3 to 8) (size 9 to 14) (size 15 to 20)
#    0.000    1.750    3.750    3.750    1.750    2.500 
#    0.000    7.500    0.000    0.000    0.000    0.000 
#    0.000    0.000    0.000    0.000    0.000    0.000 
#
# Total GULP energy -396451.772058 kJ/mol
# GULP energy per Si atom -12389.117877 kJ/mol
# Density = 1.968160 g / cm^3
# Si number density = 19.726501 Si / 1000 Ang^3
#
#
#
# Elastic Constant Matrix: (Units=GPa)
#
#
# Indices 1 2 3 4 5 6 
#
# 1 84.0921 47.6747 36.2062 0.0000 -10.0115 0.0000
# 2 47.6747 128.0907 41.0763 0.0000 -7.1872 0.0000
# 3 36.2062 41.0763 75.6622 0.0000 -9.4773 0.0000
# 4 0.0000 0.0000 0.0000 25.0321 0.0000 4.5672
# 5 -10.0115 -7.1872 -9.4773 0.0000 22.3150 0.0000
# 6 0.0000 0.0000 0.0000 4.5672 0.0000 9.6711
#
#
#
# Elastic Compliance Matrix: (Units=1/GPa)
#
#
# Indices 1 2 3 4 5 6 
#
# 1 0.017185 -0.004474 -0.005291 0.000000 0.004022 0.000000
# 2 -0.004474 0.010635 -0.003649 0.000000 -0.000132 0.000000
# 3 -0.005291 -0.003649 0.018256 0.000000 0.004204 0.000000
# 4 0.000000 0.000000 0.000000 0.043715 0.000000 -0.020645
# 5 0.004022 -0.000132 0.004204 0.000000 0.048361 0.000000
# 6 0.000000 0.000000 0.000000 -0.020645 0.000000 0.113151
#
#
# Mechanical properties :
#
#
# Convention : Reuss Voigt Hill
#
# Bulk Modulus (GPa) = 51.95277 59.75103 55.85190
# Shear Modulus (GPa) = 17.57180 22.26282 19.91731
#
# Velocity S-wave (km/s) = 2.98782 3.36307 3.18098
# Velocity P-wave (km/s) = 6.18841 6.74061 6.47040
#
# Compressibility (1/GPa) = 0.01924825
#
# Stress axis : x y z
#
# Youngs Moduli (GPa) = 58.19075 94.02954 54.77584
#
# Poissons Ratio (x) = 0.42067 0.28981
# Poissons Ratio (y) = 0.26033 0.19989
# Poissons Ratio (z) = 0.30788 0.34314
#
# Static dielectric constant tensor:
#      x y z
#    x 3.304000 0.000000 0.134080 
#    y 0.000000 5.644680 0.000000 
#    z 0.134080 0.000000 3.792330 
# 
# 
# High freq. dielectric constant tensor:
#      x y z
#    x 1.743820 0.000000 0.010250 
#    y 0.000000 1.770350 0.000000 
#    z 0.010250 0.000000 1.769460 
# 
# From -- ./inp_files/192952.got.cif
#   From: 2010.06.25/outbox.cif.g09.slc.cpg/sg15_97_cif.got.tgz:192952.got - 2010.06.28 07:06:18.
