data_PCOD8134316
_publ_section_title
;
Structure prediction by ZEFSAII (Michael W. Deem and Ramdas Pophale) SiO2 
 PCOD8134316
Probable space group: C 2/C
;
_chemical_formula_sum "Si O2"
_cell_formula_units_Z 60
_cell_length_a 18.968483
_cell_length_b 8.667528
_cell_length_c 18.591883
_cell_angle_alpha 90.000000
_cell_angle_beta 65.632830
_cell_angle_gamma 90.000000
_cell_volume 2784.399656
_symmetry_space_group_name_H-M "C 2/C"
_symmetry_group_IT_number 15
_symmetry_cell_setting 'monoclinic'
loop_
_space_group_symop_operation_xyz
x,y,z
-x,y,1/2-z
-x,-y,-z
x,-y,1/2+z
1/2+x,1/2+y,z
1/2-x,1/2+y,1/2-z
1/2-x,1/2-y,-z
1/2+x,1/2-y,1/2+z
loop_
_atom_site_type_symbol
_atom_site_label
_atom_site_fract_x
_atom_site_fract_y
_atom_site_fract_z
Si Si1 0.821196 0.181736 0.514216
Si Si2 0.000000 0.899389 0.250000
Si Si3 0.544215 0.822796 0.127434
Si Si4 0.903275 0.821117 0.751430
Si Si5 0.254899 0.689035 0.697202
Si Si6 0.925438 0.666791 0.377559
Si Si7 0.291949 0.146397 0.314074
Si Si8 0.315844 0.325416 0.519064
O O1 0.750000 0.250000 0.500000
O O2 0.902042 0.263174 0.460212
O O3 0.806786 0.209872 0.604614
O O4 0.827765 0.002725 0.491430
O O5 0.987082 0.791822 0.324659
O O6 0.925274 0.005161 0.265094
O O7 0.587597 0.791381 0.184110
O O8 0.460661 0.737695 0.163253
O O9 0.531947 0.005992 0.125270
O O10 0.813764 0.817094 0.767518
O O11 0.307639 0.727442 0.744851
O O12 0.214559 0.522865 0.718134
O O13 0.859725 0.648551 0.344115
O O14 0.892925 0.729035 0.467679
O O15 0.209350 0.185876 0.387056
O O16 0.250000 0.250000 0.500000
#
# Coordination Sequence:
#
# PCOD8134316 Si02
#       8
#     8   4   8   8   8   8   8   8
#     4  11  19  34  59  86 111 154 196 241 284 348
#     4  10  22  32  60  88 114 148 194 244 288 342
#     4  10  19  35  60  84 114 147 194 239 292 334
#     4  10  20  37  57  89 114 155 188 239 292 349
#     4  11  23  38  60  83 125 151 195 232 293 351
#     4  11  20  37  59  89 115 147 194 250 284 338
#     4  10  23  37  56  85 116 159 183 240 288 348
#     4   9  19  34  54  84 112 139 195 244 288 325
#
# _framework density 21.548629999999999
#
# number of rings (size 3 to 8) (size 9 to 14) (size 15 to 20)
#    0.000    1.867    2.667    4.000    1.867    2.133 
#    0.000    0.000    2.933    4.000    0.000    0.000 
#    0.000    0.000    0.000    0.000    0.000    0.000 
#
# Total GULP energy -371912.623384 kJ/mol
# GULP energy per Si atom -12397.087446 kJ/mol
# Density = 2.149958 g / cm^3
# Si number density = 21.548630 Si / 1000 Ang^3
#
#
#
# Elastic Constant Matrix: (Units=GPa)
#
#
# Indices 1 2 3 4 5 6 
#
# 1 29.3470 7.9015 15.9977 0.0002 -9.8430 0.0003
# 2 7.9015 134.2851 41.3938 0.0004 -5.9302 0.0007
# 3 15.9977 41.3938 110.4057 0.0001 -16.5463 0.0002
# 4 0.0002 0.0004 0.0001 39.1788 0.0000 -7.8096
# 5 -9.8430 -5.9302 -16.5463 0.0000 32.5251 0.0001
# 6 0.0003 0.0007 0.0002 -7.8096 0.0001 25.0517
#
#
#
# Elastic Compliance Matrix: (Units=1/GPa)
#
#
# Indices 1 2 3 4 5 6 
#
# 1 0.039760 -0.000660 -0.004036 0.000000 0.009859 0.000000
# 2 -0.000660 0.008431 -0.003101 0.000000 -0.000240 0.000000
# 3 -0.004036 -0.003101 0.011407 0.000000 0.004016 0.000000
# 4 0.000000 0.000000 0.000000 0.027215 0.000000 0.008484
# 5 0.009859 -0.000240 0.004016 0.000000 0.035728 0.000000
# 6 0.000000 0.000000 0.000000 0.008484 0.000000 0.042562
#
#
# Mechanical properties :
#
#
# Convention : Reuss Voigt Hill
#
# Bulk Modulus (GPa) = 22.72593 44.95820 33.84206
# Shear Modulus (GPa) = 25.59297 33.26743 29.43020
#
# Velocity S-wave (km/s) = 3.45002 3.93342 3.69962
# Velocity P-wave (km/s) = 5.14193 6.44500 5.82998
#
# Compressibility (1/GPa) = 0.04400260
#
# Stress axis : x y z
#
# Youngs Moduli (GPa) = 25.15116 118.60878 87.66525
#
# Poissons Ratio (x) = 0.07828 0.35383
# Poissons Ratio (y) = 0.01660 0.27189
# Poissons Ratio (z) = 0.10152 0.36785
#
# Static dielectric constant tensor:
#      x y z
#    x 3.441590 0.000000 -0.376540 
#    y 0.000000 3.998570 0.000000 
#    z -0.376540 0.000000 4.304500 
# 
# 
# High freq. dielectric constant tensor:
#      x y z
#    x 1.800970 0.000000 -0.025740 
#    y 0.000000 1.860160 0.000000 
#    z -0.025740 0.000000 1.850570 
# 
# From -- ./inp_files/218579.got.cif
#   From: 2010.06.25/outbox.cif.g09.slc.cpg/sg15_110_cif.got.tgz:218579.got - 2010.06.28 07:06:18.
