data_PCOD8134700
_publ_section_title
;
Structure prediction by ZEFSAII (Michael W. Deem and Ramdas Pophale) SiO2 
 PCOD8134700
Probable space group: C 2/C
;
_chemical_formula_sum "Si O2"
_cell_formula_units_Z 56
_cell_length_a 16.792077
_cell_length_b 8.235827
_cell_length_c 26.990651
_cell_angle_alpha 90.000000
_cell_angle_beta 48.462539
_cell_angle_gamma 90.000000
_cell_volume 2794.021551
_symmetry_space_group_name_H-M "C 2/C"
_symmetry_group_IT_number 15
_symmetry_cell_setting 'monoclinic'
loop_
_space_group_symop_operation_xyz
x,y,z
-x,y,1/2-z
-x,-y,-z
x,-y,1/2+z
1/2+x,1/2+y,z
1/2-x,1/2+y,1/2-z
1/2-x,1/2-y,-z
1/2+x,1/2-y,1/2+z
loop_
_atom_site_type_symbol
_atom_site_label
_atom_site_fract_x
_atom_site_fract_y
_atom_site_fract_z
Si Si1 0.900776 0.712863 0.060612
Si Si2 0.758795 0.939170 0.386378
Si Si3 0.049114 0.281822 0.069777
Si Si4 0.804209 0.275871 0.186169
Si Si5 0.335729 0.579681 0.676038
Si Si6 0.434447 0.552656 0.886952
Si Si7 0.602626 0.130787 0.033036
O O1 0.792393 0.616691 0.095746
O O2 0.872317 0.863163 0.107003
O O3 0.988892 0.606369 0.052928
O O4 0.950400 0.769063 0.988226
O O5 0.756915 0.866164 0.332529
O O6 0.880866 0.946324 0.354741
O O7 0.692690 0.837132 0.454628
O O8 0.115709 0.450272 0.053312
O O9 0.928879 0.315461 0.137144
O O10 0.098635 0.121968 0.075605
O O11 0.752206 0.312217 0.260897
O O12 0.780970 0.089046 0.187090
O O13 0.438345 0.563243 0.669781
O O14 0.392101 0.712455 0.933869
#
# Coordination Sequence:
#
# PCOD8134700 Si02
#       7
#     8   8   8   8   8   8   8
#     4  10  19  37  63  90 116 150 205 243 288 356
#     4  11  20  37  59  87 119 154 186 245 299 341
#     4  10  20  38  63  87 119 156 195 246 295 348
#     4  11  21  38  63  83 115 155 205 241 292 349
#     4  10  24  38  61  87 112 158 199 250 286 358
#     4  10  24  36  56  90 125 149 191 243 300 349
#     4  10  19  36  60  88 119 156 189 244 282 358
#
# _framework density 20.042794000000001
#
# number of rings (size 3 to 8) (size 9 to 14) (size 15 to 20)
#    0.000    1.714    2.857    2.143    4.000    4.571 
#    2.571    0.000    0.000    0.000    0.000    0.000 
#    0.000    0.000    0.000    0.000    0.000    0.000 
#
# Total GULP energy -346992.845490 kJ/mol
# GULP energy per Si atom -12392.601625 kJ/mol
# Density = 1.999718 g / cm^3
# Si number density = 20.042794 Si / 1000 Ang^3
#
#
#
# Elastic Constant Matrix: (Units=GPa)
#
#
# Indices 1 2 3 4 5 6 
#
# 1 48.0544 -3.4452 -18.4595 0.0036 2.3119 0.0036
# 2 -3.4452 94.4324 2.4304 0.0033 0.9942 0.0029
# 3 -18.4595 2.4304 59.4582 0.0020 -8.9153 0.0022
# 4 0.0036 0.0033 0.0020 21.5747 -0.0004 -1.9664
# 5 2.3119 0.9942 -8.9153 -0.0004 14.7342 -0.0003
# 6 0.0036 0.0029 0.0022 -1.9664 -0.0003 12.2485
#
#
#
# Elastic Compliance Matrix: (Units=1/GPa)
#
#
# Indices 1 2 3 4 5 6 
#
# 1 0.023678 0.000665 0.007435 -0.000006 0.000738 -0.000009
# 2 0.000665 0.010635 -0.000387 -0.000002 -0.001056 -0.000003
# 3 0.007435 -0.000387 0.020864 -0.000003 0.011484 -0.000006
# 4 -0.000006 -0.000002 -0.000003 0.047039 0.000000 0.007552
# 5 0.000738 -0.001056 0.011484 0.000000 0.074773 0.000000
# 6 -0.000009 -0.000003 -0.000006 0.007552 0.000000 0.082855
#
#
# Mechanical properties :
#
#
# Convention : Reuss Voigt Hill
#
# Bulk Modulus (GPa) = 14.16382 18.11072 16.13727
# Shear Modulus (GPa) = 18.65997 24.47276 21.56636
#
# Velocity S-wave (km/s) = 3.05455 3.49811 3.28383
# Velocity P-wave (km/s) = 4.41843 5.03700 4.73782
#
# Compressibility (1/GPa) = 0.07060241
#
# Stress axis : x y z
#
# Youngs Moduli (GPa) = 42.23368 94.02995 47.92845
#
# Poissons Ratio (x) = -0.06250 -0.35633
# Poissons Ratio (y) = -0.02807 0.01853
# Poissons Ratio (z) = -0.31399 0.03636
#
# Static dielectric constant tensor:
#      x y z
#    x 3.528330 0.000000 -0.046130 
#    y 0.000000 3.724470 0.000000 
#    z -0.046130 0.000000 3.696200 
# 
# 
# High freq. dielectric constant tensor:
#      x y z
#    x 1.762350 0.000000 -0.006060 
#    y 0.000000 1.791340 0.000000 
#    z -0.006060 0.000000 1.772550 
# 
# From -- ./inp_files/298131.got.cif
#   From: 2010.06.25/outbox.cif.g09.slc.cpg/sg15_150_cif.got.tgz:298131.got - 2010.06.28 07:06:18.
