data_PCOD8134538
_publ_section_title
;
Structure prediction by ZEFSAII (Michael W. Deem and Ramdas Pophale) SiO2 
 PCOD8134538
Probable space group: C 2/C
;
_chemical_formula_sum "Si O2"
_cell_formula_units_Z 52
_cell_length_a 20.960662
_cell_length_b 15.467847
_cell_length_c 8.777826
_cell_angle_alpha 90.000000
_cell_angle_beta 101.950910
_cell_angle_gamma 90.000000
_cell_volume 2784.230258
_symmetry_space_group_name_H-M "C 2/C"
_symmetry_group_IT_number 15
_symmetry_cell_setting 'monoclinic'
loop_
_space_group_symop_operation_xyz
x,y,z
-x,y,1/2-z
-x,-y,-z
x,-y,1/2+z
1/2+x,1/2+y,z
1/2-x,1/2+y,1/2-z
1/2-x,1/2-y,-z
1/2+x,1/2-y,1/2+z
loop_
_atom_site_type_symbol
_atom_site_label
_atom_site_fract_x
_atom_site_fract_y
_atom_site_fract_z
Si Si1 0.954673 0.756267 0.369329
Si Si2 0.154726 0.287842 0.903166
Si Si3 0.939068 0.934926 0.491462
Si Si4 0.546637 0.115520 0.509702
Si Si5 0.284407 0.614357 0.441563
Si Si6 0.500000 0.985334 0.250000
Si Si7 0.652586 0.512040 0.293489
O O1 0.882364 0.734298 0.272530
O O2 0.960379 0.835500 0.489488
O O3 0.000000 0.781189 0.250000
O O4 0.980316 0.671153 0.466689
O O5 0.208734 0.360297 0.892604
O O6 0.109063 0.325769 0.012878
O O7 0.178916 0.199890 0.988865
O O8 0.905760 0.944973 0.639040
O O9 0.883779 0.946715 0.336759
O O10 0.000000 0.000000 0.500000
O O11 0.549819 0.073319 0.677412
O O12 0.545920 0.041939 0.380435
O O13 0.308889 0.583658 0.286899
O O14 0.296804 0.539452 0.573355
#
# Coordination Sequence:
#
# PCOD8134538 Si02
#       7
#     8   8   8   8   8   4   8
#     4  10  19  36  57  86 112 149 188 232 295 348
#     4  10  20  39  60  79 109 159 188 232 291 341
#     4  11  21  35  59  87 119 152 182 235 292 348
#     4  10  21  36  60  81 113 144 186 243 289 346
#     4  10  22  39  59  78 115 151 196 230 280 337
#     4  10  20  38  54  86 110 138 184 242 294 326
#     4  10  22  37  55  86 114 149 191 238 271 352
#
# _framework density 18.676617
#
# number of rings (size 3 to 8) (size 9 to 14) (size 15 to 20)
#    0.000    1.846    3.846    1.385    6.462    2.462 
#    0.000    0.769    0.000    0.000    0.000    0.000 
#    0.000    0.000    0.000    0.000    0.000    0.000 
#
# Total GULP energy -322342.331716 kJ/mol
# GULP energy per Si atom -12397.781989 kJ/mol
# Density = 1.863411 g / cm^3
# Si number density = 18.676617 Si / 1000 Ang^3
#
#
#
# Elastic Constant Matrix: (Units=GPa)
#
#
# Indices 1 2 3 4 5 6 
#
# 1 98.9597 47.4410 41.1429 0.0000 5.0807 0.0000
# 2 47.4410 112.9919 46.0500 0.0000 -7.8752 0.0000
# 3 41.1429 46.0500 86.6251 0.0000 -15.1029 0.0000
# 4 0.0000 0.0000 0.0000 28.5294 0.0000 -6.8873
# 5 5.0807 -7.8752 -15.1029 0.0000 28.0435 0.0000
# 6 0.0000 0.0000 0.0000 -6.8873 0.0000 29.9114
#
#
#
# Elastic Compliance Matrix: (Units=1/GPa)
#
#
# Indices 1 2 3 4 5 6 
#
# 1 0.015114 -0.004353 -0.006130 0.000000 -0.007262 0.000000
# 2 -0.004353 0.012552 -0.004252 0.000000 0.002024 0.000000
# 3 -0.006130 -0.004252 0.018432 0.000000 0.009843 0.000000
# 4 0.000000 0.000000 0.000000 0.037115 0.000000 0.008546
# 5 -0.007262 0.002024 0.009843 0.000000 0.042844 0.000000
# 6 0.000000 0.000000 0.000000 0.008546 0.000000 0.035400
#
#
# Mechanical properties :
#
#
# Convention : Reuss Voigt Hill
#
# Bulk Modulus (GPa) = 60.14564 63.09383 61.61974
# Shear Modulus (GPa) = 25.44921 28.22637 26.83779
#
# Velocity S-wave (km/s) = 3.69538 3.89179 3.79485
# Velocity P-wave (km/s) = 7.10503 7.35189 7.22951
#
# Compressibility (1/GPa) = 0.01662631
#
# Stress axis : x y z
#
# Youngs Moduli (GPa) = 66.16559 79.66817 54.25316
#
# Poissons Ratio (x) = 0.34683 0.33258
# Poissons Ratio (y) = 0.28805 0.23070
# Poissons Ratio (z) = 0.40560 0.33877
#
# Static dielectric constant tensor:
#      x y z
#    x 3.453400 0.000000 -0.001680 
#    y 0.000000 3.541430 0.000000 
#    z -0.001680 0.000000 3.446230 
# 
# 
# High freq. dielectric constant tensor:
#      x y z
#    x 1.713660 0.000000 -0.000720 
#    y 0.000000 1.737100 0.000000 
#    z -0.000720 0.000000 1.718950 
# 
# From -- ./inp_files/55332.got.cif
#   From: 2010.06.25/outbox.cif.g09.slc.cpg/sg15_28_cif.got.tgz:55332.got - 2010.06.28 07:06:18.
