data_PCOD8134953
_publ_section_title
;
Structure prediction by ZEFSAII (Michael W. Deem and Ramdas Pophale) SiO2 
 PCOD8134953
Probable space group: C 2/C
;
_chemical_formula_sum "Si O2"
_cell_formula_units_Z 48
_cell_length_a 18.101698
_cell_length_b 10.779013
_cell_length_c 22.732183
_cell_angle_alpha 90.000000
_cell_angle_beta 152.454150
_cell_angle_gamma 90.000000
_cell_volume 2051.218926
_symmetry_space_group_name_H-M "C 2/C"
_symmetry_group_IT_number 15
_symmetry_cell_setting 'monoclinic'
loop_
_space_group_symop_operation_xyz
x,y,z
-x,y,1/2-z
-x,-y,-z
x,-y,1/2+z
1/2+x,1/2+y,z
1/2-x,1/2+y,1/2-z
1/2-x,1/2-y,-z
1/2+x,1/2-y,1/2+z
loop_
_atom_site_type_symbol
_atom_site_label
_atom_site_fract_x
_atom_site_fract_y
_atom_site_fract_z
Si Si1 0.972314 0.701321 0.481054
Si Si2 0.706384 0.150230 0.320472
Si Si3 0.408392 0.593946 0.770933
Si Si4 0.097702 0.508580 0.486421
Si Si5 0.654727 0.557693 0.640531
Si Si6 0.257338 0.892851 0.519608
O O1 0.136823 0.775768 0.591285
O O2 0.969879 0.598622 0.427823
O O3 0.948466 0.632818 0.527678
O O4 0.827888 0.798839 0.368197
O O5 0.569779 0.254150 0.217217
O O6 0.711073 0.094887 0.389081
O O7 0.690602 0.025208 0.269037
O O8 0.279338 0.542190 0.634389
O O9 0.354246 0.549713 0.796394
O O10 0.585738 0.543634 0.883183
O O11 0.104209 0.535122 0.420329
O O12 0.500000 0.500000 0.500000
O O13 0.250000 0.750000 0.500000
#
# Coordination Sequence:
#
# PCOD8134953 Si02
#       6
#     8   8   8   8   8   8
#     4   9  18  38  55  85 117 154 195 241 305 353
#     4  10  22  37  62  87 116 161 196 253 306 361
#     4  11  21  34  60  88 112 156 205 245 297 363
#     4  10  21  33  59  90 119 153 199 253 301 359
#     4  10  19  37  58  83 119 154 198 247 301 361
#     4  12  20  38  56  88 122 150 198 254 303 345
#
# _framework density 23.400721999999998
#
# number of rings (size 3 to 8) (size 9 to 14) (size 15 to 20)
#    0.000    1.667    6.667    0.500    2.333    0.000 
#    3.000    0.833    0.000    0.000    4.333    0.000 
#    0.000    0.000    0.000    0.000    0.000    0.000 
#
# Total GULP energy -297367.797143 kJ/mol
# GULP energy per Si atom -12390.324881 kJ/mol
# Density = 2.334746 g / cm^3
# Si number density = 23.400722 Si / 1000 Ang^3
#
#
#
# Elastic Constant Matrix: (Units=GPa)
#
#
# Indices 1 2 3 4 5 6 
#
# 1 157.5000 68.2246 21.3576 0.0059 -19.8610 0.0009
# 2 68.2246 101.6250 4.4890 0.0124 -5.3929 0.0027
# 3 21.3576 4.4890 35.2388 0.0075 -9.7540 0.0025
# 4 0.0059 0.0124 0.0075 27.8897 -0.0010 -7.5137
# 5 -19.8610 -5.3929 -9.7540 -0.0010 34.9340 -0.0005
# 6 0.0009 0.0027 0.0025 -7.5137 -0.0005 42.7633
#
#
#
# Elastic Compliance Matrix: (Units=1/GPa)
#
#
# Indices 1 2 3 4 5 6 
#
# 1 0.010189 -0.006458 -0.004363 0.000002 0.003578 0.000001
# 2 -0.006458 0.014041 0.001852 -0.000006 -0.000987 -0.000002
# 3 -0.004363 0.001852 0.032706 -0.000009 0.006938 -0.000004
# 4 0.000002 -0.000006 -0.000009 0.037637 -0.000001 0.006613
# 5 0.003578 -0.000987 0.006938 -0.000001 0.032444 0.000000
# 6 0.000001 -0.000002 -0.000004 0.006613 0.000000 0.024546
#
#
# Mechanical properties :
#
#
# Convention : Reuss Voigt Hill
#
# Bulk Modulus (GPa) = 25.64071 53.61179 39.62625
# Shear Modulus (GPa) = 27.39700 34.47025 30.93362
#
# Velocity S-wave (km/s) = 3.42537 3.84219 3.63975
# Velocity P-wave (km/s) = 5.15997 6.53018 5.88509
#
# Compressibility (1/GPa) = 0.03900048
#
# Stress axis : x y z
#
# Youngs Moduli (GPa) = 98.14162 71.21818 30.57515
#
# Poissons Ratio (x) = 0.45992 0.13339
# Poissons Ratio (y) = 0.63379 -0.05663
# Poissons Ratio (z) = 0.42815 -0.13191
#
# Static dielectric constant tensor:
#      x y z
#    x 4.010550 0.000180 -0.341820 
#    y 0.000180 5.154830 0.000060 
#    z -0.341820 0.000060 4.433130 
# 
# 
# High freq. dielectric constant tensor:
#      x y z
#    x 1.924590 0.000000 0.001890 
#    y 0.000000 1.896330 0.000000 
#    z 0.001890 0.000000 1.936320 
# 
# From -- ./inp_files/248449.got.cif
#   From: 2010.06.25/outbox.cif.g09.slc.cpg/sg15_125_cif.got.tgz:248449.got - 2010.06.28 07:06:18.
