data_PCOD8134963
_publ_section_title
;
Structure prediction by ZEFSAII (Michael W. Deem and Ramdas Pophale) SiO2 
 PCOD8134963
Probable space group: C 2/C
;
_chemical_formula_sum "Si O2"
_cell_formula_units_Z 64
_cell_length_a 13.342914
_cell_length_b 17.834896
_cell_length_c 33.113170
_cell_angle_alpha 90.000000
_cell_angle_beta 154.802280
_cell_angle_gamma 90.000000
_cell_volume 3354.824713
_symmetry_space_group_name_H-M "C 2/C"
_symmetry_group_IT_number 15
_symmetry_cell_setting 'monoclinic'
loop_
_space_group_symop_operation_xyz
x,y,z
-x,y,1/2-z
-x,-y,-z
x,-y,1/2+z
1/2+x,1/2+y,z
1/2-x,1/2+y,1/2-z
1/2-x,1/2-y,-z
1/2+x,1/2-y,1/2+z
loop_
_atom_site_type_symbol
_atom_site_label
_atom_site_fract_x
_atom_site_fract_y
_atom_site_fract_z
Si Si1 0.231086 0.335727 0.752760
Si Si2 0.716358 0.978052 0.799240
Si Si3 0.688507 0.853065 0.955002
Si Si4 0.914333 0.769289 0.673222
Si Si5 0.056412 0.806204 0.225243
Si Si6 0.573020 0.886558 0.194636
Si Si7 0.386667 0.786702 0.491677
Si Si8 0.855012 0.012173 0.987664
O O1 0.202029 0.419032 0.758132
O O2 0.477725 0.325618 0.820419
O O3 0.188069 0.274593 0.772612
O O4 0.045919 0.319253 0.649943
O O5 0.500000 0.963970 0.750000
O O6 0.962883 0.963752 0.911396
O O7 0.698333 0.060291 0.773314
O O8 0.889654 0.794781 0.014732
O O9 0.660616 0.852609 0.993075
O O10 0.734124 0.935439 0.955932
O O11 0.979723 0.684560 0.685186
O O12 0.644949 0.790650 0.567690
O O13 0.000000 0.785720 0.750000
O O14 0.229215 0.865942 0.266491
O O15 0.000000 0.832445 0.250000
O O16 0.802638 0.798380 0.112156
O O17 0.348221 0.925833 0.091534
O O18 0.000000 0.000000 0.000000
#
# Coordination Sequence:
#
# PCOD8134963 Si02
#       8
#     8   8   8   8   8   8   8   8
#     4  10  21  39  61  89 120 160 201 252 311 364
#     4  12  23  39  61  91 127 160 199 253 310 367
#     4  10  19  37  58  88 122 152 204 249 308 369
#     4  11  22  37  63  93 122 156 207 261 306 364
#     4  10  23  42  62  85 124 167 205 254 307 371
#     4  11  24  40  62  95 124 161 209 256 314 371
#     4  10  21  36  64  90 115 162 208 259 305 365
#     4  12  23  37  60  91 126 164 198 252 314 375
#
# _framework density 19.077002
#
# number of rings (size 3 to 8) (size 9 to 14) (size 15 to 20)
#    0.000    1.250    3.750    2.250    3.500    4.000 
#    0.000    4.375    0.000    3.000    0.000    0.000 
#    0.000    0.000    0.000    0.000    0.000    0.000 
#
# Total GULP energy -396782.189403 kJ/mol
# GULP energy per Si atom -12399.443419 kJ/mol
# Density = 1.903358 g / cm^3
# Si number density = 19.077002 Si / 1000 Ang^3
#
#
#
# Elastic Constant Matrix: (Units=GPa)
#
#
# Indices 1 2 3 4 5 6 
#
# 1 145.7049 50.5517 52.9962 -0.0002 12.4992 -0.0001
# 2 50.5517 81.5000 15.0911 0.0014 6.3496 0.0000
# 3 52.9962 15.0911 108.7745 0.0078 8.9979 0.0001
# 4 -0.0002 0.0014 0.0078 29.9485 0.0008 -1.3325
# 5 12.4992 6.3496 8.9979 0.0008 36.8414 -0.0003
# 6 -0.0001 0.0000 0.0001 -1.3325 -0.0003 25.4016
#
#
#
# Elastic Compliance Matrix: (Units=1/GPa)
#
#
# Indices 1 2 3 4 5 6 
#
# 1 0.010462 -0.005591 -0.004192 0.000001 -0.001562 0.000000
# 2 -0.005591 0.015697 0.000626 -0.000001 -0.000961 0.000000
# 3 -0.004192 0.000626 0.011268 -0.000003 -0.001438 0.000000
# 4 0.000001 -0.000001 -0.000003 0.033469 0.000000 0.001756
# 5 -0.001562 -0.000961 -0.001438 0.000000 0.028190 0.000000
# 6 0.000000 0.000000 0.000000 0.001756 0.000000 0.039460
#
#
# Mechanical properties :
#
#
# Convention : Reuss Voigt Hill
#
# Bulk Modulus (GPa) = 52.32419 63.69527 58.00973
# Shear Modulus (GPa) = 30.63144 32.92763 31.77954
#
# Velocity S-wave (km/s) = 4.01143 4.15907 4.08592
# Velocity P-wave (km/s) = 6.99592 7.51830 7.26181
#
# Compressibility (1/GPa) = 0.01911162
#
# Stress axis : x y z
#
# Youngs Moduli (GPa) = 95.58575 63.70658 88.74753
#
# Poissons Ratio (x) = 0.35619 0.37205
# Poissons Ratio (y) = 0.53444 -0.05554
# Poissons Ratio (z) = 0.40072 -0.03987
#
# Static dielectric constant tensor:
#      x y z
#    x 3.851550 0.000000 0.168030 
#    y 0.000000 3.350350 -0.000010 
#    z 0.168030 -0.000010 3.708430 
# 
# 
# High freq. dielectric constant tensor:
#      x y z
#    x 1.743450 0.000000 0.005410 
#    y 0.000000 1.731770 0.000000 
#    z 0.005410 0.000000 1.753790 
# 
# From -- ./inp_files/311677.got.cif
#   From: 2010.06.25/outbox.cif.g09.slc.cpg/sg15_156_cif.got.tgz:311677.got - 2010.06.28 07:06:18.
