data_PCOD8134065
_publ_section_title
;
Structure prediction by ZEFSAII (Michael W. Deem and Ramdas Pophale) SiO2 
 PCOD8134065
Probable space group: C 2/C
;
_chemical_formula_sum "Si O2"
_cell_formula_units_Z 48
_cell_length_a 17.765714
_cell_length_b 13.520377
_cell_length_c 12.723793
_cell_angle_alpha 90.000000
_cell_angle_beta 118.135773
_cell_angle_gamma 90.000000
_cell_volume 2695.095881
_symmetry_space_group_name_H-M "C 2/C"
_symmetry_group_IT_number 15
_symmetry_cell_setting 'monoclinic'
loop_
_space_group_symop_operation_xyz
x,y,z
-x,y,1/2-z
-x,-y,-z
x,-y,1/2+z
1/2+x,1/2+y,z
1/2-x,1/2+y,1/2-z
1/2-x,1/2-y,-z
1/2+x,1/2-y,1/2+z
loop_
_atom_site_type_symbol
_atom_site_label
_atom_site_fract_x
_atom_site_fract_y
_atom_site_fract_z
Si Si1 0.219904 0.050008 0.579056
Si Si2 0.290062 0.627232 0.274868
Si Si3 0.665639 0.972965 0.547526
Si Si4 0.089216 0.147978 0.345696
Si Si5 0.670056 0.837557 0.179646
Si Si6 0.018349 0.644532 0.870081
O O1 0.285168 0.026343 0.529354
O O2 0.132966 0.093611 0.472961
O O3 0.270916 0.126874 0.685128
O O4 0.187909 0.954688 0.623138
O O5 0.201290 0.597749 0.162661
O O6 0.355272 0.638996 0.222048
O O7 0.288369 0.733880 0.331092
O O8 0.569218 0.932766 0.475455
O O9 0.671563 0.086300 0.585350
O O10 0.075825 0.260409 0.375987
O O11 0.000000 0.098743 0.250000
O O12 0.570449 0.820226 0.139158
O O13 0.000000 0.585472 0.750000
#
# Coordination Sequence:
#
# PCOD8134065 Si02
#       6
#     8   8   8   8   8   8
#     4  10  21  35  54  77 106 137 170 213 255 306
#     4  10  20  35  54  79 102 137 175 209 257 305
#     4  10  21  34  54  79 106 136 169 212 258 305
#     4  10  19  35  55  78 101 134 173 217 257 295
#     4  11  20  35  55  79 104 136 174 210 256 306
#     4  11  18  33  57  79 103 132 171 218 255 295
#
# _framework density 17.810127999999999
#
# number of rings (size 3 to 8) (size 9 to 14) (size 15 to 20)
#    0.000    1.667    5.000    1.500    0.000    4.000 
#    0.000    0.000    0.000    1.000    0.000    0.000 
#    0.000    0.000    0.000    0.000    0.000    0.000 
#
# Total GULP energy -297351.862275 kJ/mol
# GULP energy per Si atom -12389.660928 kJ/mol
# Density = 1.776959 g / cm^3
# Si number density = 17.810128 Si / 1000 Ang^3
#
#
#
# Elastic Constant Matrix: (Units=GPa)
#
#
# Indices 1 2 3 4 5 6 
#
# 1 45.7053 37.7373 30.7839 0.0000 18.4977 0.0000
# 2 37.7373 130.6027 62.7075 0.0000 13.4398 0.0000
# 3 30.7839 62.7075 110.8396 0.0000 25.1061 0.0000
# 4 0.0000 0.0000 0.0000 19.3505 0.0000 0.6086
# 5 18.4977 13.4398 25.1061 0.0000 28.7159 0.0000
# 6 0.0000 0.0000 0.0000 0.6086 0.0000 27.2194
#
#
#
# Elastic Compliance Matrix: (Units=1/GPa)
#
#
# Indices 1 2 3 4 5 6 
#
# 1 0.037201 -0.008099 -0.001472 0.000000 -0.018886 0.000000
# 2 -0.008099 0.012278 -0.005707 0.000000 0.004460 0.000000
# 3 -0.001472 -0.005707 0.014764 0.000000 -0.009288 0.000000
# 4 0.000000 0.000000 0.000000 0.051715 0.000000 -0.001156
# 5 -0.018886 0.004460 -0.009288 0.000000 0.053023 0.000000
# 6 0.000000 0.000000 0.000000 -0.001156 0.000000 0.036764
#
#
# Mechanical properties :
#
#
# Convention : Reuss Voigt Hill
#
# Bulk Modulus (GPa) = 29.68571 61.06722 45.37647
# Shear Modulus (GPa) = 20.19949 25.45175 22.82562
#
# Velocity S-wave (km/s) = 3.37138 3.78439 3.58384
# Velocity P-wave (km/s) = 5.64438 7.31149 6.53134
#
# Compressibility (1/GPa) = 0.03368624
#
# Stress axis : x y z
#
# Youngs Moduli (GPa) = 26.88080 81.44437 67.73312
#
# Poissons Ratio (x) = 0.65960 0.09973
# Poissons Ratio (y) = 0.21770 0.38658
# Poissons Ratio (z) = 0.03958 0.46484
#
# Static dielectric constant tensor:
#      x y z
#    x 3.255210 0.000000 0.180450 
#    y 0.000000 3.468910 0.000000 
#    z 0.180450 0.000000 3.553640 
# 
# 
# High freq. dielectric constant tensor:
#      x y z
#    x 1.681800 0.000000 0.013850 
#    y 0.000000 1.682710 0.000000 
#    z 0.013850 0.000000 1.697680 
# 
# From -- ./inp_files/104180.got.cif
#   From: 2010.06.25/outbox.cif.g09.slc.cpg/sg15_53_cif.got.tgz:104180.got - 2010.06.28 07:06:18.
