data_PCOD8134229
_publ_section_title
;
Structure prediction by ZEFSAII (Michael W. Deem and Ramdas Pophale) SiO2 
 PCOD8134229
Probable space group: C 2/C
;
_chemical_formula_sum "Si O2"
_cell_formula_units_Z 60
_cell_length_a 16.578383
_cell_length_b 27.682034
_cell_length_c 12.009094
_cell_angle_alpha 90.000000
_cell_angle_beta 31.908208
_cell_angle_gamma 90.000000
_cell_volume 2913.028029
_symmetry_space_group_name_H-M "C 2/C"
_symmetry_group_IT_number 15
_symmetry_cell_setting 'monoclinic'
loop_
_space_group_symop_operation_xyz
x,y,z
-x,y,1/2-z
-x,-y,-z
x,-y,1/2+z
1/2+x,1/2+y,z
1/2-x,1/2+y,1/2-z
1/2-x,1/2-y,-z
1/2+x,1/2-y,1/2+z
loop_
_atom_site_type_symbol
_atom_site_label
_atom_site_fract_x
_atom_site_fract_y
_atom_site_fract_z
Si Si1 0.804644 0.541568 0.720562
Si Si2 0.727756 0.688901 0.748365
Si Si3 0.313382 0.867434 0.348772
Si Si4 0.000000 0.150944 0.750000
Si Si5 0.765918 0.902338 0.396821
Si Si6 0.846091 0.438717 0.738684
Si Si7 0.670431 0.858621 0.918365
Si Si8 0.388960 0.713053 0.059151
O O1 0.770536 0.579147 0.858135
O O2 0.712708 0.553460 0.714495
O O3 0.756203 0.488970 0.822646
O O4 0.979594 0.547626 0.480756
O O5 0.717909 0.672041 0.889449
O O6 0.801435 0.644406 0.590686
O O7 0.852287 0.730860 0.587040
O O8 0.559647 0.705725 0.907471
O O9 0.268776 0.870239 0.529728
O O10 0.489435 0.852258 0.127035
O O11 0.932385 0.114820 0.738224
O O12 0.122643 0.185952 0.546643
O O13 0.669972 0.918125 0.617587
O O14 0.782167 0.400594 0.723750
O O15 0.755179 0.808793 0.791586
#
# Coordination Sequence:
#
# PCOD8134229 Si02
#       8
#     8   8   8   4   8   8   8   8
#     4   9  20  34  58  89 117 150 200 248 300 349
#     4  10  23  40  61  89 122 154 202 248 303 361
#     4   9  20  39  57  89 123 156 202 250 293 363
#     4  10  22  40  58  84 126 156 198 246 294 364
#     4  10  20  38  58  84 124 155 190 251 293 356
#     4  10  19  35  58  88 117 155 197 245 306 351
#     4  10  20  36  62  85 120 163 199 247 300 354
#     4  11  22  40  61  90 118 160 199 248 305 360
#
# _framework density 20.597124000000001
#
# number of rings (size 3 to 8) (size 9 to 14) (size 15 to 20)
#    0.000    2.133    1.333    1.200    1.867    3.200 
#    9.600    0.667    0.000    0.000    0.000    0.000 
#    0.000    0.000    0.000    0.000    0.000    0.000 
#
# Total GULP energy -371794.062491 kJ/mol
# GULP energy per Si atom -12393.135416 kJ/mol
# Density = 2.055024 g / cm^3
# Si number density = 20.597124 Si / 1000 Ang^3
#
#
#
# Elastic Constant Matrix: (Units=GPa)
#
#
# Indices 1 2 3 4 5 6 
#
# 1 124.7640 54.4169 22.3340 0.0000 27.6248 0.0001
# 2 54.4169 127.5273 27.9175 0.0000 10.9657 0.0000
# 3 22.3340 27.9175 46.3351 0.0011 21.8630 -0.0002
# 4 0.0000 0.0000 0.0011 22.0122 -0.0002 2.0102
# 5 27.6248 10.9657 21.8630 -0.0002 34.2426 -0.0001
# 6 0.0001 0.0000 -0.0002 2.0102 -0.0001 28.5815
#
#
#
# Elastic Compliance Matrix: (Units=1/GPa)
#
#
# Indices 1 2 3 4 5 6 
#
# 1 0.011706 -0.004506 0.001213 0.000000 -0.008776 0.000000
# 2 -0.004506 0.010784 -0.006313 0.000000 0.004213 0.000000
# 3 0.001213 -0.006313 0.034789 -0.000002 -0.021169 0.000000
# 4 0.000000 0.000000 -0.000002 0.045723 0.000001 -0.003216
# 5 -0.008776 0.004213 -0.021169 0.000001 0.048450 0.000000
# 6 0.000000 0.000000 0.000000 -0.003216 0.000000 0.035214
#
#
# Mechanical properties :
#
#
# Convention : Reuss Voigt Hill
#
# Bulk Modulus (GPa) = 26.26929 56.44035 41.35482
# Shear Modulus (GPa) = 22.87612 29.89778 26.38695
#
# Velocity S-wave (km/s) = 3.33625 3.81406 3.58313
# Velocity P-wave (km/s) = 5.25569 6.84526 6.10245
#
# Compressibility (1/GPa) = 0.03806726
#
# Stress axis : x y z
#
# Youngs Moduli (GPa) = 85.42304 92.72898 28.74432
#
# Poissons Ratio (x) = 0.41786 -0.03487
# Poissons Ratio (y) = 0.38493 0.18147
# Poissons Ratio (z) = -0.10363 0.58542
#
# Static dielectric constant tensor:
#      x y z
#    x 4.028720 0.000000 0.227400 
#    y 0.000000 3.983340 0.000000 
#    z 0.227400 0.000000 3.384820 
# 
# 
# High freq. dielectric constant tensor:
#      x y z
#    x 1.817490 0.000000 0.015740 
#    y 0.000000 1.810050 0.000000 
#    z 0.015740 0.000000 1.776820 
# 
# From -- ./inp_files/108403.got.cif
#   From: 2010.06.25/outbox.cif.g09.slc.cpg/sg15_55_cif.got.tgz:108403.got - 2010.06.28 07:06:18.
