data_PCOD8134878
_publ_section_title
;
Structure prediction by ZEFSAII (Michael W. Deem and Ramdas Pophale) SiO2 
 PCOD8134878
Probable space group: C 2/C
;
_chemical_formula_sum "Si O2"
_cell_formula_units_Z 48
_cell_length_a 16.747732
_cell_length_b 14.761781
_cell_length_c 13.674968
_cell_angle_alpha 90.000000
_cell_angle_beta 142.533127
_cell_angle_gamma 90.000000
_cell_volume 2056.557107
_symmetry_space_group_name_H-M "C 2/C"
_symmetry_group_IT_number 15
_symmetry_cell_setting 'monoclinic'
loop_
_space_group_symop_operation_xyz
x,y,z
-x,y,1/2-z
-x,-y,-z
x,-y,1/2+z
1/2+x,1/2+y,z
1/2-x,1/2+y,1/2-z
1/2-x,1/2-y,-z
1/2+x,1/2-y,1/2+z
loop_
_atom_site_type_symbol
_atom_site_label
_atom_site_fract_x
_atom_site_fract_y
_atom_site_fract_z
Si Si1 0.263737 0.863331 0.856521
Si Si2 0.297688 0.333319 0.384442
Si Si3 0.143174 0.975427 0.905379
Si Si4 0.287535 0.350948 0.922037
Si Si5 0.466282 0.899940 0.439280
Si Si6 0.452601 0.256289 0.354332
O O1 0.229860 0.760354 0.856106
O O2 0.198064 0.942216 0.854970
O O3 0.224300 0.875757 0.704470
O O4 0.420833 0.868834 0.026537
O O5 0.374519 0.387307 0.542818
O O6 0.178648 0.400267 0.244294
O O7 0.395023 0.315543 0.388385
O O8 0.000000 0.016886 0.750000
O O9 0.232542 0.057111 0.034911
O O10 0.171202 0.277176 0.833769
O O11 0.434063 0.313557 0.089700
O O12 0.470973 0.833176 0.536450
O O13 0.500000 0.000000 0.500000
#
# Coordination Sequence:
#
# PCOD8134878 Si02
#       6
#     8   8   8   8   8   8
#     4  10  23  41  66  98 136 171 216 276 344 393
#     4  10  20  38  64  98 135 166 213 280 344 400
#     4  12  26  40  63 100 134 173 225 274 329 405
#     4  10  22  43  70  98 130 179 222 273 341 392
#     4  10  19  36  67 101 127 170 221 273 336 400
#     4  10  19  40  69  96 130 175 219 273 338 397
#
# _framework density 23.339979
#
# number of rings (size 3 to 8) (size 9 to 14) (size 15 to 20)
#    0.000    2.000    3.333    3.500    2.333    4.667 
#    0.000    0.833    0.000    0.000    0.000    0.000 
#    0.000    0.000    0.000    0.000    0.000    0.000 
#
# Total GULP energy -297402.385597 kJ/mol
# GULP energy per Si atom -12391.766067 kJ/mol
# Density = 2.328686 g / cm^3
# Si number density = 23.339979 Si / 1000 Ang^3
#
#
#
# Elastic Constant Matrix: (Units=GPa)
#
#
# Indices 1 2 3 4 5 6 
#
# 1 44.6203 30.6639 27.7327 0.0000 17.3478 0.0000
# 2 30.6639 119.1096 32.3102 0.0000 -3.1760 0.0000
# 3 27.7327 32.3102 103.1337 0.0000 14.0601 0.0000
# 4 0.0000 0.0000 0.0000 46.8390 0.0000 2.8534
# 5 17.3478 -3.1760 14.0601 0.0000 24.0112 0.0000
# 6 0.0000 0.0000 0.0000 2.8534 0.0000 16.1589
#
#
#
# Elastic Compliance Matrix: (Units=1/GPa)
#
#
# Indices 1 2 3 4 5 6 
#
# 1 0.045114 -0.011293 -0.004288 0.000000 -0.031577 0.000000
# 2 -0.011293 0.012227 -0.002311 0.000000 0.011130 0.000000
# 3 -0.004288 -0.002311 0.012164 0.000000 -0.004330 0.000000
# 4 0.000000 0.000000 0.000000 0.021582 0.000000 -0.003811
# 5 -0.031577 0.011130 -0.004330 0.000000 0.068469 0.000000
# 6 0.000000 0.000000 0.000000 -0.003811 0.000000 0.062558
#
#
# Mechanical properties :
#
#
# Convention : Reuss Voigt Hill
#
# Bulk Modulus (GPa) = 29.65638 49.80856 39.73247
# Shear Modulus (GPa) = 18.57782 29.14561 23.86171
#
# Velocity S-wave (km/s) = 2.82435 3.53759 3.20090
# Velocity P-wave (km/s) = 4.83423 6.17032 5.54268
#
# Compressibility (1/GPa) = 0.03371956
#
# Stress axis : x y z
#
# Youngs Moduli (GPa) = 22.16595 81.78893 82.21251
#
# Poissons Ratio (x) = 0.92365 0.35256
# Poissons Ratio (y) = 0.25032 0.18999
# Poissons Ratio (z) = 0.09506 0.18901
#
# Static dielectric constant tensor:
#      x y z
#    x 3.827560 0.000000 0.047090 
#    y 0.000000 4.328300 0.000000 
#    z 0.047090 0.000000 3.241240 
# 
# 
# High freq. dielectric constant tensor:
#      x y z
#    x 1.892480 0.000000 0.019150 
#    y 0.000000 1.937560 0.000000 
#    z 0.019150 0.000000 1.925250 
# 
# From -- ./inp_files/162360.got.cif
#   From: 2010.06.25/outbox.cif.g09.slc.cpg/sg15_82_cif.got.tgz:162360.got - 2010.06.28 07:06:18.
