data_PCOD8134192
_publ_section_title
;
Structure prediction by ZEFSAII (Michael W. Deem and Ramdas Pophale) SiO2 
 PCOD8134192
Probable space group: C 2/C
;
_chemical_formula_sum "Si O2"
_cell_formula_units_Z 64
_cell_length_a 13.158288
_cell_length_b 15.059625
_cell_length_c 21.101643
_cell_angle_alpha 90.000000
_cell_angle_beta 130.593196
_cell_angle_gamma 90.000000
_cell_volume 3175.199397
_symmetry_space_group_name_H-M "C 2/C"
_symmetry_group_IT_number 15
_symmetry_cell_setting 'monoclinic'
loop_
_space_group_symop_operation_xyz
x,y,z
-x,y,1/2-z
-x,-y,-z
x,-y,1/2+z
1/2+x,1/2+y,z
1/2-x,1/2+y,1/2-z
1/2-x,1/2-y,-z
1/2+x,1/2-y,1/2+z
loop_
_atom_site_type_symbol
_atom_site_label
_atom_site_fract_x
_atom_site_fract_y
_atom_site_fract_z
Si Si1 0.720192 0.155503 0.851383
Si Si2 0.486945 0.595199 0.528389
Si Si3 0.340526 0.503532 0.190587
Si Si4 0.165171 0.383030 0.190712
Si Si5 0.235231 0.102151 0.962332
Si Si6 0.101621 0.725245 0.548137
Si Si7 0.878930 0.554241 0.572852
Si Si8 0.695265 0.840114 0.575098
O O1 0.648218 0.158141 0.753924
O O2 0.650264 0.083283 0.867320
O O3 0.718690 0.249605 0.886995
O O4 0.868394 0.127160 0.894187
O O5 0.500000 0.500000 0.500000
O O6 0.408007 0.599527 0.562344
O O7 0.415631 0.668131 0.454132
O O8 0.500000 0.515385 0.250000
O O9 0.294601 0.448295 0.234818
O O10 0.279162 0.446516 0.109658
O O11 0.264595 0.597951 0.156611
O O12 0.164537 0.301008 0.141338
O O13 0.035440 0.441979 0.121804
O O14 0.297795 0.198452 0.969135
O O15 0.337199 0.048169 0.048679
O O16 0.961033 0.677086 0.474618
O O17 0.791609 0.616361 0.489522
#
# Coordination Sequence:
#
# PCOD8134192 Si02
#       8
#     8   8   8   8   8   8   8   8
#     4  11  21  36  53  83 120 147 185 239 302 339
#     4  11  21  37  58  88 117 151 193 248 293 337
#     4  10  20  36  56  83 113 148 187 237 288 347
#     4  10  21  37  55  81 112 154 185 234 288 351
#     4  10  19  36  60  84 109 153 196 234 288 348
#     4   9  20  38  61  81 113 154 199 234 285 359
#     4  10  19  35  58  79 110 149 192 235 282 349
#     4   9  20  36  56  83 109 147 194 237 283 354
#
# _framework density 20.156215
#
# number of rings (size 3 to 8) (size 9 to 14) (size 15 to 20)
#    0.000    2.000    1.250    2.625    0.000    4.000 
#    4.500    0.000    0.000    0.000    0.000    0.000 
#    0.000    0.000    0.000    0.000    0.000    0.000 
#
# Total GULP energy -396595.670671 kJ/mol
# GULP energy per Si atom -12393.614708 kJ/mol
# Density = 2.011034 g / cm^3
# Si number density = 20.156215 Si / 1000 Ang^3
#
#
#
# Elastic Constant Matrix: (Units=GPa)
#
#
# Indices 1 2 3 4 5 6 
#
# 1 95.0189 31.7405 14.4335 0.0000 -6.6564 0.0000
# 2 31.7405 105.4699 32.3106 0.0000 -3.5059 0.0000
# 3 14.4335 32.3106 64.5907 0.0000 -6.0031 0.0000
# 4 0.0000 0.0000 0.0000 18.5449 0.0000 3.5021
# 5 -6.6564 -3.5059 -6.0031 0.0000 32.4891 0.0000
# 6 0.0000 0.0000 0.0000 3.5021 0.0000 28.6851
#
#
#
# Elastic Compliance Matrix: (Units=1/GPa)
#
#
# Indices 1 2 3 4 5 6 
#
# 1 0.011873 -0.003249 -0.000849 0.000000 0.001925 0.000000
# 2 -0.003249 0.012087 -0.005353 0.000000 -0.000350 0.000000
# 3 -0.000849 -0.005353 0.018599 0.000000 0.002685 0.000000
# 4 0.000000 0.000000 0.000000 0.055196 0.000000 -0.006739
# 5 0.001925 -0.000350 0.002685 0.000000 0.031632 0.000000
# 6 0.000000 0.000000 0.000000 -0.006739 0.000000 0.035684
#
#
# Mechanical properties :
#
#
# Convention : Reuss Voigt Hill
#
# Bulk Modulus (GPa) = 42.26971 46.89430 44.58200
# Shear Modulus (GPa) = 26.06061 28.38348 27.22204
#
# Velocity S-wave (km/s) = 3.59964 3.75664 3.67897
# Velocity P-wave (km/s) = 6.18814 6.49094 6.34135
#
# Compressibility (1/GPa) = 0.02365760
#
# Stress axis : x y z
#
# Youngs Moduli (GPa) = 84.22188 82.73048 53.76581
#
# Poissons Ratio (x) = 0.26880 0.04565
# Poissons Ratio (y) = 0.27365 0.28781
# Poissons Ratio (z) = 0.07150 0.44286
#
# Static dielectric constant tensor:
#      x y z
#    x 3.706490 0.000000 0.068750 
#    y 0.000000 3.804290 0.000000 
#    z 0.068750 0.000000 3.475490 
# 
# 
# High freq. dielectric constant tensor:
#      x y z
#    x 1.794240 0.000000 0.006490 
#    y 0.000000 1.781240 0.000000 
#    z 0.006490 0.000000 1.770400 
# 
# From -- ./inp_files/274352.got.cif
#   From: 2010.06.25/outbox.cif.g09.slc.cpg/sg15_138_cif.got.tgz:274352.got - 2010.06.28 07:06:18.
