data_PCOD8134204
_publ_section_title
;
Structure prediction by ZEFSAII (Michael W. Deem and Ramdas Pophale) SiO2 
 PCOD8134204
Probable space group: C 2/C
;
_chemical_formula_sum "Si O2"
_cell_formula_units_Z 48
_cell_length_a 17.867609
_cell_length_b 9.133586
_cell_length_c 17.844252
_cell_angle_alpha 90.000000
_cell_angle_beta 129.748363
_cell_angle_gamma 90.000000
_cell_volume 2238.996604
_symmetry_space_group_name_H-M "C 2/C"
_symmetry_group_IT_number 15
_symmetry_cell_setting 'monoclinic'
loop_
_space_group_symop_operation_xyz
x,y,z
-x,y,1/2-z
-x,-y,-z
x,-y,1/2+z
1/2+x,1/2+y,z
1/2-x,1/2+y,1/2-z
1/2-x,1/2-y,-z
1/2+x,1/2-y,1/2+z
loop_
_atom_site_type_symbol
_atom_site_label
_atom_site_fract_x
_atom_site_fract_y
_atom_site_fract_z
Si Si1 0.660374 0.769652 0.326067
Si Si2 0.854804 0.390422 0.916685
Si Si3 0.297832 0.095724 0.115164
Si Si4 0.476012 0.184964 0.626160
Si Si5 0.450826 0.863080 0.824816
Si Si6 0.358497 0.184791 0.996813
O O1 0.745502 0.652520 0.370323
O O2 0.604466 0.747899 0.368921
O O3 0.582309 0.743630 0.208419
O O4 0.706719 0.932566 0.354121
O O5 0.870359 0.368575 0.838836
O O6 0.873069 0.562573 0.942251
O O7 0.934238 0.295641 0.015391
O O8 0.392477 0.179048 0.212028
O O9 0.200083 0.180808 0.077019
O O10 0.300243 0.104111 0.026940
O O11 0.488908 0.012790 0.652245
O O12 0.537216 0.753008 0.905675
#
# Coordination Sequence:
#
# PCOD8134204 Si02
#       6
#     8   8   8   8   8   8
#     4  10  19  35  58  83 104 143 191 231 268 325
#     4  11  21  33  58  86 112 137 184 240 279 318
#     4  10  20  35  58  79 106 149 189 223 267 337
#     4   9  18  34  57  76 109 147 188 215 272 343
#     4  10  20  35  56  82 112 148 182 224 280 341
#     4  10  20  36  58  79 107 146 192 224 265 335
#
# _framework density 21.438174
#
# number of rings (size 3 to 8) (size 9 to 14) (size 15 to 20)
#    0.000    2.000    3.333    3.000    0.000    4.000 
#    0.000    2.500    3.667    0.000    0.000    0.000 
#    0.000    0.000    0.000    0.000    0.000    0.000 
#
# Total GULP energy -297419.755568 kJ/mol
# GULP energy per Si atom -12392.489815 kJ/mol
# Density = 2.138938 g / cm^3
# Si number density = 21.438174 Si / 1000 Ang^3
#
#
#
# Elastic Constant Matrix: (Units=GPa)
#
#
# Indices 1 2 3 4 5 6 
#
# 1 52.6840 12.0718 1.7560 0.0000 9.3197 0.0000
# 2 12.0718 27.7365 16.2451 0.0000 9.6030 0.0000
# 3 1.7560 16.2451 86.0932 0.0000 26.0670 0.0000
# 4 0.0000 0.0000 0.0000 25.4097 0.0000 12.8729
# 5 9.3197 9.6030 26.0670 0.0000 36.0172 0.0000
# 6 0.0000 0.0000 0.0000 12.8729 0.0000 27.6191
#
#
#
# Elastic Compliance Matrix: (Units=1/GPa)
#
#
# Indices 1 2 3 4 5 6 
#
# 1 0.021987 -0.009458 0.002939 0.000000 -0.005295 0.000000
# 2 -0.009458 0.045925 -0.007052 0.000000 -0.004694 0.000000
# 3 0.002939 -0.007052 0.016068 0.000000 -0.010509 0.000000
# 4 0.000000 0.000000 0.000000 0.051520 0.000000 -0.024013
# 5 -0.005295 -0.004694 -0.010509 0.000000 0.037992 0.000000
# 6 0.000000 0.000000 0.000000 -0.024013 0.000000 0.047399
#
#
# Mechanical properties :
#
#
# Convention : Reuss Voigt Hill
#
# Bulk Modulus (GPa) = 17.59325 25.18440 21.38883
# Shear Modulus (GPa) = 18.72811 26.90524 22.81668
#
# Velocity S-wave (km/s) = 2.95886 3.54646 3.26590
# Velocity P-wave (km/s) = 4.46065 5.34255 4.92140
#
# Compressibility (1/GPa) = 0.05683997
#
# Stress axis : x y z
#
# Youngs Moduli (GPa) = 45.48164 21.77455 62.23564
#
# Poissons Ratio (x) = 0.20594 -0.18293
# Poissons Ratio (y) = 0.43015 0.43886
# Poissons Ratio (z) = -0.13368 0.15355
#
# Static dielectric constant tensor:
#      x y z
#    x 3.749160 0.000000 0.296610 
#    y 0.000000 3.313760 0.000000 
#    z 0.296610 0.000000 4.408780 
# 
# 
# High freq. dielectric constant tensor:
#      x y z
#    x 1.837510 0.000000 0.009970 
#    y 0.000000 1.768470 0.000000 
#    z 0.009970 0.000000 1.864380 
# 
# From -- ./inp_files/160321.got.cif
#   From: 2010.06.25/outbox.cif.g09.slc.cpg/sg15_81_cif.got.tgz:160321.got - 2010.06.28 07:06:18.
