data_PCOD8134796
_publ_section_title
;
Structure prediction by ZEFSAII (Michael W. Deem and Ramdas Pophale) SiO2 
 PCOD8134796
Probable space group: C 2/C
;
_chemical_formula_sum "Si O2"
_cell_formula_units_Z 44
_cell_length_a 9.853838
_cell_length_b 22.276758
_cell_length_c 11.308865
_cell_angle_alpha 90.000000
_cell_angle_beta 62.125528
_cell_angle_gamma 90.000000
_cell_volume 2194.400682
_symmetry_space_group_name_H-M "C 2/C"
_symmetry_group_IT_number 15
_symmetry_cell_setting 'monoclinic'
loop_
_space_group_symop_operation_xyz
x,y,z
-x,y,1/2-z
-x,-y,-z
x,-y,1/2+z
1/2+x,1/2+y,z
1/2-x,1/2+y,1/2-z
1/2-x,1/2-y,-z
1/2+x,1/2-y,1/2+z
loop_
_atom_site_type_symbol
_atom_site_label
_atom_site_fract_x
_atom_site_fract_y
_atom_site_fract_z
Si Si1 0.000000 0.774920 0.250000
Si Si2 0.871104 0.814258 0.888852
Si Si3 0.356315 0.420789 0.050128
Si Si4 0.950526 0.288252 0.534193
Si Si5 0.277095 0.865398 0.176832
Si Si6 0.884354 0.964928 0.397102
O O1 0.971924 0.731676 0.374369
O O2 0.147413 0.815569 0.211369
O O3 0.711046 0.821828 0.882293
O O4 0.000000 0.790819 0.750000
O O5 0.904220 0.880319 0.921439
O O6 0.885437 0.769445 0.992401
O O7 0.223364 0.390809 0.187304
O O8 0.509352 0.423588 0.065308
O O9 0.306249 0.484308 0.011955
O O10 0.062253 0.332907 0.416383
O O11 0.248995 0.922798 0.102794
O O12 0.000000 0.992158 0.250000
#
# Coordination Sequence:
#
# PCOD8134796 Si02
#       6
#     4   8   8   8   8   8
#     4  12  20  42  58  92 124 166 206 254 310 384
#     4  11  23  40  58  90 121 165 211 255 315 389
#     4  10  19  36  62  90 123 164 208 257 305 376
#     4  11  25  37  62  89 127 163 206 259 323 371
#     4  11  20  38  61  94 125 160 211 260 313 371
#     4   9  18  35  61  91 120 164 218 255 303 369
#
# _framework density 20.051033
#
# number of rings (size 3 to 8) (size 9 to 14) (size 15 to 20)
#    0.000    1.455    4.545    2.182    2.545    1.455 
#    0.000    0.909    0.000    4.364    0.000    0.000 
#    0.000    0.000    0.000    0.000    0.000    0.000 
#
# Total GULP energy -272615.757042 kJ/mol
# GULP energy per Si atom -12391.625320 kJ/mol
# Density = 2.000540 g / cm^3
# Si number density = 20.051033 Si / 1000 Ang^3
#
#
#
# Elastic Constant Matrix: (Units=GPa)
#
#
# Indices 1 2 3 4 5 6 
#
# 1 70.4121 32.7787 44.0385 0.0000 -9.1577 0.0000
# 2 32.7787 82.5343 43.8560 0.0000 0.1901 0.0000
# 3 44.0385 43.8560 95.1760 0.0000 -5.4150 0.0000
# 4 0.0000 0.0000 0.0000 42.3147 0.0000 11.9918
# 5 -9.1577 0.1901 -5.4150 0.0000 38.3744 0.0000
# 6 0.0000 0.0000 0.0000 11.9918 0.0000 -0.0250
#
#
#
# Elastic Compliance Matrix: (Units=1/GPa)
#
#
# Indices 1 2 3 4 5 6 
#
# 1 0.021658 -0.004516 -0.007707 0.000000 0.004103 0.000000
# 2 -0.004516 0.017035 -0.005873 0.000000 -0.001991 0.000000
# 3 -0.007707 -0.005873 0.016811 0.000000 0.000562 0.000000
# 4 0.000000 0.000000 0.000000 0.000172 0.000000 0.082782
# 5 0.004103 -0.001991 0.000562 0.000000 0.027127 0.000000
# 6 0.000000 0.000000 0.000000 0.082782 0.000000 -0.292108
#
#
# Mechanical properties :
#
#
# Convention : Reuss Voigt Hill
#
# Bulk Modulus (GPa) = 51.78078 54.38545 53.08312
# Shear Modulus (GPa) = -29.99877 24.62944 -2.68466
#
# Velocity S-wave (km/s) = -3.87217 3.50857 -1.15837
# Velocity P-wave (km/s) = 2.42672 6.60271 4.97417
#
# Compressibility (1/GPa) = 0.01931218
#
# Stress axis : x y z
#
# Youngs Moduli (GPa) = 46.17155 58.70221 59.48358
#
# Poissons Ratio (x) = 0.26509 0.45845
# Poissons Ratio (y) = 0.20850 0.34937
# Poissons Ratio (z) = 0.35585 0.34478
#
# Static dielectric constant tensor:
#      x y z
#    x 3.634220 0.000000 0.205950 
#    y 0.000000 3.680860 0.000000 
#    z 0.205950 0.000000 3.809840 
# 
# 
# High freq. dielectric constant tensor:
#      x y z
#    x 1.768930 0.000000 0.020130 
#    y 0.000000 1.784640 0.000000 
#    z 0.020130 0.000000 1.776720 
# 
# From -- ./inp_files/78312.got.cif
#   From: 2010.06.25/outbox.cif.g09.slc.cpg/sg15_40_cif.got.tgz:78312.got - 2010.06.28 07:06:18.
