data_PCOD8134220
_publ_section_title
;
Structure prediction by ZEFSAII (Michael W. Deem and Ramdas Pophale) SiO2 
 PCOD8134220
Probable space group: C 2/C
;
_chemical_formula_sum "Si O2"
_cell_formula_units_Z 56
_cell_length_a 23.442282
_cell_length_b 8.122006
_cell_length_c 16.005485
_cell_angle_alpha 90.000000
_cell_angle_beta 131.329650
_cell_angle_gamma 90.000000
_cell_volume 2288.374720
_symmetry_space_group_name_H-M "C 2/C"
_symmetry_group_IT_number 15
_symmetry_cell_setting 'monoclinic'
loop_
_space_group_symop_operation_xyz
x,y,z
-x,y,1/2-z
-x,-y,-z
x,-y,1/2+z
1/2+x,1/2+y,z
1/2-x,1/2+y,1/2-z
1/2-x,1/2-y,-z
1/2+x,1/2-y,1/2+z
loop_
_atom_site_type_symbol
_atom_site_label
_atom_site_fract_x
_atom_site_fract_y
_atom_site_fract_z
Si Si1 0.321284 0.406878 0.145727
Si Si2 0.250574 0.389462 0.851638
Si Si3 0.669815 0.309869 0.950055
Si Si4 0.301371 0.900899 0.877324
Si Si5 0.124245 0.623966 0.756266
Si Si6 0.392973 0.230288 0.940528
Si Si7 0.535030 0.786663 0.692160
O O1 0.271697 0.240067 0.096780
O O2 0.329037 0.488245 0.058648
O O3 0.281653 0.548218 0.164882
O O4 0.405715 0.363720 0.258173
O O5 0.209220 0.329065 0.725515
O O6 0.215661 0.571255 0.838065
O O7 0.340658 0.384082 0.920310
O O8 0.609779 0.233064 0.824995
O O9 0.750000 0.250000 0.000000
O O10 0.653943 0.241351 0.027374
O O11 0.354095 0.060797 0.931907
O O12 0.098367 0.729424 0.651312
O O13 0.076105 0.458300 0.713970
O O14 0.473997 0.248022 0.061697
O O15 0.500000 0.791658 0.750000
#
# Coordination Sequence:
#
# PCOD8134220 Si02
#       7
#     8   8   8   8   8   8   8
#     4   9  20  37  56  85 118 144 187 242 286 335
#     4   9  19  37  63  90 113 146 196 243 285 343
#     4  10  19  35  58  85 115 149 187 238 293 341
#     4   9  18  35  61  88 115 151 195 240 291 347
#     4  10  21  38  60  85 116 152 193 239 287 348
#     4  10  19  35  60  87 113 152 198 238 286 349
#     4  11  23  39  56  80 117 158 195 236 285 345
#
# _framework density 24.471516000000001
#
# number of rings (size 3 to 8) (size 9 to 14) (size 15 to 20)
#    0.000    2.286    0.000    3.000    0.000    2.286 
#    0.000   15.000    0.000    5.143    0.000    0.000 
#    0.000    0.000    0.000    0.000    0.000    0.000 
#
# Total GULP energy -347001.904283 kJ/mol
# GULP energy per Si atom -12392.925153 kJ/mol
# Density = 2.441582 g / cm^3
# Si number density = 24.471516 Si / 1000 Ang^3
#
#
#
# Elastic Constant Matrix: (Units=GPa)
#
#
# Indices 1 2 3 4 5 6 
#
# 1 74.3133 20.7563 29.4465 0.0000 -8.5617 0.0000
# 2 20.7563 71.3286 33.6802 0.0000 -8.1629 0.0000
# 3 29.4465 33.6802 81.2412 0.0000 -1.6327 0.0000
# 4 0.0000 0.0000 0.0000 36.1040 0.0000 -6.3828
# 5 -8.5617 -8.1629 -1.6327 0.0000 48.9416 0.0000
# 6 0.0000 0.0000 0.0000 -6.3828 0.0000 31.2129
#
#
#
# Elastic Compliance Matrix: (Units=1/GPa)
#
#
# Indices 1 2 3 4 5 6 
#
# 1 0.016290 -0.002124 -0.004977 0.000000 0.002330 0.000000
# 2 -0.002124 0.018064 -0.006671 0.000000 0.002419 0.000000
# 3 -0.004977 -0.006671 0.016850 0.000000 -0.001421 0.000000
# 4 0.000000 0.000000 0.000000 0.028737 0.000000 0.005876
# 5 0.002330 0.002419 -0.001421 0.000000 0.021196 0.000000
# 6 0.000000 0.000000 0.000000 0.005876 0.000000 0.033240
#
#
# Mechanical properties :
#
#
# Convention : Reuss Voigt Hill
#
# Bulk Modulus (GPa) = 42.26285 43.84989 43.05637
# Shear Modulus (GPa) = 29.44522 32.78505 31.11513
#
# Velocity S-wave (km/s) = 3.47254 3.66419 3.56966
# Velocity P-wave (km/s) = 5.77804 5.98827 5.88410
#
# Compressibility (1/GPa) = 0.02366145
#
# Stress axis : x y z
#
# Youngs Moduli (GPa) = 61.38613 55.35842 59.34739
#
# Poissons Ratio (x) = 0.11756 0.29539
# Poissons Ratio (y) = 0.13036 0.39588
# Poissons Ratio (z) = 0.30554 0.36927
#
# Static dielectric constant tensor:
#      x y z
#    x 4.757080 0.000000 -0.497980 
#    y 0.000000 5.160600 0.000000 
#    z -0.497980 0.000000 4.934110 
# 
# 
# High freq. dielectric constant tensor:
#      x y z
#    x 1.950040 0.000000 -0.025910 
#    y 0.000000 1.973270 0.000000 
#    z -0.025910 0.000000 1.980110 
# 
# From -- ./inp_files/222100.got.cif
#   From: 2010.06.25/outbox.cif.g09.slc.cpg/sg15_112_cif.got.tgz:222100.got - 2010.06.28 07:06:18.
