data_PCOD8134465
_publ_section_title
;
Structure prediction by ZEFSAII (Michael W. Deem and Ramdas Pophale) SiO2 
 PCOD8134465
Probable space group: C 2/C
;
_chemical_formula_sum "Si O2"
_cell_formula_units_Z 52
_cell_length_a 22.717299
_cell_length_b 17.906611
_cell_length_c 11.326491
_cell_angle_alpha 90.000000
_cell_angle_beta 35.610176
_cell_angle_gamma 90.000000
_cell_volume 2682.797740
_symmetry_space_group_name_H-M "C 2/C"
_symmetry_group_IT_number 15
_symmetry_cell_setting 'monoclinic'
loop_
_space_group_symop_operation_xyz
x,y,z
-x,y,1/2-z
-x,-y,-z
x,-y,1/2+z
1/2+x,1/2+y,z
1/2-x,1/2+y,1/2-z
1/2-x,1/2-y,-z
1/2+x,1/2-y,1/2+z
loop_
_atom_site_type_symbol
_atom_site_label
_atom_site_fract_x
_atom_site_fract_y
_atom_site_fract_z
Si Si1 0.638130 0.231727 0.799909
Si Si2 0.217524 0.361454 0.969219
Si Si3 0.799890 0.465983 0.959405
Si Si4 0.000000 0.494630 0.750000
Si Si5 0.243991 0.317844 0.357400
Si Si6 0.375376 0.904471 0.613932
Si Si7 0.087555 0.269536 0.801120
O O1 0.682114 0.311439 0.684489
O O2 0.634582 0.173924 0.694432
O O3 0.711069 0.190230 0.775205
O O4 0.528465 0.254831 0.031250
O O5 0.181174 0.356276 0.893397
O O6 0.238287 0.449682 0.957652
O O7 0.909986 0.448110 0.838850
O O8 0.797970 0.453437 0.820874
O O9 0.735398 0.403344 0.133744
O O10 0.038378 0.544878 0.580454
O O11 0.155434 0.274139 0.572974
O O12 0.353632 0.281286 0.199791
O O13 0.428938 0.851023 0.618941
#
# Coordination Sequence:
#
# PCOD8134465 Si02
#       7
#     8   8   8   4   8   8   8
#     4  11  22  39  61  84 118 152 198 235 283 344
#     4  10  23  39  56  88 114 155 189 238 287 343
#     4  10  22  34  56  81 120 148 186 241 288 341
#     4  10  20  30  54  88 108 154 182 230 304 344
#     4  10  22  37  57  91 115 150 194 239 285 340
#     4  10  19  36  53  81 120 144 189 233 291 346
#     4  10  20  37  61  83 117 156 190 238 284 339
#
# _framework density 19.382750999999999
#
# number of rings (size 3 to 8) (size 9 to 14) (size 15 to 20)
#    0.000    1.846    1.538    2.769    8.615    0.000 
#    0.000    0.769    0.000    0.000    4.000    0.000 
#    0.000    0.000    0.000    0.000    0.000    0.000 
#
# Total GULP energy -322133.904302 kJ/mol
# GULP energy per Si atom -12389.765550 kJ/mol
# Density = 1.933864 g / cm^3
# Si number density = 19.382751 Si / 1000 Ang^3
#
#
#
# Elastic Constant Matrix: (Units=GPa)
#
#
# Indices 1 2 3 4 5 6 
#
# 1 77.4980 20.7956 12.9916 0.0000 15.9930 0.0000
# 2 20.7956 97.5280 30.8325 0.0000 2.6386 0.0000
# 3 12.9916 30.8325 57.6933 0.0000 2.8934 0.0000
# 4 0.0000 0.0000 0.0000 23.3158 0.0000 5.2118
# 5 15.9930 2.6386 2.8934 0.0000 31.4365 0.0000
# 6 0.0000 0.0000 0.0000 5.2118 0.0000 42.3833
#
#
#
# Elastic Compliance Matrix: (Units=1/GPa)
#
#
# Indices 1 2 3 4 5 6 
#
# 1 0.015417 -0.002534 -0.001743 0.000000 -0.007470 0.000000
# 2 -0.002534 0.012760 -0.006289 0.000000 0.000797 0.000000
# 3 -0.001743 -0.006289 0.021113 0.000000 -0.000529 0.000000
# 4 0.000000 0.000000 0.000000 0.044102 0.000000 -0.005423
# 5 -0.007470 0.000797 -0.000529 0.000000 0.035592 0.000000
# 6 0.000000 0.000000 0.000000 -0.005423 0.000000 0.024261
#
#
# Mechanical properties :
#
#
# Convention : Reuss Voigt Hill
#
# Bulk Modulus (GPa) = 35.51252 40.21761 37.86507
# Shear Modulus (GPa) = 27.20893 30.63379 28.92136
#
# Velocity S-wave (km/s) = 3.75076 3.97982 3.86699
# Velocity P-wave (km/s) = 6.09254 6.47401 6.28617
#
# Compressibility (1/GPa) = 0.02815908
#
# Stress axis : x y z
#
# Youngs Moduli (GPa) = 64.86193 78.36745 47.36469
#
# Poissons Ratio (x) = 0.19861 0.08254
# Poissons Ratio (y) = 0.16438 0.29786
# Poissons Ratio (z) = 0.11303 0.49283
#
# Static dielectric constant tensor:
#      x y z
#    x 3.529280 0.000000 0.286390 
#    y 0.000000 3.522560 0.000000 
#    z 0.286390 0.000000 3.501040 
# 
# 
# High freq. dielectric constant tensor:
#      x y z
#    x 1.751950 0.000000 0.027290 
#    y 0.000000 1.755830 0.000000 
#    z 0.027290 0.000000 1.733930 
# 
# From -- ./inp_files/98454.got.cif
#   From: 2010.06.25/outbox.cif.g09.slc.cpg/sg15_50_cif.got.tgz:98454.got - 2010.06.28 07:06:18.
