data_PCOD8134079
_publ_section_title
;
Structure prediction by ZEFSAII (Michael W. Deem and Ramdas Pophale) SiO2 
 PCOD8134079
Probable space group: C 2/C
;
_chemical_formula_sum "Si O2"
_cell_formula_units_Z 56
_cell_length_a 14.953396
_cell_length_b 19.263461
_cell_length_c 17.638983
_cell_angle_alpha 90.000000
_cell_angle_beta 33.741501
_cell_angle_gamma 90.000000
_cell_volume 2822.215898
_symmetry_space_group_name_H-M "C 2/C"
_symmetry_group_IT_number 15
_symmetry_cell_setting 'monoclinic'
loop_
_space_group_symop_operation_xyz
x,y,z
-x,y,1/2-z
-x,-y,-z
x,-y,1/2+z
1/2+x,1/2+y,z
1/2-x,1/2+y,1/2-z
1/2-x,1/2-y,-z
1/2+x,1/2-y,1/2+z
loop_
_atom_site_type_symbol
_atom_site_label
_atom_site_fract_x
_atom_site_fract_y
_atom_site_fract_z
Si Si1 0.977098 0.174029 0.448108
Si Si2 0.204917 0.305068 0.862865
Si Si3 0.926185 0.222206 0.882090
Si Si4 0.152248 0.482633 0.591117
Si Si5 0.457687 0.135557 0.153424
Si Si6 0.832066 0.891454 0.906245
Si Si7 0.144619 0.104659 0.458942
O O1 0.890097 0.232828 0.559495
O O2 0.857444 0.141363 0.471230
O O3 0.132264 0.209658 0.299679
O O4 0.033861 0.108592 0.461821
O O5 0.106450 0.367615 0.888446
O O6 0.248846 0.332515 0.914744
O O7 0.940085 0.153355 0.920876
O O8 0.000000 0.203036 0.750000
O O9 0.015434 0.282676 0.862678
O O10 0.750000 0.250000 0.000000
O O11 0.205063 0.545593 0.500226
O O12 0.314733 0.468160 0.527650
O O13 0.000000 0.504942 0.750000
O O14 0.104677 0.416915 0.569344
O O15 0.326570 0.126181 0.311155
O O16 0.000000 0.916275 0.750000
#
# Coordination Sequence:
#
# PCOD8134079 Si02
#       7
#     8   8   8   8   8   8   8
#     4  10  21  38  60  83 113 144 185 232 282 326
#     4  10  21  37  60  84 113 143 184 234 282 324
#     4  12  19  30  53  81 116 147 176 222 278 335
#     4  10  21  38  58  78 112 152 187 222 277 338
#     4  10  19  35  55  83 114 145 178 226 280 332
#     4  10  23  41  56  79 112 151 190 236 272 315
#     4  10  20  35  55  84 113 146 179 225 281 331
#
# _framework density 19.842565
#
# number of rings (size 3 to 8) (size 9 to 14) (size 15 to 20)
#    0.000    1.714    4.286    0.857    0.000    2.857 
#    0.000    0.000    0.000    0.000    0.000    0.000 
#    0.000    0.000    0.000    0.000    0.000    0.000 
#
# Total GULP energy -346872.196514 kJ/mol
# GULP energy per Si atom -12388.292733 kJ/mol
# Density = 1.979740 g / cm^3
# Si number density = 19.842565 Si / 1000 Ang^3
#
#
#
# Elastic Constant Matrix: (Units=GPa)
#
#
# Indices 1 2 3 4 5 6 
#
# 1 111.0060 16.8802 22.0066 -0.0246 4.9496 0.0015
# 2 16.8802 55.6614 23.1439 -0.0568 1.3023 0.0048
# 3 22.0066 23.1439 50.3810 -0.0677 11.3595 0.0071
# 4 -0.0246 -0.0568 -0.0677 29.2293 0.0058 -1.7781
# 5 4.9496 1.3023 11.3595 0.0058 20.8531 -0.0016
# 6 0.0015 0.0048 0.0071 -1.7781 -0.0016 21.5979
#
#
#
# Elastic Compliance Matrix: (Units=1/GPa)
#
#
# Indices 1 2 3 4 5 6 
#
# 1 0.009964 -0.001526 -0.003579 -0.000003 -0.000320 0.000001
# 2 -0.001526 0.022863 -0.010939 0.000017 0.004894 0.000000
# 3 -0.003579 -0.010939 0.029745 0.000047 -0.014671 -0.000004
# 4 -0.000003 0.000017 0.000047 0.034385 -0.000036 0.002831
# 5 -0.000320 0.004894 -0.014671 -0.000036 0.055717 0.000005
# 6 0.000001 0.000000 -0.000004 0.002831 0.000005 0.046534
#
#
# Mechanical properties :
#
#
# Convention : Reuss Voigt Hill
#
# Bulk Modulus (GPa) = 32.80511 37.90108 35.35310
# Shear Modulus (GPa) = 20.70750 24.67056 22.68903
#
# Velocity S-wave (km/s) = 3.23397 3.52989 3.38517
# Velocity P-wave (km/s) = 5.52389 5.97962 5.75627
#
# Compressibility (1/GPa) = 0.03048305
#
# Stress axis : x y z
#
# Youngs Moduli (GPa) = 100.35686 43.73934 33.61861
#
# Poissons Ratio (x) = 0.06675 0.12033
# Poissons Ratio (y) = 0.15316 0.36777
# Poissons Ratio (z) = 0.35920 0.47848
#
# Static dielectric constant tensor:
#      x y z
#    x 3.867360 -0.000010 0.000850 
#    y -0.000010 3.171960 0.000010 
#    z 0.000850 0.000010 3.474420 
# 
# 
# High freq. dielectric constant tensor:
#      x y z
#    x 1.792070 0.000000 0.003460 
#    y 0.000000 1.745710 0.000000 
#    z 0.003460 0.000000 1.766200 
# 
# From -- ./inp_files/41220.got.cif
#   From: 2010.06.25/outbox.cif.g09.slc.cpg/sg15_21_cif.got.tgz:41220.got - 2010.06.28 07:06:18.
