data_PCOD8134341
_publ_section_title
;
Structure prediction by ZEFSAII (Michael W. Deem and Ramdas Pophale) SiO2 
 PCOD8134341
Probable space group: C 2/C
;
_chemical_formula_sum "Si O2"
_cell_formula_units_Z 60
_cell_length_a 28.017313
_cell_length_b 19.846508
_cell_length_c 8.881169
_cell_angle_alpha 90.000000
_cell_angle_beta 37.533968
_cell_angle_gamma 90.000000
_cell_volume 3008.591243
_symmetry_space_group_name_H-M "C 2/C"
_symmetry_group_IT_number 15
_symmetry_cell_setting 'monoclinic'
loop_
_space_group_symop_operation_xyz
x,y,z
-x,y,1/2-z
-x,-y,-z
x,-y,1/2+z
1/2+x,1/2+y,z
1/2-x,1/2+y,1/2-z
1/2-x,1/2-y,-z
1/2+x,1/2-y,1/2+z
loop_
_atom_site_type_symbol
_atom_site_label
_atom_site_fract_x
_atom_site_fract_y
_atom_site_fract_z
Si Si1 0.342781 0.011613 0.247076
Si Si2 0.167539 0.169874 0.796342
Si Si3 0.761483 0.305219 0.776429
Si Si4 0.000000 0.811451 0.750000
Si Si5 0.977639 0.284165 0.043693
Si Si6 0.871805 0.717346 0.523221
Si Si7 0.780440 0.412262 0.182523
Si Si8 0.391489 0.905710 0.356712
O O1 0.303600 0.062787 0.459058
O O2 0.276202 0.974020 0.310949
O O3 0.392053 0.956425 0.214745
O O4 0.399834 0.052943 0.991769
O O5 0.179716 0.249509 0.800827
O O6 0.215657 0.155203 0.523236
O O7 0.197893 0.124883 0.861065
O O8 0.076310 0.148223 0.999948
O O9 0.812033 0.360044 0.558052
O O10 0.698577 0.270338 0.822222
O O11 0.961538 0.768939 0.713152
O O12 0.967006 0.358690 0.140941
O O13 0.912782 0.269340 0.079384
O O14 0.065886 0.274468 0.766768
O O15 0.843066 0.640684 0.589931
#
# Coordination Sequence:
#
# PCOD8134341 Si02
#       8
#     8   8   8   4   8   8   8   8
#     4  10  22  36  59  85 112 154 209 237 276 342
#     4  10  20  34  59  90 114 148 187 249 298 354
#     4  10  19  35  61  84 115 151 193 243 303 345
#     4  12  22  36  60  90 116 152 192 234 308 366
#     4  11  23  36  55  84 125 158 183 240 297 348
#     4  10  22  39  56  84 124 154 192 242 302 353
#     4  10  20  39  59  83 114 150 202 244 281 343
#     4  11  21  39  57  85 113 157 198 243 286 338
#
# _framework density 19.942889999999998
#
# number of rings (size 3 to 8) (size 9 to 14) (size 15 to 20)
#    0.000    1.600    5.333    0.000    1.867    1.600 
#    0.000    4.000    0.000    0.800    0.000    0.000 
#    0.000    0.000    0.000    0.000    0.000    0.000 
#
# Total GULP energy -371877.368156 kJ/mol
# GULP energy per Si atom -12395.912272 kJ/mol
# Density = 1.989750 g / cm^3
# Si number density = 19.942890 Si / 1000 Ang^3
#
#
#
# Elastic Constant Matrix: (Units=GPa)
#
#
# Indices 1 2 3 4 5 6 
#
# 1 71.9782 7.1819 18.4299 0.0000 8.8387 0.0000
# 2 7.1819 38.3649 -3.3332 0.0000 11.4815 0.0000
# 3 18.4299 -3.3332 62.2800 0.0000 2.0679 0.0000
# 4 0.0000 0.0000 0.0000 17.0355 0.0000 6.6286
# 5 8.8387 11.4815 2.0679 0.0000 30.6053 0.0000
# 6 0.0000 0.0000 0.0000 6.6286 0.0000 29.3350
#
#
#
# Elastic Compliance Matrix: (Units=1/GPa)
#
#
# Indices 1 2 3 4 5 6 
#
# 1 0.015734 -0.002350 -0.004671 0.000000 -0.003347 0.000000
# 2 -0.002350 0.029949 0.002655 0.000000 -0.010736 0.000000
# 3 -0.004671 0.002655 0.017609 0.000000 -0.000837 0.000000
# 4 0.000000 0.000000 0.000000 0.064359 0.000000 -0.014543
# 5 -0.003347 -0.010736 -0.000837 0.000000 0.037725 0.000000
# 6 0.000000 0.000000 0.000000 -0.014543 0.000000 0.037375
#
#
# Mechanical properties :
#
#
# Convention : Reuss Voigt Hill
#
# Bulk Modulus (GPa) = 18.32828 24.13114 21.22971
# Shear Modulus (GPa) = 21.77037 25.41812 23.59424
#
# Velocity S-wave (km/s) = 3.30758 3.57395 3.44334
# Velocity P-wave (km/s) = 4.87822 5.39974 5.14560
#
# Compressibility (1/GPa) = 0.05456050
#
# Stress axis : x y z
#
# Youngs Moduli (GPa) = 63.55472 33.39007 56.79060
#
# Poissons Ratio (x) = 0.07845 0.26526
# Poissons Ratio (y) = 0.14933 -0.15076
# Poissons Ratio (z) = 0.29685 -0.08864
#
# Static dielectric constant tensor:
#      x y z
#    x 3.609740 0.000000 0.153530 
#    y 0.000000 3.530640 0.000000 
#    z 0.153530 0.000000 3.613410 
# 
# 
# High freq. dielectric constant tensor:
#      x y z
#    x 1.783020 0.000000 0.016260 
#    y 0.000000 1.756930 0.000000 
#    z 0.016260 0.000000 1.771650 
# 
# From -- ./inp_files/67514.got.cif
#   From: 2010.06.25/outbox.cif.g09.slc.cpg/sg15_34_cif.got.tgz:67514.got - 2010.06.28 07:06:18.
