data_PCOD8134345
_publ_section_title
;
Structure prediction by ZEFSAII (Michael W. Deem and Ramdas Pophale) SiO2 
 PCOD8134345
Probable space group: C 2/C
;
_chemical_formula_sum "Si O2"
_cell_formula_units_Z 56
_cell_length_a 14.153530
_cell_length_b 9.516163
_cell_length_c 28.812572
_cell_angle_alpha 90.000000
_cell_angle_beta 133.400743
_cell_angle_gamma 90.000000
_cell_volume 2819.574656
_symmetry_space_group_name_H-M "C 2/C"
_symmetry_group_IT_number 15
_symmetry_cell_setting 'monoclinic'
loop_
_space_group_symop_operation_xyz
x,y,z
-x,y,1/2-z
-x,-y,-z
x,-y,1/2+z
1/2+x,1/2+y,z
1/2-x,1/2+y,1/2-z
1/2-x,1/2-y,-z
1/2+x,1/2-y,1/2+z
loop_
_atom_site_type_symbol
_atom_site_label
_atom_site_fract_x
_atom_site_fract_y
_atom_site_fract_z
Si Si1 0.599664 0.227129 0.451356
Si Si2 0.012617 0.217936 0.017891
Si Si3 0.582160 0.449147 0.149266
Si Si4 0.895059 0.769798 0.252698
Si Si5 0.018326 0.517497 0.346378
Si Si6 0.799099 0.043844 0.904164
Si Si7 0.400533 0.234113 0.857417
O O1 0.750000 0.250000 0.500000
O O2 0.555297 0.188158 0.488521
O O3 0.544885 0.376586 0.415450
O O4 0.551903 0.099216 0.404368
O O5 0.018955 0.303417 0.068360
O O6 0.119884 0.096312 0.059234
O O7 0.866103 0.163134 0.958957
O O8 0.615934 0.382723 0.209995
O O9 0.695062 0.420908 0.148995
O O10 0.555186 0.614476 0.147432
O O11 0.752933 0.761471 0.181891
O O12 0.000000 0.821029 0.250000
O O13 0.934023 0.615962 0.284267
O O14 0.148856 0.469303 0.365265
O O15 0.932238 0.381691 0.329409
#
# Coordination Sequence:
#
# PCOD8134345 Si02
#       7
#     8   8   8   8   8   8   8
#     4  10  19  35  61  86 117 156 201 233 278 359
#     4   9  18  34  57  86 123 157 186 245 294 343
#     4   9  21  39  59  84 115 154 192 249 294 339
#     4  11  23  42  64  83 111 159 208 243 290 362
#     4  11  23  37  63  92 115 160 201 241 293 354
#     4   9  17  36  60  86 116 154 200 234 294 354
#     4  11  23  38  57  89 125 152 195 252 301 347
#
# _framework density 19.861152000000001
#
# number of rings (size 3 to 8) (size 9 to 14) (size 15 to 20)
#    0.000    2.000    1.429    3.429    2.000    1.143 
#    0.000    6.429    0.000    0.000    0.000    0.000 
#    0.000    0.000    0.000    0.000    0.000    0.000 
#
# Total GULP energy -347133.944352 kJ/mol
# GULP energy per Si atom -12397.640870 kJ/mol
# Density = 1.981595 g / cm^3
# Si number density = 19.861152 Si / 1000 Ang^3
#
#
#
# Elastic Constant Matrix: (Units=GPa)
#
#
# Indices 1 2 3 4 5 6 
#
# 1 114.9578 58.1062 39.5203 0.0000 -3.1028 0.0000
# 2 58.1062 83.5093 36.4628 0.0000 -0.0324 0.0000
# 3 39.5203 36.4628 81.3346 0.0000 -16.5966 0.0000
# 4 0.0000 0.0000 0.0000 22.1574 0.0000 -5.6079
# 5 -3.1028 -0.0324 -16.5966 0.0000 38.7962 0.0000
# 6 0.0000 0.0000 0.0000 -5.6079 0.0000 28.5959
#
#
#
# Elastic Compliance Matrix: (Units=1/GPa)
#
#
# Indices 1 2 3 4 5 6 
#
# 1 0.013994 -0.008393 -0.003079 0.000000 -0.000205 0.000000
# 2 -0.008393 0.020274 -0.005637 0.000000 -0.003066 0.000000
# 3 -0.003079 -0.005637 0.017822 0.000000 0.007373 0.000000
# 4 0.000000 0.000000 0.000000 0.047489 0.000000 0.009313
# 5 -0.000205 -0.003066 0.007373 0.000000 0.028911 0.000000
# 6 0.000000 0.000000 0.000000 0.009313 0.000000 0.036796
#
#
# Mechanical properties :
#
#
# Convention : Reuss Voigt Hill
#
# Bulk Modulus (GPa) = 55.94695 60.88671 58.41683
# Shear Modulus (GPa) = 24.33544 27.62406 25.97975
#
# Velocity S-wave (km/s) = 3.50419 3.73347 3.62065
# Velocity P-wave (km/s) = 6.67853 7.02195 6.85239
#
# Compressibility (1/GPa) = 0.01787407
#
# Stress axis : x y z
#
# Youngs Moduli (GPa) = 71.45919 49.32319 56.10919
#
# Poissons Ratio (x) = 0.41396 0.17275
# Poissons Ratio (y) = 0.59975 0.31627
# Poissons Ratio (z) = 0.22002 0.27802
#
# Static dielectric constant tensor:
#      x y z
#    x 3.661490 0.000000 -0.249480 
#    y 0.000000 3.549210 0.000000 
#    z -0.249480 0.000000 3.855230 
# 
# 
# High freq. dielectric constant tensor:
#      x y z
#    x 1.770050 0.000000 -0.007190 
#    y 0.000000 1.753870 0.000000 
#    z -0.007190 0.000000 1.787450 
# 
# From -- ./inp_files/312941.got.cif
#   From: 2010.06.25/outbox.cif.g09.slc.cpg/sg15_157_cif.got.tgz:312941.got - 2010.06.28 07:06:18.
