data_PCOD8134283
_publ_section_title
;
Structure prediction by ZEFSAII (Michael W. Deem and Ramdas Pophale) SiO2 
 PCOD8134283
Probable space group: C 2/C
;
_chemical_formula_sum "Si O2"
_cell_formula_units_Z 56
_cell_length_a 17.345947
_cell_length_b 18.069986
_cell_length_c 8.350929
_cell_angle_alpha 90.000000
_cell_angle_beta 111.963923
_cell_angle_gamma 90.000000
_cell_volume 2427.542642
_symmetry_space_group_name_H-M "C 2/C"
_symmetry_group_IT_number 15
_symmetry_cell_setting 'monoclinic'
loop_
_space_group_symop_operation_xyz
x,y,z
-x,y,1/2-z
-x,-y,-z
x,-y,1/2+z
1/2+x,1/2+y,z
1/2-x,1/2+y,1/2-z
1/2-x,1/2-y,-z
1/2+x,1/2-y,1/2+z
loop_
_atom_site_type_symbol
_atom_site_label
_atom_site_fract_x
_atom_site_fract_y
_atom_site_fract_z
Si Si1 0.096459 0.929977 0.161671
Si Si2 0.082725 0.424703 0.910773
Si Si3 0.414430 0.581688 0.475083
Si Si4 0.655022 0.715554 0.594891
Si Si5 0.851205 0.565916 0.373312
Si Si6 0.983823 0.322737 0.054809
Si Si7 0.289198 0.671966 0.203891
O O1 0.083255 0.929323 0.337156
O O2 0.130642 0.010243 0.138345
O O3 0.162383 0.866151 0.173322
O O4 0.010992 0.913541 0.995709
O O5 0.148402 0.413645 0.816980
O O6 0.000000 0.453645 0.750000
O O7 0.127814 0.480560 0.070200
O O8 0.060275 0.350019 0.997703
O O9 0.364373 0.654912 0.384722
O O10 0.565219 0.753262 0.563098
O O11 0.668002 0.708166 0.415909
O O12 0.726811 0.766666 0.728830
O O13 0.923061 0.607903 0.523956
O O14 0.762756 0.596057 0.371638
O O15 0.000000 0.299844 0.250000
#
# Coordination Sequence:
#
# PCOD8134283 Si02
#       7
#     8   8   8   8   8   8   8
#     4  10  22  42  67  97 120 162 221 277 313 379
#     4  10  19  35  59  87 125 167 219 265 308 380
#     4  10  22  42  69  94 123 164 219 270 324 374
#     4  10  23  42  63  93 133 167 215 265 325 395
#     4  10  20  36  57  87 128 167 210 264 313 389
#     4  10  20  36  58  88 119 167 213 261 317 375
#     4  10  23  42  61  93 133 174 207 261 336 394
#
# _framework density 23.068595999999999
#
# number of rings (size 3 to 8) (size 9 to 14) (size 15 to 20)
#    0.000    2.000    0.000    3.857    2.000    4.000 
#   12.857    5.714    0.000    0.000    0.000    0.000 
#    0.000    0.000    0.000    0.000    0.000    0.000 
#
# Total GULP energy -346898.303913 kJ/mol
# GULP energy per Si atom -12389.225140 kJ/mol
# Density = 2.301609 g / cm^3
# Si number density = 23.068596 Si / 1000 Ang^3
#
#
#
# Elastic Constant Matrix: (Units=GPa)
#
#
# Indices 1 2 3 4 5 6 
#
# 1 59.9863 37.9468 17.5856 0.0000 -2.6690 0.0000
# 2 37.9468 96.2213 24.2105 0.0000 2.5483 0.0000
# 3 17.5856 24.2105 76.6316 0.0000 -0.7412 0.0000
# 4 0.0000 0.0000 0.0000 65.1057 0.0000 45.8072
# 5 -2.6690 2.5483 -0.7412 0.0000 24.4865 0.0000
# 6 0.0000 0.0000 0.0000 45.8072 0.0000 106.2824
#
#
#
# Elastic Compliance Matrix: (Units=1/GPa)
#
#
# Indices 1 2 3 4 5 6 
#
# 1 0.022937 -0.008492 -0.002549 0.000000 0.003307 0.000000
# 2 -0.008492 0.014475 -0.002649 0.000000 -0.002512 0.000000
# 3 -0.002549 -0.002649 0.014475 0.000000 0.000436 0.000000
# 4 0.000000 0.000000 0.000000 0.022044 0.000000 -0.009501
# 5 0.003307 -0.002512 0.000436 0.000000 0.041474 0.000000
# 6 0.000000 0.000000 0.000000 -0.009501 0.000000 0.013504
#
#
# Mechanical properties :
#
#
# Convention : Reuss Voigt Hill
#
# Bulk Modulus (GPa) = 40.80247 43.59164 42.19706
# Shear Modulus (GPa) = 30.40324 49.38134 39.89229
#
# Velocity S-wave (km/s) = 3.63430 4.63171 4.16298
# Velocity P-wave (km/s) = 5.94446 6.89502 6.43731
#
# Compressibility (1/GPa) = 0.02450832
#
# Stress axis : x y z
#
# Youngs Moduli (GPa) = 43.59840 69.08667 69.08311
#
# Poissons Ratio (x) = 0.58667 0.17607
# Poissons Ratio (y) = 0.37023 0.18297
# Poissons Ratio (z) = 0.11112 0.18298
#
# Static dielectric constant tensor:
#      x y z
#    x 4.422160 0.000000 0.059430 
#    y 0.000000 3.944020 0.000000 
#    z 0.059430 0.000000 3.853170 
# 
# 
# High freq. dielectric constant tensor:
#      x y z
#    x 1.901480 0.000000 -0.002020 
#    y 0.000000 1.907560 0.000000 
#    z -0.002020 0.000000 1.892730 
# 
# From -- ./inp_files/56714.got.cif
#   From: 2010.06.25/outbox.cif.g09.slc.cpg/sg15_29_cif.got.tgz:56714.got - 2010.06.28 07:06:18.
