data_PCOD8134629
_publ_section_title
;
Structure prediction by ZEFSAII (Michael W. Deem and Ramdas Pophale) SiO2 
 PCOD8134629
Probable space group: C 2/C
;
_chemical_formula_sum "Si O2"
_cell_formula_units_Z 56
_cell_length_a 19.051494
_cell_length_b 9.112166
_cell_length_c 21.264719
_cell_angle_alpha 90.000000
_cell_angle_beta 50.107924
_cell_angle_gamma 90.000000
_cell_volume 2832.366112
_symmetry_space_group_name_H-M "C 2/C"
_symmetry_group_IT_number 15
_symmetry_cell_setting 'monoclinic'
loop_
_space_group_symop_operation_xyz
x,y,z
-x,y,1/2-z
-x,-y,-z
x,-y,1/2+z
1/2+x,1/2+y,z
1/2-x,1/2+y,1/2-z
1/2-x,1/2-y,-z
1/2+x,1/2-y,1/2+z
loop_
_atom_site_type_symbol
_atom_site_label
_atom_site_fract_x
_atom_site_fract_y
_atom_site_fract_z
Si Si1 0.662361 0.760625 0.805876
Si Si2 0.745501 0.589685 0.923293
Si Si3 0.313455 0.610201 0.411283
Si Si4 0.085069 0.065463 0.744339
Si Si5 0.438317 0.364658 0.023240
Si Si6 0.163781 0.573900 0.749787
Si Si7 0.503063 0.711215 0.357407
O O1 0.625553 0.698122 0.761000
O O2 0.584185 0.734375 0.903249
O O3 0.759297 0.690477 0.771056
O O4 0.671676 0.935158 0.791369
O O5 0.749126 0.767723 0.917463
O O6 0.648991 0.546514 0.950718
O O7 0.820603 0.522976 0.832356
O O8 0.743531 0.537893 0.997478
O O9 0.334298 0.485387 0.348958
O O10 0.405872 0.700817 0.377346
O O11 0.000000 0.117281 0.750000
O O12 0.058376 0.935766 0.807696
O O13 0.500000 0.500000 0.000000
O O14 0.485416 0.268821 0.941662
O O15 0.063379 0.646921 0.805426
#
# Coordination Sequence:
#
# PCOD8134629 Si02
#       7
#     8   8   8   8   8   8   8
#     4  11  24  39  59  85 119 156 194 247 295 345
#     4   9  19  34  58  90 112 150 191 239 286 344
#     4   9  18  35  62  85 114 151 195 231 285 354
#     4  10  19  36  59  85 113 155 192 233 290 353
#     4  10  20  35  61  84 116 152 198 239 289 348
#     4  11  23  38  60  88 118 152 199 247 293 342
#     4  10  19  36  62  87 113 152 194 238 286 348
#
# _framework density 19.771455
#
# number of rings (size 3 to 8) (size 9 to 14) (size 15 to 20)
#    0.000    2.000    2.857    0.857    4.000    0.571 
#    2.571    0.714    0.000    0.000    0.000    0.000 
#    0.000    0.000    0.000    0.000    0.000    0.000 
#
# Total GULP energy -346917.364095 kJ/mol
# GULP energy per Si atom -12389.905861 kJ/mol
# Density = 1.972645 g / cm^3
# Si number density = 19.771455 Si / 1000 Ang^3
#
#
#
# Elastic Constant Matrix: (Units=GPa)
#
#
# Indices 1 2 3 4 5 6 
#
# 1 59.5292 21.6698 23.2469 0.0000 5.2317 0.0001
# 2 21.6698 64.5160 28.4940 0.0000 -2.7470 0.0001
# 3 23.2469 28.4940 158.4022 0.0000 10.9893 0.0000
# 4 0.0000 0.0000 0.0000 20.0291 0.0000 0.6418
# 5 5.2317 -2.7470 10.9893 0.0000 28.0386 0.0000
# 6 0.0001 0.0001 0.0000 0.6418 0.0000 32.2757
#
#
#
# Elastic Compliance Matrix: (Units=1/GPa)
#
#
# Indices 1 2 3 4 5 6 
#
# 1 0.019986 -0.006181 -0.001563 0.000000 -0.003722 0.000000
# 2 -0.006181 0.018985 -0.002793 0.000000 0.004108 0.000000
# 3 -0.001563 -0.002793 0.007240 0.000000 -0.002820 0.000000
# 4 0.000000 0.000000 0.000000 0.049959 0.000000 -0.000993
# 5 -0.003722 0.004108 -0.002820 0.000000 0.037867 0.000000
# 6 0.000000 0.000000 0.000000 -0.000993 0.000000 0.031003
#
#
# Mechanical properties :
#
#
# Convention : Reuss Voigt Hill
#
# Bulk Modulus (GPa) = 39.78194 47.69654 43.73924
# Shear Modulus (GPa) = 25.70784 30.00447 27.85616
#
# Velocity S-wave (km/s) = 3.60981 3.89982 3.75761
# Velocity P-wave (km/s) = 6.12690 6.66742 6.40286
#
# Compressibility (1/GPa) = 0.02513703
#
# Stress axis : x y z
#
# Youngs Moduli (GPa) = 50.03496 52.67443 138.11304
#
# Poissons Ratio (x) = 0.32559 0.21587
# Poissons Ratio (y) = 0.30927 0.38573
# Poissons Ratio (z) = 0.07821 0.14711
#
# Static dielectric constant tensor:
#      x y z
#    x 3.507510 0.000000 0.010160 
#    y 0.000000 3.089080 0.000000 
#    z 0.010160 0.000000 4.073770 
# 
# 
# High freq. dielectric constant tensor:
#      x y z
#    x 1.767950 0.000000 0.006530 
#    y 0.000000 1.720830 0.000000 
#    z 0.006530 0.000000 1.798820 
# 
# From -- ./inp_files/251813.got.cif
#   From: 2010.06.25/outbox.cif.g09.slc.cpg/sg15_126_cif.got.tgz:251813.got - 2010.06.28 07:06:18.
