data_PCOD8134913
_publ_section_title
;
Structure prediction by ZEFSAII (Michael W. Deem and Ramdas Pophale) SiO2 
 PCOD8134913
Probable space group: C 2/C
;
_chemical_formula_sum "Si O2"
_cell_formula_units_Z 48
_cell_length_a 15.141465
_cell_length_b 11.377459
_cell_length_c 20.568529
_cell_angle_alpha 90.000000
_cell_angle_beta 131.764256
_cell_angle_gamma 90.000000
_cell_volume 2642.969597
_symmetry_space_group_name_H-M "C 2/C"
_symmetry_group_IT_number 15
_symmetry_cell_setting 'monoclinic'
loop_
_space_group_symop_operation_xyz
x,y,z
-x,y,1/2-z
-x,-y,-z
x,-y,1/2+z
1/2+x,1/2+y,z
1/2-x,1/2+y,1/2-z
1/2-x,1/2-y,-z
1/2+x,1/2-y,1/2+z
loop_
_atom_site_type_symbol
_atom_site_label
_atom_site_fract_x
_atom_site_fract_y
_atom_site_fract_z
Si Si1 0.426777 0.253971 0.077061
Si Si2 0.435476 0.448575 0.406432
Si Si3 0.000000 0.716652 0.750000
Si Si4 0.734578 0.055212 0.495070
Si Si5 0.500000 0.822255 0.750000
Si Si6 0.179560 0.522354 0.829899
Si Si7 0.557320 0.441095 0.842594
O O1 0.536067 0.307820 0.088661
O O2 0.384809 0.121333 0.036244
O O3 0.459313 0.258177 0.169760
O O4 0.319318 0.342465 0.009389
O O5 0.500000 0.500000 0.500000
O O6 0.296500 0.470476 0.343903
O O7 0.482696 0.518307 0.367529
O O8 0.103853 0.635785 0.772495
O O9 0.049851 0.799335 0.832782
O O10 0.703397 0.971742 0.419090
O O11 0.804004 0.979317 0.583335
O O12 0.608662 0.903326 0.778271
O O13 0.500000 0.499998 0.750000
#
# Coordination Sequence:
#
# PCOD8134913 Si02
#       7
#     8   8   4   8   4   8   8
#     4   9  18  31  54  83 107 144 182 218 281 320
#     4  11  20  35  56  85 112 141 187 232 273 329
#     4   9  22  37  56  82 110 153 186 219 292 336
#     4   9  17  33  55  77 110 146 181 221 270 339
#     4   9  20  33  56  84 110 147 188 229 274 332
#     4  10  19  37  56  80 115 147 185 230 277 340
#     4   9  20  37  55  81 110 143 190 221 277 331
#
# _framework density 18.161390000000001
#
# number of rings (size 3 to 8) (size 9 to 14) (size 15 to 20)
#    0.500    2.000    3.333    0.000    4.667    2.000 
#    0.000    1.667    0.000    1.000    0.000    0.000 
#    0.000    0.000    0.000    0.000    0.000    0.000 
#
# Total GULP energy -297340.585689 kJ/mol
# GULP energy per Si atom -12389.191070 kJ/mol
# Density = 1.812005 g / cm^3
# Si number density = 18.161390 Si / 1000 Ang^3
#
#
#
# Elastic Constant Matrix: (Units=GPa)
#
#
# Indices 1 2 3 4 5 6 
#
# 1 97.9198 35.1231 21.3317 0.0000 7.5681 0.0000
# 2 35.1231 75.5182 27.0248 0.0000 -3.0897 0.0000
# 3 21.3317 27.0248 88.0504 0.0000 -5.6411 0.0000
# 4 0.0000 0.0000 0.0000 33.9784 0.0000 6.1258
# 5 7.5681 -3.0897 -5.6411 0.0000 28.4180 0.0000
# 6 0.0000 0.0000 0.0000 6.1258 0.0000 24.2333
#
#
#
# Elastic Compliance Matrix: (Units=1/GPa)
#
#
# Indices 1 2 3 4 5 6 
#
# 1 0.012924 -0.005582 -0.001699 0.000000 -0.004386 0.000000
# 2 -0.005582 0.017302 -0.003790 0.000000 0.002615 0.000000
# 3 -0.001699 -0.003790 0.013101 0.000000 0.002641 0.000000
# 4 0.000000 0.000000 0.000000 0.030836 0.000000 -0.007795
# 5 -0.004386 0.002615 0.002641 0.000000 0.037166 0.000000
# 6 0.000000 0.000000 0.000000 -0.007795 0.000000 0.043236
#
#
# Mechanical properties :
#
#
# Convention : Reuss Voigt Hill
#
# Bulk Modulus (GPa) = 47.20551 47.60528 47.40539
# Shear Modulus (GPa) = 27.20825 29.19320 28.20073
#
# Velocity S-wave (km/s) = 3.87478 4.01363 3.94481
# Velocity P-wave (km/s) = 6.78728 6.91001 6.84892
#
# Compressibility (1/GPa) = 0.02118397
#
# Stress axis : x y z
#
# Youngs Moduli (GPa) = 77.37651 57.79828 76.32897
#
# Poissons Ratio (x) = 0.32265 0.12966
# Poissons Ratio (y) = 0.43194 0.28931
# Poissons Ratio (z) = 0.13143 0.21907
#
# Static dielectric constant tensor:
#      x y z
#    x 2.988200 0.000000 0.441350 
#    y 0.000000 3.497140 0.000000 
#    z 0.441350 0.000000 3.422020 
# 
# 
# High freq. dielectric constant tensor:
#      x y z
#    x 1.663780 0.000000 0.018600 
#    y 0.000000 1.700790 0.000000 
#    z 0.018600 0.000000 1.715320 
# 
# From -- ./inp_files/243494.got.cif
#   From: 2010.06.25/outbox.cif.g09.slc.cpg/sg15_122_cif.got.tgz:243494.got - 2010.06.28 07:06:18.
