data_PCOD8134027
_publ_section_title
;
Structure prediction by ZEFSAII (Michael W. Deem and Ramdas Pophale) SiO2 
 PCOD8134027
Probable space group: C 2/C
;
_chemical_formula_sum "Si O2"
_cell_formula_units_Z 48
_cell_length_a 15.256736
_cell_length_b 22.625751
_cell_length_c 13.143414
_cell_angle_alpha 90.000000
_cell_angle_beta 36.852229
_cell_angle_gamma 90.000000
_cell_volume 2721.105922
_symmetry_space_group_name_H-M "C 2/C"
_symmetry_group_IT_number 15
_symmetry_cell_setting 'monoclinic'
loop_
_space_group_symop_operation_xyz
x,y,z
-x,y,1/2-z
-x,-y,-z
x,-y,1/2+z
1/2+x,1/2+y,z
1/2-x,1/2+y,1/2-z
1/2-x,1/2-y,-z
1/2+x,1/2-y,1/2+z
loop_
_atom_site_type_symbol
_atom_site_label
_atom_site_fract_x
_atom_site_fract_y
_atom_site_fract_z
Si Si1 0.122499 0.313966 0.553431
Si Si2 0.424008 0.972284 0.428117
Si Si3 0.911031 0.033939 0.236523
Si Si4 0.384857 0.315400 0.437765
Si Si5 0.883571 0.588308 0.595922
Si Si6 0.955367 0.915352 0.088410
O O1 0.256219 0.345643 0.490435
O O2 0.167054 0.248429 0.468307
O O3 0.071909 0.352119 0.503739
O O4 0.000000 0.311672 0.750000
O O5 0.500000 0.983593 0.250000
O O6 0.255968 0.952575 0.578657
O O7 0.518254 0.920518 0.394908
O O8 0.424539 0.033831 0.486317
O O9 0.000000 0.057782 0.250000
O O10 0.953693 0.965400 0.177418
O O11 0.951885 0.068307 0.096517
O O12 0.500000 0.294416 0.250000
O O13 0.458138 0.358267 0.451675
O O14 0.713370 0.594612 0.785590
#
# Coordination Sequence:
#
# PCOD8134027 Si02
#       6
#     8   8   8   8   8   8
#     4  10  21  32  53  81 109 140 174 217 264 314
#     4  10  21  35  53  77 108 138 176 218 263 313
#     4  10  21  34  53  79 103 141 179 215 261 310
#     4  10  19  35  53  79 109 140 176 215 263 311
#     4  10  20  35  52  77 106 143 174 214 265 309
#     4  10  20  34  55  75 107 141 178 215 256 316
#
# _framework density 17.639887000000002
#
# number of rings (size 3 to 8) (size 9 to 14) (size 15 to 20)
#    0.000    2.000    1.667    2.000    4.667    1.333 
#    0.000    0.000    0.000    1.000    0.000    4.667 
#    0.000    0.000    0.000    0.000    0.000    0.000 
#
# Total GULP energy -297365.153399 kJ/mol
# GULP energy per Si atom -12390.214725 kJ/mol
# Density = 1.759974 g / cm^3
# Si number density = 17.639887 Si / 1000 Ang^3
#
#
#
# Elastic Constant Matrix: (Units=GPa)
#
#
# Indices 1 2 3 4 5 6 
#
# 1 110.3339 35.9107 34.8514 -0.0021 -19.2608 0.0087
# 2 35.9107 74.6842 14.1843 -0.0013 -7.4106 0.0043
# 3 34.8514 14.1843 101.8409 -0.0012 -12.6278 0.0084
# 4 -0.0021 -0.0013 -0.0012 20.1941 0.0010 2.4955
# 5 -19.2608 -7.4106 -12.6278 0.0010 21.4961 -0.0099
# 6 0.0087 0.0043 0.0084 2.4955 -0.0099 25.1565
#
#
#
# Elastic Compliance Matrix: (Units=1/GPa)
#
#
# Indices 1 2 3 4 5 6 
#
# 1 0.012971 -0.004893 -0.002724 0.000000 0.008336 0.000001
# 2 -0.004893 0.015909 -0.000437 0.000001 0.000844 -0.000001
# 3 -0.002724 -0.000437 0.011315 0.000000 0.004056 -0.000001
# 4 0.000000 0.000001 0.000000 0.050134 -0.000004 -0.004973
# 5 0.008336 0.000844 0.004056 -0.000004 0.056662 0.000018
# 6 0.000001 -0.000001 -0.000001 -0.004973 0.000018 0.040245
#
#
# Mechanical properties :
#
#
# Convention : Reuss Voigt Hill
#
# Bulk Modulus (GPa) = 41.51322 50.75019 46.13171
# Shear Modulus (GPa) = 23.65488 26.83017 25.24252
#
# Velocity S-wave (km/s) = 3.66592 3.90422 3.78695
# Velocity P-wave (km/s) = 6.44232 7.01117 6.73276
#
# Compressibility (1/GPa) = 0.02408871
#
# Stress axis : x y z
#
# Youngs Moduli (GPa) = 77.09283 62.85760 88.37712
#
# Poissons Ratio (x) = 0.30754 0.24074
# Poissons Ratio (y) = 0.37719 0.03860
# Poissons Ratio (z) = 0.21000 0.02746
#
# Static dielectric constant tensor:
#      x y z
#    x 3.275580 0.000000 -0.174410 
#    y 0.000000 3.211270 -0.000010 
#    z -0.174410 -0.000010 3.258970 
# 
# 
# High freq. dielectric constant tensor:
#      x y z
#    x 1.679110 0.000000 -0.019680 
#    y 0.000000 1.662110 0.000000 
#    z -0.019680 0.000000 1.687950 
# 
# From -- ./inp_files/50395.got.cif
#   From: 2010.06.25/outbox.cif.g09.slc.cpg/sg15_26_cif.got.tgz:50395.got - 2010.06.28 07:06:18.
