data_PCOD8134299
_publ_section_title
;
Structure prediction by ZEFSAII (Michael W. Deem and Ramdas Pophale) SiO2 
 PCOD8134299
Probable space group: C 2/C
;
_chemical_formula_sum "Si O2"
_cell_formula_units_Z 44
_cell_length_a 20.709618
_cell_length_b 8.699857
_cell_length_c 12.492659
_cell_angle_alpha 90.000000
_cell_angle_beta 59.422615
_cell_angle_gamma 90.000000
_cell_volume 1937.819972
_symmetry_space_group_name_H-M "C 2/C"
_symmetry_group_IT_number 15
_symmetry_cell_setting 'monoclinic'
loop_
_space_group_symop_operation_xyz
x,y,z
-x,y,1/2-z
-x,-y,-z
x,-y,1/2+z
1/2+x,1/2+y,z
1/2-x,1/2+y,1/2-z
1/2-x,1/2-y,-z
1/2+x,1/2-y,1/2+z
loop_
_atom_site_type_symbol
_atom_site_label
_atom_site_fract_x
_atom_site_fract_y
_atom_site_fract_z
Si Si1 0.238245 0.576490 0.892120
Si Si2 0.415069 0.766340 0.977797
Si Si3 0.366412 0.464218 0.924793
Si Si4 0.277750 0.262681 0.155389
Si Si5 0.893093 0.283303 0.243527
Si Si6 0.000000 0.472263 0.750000
O O1 0.289843 0.544766 0.950353
O O2 0.286328 0.679748 0.769335
O O3 0.212951 0.420409 0.853654
O O4 0.164913 0.666892 0.991086
O O5 0.420483 0.590657 0.932165
O O6 0.479979 0.865982 0.868267
O O7 0.425876 0.769314 0.096501
O O8 0.409627 0.376954 0.791918
O O9 0.344085 0.336757 0.030823
O O10 0.196102 0.311469 0.179199
O O11 0.929902 0.424139 0.275039
#
# Coordination Sequence:
#
# PCOD8134299 Si02
#       6
#     8   8   8   8   8   4
#     4  10  20  35  59  91 122 151 187 239 298 358
#     4  11  24  40  61  91 119 155 202 242 290 354
#     4  11  20  37  61  90 120 153 190 244 304 353
#     4  10  19  35  59  91 122 152 190 239 299 358
#     4  10  23  41  61  87 120 157 199 242 289 350
#     4  12  24  44  62  80 116 166 204 246 292 338
#
# _framework density 22.705925000000001
#
# number of rings (size 3 to 8) (size 9 to 14) (size 15 to 20)
#    0.000    1.455    0.000    8.727    0.000    3.636 
#    0.000    7.273    0.000    0.000    0.000    0.000 
#    0.000    0.000    0.000    0.000    0.000    0.000 
#
# Total GULP energy -272895.360508 kJ/mol
# GULP energy per Si atom -12404.334569 kJ/mol
# Density = 2.265425 g / cm^3
# Si number density = 22.705925 Si / 1000 Ang^3
#
#
#
# Elastic Constant Matrix: (Units=GPa)
#
#
# Indices 1 2 3 4 5 6 
#
# 1 16.8861 16.3182 16.5516 0.0000 -1.1100 0.0000
# 2 16.3182 131.6428 48.2617 0.0000 0.1178 0.0000
# 3 16.5516 48.2617 109.7359 0.0000 -1.4741 0.0000
# 4 0.0000 0.0000 0.0000 50.4008 0.0000 5.2460
# 5 -1.1100 0.1178 -1.4741 0.0000 19.1711 0.0000
# 6 0.0000 0.0000 0.0000 5.2460 0.0000 20.8928
#
#
#
# Elastic Compliance Matrix: (Units=1/GPa)
#
#
# Indices 1 2 3 4 5 6 
#
# 1 0.073516 -0.006043 -0.008382 0.000000 0.003649 0.000000
# 2 -0.006043 0.009556 -0.003300 0.000000 -0.000662 0.000000
# 3 -0.008382 -0.003300 0.011834 0.000000 0.000445 0.000000
# 4 0.000000 0.000000 0.000000 0.020373 0.000000 -0.005116
# 5 0.003649 -0.000662 0.000445 0.000000 0.052411 0.000000
# 6 0.000000 0.000000 0.000000 -0.005116 0.000000 0.049148
#
#
# Mechanical properties :
#
#
# Convention : Reuss Voigt Hill
#
# Bulk Modulus (GPa) = 16.81913 46.72532 31.77222
# Shear Modulus (GPa) = 18.37509 29.90184 24.13847
#
# Velocity S-wave (km/s) = 2.84784 3.63287 3.26404
# Velocity P-wave (km/s) = 4.27049 6.18225 5.31306
#
# Compressibility (1/GPa) = 0.05945612
#
# Stress axis : x y z
#
# Youngs Moduli (GPa) = 13.60248 104.64787 84.49998
#
# Poissons Ratio (x) = 0.63243 0.70825
# Poissons Ratio (y) = 0.08221 0.27885
# Poissons Ratio (z) = 0.11401 0.34534
#
# Static dielectric constant tensor:
#      x y z
#    x 3.624290 0.000000 0.135640 
#    y 0.000000 4.313890 0.000000 
#    z 0.135640 0.000000 4.076830 
# 
# 
# High freq. dielectric constant tensor:
#      x y z
#    x 1.860000 0.000000 0.010940 
#    y 0.000000 1.912580 0.000000 
#    z 0.010940 0.000000 1.902610 
# 
# From -- ./inp_files/116696.got.cif
#   From: 2010.06.25/outbox.cif.g09.slc.cpg/sg15_59_cif.got.tgz:116696.got - 2010.06.28 07:06:18.
