data_PCOD8134509
_publ_section_title
;
Structure prediction by ZEFSAII (Michael W. Deem and Ramdas Pophale) SiO2 
 PCOD8134509
Probable space group: C 2/C
;
_chemical_formula_sum "Si O2"
_cell_formula_units_Z 56
_cell_length_a 10.758436
_cell_length_b 27.808065
_cell_length_c 13.446761
_cell_angle_alpha 90.000000
_cell_angle_beta 133.983017
_cell_angle_gamma 90.000000
_cell_volume 2894.649348
_symmetry_space_group_name_H-M "C 2/C"
_symmetry_group_IT_number 15
_symmetry_cell_setting 'monoclinic'
loop_
_space_group_symop_operation_xyz
x,y,z
-x,y,1/2-z
-x,-y,-z
x,-y,1/2+z
1/2+x,1/2+y,z
1/2-x,1/2+y,1/2-z
1/2-x,1/2-y,-z
1/2+x,1/2-y,1/2+z
loop_
_atom_site_type_symbol
_atom_site_label
_atom_site_fract_x
_atom_site_fract_y
_atom_site_fract_z
Si Si1 0.807331 0.519823 0.911037
Si Si2 0.905767 0.103446 0.388337
Si Si3 0.636097 0.299203 0.736264
Si Si4 0.403129 0.780480 0.039180
Si Si5 0.000000 0.640586 0.750000
Si Si6 0.304948 0.972375 0.630826
Si Si7 0.288119 0.429576 0.334587
Si Si8 0.000000 0.052886 0.250000
O O1 0.762167 0.561368 0.807499
O O2 0.673717 0.476457 0.827046
O O3 0.777301 0.543472 0.001789
O O4 0.000000 0.500000 0.000000
O O5 0.853270 0.158128 0.338334
O O6 0.735446 0.071603 0.316711
O O7 0.025755 0.096361 0.552810
O O8 0.019602 0.086007 0.357725
O O9 0.500000 0.309515 0.750000
O O10 0.577056 0.252005 0.640621
O O11 0.831862 0.293441 0.889106
O O12 0.438973 0.828076 0.122411
O O13 0.250000 0.750000 0.000000
O O14 0.155879 0.606749 0.809023
O O15 0.500000 0.989264 0.750000
O O16 0.194674 0.019566 0.597613
#
# Coordination Sequence:
#
# PCOD8134509 Si02
#       8
#     8   8   8   8   4   8   8   4
#     4  12  23  39  58  82 121 173 211 256 308 359
#     4  12  24  37  62  90 120 170 209 255 314 375
#     4  10  20  36  60  89 126 154 200 253 328 378
#     4  10  19  36  56  87 125 159 192 264 316 379
#     4  12  22  33  62  88 132 164 205 248 328 376
#     4  12  23  42  58  85 128 165 212 260 299 364
#     4  12  23  37  55  91 123 166 209 250 308 371
#     4  12  22  35  60  80 122 166 211 248 300 366
#
# _framework density 19.346038
#
# number of rings (size 3 to 8) (size 9 to 14) (size 15 to 20)
#    0.000    0.571    7.857    3.000    0.000    1.143 
#    0.000    0.000    0.000    0.000    0.000    4.000 
#    0.000    0.000    0.000    0.000    0.000    0.000 
#
# Total GULP energy -347075.261575 kJ/mol
# GULP energy per Si atom -12395.545056 kJ/mol
# Density = 1.930201 g / cm^3
# Si number density = 19.346038 Si / 1000 Ang^3
#
#
#
# Elastic Constant Matrix: (Units=GPa)
#
#
# Indices 1 2 3 4 5 6 
#
# 1 56.7956 35.1060 25.9964 0.0000 -8.9541 0.0000
# 2 35.1060 123.0845 51.8665 0.0000 -13.2365 0.0000
# 3 25.9964 51.8665 140.1114 0.0000 -10.2652 0.0000
# 4 0.0000 0.0000 0.0000 45.9771 0.0000 -6.7648
# 5 -8.9541 -13.2365 -10.2652 0.0000 29.7296 0.0000
# 6 0.0000 0.0000 0.0000 -6.7648 0.0000 26.6166
#
#
#
# Elastic Compliance Matrix: (Units=1/GPa)
#
#
# Indices 1 2 3 4 5 6 
#
# 1 0.022260 -0.005120 -0.001960 0.000000 0.003748 0.000000
# 2 -0.005120 0.011097 -0.002984 0.000000 0.002368 0.000000
# 3 -0.001960 -0.002984 0.008685 0.000000 0.001080 0.000000
# 4 0.000000 0.000000 0.000000 0.022595 0.000000 0.005743
# 5 0.003748 0.002368 0.001080 0.000000 0.036192 0.000000
# 6 0.000000 0.000000 0.000000 0.005743 0.000000 0.039030
#
#
# Mechanical properties :
#
#
# Convention : Reuss Voigt Hill
#
# Bulk Modulus (GPa) = 45.63600 60.65881 53.14741
# Shear Modulus (GPa) = 29.88779 34.26616 32.07698
#
# Velocity S-wave (km/s) = 3.93479 4.21316 4.07635
# Velocity P-wave (km/s) = 6.65462 7.42228 7.04891
#
# Compressibility (1/GPa) = 0.02191252
#
# Stress axis : x y z
#
# Youngs Moduli (GPa) = 44.92416 90.11386 115.14408
#
# Poissons Ratio (x) = 0.46137 0.22571
# Poissons Ratio (y) = 0.23000 0.34365
# Poissons Ratio (z) = 0.08806 0.26894
#
# Static dielectric constant tensor:
#      x y z
#    x 3.343550 0.000000 0.797300 
#    y 0.000000 3.446970 0.000000 
#    z 0.797300 0.000000 4.501430 
# 
# 
# High freq. dielectric constant tensor:
#      x y z
#    x 1.711000 0.000000 0.001170 
#    y 0.000000 1.741040 0.000000 
#    z 0.001170 0.000000 1.779530 
# 
# From -- ./inp_files/148604.got.cif
#   From: 2010.06.25/outbox.cif.g09.slc.cpg/sg15_75_cif.got.tgz:148604.got - 2010.06.28 07:06:18.
