data_PCOD8134685
_publ_section_title
;
Structure prediction by ZEFSAII (Michael W. Deem and Ramdas Pophale) SiO2 
 PCOD8134685
Probable space group: C 2/C
;
_chemical_formula_sum "Si O2"
_cell_formula_units_Z 40
_cell_length_a 8.029247
_cell_length_b 24.244474
_cell_length_c 11.195746
_cell_angle_alpha 90.000000
_cell_angle_beta 58.476330
_cell_angle_gamma 90.000000
_cell_volume 1857.789102
_symmetry_space_group_name_H-M "C 2/C"
_symmetry_group_IT_number 15
_symmetry_cell_setting 'monoclinic'
loop_
_space_group_symop_operation_xyz
x,y,z
-x,y,1/2-z
-x,-y,-z
x,-y,1/2+z
1/2+x,1/2+y,z
1/2-x,1/2+y,1/2-z
1/2-x,1/2-y,-z
1/2+x,1/2-y,1/2+z
loop_
_atom_site_type_symbol
_atom_site_label
_atom_site_fract_x
_atom_site_fract_y
_atom_site_fract_z
Si Si1 0.710954 0.908957 0.212237
Si Si2 0.072176 0.866963 0.933667
Si Si3 0.293871 0.322603 0.373990
Si Si4 0.523701 0.252981 0.612204
Si Si5 0.890825 0.981648 0.663041
O O1 0.500000 0.890323 0.250000
O O2 0.759802 0.878826 0.316382
O O3 0.713673 0.974700 0.237639
O O4 0.862904 0.889883 0.054405
O O5 0.180933 0.918148 0.826773
O O6 0.039947 0.816783 0.854897
O O7 0.200301 0.841484 0.991806
O O8 0.500000 0.295965 0.250000
O O9 0.115150 0.279468 0.428754
O O10 0.500000 0.224856 0.750000
O O11 0.750000 0.250000 0.500000
O O12 0.000000 0.986461 0.750000
O O13 0.000000 0.000000 0.500000
#
# Coordination Sequence:
#
# PCOD8134685 Si02
#       5
#     8   8   8   8   8
#     4  10  19  36  60  86 117 162 211 255 310 388
#     4  10  21  37  58  86 121 159 204 263 316 368
#     4  10  20  39  63  87 119 167 213 254 314 393
#     4  12  24  40  63  93 126 165 210 264 324 385
#     4  10  20  38  60  84 118 161 203 252 311 372
#
# _framework density 21.530967
#
# number of rings (size 3 to 8) (size 9 to 14) (size 15 to 20)
#    0.000    1.600    0.000    8.400    0.000    0.000 
#    0.000   14.000    0.000    0.000    0.000    0.000 
#    0.000    0.000    0.000    0.000    0.000    0.000 
#
# Total GULP energy -247826.586127 kJ/mol
# GULP energy per Si atom -12391.329306 kJ/mol
# Density = 2.148196 g / cm^3
# Si number density = 21.530967 Si / 1000 Ang^3
#
#
#
# Elastic Constant Matrix: (Units=GPa)
#
#
# Indices 1 2 3 4 5 6 
#
# 1 135.6358 42.5072 43.2872 0.0000 -3.2960 0.0000
# 2 42.5072 149.3793 17.1818 0.0000 -8.1165 0.0000
# 3 43.2872 17.1818 71.2453 0.0000 14.7474 0.0000
# 4 0.0000 0.0000 0.0000 20.7593 0.0000 -1.3431
# 5 -3.2960 -8.1165 14.7474 0.0000 37.3650 0.0000
# 6 0.0000 0.0000 0.0000 -1.3431 0.0000 25.6627
#
#
#
# Elastic Compliance Matrix: (Units=1/GPa)
#
#
# Indices 1 2 3 4 5 6 
#
# 1 0.010056 -0.001986 -0.006234 0.000000 0.002916 0.000000
# 2 -0.001986 0.007471 -0.000974 0.000000 0.001832 0.000000
# 3 -0.006234 -0.000974 0.019837 0.000000 -0.008591 0.000000
# 4 0.000000 0.000000 0.000000 0.048335 0.000000 0.002530
# 5 0.002916 0.001832 -0.008591 0.000000 0.030809 0.000000
# 6 0.000000 0.000000 0.000000 0.002530 0.000000 0.039100
#
#
# Mechanical properties :
#
#
# Convention : Reuss Voigt Hill
#
# Bulk Modulus (GPa) = 52.70213 62.46810 57.58512
# Shear Modulus (GPa) = 27.72829 33.64300 30.68564
#
# Velocity S-wave (km/s) = 3.59253 3.95719 3.77926
# Velocity P-wave (km/s) = 6.46056 7.06790 6.77105
#
# Compressibility (1/GPa) = 0.01897457
#
# Stress axis : x y z
#
# Youngs Moduli (GPa) = 99.44790 133.84900 50.41057
#
# Poissons Ratio (x) = 0.26581 0.31427
# Poissons Ratio (y) = 0.19749 0.04912
# Poissons Ratio (z) = 0.61998 0.13043
#
# Static dielectric constant tensor:
#      x y z
#    x 4.122320 0.000000 0.078480 
#    y 0.000000 4.513910 0.000000 
#    z 0.078480 0.000000 3.690670 
# 
# 
# High freq. dielectric constant tensor:
#      x y z
#    x 1.840890 0.000000 0.026890 
#    y 0.000000 1.869810 0.000000 
#    z 0.026890 0.000000 1.819510 
# 
# From -- ./inp_files/78983.got.cif
#   From: 2010.06.25/outbox.cif.g09.slc.cpg/sg15_40_cif.got.tgz:78983.got - 2010.06.28 07:06:18.
