data_PCOD8134160
_publ_section_title
;
Structure prediction by ZEFSAII (Michael W. Deem and Ramdas Pophale) SiO2 
 PCOD8134160
Probable space group: C 2/C
;
_chemical_formula_sum "Si O2"
_cell_formula_units_Z 60
_cell_length_a 19.800747
_cell_length_b 17.655064
_cell_length_c 8.396169
_cell_angle_alpha 90.000000
_cell_angle_beta 74.497952
_cell_angle_gamma 90.000000
_cell_volume 2828.383230
_symmetry_space_group_name_H-M "C 2/C"
_symmetry_group_IT_number 15
_symmetry_cell_setting 'monoclinic'
loop_
_space_group_symop_operation_xyz
x,y,z
-x,y,1/2-z
-x,-y,-z
x,-y,1/2+z
1/2+x,1/2+y,z
1/2-x,1/2+y,1/2-z
1/2-x,1/2-y,-z
1/2+x,1/2-y,1/2+z
loop_
_atom_site_type_symbol
_atom_site_label
_atom_site_fract_x
_atom_site_fract_y
_atom_site_fract_z
Si Si1 0.919049 0.112384 0.513697
Si Si2 0.853034 0.359787 0.783439
Si Si3 0.826220 0.249503 0.084402
Si Si4 0.872332 0.005109 0.278113
Si Si5 0.000000 0.659851 0.250000
Si Si6 0.202857 0.767500 0.380729
Si Si7 0.712540 0.583374 0.434520
Si Si8 0.976440 0.244830 0.089743
O O1 0.919428 0.054481 0.366164
O O2 0.848673 0.162791 0.556151
O O3 0.988632 0.162455 0.458551
O O4 0.920445 0.061482 0.672897
O O5 0.841033 0.309140 0.632432
O O6 0.795052 0.426226 0.834892
O O7 0.932132 0.392918 0.753397
O O8 0.851433 0.301049 0.927662
O O9 0.759925 0.288742 0.210515
O O10 0.799735 0.171516 0.023712
O O11 0.892462 0.235369 0.159821
O O12 0.840414 0.060739 0.169626
O O13 0.804228 0.967371 0.403016
O O14 0.994391 0.708112 0.418410
O O15 0.250000 0.750000 0.500000
O O16 0.000000 0.278166 0.250000
#
# Coordination Sequence:
#
# PCOD8134160 Si02
#       8
#     8   8   8   8   4   8   8   8
#     4  11  21  39  55  80 120 157 198 243 284 348
#     4  10  19  35  57  83 111 142 187 242 306 361
#     4  10  21  34  56  84 110 151 188 241 308 346
#     4  10  22  35  55  80 110 161 205 229 280 342
#     4  10  22  36  62  90 112 158 182 242 324 364
#     4  11  19  32  59  87 109 144 189 248 308 344
#     4  10  19  36  54  79 112 144 197 244 279 350
#     4  11  22  38  56  83 124 153 192 242 295 356
#
# _framework density 21.213531
#
# number of rings (size 3 to 8) (size 9 to 14) (size 15 to 20)
#    0.000    1.600    1.333    6.400    1.867    0.000 
#    0.000    7.333    0.000    0.800    0.000    0.000 
#    0.000    0.000    0.000    0.000    0.000    0.000 
#
# Total GULP energy -371687.933478 kJ/mol
# GULP energy per Si atom -12389.597783 kJ/mol
# Density = 2.116525 g / cm^3
# Si number density = 21.213531 Si / 1000 Ang^3
#
#
#
# Elastic Constant Matrix: (Units=GPa)
#
#
# Indices 1 2 3 4 5 6 
#
# 1 109.3492 -11.2079 4.6882 0.0000 5.7906 0.0000
# 2 -11.2079 27.0826 8.9792 0.0000 -0.4966 0.0000
# 3 4.6882 8.9792 81.8252 0.0000 13.6270 0.0000
# 4 0.0000 0.0000 0.0000 19.3170 0.0000 -6.9700
# 5 5.7906 -0.4966 13.6270 0.0000 26.5225 0.0000
# 6 0.0000 0.0000 0.0000 -6.9700 0.0000 14.0991
#
#
#
# Elastic Compliance Matrix: (Units=1/GPa)
#
#
# Indices 1 2 3 4 5 6 
#
# 1 0.009698 0.004230 -0.000744 0.000000 -0.001656 0.000000
# 2 0.004230 0.040405 -0.005083 0.000000 0.002445 0.000000
# 3 -0.000744 -0.005083 0.014009 0.000000 -0.007130 0.000000
# 4 0.000000 0.000000 0.000000 0.063007 0.000000 0.031148
# 5 -0.001656 0.002445 -0.007130 0.000000 0.041775 0.000000
# 6 0.000000 0.000000 0.000000 0.031148 0.000000 0.086325
#
#
# Mechanical properties :
#
#
# Convention : Reuss Voigt Hill
#
# Bulk Modulus (GPa) = 16.41579 24.79732 20.60656
# Shear Modulus (GPa) = 17.93918 26.37421 22.15670
#
# Velocity S-wave (km/s) = 2.91116 3.52983 3.23532
# Velocity P-wave (km/s) = 4.36520 5.32238 4.86737
#
# Compressibility (1/GPa) = 0.06091695
#
# Stress axis : x y z
#
# Youngs Moduli (GPa) = 103.11248 24.74951 71.38207
#
# Poissons Ratio (x) = -0.10469 0.05311
# Poissons Ratio (y) = -0.43615 0.36286
# Poissons Ratio (z) = 0.07672 0.12581
#
# Static dielectric constant tensor:
#      x y z
#    x 4.516350 0.000000 -0.234030 
#    y 0.000000 3.527910 0.000000 
#    z -0.234030 0.000000 4.171220 
# 
# 
# High freq. dielectric constant tensor:
#      x y z
#    x 1.852050 0.000000 0.004500 
#    y 0.000000 1.780240 0.000000 
#    z 0.004500 0.000000 1.846210 
# 
# From -- ./inp_files/56593.got.cif
#   From: 2010.06.25/outbox.cif.g09.slc.cpg/sg15_29_cif.got.tgz:56593.got - 2010.06.28 07:06:18.
