data_PCOD8134990
_publ_section_title
;
Structure prediction by ZEFSAII (Michael W. Deem and Ramdas Pophale) SiO2 
 PCOD8134990
Probable space group: C 2/C
;
_chemical_formula_sum "Si O2"
_cell_formula_units_Z 60
_cell_length_a 12.003324
_cell_length_b 21.095645
_cell_length_c 17.957937
_cell_angle_alpha 90.000000
_cell_angle_beta 139.097478
_cell_angle_gamma 90.000000
_cell_volume 2977.434817
_symmetry_space_group_name_H-M "C 2/C"
_symmetry_group_IT_number 15
_symmetry_cell_setting 'monoclinic'
loop_
_space_group_symop_operation_xyz
x,y,z
-x,y,1/2-z
-x,-y,-z
x,-y,1/2+z
1/2+x,1/2+y,z
1/2-x,1/2+y,1/2-z
1/2-x,1/2-y,-z
1/2+x,1/2-y,1/2+z
loop_
_atom_site_type_symbol
_atom_site_label
_atom_site_fract_x
_atom_site_fract_y
_atom_site_fract_z
Si Si1 0.000000 0.383875 0.250000
Si Si2 0.074732 0.304061 0.486346
Si Si3 0.320510 0.329256 0.482647
Si Si4 0.968082 0.064309 0.579150
Si Si5 0.792271 0.471145 0.428563
Si Si6 0.308442 0.108116 0.788350
Si Si7 0.606644 0.571258 0.118584
Si Si8 0.135328 0.413645 0.623087
O O1 0.161741 0.339365 0.347826
O O2 0.065932 0.424062 0.211664
O O3 0.248131 0.315282 0.527961
O O4 0.064382 0.228245 0.492532
O O5 0.092459 0.343101 0.572197
O O6 0.900771 0.325882 0.356901
O O7 0.432353 0.392165 0.547004
O O8 0.863144 0.054269 0.601296
O O9 0.849493 0.080278 0.447681
O O10 0.112966 0.119139 0.662100
O O11 0.080157 0.002320 0.620631
O O12 0.797328 0.438415 0.351386
O O13 0.775407 0.546224 0.399979
O O14 0.965376 0.452952 0.559080
O O15 0.755587 0.596044 0.247174
#
# Coordination Sequence:
#
# PCOD8134990 Si02
#       8
#     4   8   8   8   8   8   8   8
#     4  10  20  36  60  88 128 154 194 244 314 366
#     4   9  21  35  59  87 115 159 199 245 309 357
#     4  10  20  37  56  90 122 157 199 250 309 367
#     4  11  22  38  58  89 122 157 200 244 303 366
#     4  10  21  38  60  87 120 155 201 247 301 359
#     4  10  19  37  59  87 118 156 195 246 300 360
#     4  11  23  37  55  91 121 158 197 247 309 353
#     4  10  21  38  56  87 120 156 199 249 303 358
#
# _framework density 20.151574
#
# number of rings (size 3 to 8) (size 9 to 14) (size 15 to 20)
#    0.000    1.867    2.667    1.200    0.000    6.400 
#    0.000    0.000    0.000    3.200    6.933    0.000 
#    0.000    0.000    0.000    0.000    0.000    0.000 
#
# Total GULP energy -371718.476478 kJ/mol
# GULP energy per Si atom -12390.615883 kJ/mol
# Density = 2.010571 g / cm^3
# Si number density = 20.151574 Si / 1000 Ang^3
#
#
#
# Elastic Constant Matrix: (Units=GPa)
#
#
# Indices 1 2 3 4 5 6 
#
# 1 118.9369 13.2397 39.6126 0.0000 -4.6346 0.0000
# 2 13.2397 59.6635 29.5582 0.0001 5.2063 0.0000
# 3 39.6126 29.5582 152.1627 -0.0020 -2.5061 -0.0011
# 4 0.0000 0.0001 -0.0020 21.9599 -0.0008 5.8567
# 5 -4.6346 5.2063 -2.5061 -0.0008 27.5354 -0.0005
# 6 0.0000 0.0000 -0.0011 5.8567 -0.0005 23.3318
#
#
#
# Elastic Compliance Matrix: (Units=1/GPa)
#
#
# Indices 1 2 3 4 5 6 
#
# 1 0.009322 -0.001126 -0.002182 0.000000 0.001583 0.000000
# 2 -0.001126 0.019096 -0.003484 0.000000 -0.004117 0.000000
# 3 -0.002182 -0.003484 0.007833 0.000001 0.001004 0.000000
# 4 0.000000 0.000000 0.000001 0.048805 0.000001 -0.012251
# 5 0.001583 -0.004117 0.001004 0.000001 0.037453 0.000000
# 6 0.000000 0.000000 0.000000 -0.012251 0.000000 0.045935
#
#
# Mechanical properties :
#
#
# Convention : Reuss Voigt Hill
#
# Bulk Modulus (GPa) = 44.11693 55.06488 49.59090
# Shear Modulus (GPa) = 26.37366 31.12227 28.74797
#
# Velocity S-wave (km/s) = 3.62161 3.93416 3.78112
# Velocity P-wave (km/s) = 6.27918 6.92975 6.61247
#
# Compressibility (1/GPa) = 0.02266703
#
# Stress axis : x y z
#
# Youngs Moduli (GPa) = 107.27856 52.36739 127.66021
#
# Poissons Ratio (x) = 0.05895 0.27855
# Poissons Ratio (y) = 0.12076 0.44479
# Poissons Ratio (z) = 0.23407 0.18246
#
# Static dielectric constant tensor:
#      x y z
#    x 3.674260 0.000000 -0.034170 
#    y 0.000000 3.537500 0.000000 
#    z -0.034170 0.000000 4.001660 
# 
# 
# High freq. dielectric constant tensor:
#      x y z
#    x 1.770490 0.000000 -0.009450 
#    y 0.000000 1.754300 0.000000 
#    z -0.009450 0.000000 1.801790 
# 
# From -- ./inp_files/200533.got.cif
#   From: 2010.06.25/outbox.cif.g09.slc.cpg/sg15_101_cif.got.tgz:200533.got - 2010.06.28 07:06:18.
