data_PCOD8134001
_publ_section_title
;
Structure prediction by ZEFSAII (Michael W. Deem and Ramdas Pophale) SiO2 
 PCOD8134001
Probable space group: C 2/C
;
_chemical_formula_sum "Si O2"
_cell_formula_units_Z 48
_cell_length_a 8.223146
_cell_length_b 28.697381
_cell_length_c 18.276495
_cell_angle_alpha 90.000000
_cell_angle_beta 144.041825
_cell_angle_gamma 90.000000
_cell_volume 2532.533363
_symmetry_space_group_name_H-M "C 2/C"
_symmetry_group_IT_number 15
_symmetry_cell_setting 'monoclinic'
loop_
_space_group_symop_operation_xyz
x,y,z
-x,y,1/2-z
-x,-y,-z
x,-y,1/2+z
1/2+x,1/2+y,z
1/2-x,1/2+y,1/2-z
1/2-x,1/2-y,-z
1/2+x,1/2-y,1/2+z
loop_
_atom_site_type_symbol
_atom_site_label
_atom_site_fract_x
_atom_site_fract_y
_atom_site_fract_z
Si Si1 0.808085 0.962778 0.389316
Si Si2 0.105389 0.279195 0.657065
Si Si3 0.048405 0.180745 0.932523
Si Si4 0.683002 0.705423 0.426614
Si Si5 0.323628 0.868869 0.088587
Si Si6 0.939560 0.098394 0.810391
O O1 0.500000 0.979992 0.250000
O O2 0.799763 0.920718 0.445327
O O3 0.962651 0.946736 0.370957
O O4 0.000000 0.000000 0.500000
O O5 0.156447 0.288411 0.590222
O O6 0.352994 0.297745 0.796478
O O7 0.067549 0.224014 0.656636
O O8 0.822836 0.304995 0.577940
O O9 0.806703 0.165769 0.899663
O O10 0.145396 0.138991 0.913001
O O11 0.750000 0.750000 0.500000
O O12 0.769250 0.655095 0.490701
O O13 0.649311 0.875223 0.217637
O O14 0.000000 0.082235 0.750000
#
# Coordination Sequence:
#
# PCOD8134001 Si02
#       6
#     8   8   8   8   8   8
#     4   9  20  41  65  90 116 153 197 245 307 375
#     4  10  22  32  50  77 117 151 202 238 287 343
#     4  10  19  35  49  81 111 154 198 237 280 347
#     4  11  20  34  52  75 112 156 194 242 292 335
#     4  10  20  36  59  80 114 155 194 239 297 356
#     4  10  20  36  64  87 113 148 199 238 298 360
#
# _framework density 18.953354999999998
#
# number of rings (size 3 to 8) (size 9 to 14) (size 15 to 20)
#    0.000    2.000    1.667    3.500    2.333    0.667 
#    6.000    3.333    3.667    0.000    0.000    0.000 
#    0.000    0.000    0.000    0.000    0.000    0.000 
#
# Total GULP energy -297396.459784 kJ/mol
# GULP energy per Si atom -12391.519158 kJ/mol
# Density = 1.891022 g / cm^3
# Si number density = 18.953355 Si / 1000 Ang^3
#
#
#
# Elastic Constant Matrix: (Units=GPa)
#
#
# Indices 1 2 3 4 5 6 
#
# 1 82.8500 35.1341 32.1777 -0.0001 -7.6353 0.0000
# 2 35.1341 111.4143 58.4503 0.0000 -5.6474 0.0000
# 3 32.1777 58.4503 96.9590 -0.0004 -0.1490 -0.0001
# 4 -0.0001 0.0000 -0.0004 38.2660 -0.0002 -6.1795
# 5 -7.6353 -5.6474 -0.1490 -0.0002 32.8791 0.0000
# 6 0.0000 0.0000 -0.0001 -6.1795 0.0000 21.4827
#
#
#
# Elastic Compliance Matrix: (Units=1/GPa)
#
#
# Indices 1 2 3 4 5 6 
#
# 1 0.014783 -0.002840 -0.003190 0.000000 0.002931 0.000000
# 2 -0.002840 0.013837 -0.007396 0.000000 0.001684 0.000000
# 3 -0.003190 -0.007396 0.015828 0.000000 -0.001939 0.000000
# 4 0.000000 0.000000 0.000000 0.027406 0.000000 0.007883
# 5 0.002931 0.001684 -0.001939 0.000000 0.031375 0.000000
# 6 0.000000 0.000000 0.000000 0.007883 0.000000 0.048817
#
#
# Mechanical properties :
#
#
# Convention : Reuss Voigt Hill
#
# Bulk Modulus (GPa) = 56.82995 60.30528 58.56761
# Shear Modulus (GPa) = 27.06178 29.55630 28.30904
#
# Velocity S-wave (km/s) = 3.78274 3.95324 3.86893
# Velocity P-wave (km/s) = 7.00914 7.26115 7.13625
#
# Compressibility (1/GPa) = 0.01759636
#
# Stress axis : x y z
#
# Youngs Moduli (GPa) = 67.64426 72.27233 63.18003
#
# Poissons Ratio (x) = 0.20525 0.20152
# Poissons Ratio (y) = 0.19211 0.46728
# Poissons Ratio (z) = 0.21575 0.53453
#
# Static dielectric constant tensor:
#      x y z
#    x 3.513840 0.000000 -0.007450 
#    y 0.000000 3.415800 0.000000 
#    z -0.007450 0.000000 3.577710 
# 
# 
# High freq. dielectric constant tensor:
#      x y z
#    x 1.736640 0.000000 0.004710 
#    y 0.000000 1.717470 0.000000 
#    z 0.004710 0.000000 1.734050 
# 
# From -- ./inp_files/194319.got.cif
#   From: 2010.06.25/outbox.cif.g09.slc.cpg/sg15_98_cif.got.tgz:194319.got - 2010.06.28 07:06:18.
