data_PCOD8134164
_publ_section_title
;
Structure prediction by ZEFSAII (Michael W. Deem and Ramdas Pophale) SiO2 
 PCOD8134164
Probable space group: C 2/C
;
_chemical_formula_sum "Si O2"
_cell_formula_units_Z 64
_cell_length_a 22.215287
_cell_length_b 25.316589
_cell_length_c 5.426139
_cell_angle_alpha 90.000000
_cell_angle_beta 99.500868
_cell_angle_gamma 90.000000
_cell_volume 3009.883084
_symmetry_space_group_name_H-M "C 2/C"
_symmetry_group_IT_number 15
_symmetry_cell_setting 'monoclinic'
loop_
_space_group_symop_operation_xyz
x,y,z
-x,y,1/2-z
-x,-y,-z
x,-y,1/2+z
1/2+x,1/2+y,z
1/2-x,1/2+y,1/2-z
1/2-x,1/2-y,-z
1/2+x,1/2-y,1/2+z
loop_
_atom_site_type_symbol
_atom_site_label
_atom_site_fract_x
_atom_site_fract_y
_atom_site_fract_z
Si Si1 0.679658 0.136664 0.626566
Si Si2 0.840744 0.852027 0.954180
Si Si3 0.934374 0.325137 0.248880
Si Si4 0.841123 0.293400 0.804944
Si Si5 0.436301 0.272708 0.067327
Si Si6 0.306711 0.016757 0.790402
Si Si7 0.782474 0.808461 0.419881
Si Si8 0.171578 0.024819 0.130868
O O1 0.605382 0.140267 0.584685
O O2 0.698083 0.164410 0.381176
O O3 0.704591 0.077878 0.658486
O O4 0.710544 0.172312 0.866729
O O5 0.808759 0.825890 0.697295
O O6 0.842038 0.914202 0.916864
O O7 0.911286 0.831187 0.987459
O O8 0.809960 0.839302 0.199210
O O9 0.946690 0.264676 0.338571
O O10 0.000000 0.352849 0.250000
O O11 0.893006 0.325794 0.981061
O O12 0.879446 0.251750 0.672989
O O13 0.791206 0.255426 0.906525
O O14 0.500000 0.276862 0.250000
O O15 0.342165 0.009398 0.550538
O O16 0.244007 0.986218 0.688515
O O17 0.143007 0.005476 0.372624
#
# Coordination Sequence:
#
# PCOD8134164 Si02
#       8
#     8   8   8   8   8   8   8   8
#     4  11  25  36  61  92 124 167 206 260 319 379
#     4  11  22  37  63  94 125 169 210 257 315 373
#     4  11  22  40  63  85 122 168 212 254 301 378
#     4  10  22  37  58  89 128 165 202 253 307 381
#     4  10  20  38  60  90 124 168 216 253 297 371
#     4  10  21  38  59  85 117 159 205 256 309 370
#     4  11  22  38  57  93 135 162 199 248 321 388
#     4  10  19  35  57  83 118 159 206 257 306 364
#
# _framework density 21.263286000000001
#
# number of rings (size 3 to 8) (size 9 to 14) (size 15 to 20)
#    0.000    1.500    2.500    4.125    3.500    0.500 
#    0.000    0.000    0.000    1.500    0.000    0.000 
#    0.000    0.000    0.000    0.000    0.000    0.000 
#
# Total GULP energy -396493.297628 kJ/mol
# GULP energy per Si atom -12390.415551 kJ/mol
# Density = 2.121489 g / cm^3
# Si number density = 21.263286 Si / 1000 Ang^3
#
#
#
# Elastic Constant Matrix: (Units=GPa)
#
#
# Indices 1 2 3 4 5 6 
#
# 1 64.7044 9.5732 19.2094 0.0000 7.7247 0.0000
# 2 9.5732 133.7846 46.7085 0.0000 3.1974 0.0000
# 3 19.2094 46.7085 138.1825 0.0000 -9.2690 0.0000
# 4 0.0000 0.0000 0.0000 32.5668 0.0000 2.2494
# 5 7.7247 3.1974 -9.2690 0.0000 28.8176 0.0000
# 6 0.0000 0.0000 0.0000 2.2494 0.0000 16.2441
#
#
#
# Elastic Compliance Matrix: (Units=1/GPa)
#
#
# Indices 1 2 3 4 5 6 
#
# 1 0.016908 -0.000153 -0.002659 0.000000 -0.005371 0.000000
# 2 -0.000153 0.008580 -0.003005 0.000000 -0.001877 0.000000
# 3 -0.002659 -0.003005 0.008884 0.000000 0.003904 0.000000
# 4 0.000000 0.000000 0.000000 0.031003 0.000000 -0.004293
# 5 -0.005371 -0.001877 0.003904 0.000000 0.037604 0.000000
# 6 0.000000 0.000000 0.000000 -0.004293 0.000000 0.062155
#
#
# Mechanical properties :
#
#
# Convention : Reuss Voigt Hill
#
# Bulk Modulus (GPa) = 43.97941 54.18376 49.08158
# Shear Modulus (GPa) = 27.12275 32.93772 30.03023
#
# Velocity S-wave (km/s) = 3.57538 3.94006 3.76214
# Velocity P-wave (km/s) = 6.14595 6.79973 6.48109
#
# Compressibility (1/GPa) = 0.02273791
#
# Stress axis : x y z
#
# Youngs Moduli (GPa) = 59.14324 116.55593 112.56280
#
# Poissons Ratio (x) = 0.01786 0.29930
# Poissons Ratio (y) = 0.00906 0.33822
# Poissons Ratio (z) = 0.15726 0.35022
#
# Static dielectric constant tensor:
#      x y z
#    x 4.369190 0.000000 -0.559880 
#    y 0.000000 3.749860 0.000000 
#    z -0.559880 0.000000 4.581770 
# 
# 
# High freq. dielectric constant tensor:
#      x y z
#    x 1.807570 0.000000 -0.020780 
#    y 0.000000 1.821130 0.000000 
#    z -0.020780 0.000000 1.862270 
# 
# From -- ./inp_files/16140.got.cif
#   From: 2010.06.25/outbox.cif.g09.slc.cpg/sg15_9_cif.got.tgz:16140.got - 2010.06.28 07:06:18.
