data_PCOD8134348
_publ_section_title
;
Structure prediction by ZEFSAII (Michael W. Deem and Ramdas Pophale) SiO2 
 PCOD8134348
Probable space group: C 2/C
;
_chemical_formula_sum "Si O2"
_cell_formula_units_Z 64
_cell_length_a 21.962795
_cell_length_b 9.334817
_cell_length_c 21.851188
_cell_angle_alpha 90.000000
_cell_angle_beta 130.666316
_cell_angle_gamma 90.000000
_cell_volume 3398.084044
_symmetry_space_group_name_H-M "C 2/C"
_symmetry_group_IT_number 15
_symmetry_cell_setting 'monoclinic'
loop_
_space_group_symop_operation_xyz
x,y,z
-x,y,1/2-z
-x,-y,-z
x,-y,1/2+z
1/2+x,1/2+y,z
1/2-x,1/2+y,1/2-z
1/2-x,1/2-y,-z
1/2+x,1/2-y,1/2+z
loop_
_atom_site_type_symbol
_atom_site_label
_atom_site_fract_x
_atom_site_fract_y
_atom_site_fract_z
Si Si1 0.779326 0.464376 0.676818
Si Si2 0.885385 0.049560 0.880564
Si Si3 0.226805 0.271482 0.414783
Si Si4 0.610118 0.805716 0.537287
Si Si5 0.682736 0.352080 0.285453
Si Si6 0.651371 0.949650 0.149664
Si Si7 0.539779 0.283142 0.618286
Si Si8 0.083964 0.101682 0.273948
O O1 0.688028 0.456247 0.640433
O O2 0.785866 0.567284 0.620850
O O3 0.808536 0.304558 0.678004
O O4 0.834259 0.513311 0.769708
O O5 0.919473 0.156391 0.952947
O O6 0.852640 0.155714 0.806027
O O7 0.957076 0.946329 0.905305
O O8 0.250000 0.250000 0.500000
O O9 0.297320 0.197384 0.421958
O O10 0.143473 0.187851 0.356517
O O11 0.545700 0.803092 0.439220
O O12 0.598953 0.932258 0.578893
O O13 0.768495 0.429357 0.337229
O O14 0.623403 0.447967 0.286892
O O15 0.601646 0.803976 0.116970
O O16 0.570390 0.294344 0.707500
O O17 0.000000 0.067733 0.250000
#
# Coordination Sequence:
#
# PCOD8134348 Si02
#       8
#     8   8   8   8   8   8   8   8
#     4  10  19  35  61  89 117 156 200 253 301 367
#     4   9  19  30  56  88 122 152 191 241 306 363
#     4  11  23  41  62  86 117 166 211 249 296 364
#     4  11  21  35  57  90 127 154 194 252 308 364
#     4  10  19  35  61  87 118 155 200 250 304 365
#     4  11  19  34  60  95 122 151 199 251 319 358
#     4  11  21  35  57  91 125 154 193 254 305 362
#     4  11  23  41  62  84 117 168 211 246 293 366
#
# _framework density 18.834142
#
# number of rings (size 3 to 8) (size 9 to 14) (size 15 to 20)
#    0.000    1.500    5.000    1.500    0.000    0.000 
#    0.000    1.250    0.000    0.000    0.000    0.000 
#    0.000    0.000    0.000    0.000    0.000    0.000 
#
# Total GULP energy -396524.482839 kJ/mol
# GULP energy per Si atom -12391.390089 kJ/mol
# Density = 1.879128 g / cm^3
# Si number density = 18.834142 Si / 1000 Ang^3
#
#
#
# Elastic Constant Matrix: (Units=GPa)
#
#
# Indices 1 2 3 4 5 6 
#
# 1 87.3484 43.9523 25.7936 0.0000 3.7067 0.0000
# 2 43.9523 114.6158 54.7767 0.0000 -6.2744 0.0000
# 3 25.7936 54.7767 96.9621 0.0000 -6.5118 0.0000
# 4 0.0000 0.0000 0.0000 24.2765 0.0000 -3.8130
# 5 3.7067 -6.2744 -6.5118 0.0000 25.8397 0.0000
# 6 0.0000 0.0000 0.0000 -3.8130 0.0000 18.0574
#
#
#
# Elastic Compliance Matrix: (Units=1/GPa)
#
#
# Indices 1 2 3 4 5 6 
#
# 1 0.014582 -0.005234 -0.001168 0.000000 -0.003657 0.000000
# 2 -0.005234 0.013868 -0.006272 0.000000 0.002538 0.000000
# 3 -0.001168 -0.006272 0.014318 0.000000 0.002253 0.000000
# 4 0.000000 0.000000 0.000000 0.042605 0.000000 0.008996
# 5 -0.003657 0.002538 0.002253 0.000000 0.040409 0.000000
# 6 0.000000 0.000000 0.000000 0.008996 0.000000 0.057279
#
#
# Mechanical properties :
#
#
# Convention : Reuss Voigt Hill
#
# Bulk Modulus (GPa) = 57.40041 60.88572 59.14306
# Shear Modulus (GPa) = 23.34095 25.26161 24.30128
#
# Velocity S-wave (km/s) = 3.52417 3.66630 3.59594
# Velocity P-wave (km/s) = 6.86314 7.09365 6.97935
#
# Compressibility (1/GPa) = 0.01742148
#
# Stress axis : x y z
#
# Youngs Moduli (GPa) = 68.57730 72.10739 69.84004
#
# Poissons Ratio (x) = 0.37740 0.08157
# Poissons Ratio (y) = 0.35893 0.43802
# Poissons Ratio (z) = 0.08009 0.45224
#
# Static dielectric constant tensor:
#      x y z
#    x 3.211460 0.000000 0.110160 
#    y 0.000000 3.373740 0.000000 
#    z 0.110160 0.000000 3.439460 
# 
# 
# High freq. dielectric constant tensor:
#      x y z
#    x 1.707680 0.000000 0.016400 
#    y 0.000000 1.731320 0.000000 
#    z 0.016400 0.000000 1.733630 
# 
# From -- ./inp_files/224572.got.cif
#   From: 2010.06.25/outbox.cif.g09.slc.cpg/sg15_113_cif.got.tgz:224572.got - 2010.06.28 07:06:18.
