data_PCOD8134658
_publ_section_title
;
Structure prediction by ZEFSAII (Michael W. Deem and Ramdas Pophale) SiO2 
 PCOD8134658
Probable space group: C 2/C
;
_chemical_formula_sum "Si O2"
_cell_formula_units_Z 52
_cell_length_a 9.482901
_cell_length_b 17.948259
_cell_length_c 18.894588
_cell_angle_alpha 90.000000
_cell_angle_beta 126.393639
_cell_angle_gamma 90.000000
_cell_volume 2588.660489
_symmetry_space_group_name_H-M "C 2/C"
_symmetry_group_IT_number 15
_symmetry_cell_setting 'monoclinic'
loop_
_space_group_symop_operation_xyz
x,y,z
-x,y,1/2-z
-x,-y,-z
x,-y,1/2+z
1/2+x,1/2+y,z
1/2-x,1/2+y,1/2-z
1/2-x,1/2-y,-z
1/2+x,1/2-y,1/2+z
loop_
_atom_site_type_symbol
_atom_site_label
_atom_site_fract_x
_atom_site_fract_y
_atom_site_fract_z
Si Si1 0.496337 0.430928 0.670853
Si Si2 0.377129 0.967002 0.777121
Si Si3 0.763072 0.810900 0.565529
Si Si4 0.019617 0.579585 0.466729
Si Si5 0.252990 0.128429 0.759816
Si Si6 0.876107 0.095462 0.627997
Si Si7 0.500000 0.764862 0.250000
O O1 0.500000 0.392688 0.750000
O O2 0.688300 0.438239 0.696702
O O3 0.392446 0.379586 0.583627
O O4 0.396589 0.508611 0.654066
O O5 0.500000 0.944763 0.750000
O O6 0.443831 0.924825 0.866048
O O7 0.369597 0.054782 0.787056
O O8 0.750000 0.750000 0.500000
O O9 0.576338 0.850860 0.523270
O O10 0.849235 0.777256 0.661724
O O11 0.226283 0.601844 0.523570
O O12 0.000000 0.500000 0.500000
O O13 0.196511 0.138588 0.824536
O O14 0.384446 0.191220 0.773131
O O15 0.067311 0.126431 0.660310
#
# Coordination Sequence:
#
# PCOD8134658 Si02
#       7
#     8   8   8   8   8   8   4
#     4  11  17  41  64  88 120 167 215 260 316 379
#     4  11  21  35  63  96 125 159 216 275 324 372
#     4  12  25  39  67  93 126 172 217 258 329 406
#     4  12  20  39  68  95 124 165 225 274 323 381
#     4  10  19  36  59  91 124 163 205 257 319 381
#     4  10  19  36  68  92 116 161 220 266 311 376
#     4  12  24  40  60  88 140 164 198 266 334 384
#
# _framework density 20.087610999999999
#
# number of rings (size 3 to 8) (size 9 to 14) (size 15 to 20)
#    0.000    0.923    9.231    0.923    0.000    0.000 
#    2.769    2.308   16.923    0.000    0.000    0.000 
#    0.000    0.000    0.000    0.000    0.000    0.000 
#
# Total GULP energy -322113.621401 kJ/mol
# GULP energy per Si atom -12388.985438 kJ/mol
# Density = 2.004189 g / cm^3
# Si number density = 20.087611 Si / 1000 Ang^3
#
#
#
# Elastic Constant Matrix: (Units=GPa)
#
#
# Indices 1 2 3 4 5 6 
#
# 1 99.9588 33.7392 28.4672 0.0000 11.2934 0.0000
# 2 33.7392 72.1182 29.1539 0.0000 5.0637 0.0000
# 3 28.4672 29.1539 99.8296 0.0000 24.5231 0.0000
# 4 0.0000 0.0000 0.0000 31.2758 0.0000 7.4637
# 5 11.2934 5.0637 24.5231 0.0000 35.5783 0.0000
# 6 0.0000 0.0000 0.0000 7.4637 0.0000 25.5518
#
#
#
# Elastic Compliance Matrix: (Units=1/GPa)
#
#
# Indices 1 2 3 4 5 6 
#
# 1 0.012379 -0.005020 -0.001534 0.000000 -0.002158 0.000000
# 2 -0.005020 0.017795 -0.004255 0.000000 0.001994 0.000000
# 3 -0.001534 -0.004255 0.013758 0.000000 -0.008391 0.000000
# 4 0.000000 0.000000 0.000000 0.034369 0.000000 -0.010039
# 5 -0.002158 0.001994 -0.008391 0.000000 0.034292 0.000000
# 6 0.000000 0.000000 0.000000 -0.010039 0.000000 0.042069
#
#
# Mechanical properties :
#
#
# Convention : Reuss Voigt Hill
#
# Bulk Modulus (GPa) = 44.81386 50.51411 47.66398
# Shear Modulus (GPa) = 27.21575 30.51761 28.86668
#
# Velocity S-wave (km/s) = 3.68483 3.90195 3.79494
# Velocity P-wave (km/s) = 6.36094 6.74550 6.55604
#
# Compressibility (1/GPa) = 0.02231453
#
# Stress axis : x y z
#
# Youngs Moduli (GPa) = 80.78156 56.19677 72.68350
#
# Poissons Ratio (x) = 0.28209 0.11150
# Poissons Ratio (y) = 0.40550 0.30927
# Poissons Ratio (z) = 0.12392 0.23912
#
# Static dielectric constant tensor:
#      x y z
#    x 8.222770 0.000000 0.840850 
#    y 0.000000 3.634340 0.000000 
#    z 0.840850 0.000000 4.021880 
# 
# 
# High freq. dielectric constant tensor:
#      x y z
#    x 1.767010 0.000000 0.034120 
#    y 0.000000 1.771460 0.000000 
#    z 0.034120 0.000000 1.791560 
# 
# From -- ./inp_files/233124.got.cif
#   From: 2010.06.25/outbox.cif.g09.slc.cpg/sg15_117_cif.got.tgz:233124.got - 2010.06.28 07:06:18.
