data_PCOD8134461
_publ_section_title
;
Structure prediction by ZEFSAII (Michael W. Deem and Ramdas Pophale) SiO2 
 PCOD8134461
Probable space group: C 2/C
;
_chemical_formula_sum "Si O2"
_cell_formula_units_Z 28
_cell_length_a 17.369923
_cell_length_b 7.355148
_cell_length_c 17.343919
_cell_angle_alpha 90.000000
_cell_angle_beta 130.387374
_cell_angle_gamma 90.000000
_cell_volume 1687.756278
_symmetry_space_group_name_H-M "C 2/C"
_symmetry_group_IT_number 15
_symmetry_cell_setting 'monoclinic'
loop_
_space_group_symop_operation_xyz
x,y,z
-x,y,1/2-z
-x,-y,-z
x,-y,1/2+z
1/2+x,1/2+y,z
1/2-x,1/2+y,1/2-z
1/2-x,1/2-y,-z
1/2+x,1/2-y,1/2+z
loop_
_atom_site_type_symbol
_atom_site_label
_atom_site_fract_x
_atom_site_fract_y
_atom_site_fract_z
Si Si1 0.511470 0.196905 0.600217
Si Si2 0.000000 0.851691 0.750000
Si Si3 0.653331 0.489080 0.739541
Si Si4 0.873276 0.652085 0.371467
O O1 0.464300 0.224086 0.655332
O O2 0.602007 0.344059 0.647055
O O3 0.425196 0.233804 0.481365
O O4 0.553868 0.993634 0.621436
O O5 0.906202 0.977876 0.717087
O O6 0.769141 0.439974 0.829312
O O7 0.645621 0.690711 0.702094
#
# Coordination Sequence:
#
# PCOD8134461 Si02
#       4
#     8   4   8   8
#     4   9  21  36  54  81 103 144 172 225 250 322
#     4   8  20  36  50  80 114 130 178 218 268 290
#     4  10  19  36  52  83 103 141 171 226 247 326
#     4  11  19  35  62  72 109 139 186 201 274 303
#
# _framework density 16.590071999999999
#
# number of rings (size 3 to 8) (size 9 to 14) (size 15 to 20)
#    1.714    0.571    2.857    0.857    0.000    2.286 
#    0.000    0.000    0.000    6.857    0.000    0.000 
#    0.000    0.000    0.000    0.000    0.000    0.000 
#
# Total GULP energy -173482.003257 kJ/mol
# GULP energy per Si atom -12391.571661 kJ/mol
# Density = 1.655231 g / cm^3
# Si number density = 16.590072 Si / 1000 Ang^3
#
#
#
# Elastic Constant Matrix: (Units=GPa)
#
#
# Indices 1 2 3 4 5 6 
#
# 1 111.3267 27.3808 43.7323 0.0000 -8.1873 0.0000
# 2 27.3808 59.1909 10.6034 0.0000 -0.0021 0.0000
# 3 43.7323 10.6034 72.5535 0.0000 12.1127 0.0000
# 4 0.0000 0.0000 0.0000 26.2532 0.0000 4.4042
# 5 -8.1873 -0.0021 12.1127 0.0000 24.0966 0.0000
# 6 0.0000 0.0000 0.0000 4.4042 0.0000 16.2529
#
#
#
# Elastic Compliance Matrix: (Units=1/GPa)
#
#
# Indices 1 2 3 4 5 6 
#
# 1 0.014855 -0.005101 -0.009880 0.000000 0.010013 0.000000
# 2 -0.005101 0.019144 0.000618 0.000000 -0.002042 0.000000
# 3 -0.009880 0.000618 0.022060 0.000000 -0.014446 0.000000
# 4 0.000000 0.000000 0.000000 0.039905 0.000000 -0.010813
# 5 0.010013 -0.002042 -0.014446 0.000000 0.052163 0.000000
# 6 0.000000 0.000000 0.000000 -0.010813 0.000000 0.064458
#
#
# Mechanical properties :
#
#
# Convention : Reuss Voigt Hill
#
# Bulk Modulus (GPa) = 36.58805 45.16712 40.87759
# Shear Modulus (GPa) = 19.96643 24.07751 22.02197
#
# Velocity S-wave (km/s) = 3.47294 3.81375 3.64733
# Velocity P-wave (km/s) = 6.17930 6.83209 6.51388
#
# Compressibility (1/GPa) = 0.02733133
#
# Stress axis : x y z
#
# Youngs Moduli (GPa) = 67.31834 52.23705 45.33182
#
# Poissons Ratio (x) = 0.26648 0.44788
# Poissons Ratio (y) = 0.34341 -0.02802
# Poissons Ratio (z) = 0.66511 -0.03229
#
# Static dielectric constant tensor:
#      x y z
#    x 2.935760 0.000000 0.066250 
#    y 0.000000 2.993480 0.000000 
#    z 0.066250 0.000000 3.059630 
# 
# 
# High freq. dielectric constant tensor:
#      x y z
#    x 1.626000 0.000000 0.007880 
#    y 0.000000 1.639210 0.000000 
#    z 0.007880 0.000000 1.636080 
# 
# From -- ./inp_files/92997.got.cif
#   From: 2010.06.25/outbox.cif.g09.slc.cpg/sg15_47_cif.got.tgz:92997.got - 2010.06.28 07:06:18.
