data_PCOD8134660
_publ_section_title
;
Structure prediction by ZEFSAII (Michael W. Deem and Ramdas Pophale) SiO2 
 PCOD8134660
Probable space group: C 2/C
;
_chemical_formula_sum "Si O2"
_cell_formula_units_Z 60
_cell_length_a 31.509596
_cell_length_b 10.562695
_cell_length_c 9.056387
_cell_angle_alpha 90.000000
_cell_angle_beta 85.602365
_cell_angle_gamma 90.000000
_cell_volume 3005.329281
_symmetry_space_group_name_H-M "C 2/C"
_symmetry_group_IT_number 15
_symmetry_cell_setting 'monoclinic'
loop_
_space_group_symop_operation_xyz
x,y,z
-x,y,1/2-z
-x,-y,-z
x,-y,1/2+z
1/2+x,1/2+y,z
1/2-x,1/2+y,1/2-z
1/2-x,1/2-y,-z
1/2+x,1/2-y,1/2+z
loop_
_atom_site_type_symbol
_atom_site_label
_atom_site_fract_x
_atom_site_fract_y
_atom_site_fract_z
Si Si1 0.943248 0.412514 0.519427
Si Si2 0.825314 0.831720 0.608773
Si Si3 0.171994 0.051518 0.690538
Si Si4 0.634450 0.902589 0.528726
Si Si5 0.375218 0.236939 0.166491
Si Si6 0.500000 0.034408 0.750000
Si Si7 0.749111 0.778166 0.232927
Si Si8 0.803540 0.376946 0.515729
O O1 0.907967 0.523252 0.508439
O O2 0.921610 0.282817 0.581935
O O3 0.966694 0.383502 0.356667
O O4 0.976285 0.447443 0.637921
O O5 0.827851 0.942623 0.486134
O O6 0.861362 0.725489 0.570342
O O7 0.778188 0.769081 0.619000
O O8 0.831104 0.904766 0.762870
O O9 0.130111 0.123269 0.765028
O O10 0.213851 0.125918 0.733698
O O11 0.632524 0.868021 0.702470
O O12 0.677802 0.981047 0.487395
O O13 0.342203 0.217734 0.041622
O O14 0.767019 0.650844 0.147639
O O15 0.715078 0.850374 0.139981
#
# Coordination Sequence:
#
# PCOD8134660 Si02
#       8
#     8   8   8   8   8   4   8   8
#     4  10  19  36  59  93 124 148 179 225 295 367
#     4  11  25  38  58  78 111 156 209 252 299 339
#     4  10  24  41  53  79 110 154 210 253 297 339
#     4  10  21  37  57  83 115 159 193 237 293 359
#     4   9  19  37  55  78 115 152 188 234 282 350
#     4  10  20  32  60  98 128 140 170 226 294 372
#     4  10  22  36  55  77 110 153 195 268 306 340
#     4   9  21  34  53  81 109 145 199 242 303 346
#
# _framework density 19.964535000000001
#
# number of rings (size 3 to 8) (size 9 to 14) (size 15 to 20)
#    0.000    2.133    1.333    0.400   11.200    2.133 
#    0.000    0.000    0.000    0.000    0.000    5.600 
#    0.000    0.000    0.000    0.000    0.000    0.000 
#
# Total GULP energy -371764.908893 kJ/mol
# GULP energy per Si atom -12392.163630 kJ/mol
# Density = 1.991909 g / cm^3
# Si number density = 19.964535 Si / 1000 Ang^3
#
#
#
# Elastic Constant Matrix: (Units=GPa)
#
#
# Indices 1 2 3 4 5 6 
#
# 1 85.3965 27.1828 33.9350 0.0000 -17.8611 0.0000
# 2 27.1828 67.5215 16.6008 0.0000 -12.3618 0.0000
# 3 33.9350 16.6008 65.7320 0.0000 -18.1304 0.0000
# 4 0.0000 0.0000 0.0000 24.5765 0.0000 -3.8602
# 5 -17.8611 -12.3618 -18.1304 0.0000 41.7601 0.0000
# 6 0.0000 0.0000 0.0000 -3.8602 0.0000 20.9799
#
#
#
# Elastic Compliance Matrix: (Units=1/GPa)
#
#
# Indices 1 2 3 4 5 6 
#
# 1 0.016306 -0.004444 -0.006515 0.000000 0.002830 0.000000
# 2 -0.004444 0.017424 -0.001372 0.000000 0.002661 0.000000
# 3 -0.006515 -0.001372 0.020497 0.000000 0.005706 0.000000
# 4 0.000000 0.000000 0.000000 0.041900 0.000000 0.007709
# 5 0.002830 0.002661 0.005706 0.000000 0.028422 0.000000
# 6 0.000000 0.000000 0.000000 0.007709 0.000000 0.049083
#
#
# Mechanical properties :
#
#
# Convention : Reuss Voigt Hill
#
# Bulk Modulus (GPa) = 33.82500 41.56525 37.69512
# Shear Modulus (GPa) = 24.02121 26.85871 25.43996
#
# Velocity S-wave (km/s) = 3.47247 3.67184 3.57355
# Velocity P-wave (km/s) = 5.74950 6.23228 5.99575
#
# Compressibility (1/GPa) = 0.02956393
#
# Stress axis : x y z
#
# Youngs Moduli (GPa) = 61.32849 57.39254 48.78727
#
# Poissons Ratio (x) = 0.25508 0.31785
# Poissons Ratio (y) = 0.27257 0.06693
# Poissons Ratio (z) = 0.39955 0.07874
#
# Static dielectric constant tensor:
#      x y z
#    x 3.675370 0.000000 -0.238210 
#    y 0.000000 3.386840 0.000000 
#    z -0.238210 0.000000 3.854840 
# 
# 
# High freq. dielectric constant tensor:
#      x y z
#    x 1.754990 0.000000 -0.010500 
#    y 0.000000 1.749650 0.000000 
#    z -0.010500 0.000000 1.797110 
# 
# From -- ./inp_files/69113.got.cif
#   From: 2010.06.25/outbox.cif.g09.slc.cpg/sg15_35_cif.got.tgz:69113.got - 2010.06.28 07:06:18.
