data_PCOD8134210
_publ_section_title
;
Structure prediction by ZEFSAII (Michael W. Deem and Ramdas Pophale) SiO2 
 PCOD8134210
Probable space group: C 2/C
;
_chemical_formula_sum "Si O2"
_cell_formula_units_Z 64
_cell_length_a 22.782332
_cell_length_b 11.126644
_cell_length_c 13.345141
_cell_angle_alpha 90.000000
_cell_angle_beta 84.939225
_cell_angle_gamma 90.000000
_cell_volume 3369.684287
_symmetry_space_group_name_H-M "C 2/C"
_symmetry_group_IT_number 15
_symmetry_cell_setting 'monoclinic'
loop_
_space_group_symop_operation_xyz
x,y,z
-x,y,1/2-z
-x,-y,-z
x,-y,1/2+z
1/2+x,1/2+y,z
1/2-x,1/2+y,1/2-z
1/2-x,1/2-y,-z
1/2+x,1/2-y,1/2+z
loop_
_atom_site_type_symbol
_atom_site_label
_atom_site_fract_x
_atom_site_fract_y
_atom_site_fract_z
Si Si1 0.545914 0.666732 0.489976
Si Si2 0.848128 0.861616 0.845050
Si Si3 0.330684 0.361578 0.621478
Si Si4 0.469895 0.462906 0.859327
Si Si5 0.745404 0.530553 0.005972
Si Si6 0.353912 0.090132 0.859441
Si Si7 0.168732 0.581678 0.859842
Si Si8 0.437129 0.942941 0.985663
O O1 0.605465 0.610348 0.434728
O O2 0.519656 0.585656 0.582140
O O3 0.497740 0.655785 0.408225
O O4 0.553735 0.800704 0.532014
O O5 0.823957 0.899726 0.738986
O O6 0.900423 0.951812 0.859870
O O7 0.874968 0.727063 0.841129
O O8 0.801404 0.874909 0.942659
O O9 0.282668 0.430030 0.561846
O O10 0.320535 0.220437 0.619443
O O11 0.500000 0.482460 0.750000
O O12 0.773733 0.475388 0.100881
O O13 0.796434 0.596914 0.937406
O O14 0.334241 0.040450 0.754603
O O15 0.406681 0.006186 0.893637
O O16 0.107079 0.535984 0.915586
O O17 0.500000 0.000000 0.000000
#
# Coordination Sequence:
#
# PCOD8134210 Si02
#       8
#     8   8   8   8   8   8   8   8
#     4  10  21  38  58  86 117 148 190 238 282 345
#     4  11  21  35  59  86 112 152 194 228 288 343
#     4  10  19  35  58  83 110 153 193 230 283 342
#     4  11  21  37  60  86 119 149 187 238 288 337
#     4  11  20  36  58  82 119 147 189 243 286 328
#     4  10  22  39  57  84 118 150 189 236 280 345
#     4   9  21  37  57  83 114 151 195 232 280 348
#     4  10  21  40  61  84 114 152 190 234 290 336
#
# _framework density 18.992877
#
# number of rings (size 3 to 8) (size 9 to 14) (size 15 to 20)
#    0.000    1.750    2.500    2.250    0.000    0.500 
#    2.250    0.000    2.750    0.000    0.000    0.000 
#    0.000    0.000    0.000    0.000    0.000    0.000 
#
# Total GULP energy -396674.521145 kJ/mol
# GULP energy per Si atom -12396.078786 kJ/mol
# Density = 1.894965 g / cm^3
# Si number density = 18.992877 Si / 1000 Ang^3
#
#
#
# Elastic Constant Matrix: (Units=GPa)
#
#
# Indices 1 2 3 4 5 6 
#
# 1 97.9488 32.6088 43.0529 0.0000 7.3108 0.0000
# 2 32.6088 72.9929 44.8417 0.0000 8.2938 0.0000
# 3 43.0529 44.8417 128.2576 0.0000 19.1932 0.0000
# 4 0.0000 0.0000 0.0000 15.7159 0.0000 0.3564
# 5 7.3108 8.2938 19.1932 0.0000 20.1087 0.0000
# 6 0.0000 0.0000 0.0000 0.3564 0.0000 23.3005
#
#
#
# Elastic Compliance Matrix: (Units=1/GPa)
#
#
# Indices 1 2 3 4 5 6 
#
# 1 0.012802 -0.003914 -0.002886 0.000000 -0.000285 0.000000
# 2 -0.003914 0.018688 -0.004993 0.000000 -0.001520 0.000000
# 3 -0.002886 -0.004993 0.011720 0.000000 -0.008078 0.000000
# 4 0.000000 0.000000 0.000000 0.063652 0.000000 -0.000974
# 5 -0.000285 -0.001520 -0.008078 0.000000 0.058170 0.000000
# 6 0.000000 0.000000 0.000000 -0.000974 0.000000 0.042932
#
#
# Mechanical properties :
#
#
# Convention : Reuss Voigt Hill
#
# Bulk Modulus (GPa) = 50.95535 60.02293 55.48914
# Shear Modulus (GPa) = 21.00025 23.73809 22.36917
#
# Velocity S-wave (km/s) = 3.32880 3.53915 3.43558
# Velocity P-wave (km/s) = 6.45457 6.95501 6.70946
#
# Compressibility (1/GPa) = 0.01962503
#
# Stress axis : x y z
#
# Youngs Moduli (GPa) = 78.11066 53.50979 85.32371
#
# Poissons Ratio (x) = 0.20942 0.24628
# Poissons Ratio (y) = 0.30570 0.42599
# Poissons Ratio (z) = 0.22546 0.26716
#
# Static dielectric constant tensor:
#      x y z
#    x 3.102390 0.000000 0.246740 
#    y 0.000000 3.294440 0.000000 
#    z 0.246740 0.000000 3.508130 
# 
# 
# High freq. dielectric constant tensor:
#      x y z
#    x 1.745670 0.000000 0.001760 
#    y 0.000000 1.726700 0.000000 
#    z 0.001760 0.000000 1.747400 
# 
# From -- ./inp_files/117545.got.cif
#   From: 2010.06.25/outbox.cif.g09.slc.cpg/sg15_59_cif.got.tgz:117545.got - 2010.06.28 07:06:18.
