data_PCOD8134557
_publ_section_title
;
Structure prediction by ZEFSAII (Michael W. Deem and Ramdas Pophale) SiO2 
 PCOD8134557
Probable space group: C 2/C
;
_chemical_formula_sum "Si O2"
_cell_formula_units_Z 64
_cell_length_a 22.271920
_cell_length_b 13.764007
_cell_length_c 10.905514
_cell_angle_alpha 90.000000
_cell_angle_beta 75.861633
_cell_angle_gamma 90.000000
_cell_volume 3241.827926
_symmetry_space_group_name_H-M "C 2/C"
_symmetry_group_IT_number 15
_symmetry_cell_setting 'monoclinic'
loop_
_space_group_symop_operation_xyz
x,y,z
-x,y,1/2-z
-x,-y,-z
x,-y,1/2+z
1/2+x,1/2+y,z
1/2-x,1/2+y,1/2-z
1/2-x,1/2-y,-z
1/2+x,1/2-y,1/2+z
loop_
_atom_site_type_symbol
_atom_site_label
_atom_site_fract_x
_atom_site_fract_y
_atom_site_fract_z
Si Si1 0.928560 0.475112 0.042910
Si Si2 0.073119 0.197527 0.708479
Si Si3 0.648804 0.622723 0.448268
Si Si4 0.343914 0.173724 0.665985
Si Si5 0.260864 0.146816 0.933802
Si Si6 0.751353 0.047122 0.933817
Si Si7 0.654083 0.569039 0.823947
Si Si8 0.926064 0.418222 0.782464
O O1 0.913656 0.367664 0.106876
O O2 0.899096 0.544945 0.163974
O O3 0.901974 0.479387 0.915140
O O4 0.000000 0.500000 0.000000
O O5 0.098213 0.146618 0.574997
O O6 0.100318 0.143699 0.813623
O O7 0.097071 0.308047 0.694270
O O8 0.000000 0.190368 0.750000
O O9 0.656968 0.711315 0.350549
O O10 0.717866 0.599146 0.463661
O O11 0.622350 0.527691 0.393637
O O12 0.319413 0.151339 0.813673
O O13 0.302555 0.116671 0.586862
O O14 0.196551 0.123867 0.899811
O O15 0.250000 0.250000 0.000000
O O16 0.275569 0.059932 0.022050
O O17 0.805476 0.032838 0.809589
O O18 0.000000 0.422852 0.750000
#
# Coordination Sequence:
#
# PCOD8134557 Si02
#       8
#     8   8   8   8   8   8   8   8
#     4  10  21  37  58  85 120 158 200 247 298 360
#     4  10  20  36  59  81 108 150 202 242 301 361
#     4  10  19  36  58  78 114 144 193 245 294 352
#     4  11  21  33  58  84 110 157 196 235 303 363
#     4  10  21  36  55  84 121 149 190 247 305 366
#     4   9  20  36  55  82 112 145 192 237 295 356
#     4   9  20  37  57  83 110 151 185 249 301 352
#     4   9  19  37  58  82 115 156 195 247 295 356
#
# _framework density 19.741948000000001
#
# number of rings (size 3 to 8) (size 9 to 14) (size 15 to 20)
#    0.000    2.250    1.250    1.125    1.750    1.500 
#    0.000    0.000    0.000    0.750    0.000    0.000 
#    0.000    0.000    0.000    0.000    0.000    0.000 
#
# Total GULP energy -396533.724393 kJ/mol
# GULP energy per Si atom -12391.678887 kJ/mol
# Density = 1.969701 g / cm^3
# Si number density = 19.741948 Si / 1000 Ang^3
#
#
#
# Elastic Constant Matrix: (Units=GPa)
#
#
# Indices 1 2 3 4 5 6 
#
# 1 47.4955 43.1041 33.9846 0.0000 -1.9383 0.0000
# 2 43.1041 146.0760 64.3998 0.0000 9.4943 0.0000
# 3 33.9846 64.3998 105.7259 0.0000 6.1784 0.0000
# 4 0.0000 0.0000 0.0000 46.6147 0.0000 3.3325
# 5 -1.9383 9.4943 6.1784 0.0000 25.9643 0.0000
# 6 0.0000 0.0000 0.0000 3.3325 0.0000 25.8012
#
#
#
# Elastic Compliance Matrix: (Units=1/GPa)
#
#
# Indices 1 2 3 4 5 6 
#
# 1 0.032430 -0.007152 -0.006452 0.000000 0.006572 0.000000
# 2 -0.007152 0.011050 -0.004223 0.000000 -0.003570 0.000000
# 3 -0.006452 -0.004223 0.014241 0.000000 -0.002326 0.000000
# 4 0.000000 0.000000 0.000000 0.021652 0.000000 -0.002797
# 5 0.006572 -0.003570 -0.002326 0.000000 0.040864 0.000000
# 6 0.000000 0.000000 0.000000 -0.002797 0.000000 0.039119
#
#
# Mechanical properties :
#
#
# Convention : Reuss Voigt Hill
#
# Bulk Modulus (GPa) = 45.31771 64.69717 55.00744
# Shear Modulus (GPa) = 24.70764 30.19663 27.45213
#
# Velocity S-wave (km/s) = 3.54153 3.91521 3.73305
# Velocity P-wave (km/s) = 6.30303 7.29939 6.81943
#
# Compressibility (1/GPa) = 0.02206643
#
# Stress axis : x y z
#
# Youngs Moduli (GPa) = 30.83534 90.49672 70.22122
#
# Poissons Ratio (x) = 0.64726 0.45306
# Poissons Ratio (y) = 0.22054 0.29656
# Poissons Ratio (z) = 0.19895 0.38219
#
# Static dielectric constant tensor:
#      x y z
#    x 3.475710 0.000000 0.095230 
#    y 0.000000 3.797700 0.000000 
#    z 0.095230 0.000000 3.977030 
# 
# 
# High freq. dielectric constant tensor:
#      x y z
#    x 1.741930 0.000000 -0.004300 
#    y 0.000000 1.772900 0.000000 
#    z -0.004300 0.000000 1.785340 
# 
# From -- ./inp_files/117988.got.cif
#   From: 2010.06.25/outbox.cif.g09.slc.cpg/sg15_59_cif.got.tgz:117988.got - 2010.06.28 07:06:18.
