data_PCOD8134692
_publ_section_title
;
Structure prediction by ZEFSAII (Michael W. Deem and Ramdas Pophale) SiO2 
 PCOD8134692
Probable space group: C 2/C
;
_chemical_formula_sum "Si O2"
_cell_formula_units_Z 48
_cell_length_a 17.625397
_cell_length_b 8.488692
_cell_length_c 26.848113
_cell_angle_alpha 90.000000
_cell_angle_beta 146.509726
_cell_angle_gamma 90.000000
_cell_volume 2216.519448
_symmetry_space_group_name_H-M "C 2/C"
_symmetry_group_IT_number 15
_symmetry_cell_setting 'monoclinic'
loop_
_space_group_symop_operation_xyz
x,y,z
-x,y,1/2-z
-x,-y,-z
x,-y,1/2+z
1/2+x,1/2+y,z
1/2-x,1/2+y,1/2-z
1/2-x,1/2-y,-z
1/2+x,1/2-y,1/2+z
loop_
_atom_site_type_symbol
_atom_site_label
_atom_site_fract_x
_atom_site_fract_y
_atom_site_fract_z
Si Si1 0.736344 0.917172 0.411483
Si Si2 0.456041 0.922035 0.623756
Si Si3 0.885251 0.312911 0.429576
Si Si4 0.657483 0.089333 0.029001
Si Si5 0.254521 0.523481 0.312296
Si Si6 0.476458 0.624396 0.575315
O O1 0.730542 0.728410 0.417492
O O2 0.603239 0.020625 0.355128
O O3 0.751116 0.922544 0.360481
O O4 0.867264 0.983879 0.513259
O O5 0.612043 0.984124 0.704172
O O6 0.454277 0.732925 0.612592
O O7 0.351036 0.001347 0.527990
O O8 0.803378 0.467510 0.404871
O O9 0.778199 0.203729 0.342006
O O10 0.958636 0.230210 0.516581
O O11 0.004826 0.348884 0.456304
O O12 0.371955 0.452866 0.340775
#
# Coordination Sequence:
#
# PCOD8134692 Si02
#       6
#     8   8   8   8   8   8
#     4  11  20  41  61  83 118 166 202 246 308 378
#     4  11  25  34  57  92 126 149 199 264 313 350
#     4   9  18  36  60  85 109 155 202 241 290 367
#     4  10  19  36  60  87 116 155 203 246 296 369
#     4  11  21  38  60  86 119 160 201 259 305 363
#     4  10  20  38  60  82 111 163 207 239 298 372
#
# _framework density 21.655574999999999
#
# number of rings (size 3 to 8) (size 9 to 14) (size 15 to 20)
#    0.000    1.667    3.333    2.500    2.333    0.000 
#    0.000    1.667    0.000    6.000    0.000    0.000 
#    0.000    0.000    0.000    0.000    0.000    0.000 
#
# Total GULP energy -297463.232643 kJ/mol
# GULP energy per Si atom -12394.301360 kJ/mol
# Density = 2.160629 g / cm^3
# Si number density = 21.655575 Si / 1000 Ang^3
#
#
#
# Elastic Constant Matrix: (Units=GPa)
#
#
# Indices 1 2 3 4 5 6 
#
# 1 58.0149 27.9966 7.2424 0.0000 10.6173 0.0000
# 2 27.9966 136.5312 25.0805 0.0000 1.1356 0.0001
# 3 7.2424 25.0805 51.3021 0.0001 7.9384 0.0000
# 4 0.0000 0.0000 0.0001 15.6620 0.0000 8.2204
# 5 10.6173 1.1356 7.9384 0.0000 20.0525 0.0000
# 6 0.0000 0.0001 0.0000 8.2204 0.0000 35.6813
#
#
#
# Elastic Compliance Matrix: (Units=1/GPa)
#
#
# Indices 1 2 3 4 5 6 
#
# 1 0.021363 -0.004457 0.000931 0.000000 -0.011427 0.000000
# 2 -0.004457 0.009003 -0.004323 0.000000 0.003561 0.000000
# 3 0.000931 -0.004323 0.022917 0.000000 -0.009320 0.000000
# 4 0.000000 0.000000 0.000000 0.072631 0.000000 -0.016733
# 5 -0.011427 0.003561 -0.009320 0.000000 0.059407 0.000000
# 6 0.000000 0.000000 0.000000 -0.016733 0.000000 0.031881
#
#
# Mechanical properties :
#
#
# Convention : Reuss Voigt Hill
#
# Bulk Modulus (GPa) = 26.60648 40.72080 33.66364
# Shear Modulus (GPa) = 20.37267 26.64775 23.51021
#
# Velocity S-wave (km/s) = 3.07051 3.51169 3.29848
# Velocity P-wave (km/s) = 4.98834 5.94031 5.48502
#
# Compressibility (1/GPa) = 0.03758482
#
# Stress axis : x y z
#
# Youngs Moduli (GPa) = 46.81074 111.07774 43.63644
#
# Poissons Ratio (x) = 0.49502 -0.04063
# Poissons Ratio (y) = 0.20861 0.18865
# Poissons Ratio (z) = -0.04359 0.48020
#
# Static dielectric constant tensor:
#      x y z
#    x 3.806000 0.000000 0.038920 
#    y 0.000000 4.213420 0.000000 
#    z 0.038920 0.000000 3.523330 
# 
# 
# High freq. dielectric constant tensor:
#      x y z
#    x 1.843560 0.000000 0.003660 
#    y 0.000000 1.859650 0.000000 
#    z 0.003660 0.000000 1.814480 
# 
# From -- ./inp_files/166141.got.cif
#   From: 2010.06.25/outbox.cif.g09.slc.cpg/sg15_84_cif.got.tgz:166141.got - 2010.06.28 07:06:18.
