data_PCOD8134502
_publ_section_title
;
Structure prediction by ZEFSAII (Michael W. Deem and Ramdas Pophale) SiO2 
 PCOD8134502
Probable space group: C 2/C
;
_chemical_formula_sum "Si O2"
_cell_formula_units_Z 52
_cell_length_a 12.885292
_cell_length_b 21.029935
_cell_length_c 14.979245
_cell_angle_alpha 90.000000
_cell_angle_beta 44.194543
_cell_angle_gamma 90.000000
_cell_volume 2829.535978
_symmetry_space_group_name_H-M "C 2/C"
_symmetry_group_IT_number 15
_symmetry_cell_setting 'monoclinic'
loop_
_space_group_symop_operation_xyz
x,y,z
-x,y,1/2-z
-x,-y,-z
x,-y,1/2+z
1/2+x,1/2+y,z
1/2-x,1/2+y,1/2-z
1/2-x,1/2-y,-z
1/2+x,1/2-y,1/2+z
loop_
_atom_site_type_symbol
_atom_site_label
_atom_site_fract_x
_atom_site_fract_y
_atom_site_fract_z
Si Si1 0.086265 0.440507 0.863786
Si Si2 0.587544 0.194411 0.289157
Si Si3 0.267677 0.522523 0.622181
Si Si4 0.000000 0.958920 0.250000
Si Si5 0.981636 0.093079 0.944400
Si Si6 0.846319 0.767927 0.526348
Si Si7 0.189616 0.484512 0.980443
O O1 0.137425 0.376159 0.784995
O O2 0.161867 0.502205 0.769787
O O3 0.129237 0.436351 0.942019
O O4 0.907995 0.450406 0.964832
O O5 0.500000 0.190810 0.250000
O O6 0.735825 0.238131 0.180486
O O7 0.490599 0.222198 0.431717
O O8 0.373786 0.582002 0.582242
O O9 0.360735 0.459924 0.541048
O O10 0.175997 0.543421 0.589862
O O11 0.038239 0.913553 0.308534
O O12 0.138357 0.004262 0.145712
O O13 0.906902 0.161069 0.996669
O O14 0.750000 0.750000 0.500000
#
# Coordination Sequence:
#
# PCOD8134502 Si02
#       7
#     8   8   8   4   8   8   8
#     4  11  20  37  54  84 118 153 189 244 301 359
#     4  10  21  35  54  76 112 151 191 237 295 352
#     4  10  19  36  56  82 112 150 189 241 294 358
#     4  10  20  32  50  84 110 140 178 232 280 358
#     4  10  20  33  56  79 114 145 186 237 295 348
#     4  10  22  35  52  82 110 156 191 236 293 353
#     4  10  22  32  55  85 114 148 192 235 302 354
#
# _framework density 18.377571
#
# number of rings (size 3 to 8) (size 9 to 14) (size 15 to 20)
#    0.000    1.846    3.077    1.385    9.692    0.000 
#    0.000    0.000    0.000    0.923    0.000    0.000 
#    0.000    0.000    0.000    0.000    0.000    0.000 
#
# Total GULP energy -322108.860971 kJ/mol
# GULP energy per Si atom -12388.802345 kJ/mol
# Density = 1.833574 g / cm^3
# Si number density = 18.377571 Si / 1000 Ang^3
#
#
#
# Elastic Constant Matrix: (Units=GPa)
#
#
# Indices 1 2 3 4 5 6 
#
# 1 108.9037 32.0894 33.2233 -0.0004 11.5793 0.0001
# 2 32.0894 60.4455 30.8386 -0.0007 -6.6947 0.0003
# 3 33.2233 30.8386 99.7730 -0.0009 -4.2936 0.0004
# 4 -0.0004 -0.0007 -0.0009 29.1768 0.0007 -3.0308
# 5 11.5793 -6.6947 -4.2936 0.0007 30.7783 -0.0003
# 6 0.0001 0.0003 0.0004 -3.0308 -0.0003 25.1299
#
#
#
# Elastic Compliance Matrix: (Units=1/GPa)
#
#
# Indices 1 2 3 4 5 6 
#
# 1 0.012394 -0.005978 -0.002551 0.000000 -0.006319 0.000000
# 2 -0.005978 0.022895 -0.004804 0.000000 0.006559 0.000000
# 3 -0.002551 -0.004804 0.012428 0.000000 0.001649 0.000000
# 4 0.000000 0.000000 0.000000 0.034709 -0.000001 0.004186
# 5 -0.006319 0.006559 0.001649 -0.000001 0.036524 0.000000
# 6 0.000000 0.000000 0.000000 0.004186 0.000000 0.040298
#
#
# Mechanical properties :
#
#
# Convention : Reuss Voigt Hill
#
# Bulk Modulus (GPa) = 47.50391 51.26942 49.38667
# Shear Modulus (GPa) = 25.91604 28.54839 27.23221
#
# Velocity S-wave (km/s) = 3.75934 3.94564 3.85361
# Velocity P-wave (km/s) = 6.68943 6.97967 6.83609
#
# Compressibility (1/GPa) = 0.02105090
#
# Stress axis : x y z
#
# Youngs Moduli (GPa) = 80.68341 43.67834 80.46362
#
# Poissons Ratio (x) = 0.26111 0.20529
# Poissons Ratio (y) = 0.48233 0.38651
# Poissons Ratio (z) = 0.20585 0.20981
#
# Static dielectric constant tensor:
#      x y z
#    x 3.508650 0.000000 0.035360 
#    y 0.000000 3.095950 0.000000 
#    z 0.035360 0.000000 4.044900 
# 
# 
# High freq. dielectric constant tensor:
#      x y z
#    x 1.696550 0.000000 -0.009890 
#    y 0.000000 1.664850 0.000000 
#    z -0.009890 0.000000 1.740070 
# 
# From -- ./inp_files/127160.got.cif
#   From: 2010.06.25/outbox.cif.g09.slc.cpg/sg15_64_cif.got.tgz:127160.got - 2010.06.28 07:06:18.
