data_PCOD8134621
_publ_section_title
;
Structure prediction by ZEFSAII (Michael W. Deem and Ramdas Pophale) SiO2 
 PCOD8134621
Probable space group: C 2/C
;
_chemical_formula_sum "Si O2"
_cell_formula_units_Z 48
_cell_length_a 10.873965
_cell_length_b 13.534920
_cell_length_c 27.699979
_cell_angle_alpha 90.000000
_cell_angle_beta 34.265434
_cell_angle_gamma 90.000000
_cell_volume 2295.370125
_symmetry_space_group_name_H-M "C 2/C"
_symmetry_group_IT_number 15
_symmetry_cell_setting 'monoclinic'
loop_
_space_group_symop_operation_xyz
x,y,z
-x,y,1/2-z
-x,-y,-z
x,-y,1/2+z
1/2+x,1/2+y,z
1/2-x,1/2+y,1/2-z
1/2-x,1/2-y,-z
1/2+x,1/2-y,1/2+z
loop_
_atom_site_type_symbol
_atom_site_label
_atom_site_fract_x
_atom_site_fract_y
_atom_site_fract_z
Si Si1 0.478088 0.899135 0.160659
Si Si2 0.117087 0.662888 0.520384
Si Si3 0.940298 0.810847 0.039317
Si Si4 0.935930 0.183744 0.654360
Si Si5 0.894681 0.610335 0.395433
Si Si6 0.688316 0.039677 0.974704
O O1 0.301041 0.852021 0.252967
O O2 0.715715 0.857321 0.095461
O O3 0.484823 0.016889 0.167679
O O4 0.429064 0.870861 0.120208
O O5 0.250000 0.750000 0.500000
O O6 0.279086 0.567873 0.462846
O O7 0.019687 0.703270 0.500584
O O8 0.939140 0.796572 0.096581
O O9 0.141571 0.882945 0.960599
O O10 0.985388 0.290248 0.661776
O O11 0.115001 0.102114 0.613063
O O12 0.907982 0.601431 0.449291
O O13 0.500000 0.000000 0.000000
#
# Coordination Sequence:
#
# PCOD8134621 Si02
#       6
#     8   8   8   8   8   8
#     4  10  22  37  56  88 120 146 190 252 297 334
#     4   9  19  35  57  83 114 152 189 227 285 353
#     4  10  19  39  64  83 110 158 199 231 287 361
#     4  11  22  37  59  89 117 148 198 251 290 337
#     4  10  21  38  58  81 115 155 195 235 289 362
#     4  10  19  36  59  82 111 153 193 228 283 355
#
# _framework density 20.911657999999999
#
# number of rings (size 3 to 8) (size 9 to 14) (size 15 to 20)
#    0.000    2.000    0.000    5.000    0.000    4.000 
#    0.000   10.833    0.000    0.000    0.000    0.000 
#    0.000    0.000    0.000    0.000    0.000    0.000 
#
# Total GULP energy -297326.102294 kJ/mol
# GULP energy per Si atom -12388.587596 kJ/mol
# Density = 2.086406 g / cm^3
# Si number density = 20.911658 Si / 1000 Ang^3
#
#
#
# Elastic Constant Matrix: (Units=GPa)
#
#
# Indices 1 2 3 4 5 6 
#
# 1 86.7883 36.3179 40.5434 -0.0005 -9.1149 0.0002
# 2 36.3179 179.4235 75.0816 -0.0027 -8.3637 0.0001
# 3 40.5434 75.0816 99.6632 -0.0083 -15.2917 -0.0003
# 4 -0.0005 -0.0027 -0.0083 29.5154 -0.0001 -2.2153
# 5 -9.1149 -8.3637 -15.2917 -0.0001 22.3813 0.0006
# 6 0.0002 0.0001 -0.0003 -2.2153 0.0006 31.9418
#
#
#
# Elastic Compliance Matrix: (Units=1/GPa)
#
#
# Indices 1 2 3 4 5 6 
#
# 1 0.014376 -0.000732 -0.004960 -0.000001 0.002192 0.000000
# 2 -0.000732 0.008210 -0.006102 -0.000001 -0.001399 0.000000
# 3 -0.004960 -0.006102 0.017861 0.000004 0.007903 0.000000
# 4 -0.000001 -0.000001 0.000004 0.034058 0.000002 0.002362
# 5 0.002192 -0.001399 0.007903 0.000002 0.050450 -0.000001
# 6 0.000000 0.000000 0.000000 0.002362 -0.000001 0.031471
#
#
# Mechanical properties :
#
#
# Convention : Reuss Voigt Hill
#
# Bulk Modulus (GPa) = 59.31714 74.41786 66.86750
# Shear Modulus (GPa) = 26.93487 31.02983 28.98235
#
# Velocity S-wave (km/s) = 3.59281 3.85626 3.72686
# Velocity P-wave (km/s) = 6.75560 7.44927 7.11090
#
# Compressibility (1/GPa) = 0.01685853
#
# Stress axis : x y z
#
# Youngs Moduli (GPa) = 69.55975 121.80775 55.98780
#
# Poissons Ratio (x) = 0.08916 0.27773
# Poissons Ratio (y) = 0.05092 0.34162
# Poissons Ratio (z) = 0.34505 0.74323
#
# Static dielectric constant tensor:
#      x y z
#    x 5.012180 0.000000 0.069200 
#    y 0.000000 5.479890 -0.000020 
#    z 0.069200 -0.000020 3.556970 
# 
# 
# High freq. dielectric constant tensor:
#      x y z
#    x 1.820470 0.000000 0.005090 
#    y 0.000000 1.852550 0.000000 
#    z 0.005090 0.000000 1.778230 
# 
# From -- ./inp_files/311145.got.cif
#   From: 2010.06.25/outbox.cif.g09.slc.cpg/sg15_156_cif.got.tgz:311145.got - 2010.06.28 07:06:18.
