data_PCOD8134272
_publ_section_title
;
Structure prediction by ZEFSAII (Michael W. Deem and Ramdas Pophale) SiO2 
 PCOD8134272
Probable space group: C 2/C
;
_chemical_formula_sum "Si O2"
_cell_formula_units_Z 56
_cell_length_a 9.195317
_cell_length_b 21.865684
_cell_length_c 13.821101
_cell_angle_alpha 90.000000
_cell_angle_beta 106.456222
_cell_angle_gamma 90.000000
_cell_volume 2665.063328
_symmetry_space_group_name_H-M "C 2/C"
_symmetry_group_IT_number 15
_symmetry_cell_setting 'monoclinic'
loop_
_space_group_symop_operation_xyz
x,y,z
-x,y,1/2-z
-x,-y,-z
x,-y,1/2+z
1/2+x,1/2+y,z
1/2-x,1/2+y,1/2-z
1/2-x,1/2-y,-z
1/2+x,1/2-y,1/2+z
loop_
_atom_site_type_symbol
_atom_site_label
_atom_site_fract_x
_atom_site_fract_y
_atom_site_fract_z
Si Si1 0.324738 0.284229 0.869796
Si Si2 0.825403 0.089777 0.702026
Si Si3 0.813614 0.660217 0.982945
Si Si4 0.390872 0.092552 0.495476
Si Si5 0.358699 0.712313 0.793019
Si Si6 0.931299 0.501140 0.836750
Si Si7 0.854271 0.192066 0.007870
O O1 0.288943 0.222542 0.921202
O O2 0.255426 0.270323 0.748758
O O3 0.233563 0.336134 0.912650
O O4 0.500685 0.303862 0.893501
O O5 0.788681 0.105465 0.582398
O O6 0.773607 0.148870 0.753712
O O7 0.723877 0.034742 0.720539
O O8 0.000000 0.072290 0.750000
O O9 0.990110 0.645493 0.005435
O O10 0.446991 0.047673 0.591809
O O11 0.233913 0.127506 0.493858
O O12 0.377465 0.053501 0.395380
O O13 0.500000 0.721487 0.750000
O O14 0.420263 0.703254 0.912639
O O15 0.000000 0.474785 0.750000
O O16 0.750000 0.250000 0.000000
#
# Coordination Sequence:
#
# PCOD8134272 Si02
#       7
#     8   8   8   8   8   8   8
#     4  10  19  35  59  85 123 160 205 234 303 370
#     4   9  17  33  61  90 113 147 210 258 295 350
#     4   9  17  34  57  85 119 159 192 247 294 370
#     4  10  22  40  61  90 122 158 207 255 314 364
#     4  10  21  36  62  92 119 166 211 247 299 372
#     4  10  21  40  64  86 116 163 211 258 309 367
#     4  12  23  38  59  90 131 160 195 260 309 366
#
# _framework density 21.012635
#
# number of rings (size 3 to 8) (size 9 to 14) (size 15 to 20)
#    0.000    2.000    1.429    4.286    0.000    0.571 
#    2.571    1.429    0.000   10.286    0.000    0.000 
#    0.000    0.000    0.000    0.000    0.000    0.000 
#
# Total GULP energy -346952.576058 kJ/mol
# GULP energy per Si atom -12391.163431 kJ/mol
# Density = 2.096481 g / cm^3
# Si number density = 21.012635 Si / 1000 Ang^3
#
#
#
# Elastic Constant Matrix: (Units=GPa)
#
#
# Indices 1 2 3 4 5 6 
#
# 1 110.6647 31.2639 41.9394 0.0000 5.6126 0.0000
# 2 31.2639 53.0099 27.5521 0.0000 -4.1222 0.0000
# 3 41.9394 27.5521 71.7275 0.0000 4.3591 0.0000
# 4 0.0000 0.0000 0.0000 22.3146 0.0000 -4.5682
# 5 5.6126 -4.1222 4.3591 0.0000 31.8649 0.0000
# 6 0.0000 0.0000 0.0000 -4.5682 0.0000 22.5286
#
#
#
# Elastic Compliance Matrix: (Units=1/GPa)
#
#
# Indices 1 2 3 4 5 6 
#
# 1 0.012520 -0.004757 -0.005366 0.000000 -0.002086 0.000000
# 2 -0.004757 0.025983 -0.007517 0.000000 0.005228 0.000000
# 3 -0.005366 -0.007517 0.020136 0.000000 -0.002782 0.000000
# 4 0.000000 0.000000 0.000000 0.046755 0.000000 0.009481
# 5 -0.002086 0.005228 -0.002782 0.000000 0.032807 0.000000
# 6 0.000000 0.000000 0.000000 0.009481 0.000000 0.046311
#
#
# Mechanical properties :
#
#
# Convention : Reuss Voigt Hill
#
# Bulk Modulus (GPa) = 42.81114 48.54588 45.67851
# Shear Modulus (GPa) = 21.97052 24.31806 23.14429
#
# Velocity S-wave (km/s) = 3.23706 3.40561 3.32241
# Velocity P-wave (km/s) = 5.86427 6.21431 6.04182
#
# Compressibility (1/GPa) = 0.02335841
#
# Stress axis : x y z
#
# Youngs Moduli (GPa) = 79.87409 38.48605 49.66252
#
# Poissons Ratio (x) = 0.18307 0.26650
# Poissons Ratio (y) = 0.37995 0.37332
# Poissons Ratio (z) = 0.42863 0.28930
#
# Static dielectric constant tensor:
#      x y z
#    x 2.021920 0.000000 3.602000 
#    y 0.000000 3.844530 0.000000 
#    z 3.602000 0.000000 -3.460090 
# 
# 
# High freq. dielectric constant tensor:
#      x y z
#    x 1.818370 0.000000 0.008360 
#    y 0.000000 1.800050 0.000000 
#    z 0.008360 0.000000 1.817280 
# 
# From -- ./inp_files/137471.got.cif
#   From: 2010.06.25/outbox.cif.g09.slc.cpg/sg15_69_cif.got.tgz:137471.got - 2010.06.28 07:06:18.
