data_PCOD8134399
_publ_section_title
;
Structure prediction by ZEFSAII (Michael W. Deem and Ramdas Pophale) SiO2 
 PCOD8134399
Probable space group: C 2/C
;
_chemical_formula_sum "Si O2"
_cell_formula_units_Z 52
_cell_length_a 10.891918
_cell_length_b 14.102150
_cell_length_c 18.901170
_cell_angle_alpha 90.000000
_cell_angle_beta 108.274838
_cell_angle_gamma 90.000000
_cell_volume 2756.781163
_symmetry_space_group_name_H-M "C 2/C"
_symmetry_group_IT_number 15
_symmetry_cell_setting 'monoclinic'
loop_
_space_group_symop_operation_xyz
x,y,z
-x,y,1/2-z
-x,-y,-z
x,-y,1/2+z
1/2+x,1/2+y,z
1/2-x,1/2+y,1/2-z
1/2-x,1/2-y,-z
1/2+x,1/2-y,1/2+z
loop_
_atom_site_type_symbol
_atom_site_label
_atom_site_fract_x
_atom_site_fract_y
_atom_site_fract_z
Si Si1 0.140772 0.907321 0.757514
Si Si2 0.705234 0.314943 0.902863
Si Si3 0.434355 0.223892 0.836048
Si Si4 0.165903 0.802198 0.544422
Si Si5 0.758068 0.482261 0.644143
Si Si6 0.500000 0.934772 0.250000
Si Si7 0.618931 0.351413 0.037237
O O1 0.221754 0.893900 0.844629
O O2 0.134379 0.805028 0.720550
O O3 0.208362 0.977108 0.715646
O O4 0.000000 0.949000 0.750000
O O5 0.587567 0.242889 0.866733
O O6 0.834902 0.252947 0.930104
O O7 0.674636 0.372036 0.969053
O O8 0.373788 0.222959 0.904125
O O9 0.412758 0.127285 0.788711
O O10 0.250000 0.750000 0.500000
O O11 0.246567 0.886686 0.595978
O O12 0.036885 0.850117 0.488408
O O13 0.909659 0.503922 0.681295
O O14 0.673647 0.565985 0.595757
#
# Coordination Sequence:
#
# PCOD8134399 Si02
#       7
#     8   8   8   8   8   4   8
#     4   9  17  34  56  79 115 147 190 227 285 341
#     4   9  16  32  63  87 102 149 202 232 277 338
#     4   9  16  35  61  78 108 154 189 232 273 340
#     4  10  23  40  56  82 124 156 181 228 299 352
#     4  11  23  37  58  87 114 151 188 246 281 326
#     4  12  20  38  60  86 114 138 204 244 274 332
#     4  10  19  35  63  84 113 147 196 240 279 335
#
# _framework density 18.862577999999999
#
# number of rings (size 3 to 8) (size 9 to 14) (size 15 to 20)
#    0.000    2.154    3.846    1.385    0.000    1.231 
#    5.538    0.769    0.000    0.000    0.000    0.000 
#    0.000    0.000    0.000    0.000    0.000    0.000 
#
# Total GULP energy -322270.171884 kJ/mol
# GULP energy per Si atom -12395.006611 kJ/mol
# Density = 1.881965 g / cm^3
# Si number density = 18.862578 Si / 1000 Ang^3
#
#
#
# Elastic Constant Matrix: (Units=GPa)
#
#
# Indices 1 2 3 4 5 6 
#
# 1 75.6823 45.4345 46.8449 0.0000 -7.6455 0.0000
# 2 45.4345 69.6084 50.9992 0.0000 -1.4334 0.0000
# 3 46.8449 50.9992 128.4131 0.0000 -5.3050 0.0000
# 4 0.0000 0.0000 0.0000 38.3745 0.0000 -2.9120
# 5 -7.6455 -1.4334 -5.3050 0.0000 40.2462 0.0000
# 6 0.0000 0.0000 0.0000 -2.9120 0.0000 16.9734
#
#
#
# Elastic Compliance Matrix: (Units=1/GPa)
#
#
# Indices 1 2 3 4 5 6 
#
# 1 0.023210 -0.012666 -0.003291 0.000000 0.003524 0.000000
# 2 -0.012666 0.027178 -0.006267 0.000000 -0.002264 0.000000
# 3 -0.003291 -0.006267 0.011504 0.000000 0.000668 0.000000
# 4 0.000000 0.000000 0.000000 0.026403 0.000000 0.004530
# 5 0.003524 -0.002264 0.000668 0.000000 0.025524 0.000000
# 6 0.000000 0.000000 0.000000 0.004530 0.000000 0.059693
#
#
# Mechanical properties :
#
#
# Convention : Reuss Voigt Hill
#
# Bulk Modulus (GPa) = 57.32294 62.25122 59.78708
# Shear Modulus (GPa) = 22.34398 27.81383 25.07891
#
# Velocity S-wave (km/s) = 3.44549 3.84415 3.65027
# Velocity P-wave (km/s) = 6.80325 7.26481 7.03782
#
# Compressibility (1/GPa) = 0.01744502
#
# Stress axis : x y z
#
# Youngs Moduli (GPa) = 43.08518 36.79455 86.92267
#
# Poissons Ratio (x) = 0.46602 0.28608
# Poissons Ratio (y) = 0.54570 0.54473
# Poissons Ratio (z) = 0.14180 0.23059
#
# Static dielectric constant tensor:
#      x y z
#    x 3.317090 0.000000 -0.062340 
#    y 0.000000 3.162170 0.000000 
#    z -0.062340 0.000000 3.942940 
# 
# 
# High freq. dielectric constant tensor:
#      x y z
#    x 1.709650 0.000000 0.000720 
#    y 0.000000 1.705070 0.000000 
#    z 0.000720 0.000000 1.756410 
# 
# From -- ./inp_files/237176.got.cif
#   From: 2010.06.25/outbox.cif.g09.slc.cpg/sg15_119_cif.got.tgz:237176.got - 2010.06.28 07:06:18.
