data_PCOD8134099
_publ_section_title
;
Structure prediction by ZEFSAII (Michael W. Deem and Ramdas Pophale) SiO2 
 PCOD8134099
Probable space group: C 2/C
;
_chemical_formula_sum "Si O2"
_cell_formula_units_Z 60
_cell_length_a 25.813736
_cell_length_b 6.347833
_cell_length_c 25.783061
_cell_angle_alpha 90.000000
_cell_angle_beta 129.208727
_cell_angle_gamma 90.000000
_cell_volume 3273.613993
_symmetry_space_group_name_H-M "C 2/C"
_symmetry_group_IT_number 15
_symmetry_cell_setting 'monoclinic'
loop_
_space_group_symop_operation_xyz
x,y,z
-x,y,1/2-z
-x,-y,-z
x,-y,1/2+z
1/2+x,1/2+y,z
1/2-x,1/2+y,1/2-z
1/2-x,1/2-y,-z
1/2+x,1/2-y,1/2+z
loop_
_atom_site_type_symbol
_atom_site_label
_atom_site_fract_x
_atom_site_fract_y
_atom_site_fract_z
Si Si1 0.154719 0.887073 0.091736
Si Si2 0.000000 0.922850 0.750000
Si Si3 0.188319 0.509184 0.182100
Si Si4 0.468892 0.957326 0.162240
Si Si5 0.912546 0.302877 0.719504
Si Si6 0.565488 0.899679 0.475626
Si Si7 0.727076 0.165544 0.315355
Si Si8 0.430805 0.763354 0.434594
O O1 0.176624 0.742748 0.153595
O O2 0.216174 0.040983 0.115559
O O3 0.091089 0.023668 0.069944
O O4 0.131823 0.739972 0.029154
O O5 0.936859 0.063942 0.726868
O O6 0.979669 0.781843 0.687749
O O7 0.245595 0.393009 0.184829
O O8 0.209726 0.521593 0.255147
O O9 0.120475 0.375314 0.137068
O O10 0.436015 0.961404 0.085199
O O11 0.539770 0.081823 0.208009
O O12 0.417380 0.072392 0.168350
O O13 0.836452 0.298496 0.688900
O O14 0.501780 0.760035 0.451177
O O15 0.566805 0.114728 0.509126
#
# Coordination Sequence:
#
# PCOD8134099 Si02
#       8
#     8   4   8   8   8   8   8   8
#     4  10  21  34  50  79 112 144 179 218 269 328
#     4   8  18  36  52  84 102 136 182 222 272 320
#     4  10  20  33  52  77 109 142 181 216 271 325
#     4   9  19  36  57  84 106 138 182 228 267 325
#     4   9  20  35  55  78 110 138 181 229 272 312
#     4  10  19  35  56  79 110 142 178 226 270 321
#     4  11  20  35  52  78 110 145 177 226 268 326
#     4   9  20  34  53  82 109 140 179 221 271 325
#
# _framework density 18.328367
#
# number of rings (size 3 to 8) (size 9 to 14) (size 15 to 20)
#    0.000    2.667    1.333    1.200    0.000    5.333 
#    0.000    0.667    0.000    8.000    0.000    0.000 
#    0.000    0.000    0.000    0.000    0.000    0.000 
#
# Total GULP energy -371982.059049 kJ/mol
# GULP energy per Si atom -12399.401968 kJ/mol
# Density = 1.828665 g / cm^3
# Si number density = 18.328367 Si / 1000 Ang^3
#
#
#
# Elastic Constant Matrix: (Units=GPa)
#
#
# Indices 1 2 3 4 5 6 
#
# 1 106.0785 30.9967 38.6725 0.0070 9.3320 -0.0105
# 2 30.9967 93.2012 29.2475 0.0202 -3.2875 -0.0231
# 3 38.6725 29.2475 103.1104 0.0038 -8.4253 -0.0066
# 4 0.0070 0.0202 0.0038 24.1536 -0.0005 8.6155
# 5 9.3320 -3.2875 -8.4253 -0.0005 24.2746 0.0016
# 6 -0.0105 -0.0231 -0.0066 8.6155 0.0016 17.9065
#
#
#
# Elastic Compliance Matrix: (Units=1/GPa)
#
#
# Indices 1 2 3 4 5 6 
#
# 1 0.012499 -0.003019 -0.004382 -0.000002 -0.006735 0.000003
# 2 -0.003019 0.012512 -0.002247 -0.000017 0.002075 0.000022
# 3 -0.004382 -0.002247 0.012445 0.000002 0.005700 -0.000002
# 4 -0.000002 -0.000017 0.000002 0.049979 0.000002 -0.024047
# 5 -0.006735 0.002075 0.005700 0.000002 0.046044 -0.000004
# 6 0.000003 0.000022 -0.000002 -0.024047 -0.000004 0.067416
#
#
# Mechanical properties :
#
#
# Convention : Reuss Voigt Hill
#
# Bulk Modulus (GPa) = 55.06733 55.58040 55.32387
# Shear Modulus (GPa) = 22.10000 26.83184 24.46592
#
# Velocity S-wave (km/s) = 3.47620 3.83031 3.65755
# Velocity P-wave (km/s) = 6.79868 7.06770 6.93449
#
# Compressibility (1/GPa) = 0.01815959
#
# Stress axis : x y z
#
# Youngs Moduli (GPa) = 80.00506 79.92309 80.35451
#
# Poissons Ratio (x) = 0.24133 0.35210
# Poissons Ratio (y) = 0.24157 0.18056
# Poissons Ratio (z) = 0.35056 0.17959
#
# Static dielectric constant tensor:
#      x y z
#    x 3.092610 -0.000010 0.212990 
#    y -0.000010 3.483750 0.000000 
#    z 0.212990 0.000000 3.395000 
# 
# 
# High freq. dielectric constant tensor:
#      x y z
#    x 1.683680 0.000000 0.016810 
#    y 0.000000 1.724440 0.000000 
#    z 0.016810 0.000000 1.707230 
# 
# From -- ./inp_files/303858.got.cif
#   From: 2010.06.25/outbox.cif.g09.slc.cpg/sg15_152_cif.got.tgz:303858.got - 2010.06.28 07:06:18.
