data_PCOD8134799
_publ_section_title
;
Structure prediction by ZEFSAII (Michael W. Deem and Ramdas Pophale) SiO2 
 PCOD8134799
Probable space group: C 2/C
;
_chemical_formula_sum "Si O2"
_cell_formula_units_Z 32
_cell_length_a 21.032214
_cell_length_b 5.188029
_cell_length_c 15.689203
_cell_angle_alpha 90.000000
_cell_angle_beta 130.686684
_cell_angle_gamma 90.000000
_cell_volume 1298.139103
_symmetry_space_group_name_H-M "C 2/C"
_symmetry_group_IT_number 15
_symmetry_cell_setting 'monoclinic'
loop_
_space_group_symop_operation_xyz
x,y,z
-x,y,1/2-z
-x,-y,-z
x,-y,1/2+z
1/2+x,1/2+y,z
1/2-x,1/2+y,1/2-z
1/2-x,1/2-y,-z
1/2+x,1/2-y,1/2+z
loop_
_atom_site_type_symbol
_atom_site_label
_atom_site_fract_x
_atom_site_fract_y
_atom_site_fract_z
Si Si1 0.522676 0.249345 0.571831
Si Si2 0.719355 0.776761 0.067879
Si Si3 0.687779 0.212760 0.814359
Si Si4 0.574871 0.037018 0.869123
O O1 0.500000 0.500000 0.500000
O O2 0.621378 0.226996 0.679577
O O3 0.468742 0.257718 0.612033
O O4 0.500000 0.000000 0.500000
O O5 0.745770 0.521147 0.143503
O O6 0.762308 0.022906 0.148091
O O7 0.750000 0.750000 0.000000
O O8 0.618985 0.827636 0.971125
O O9 0.642814 0.173907 0.866999
O O10 0.500000 0.897190 0.750000
#
# Coordination Sequence:
#
# PCOD8134799 Si02
#       4
#     8   8   8   8
#     4  11  24  41  60  88 126 165 202 249 305 368
#     4  10  19  36  62  92 118 150 199 257 304 354
#     4  10  21  39  63  90 119 156 202 253 303 361
#     4   9  20  38  63  90 118 157 204 249 302 363
#
# _framework density 24.650670000000002
#
# number of rings (size 3 to 8) (size 9 to 14) (size 15 to 20)
#    0.000    2.000    0.000    4.500    0.000    6.000 
#    0.000   25.000    0.000    0.000    0.000    0.000 
#    0.000    0.000    0.000    0.000    0.000    0.000 
#
# Total GULP energy -198329.969420 kJ/mol
# GULP energy per Si atom -12395.623089 kJ/mol
# Density = 2.459456 g / cm^3
# Si number density = 24.650670 Si / 1000 Ang^3
#
#
#
# Elastic Constant Matrix: (Units=GPa)
#
#
# Indices 1 2 3 4 5 6 
#
# 1 37.0997 20.0789 35.7230 0.0008 18.2772 0.0016
# 2 20.0789 194.8314 103.1541 0.0073 5.9474 0.0052
# 3 35.7230 103.1541 229.9446 0.0024 20.1685 0.0015
# 4 0.0008 0.0073 0.0024 43.8163 0.0010 1.6488
# 5 18.2772 5.9474 20.1685 0.0010 31.6658 0.0010
# 6 0.0016 0.0052 0.0015 1.6488 0.0010 17.8972
#
#
#
# Elastic Compliance Matrix: (Units=1/GPa)
#
#
# Indices 1 2 3 4 5 6 
#
# 1 0.042255 -0.001603 -0.003953 0.000000 -0.021570 -0.000002
# 2 -0.001603 0.006807 -0.002938 -0.000001 0.001518 -0.000002
# 3 -0.003953 -0.002938 0.006389 0.000000 -0.001236 0.000001
# 4 0.000000 -0.000001 0.000000 0.022902 -0.000001 -0.002110
# 5 -0.021570 0.001518 -0.001236 -0.000001 0.044532 -0.000001
# 6 -0.000002 -0.000002 0.000001 -0.002110 -0.000001 0.056069
#
#
# Mechanical properties :
#
#
# Convention : Reuss Voigt Hill
#
# Bulk Modulus (GPa) = 25.99899 86.64309 56.32104
# Shear Modulus (GPa) = 23.95048 38.87050 31.41049
#
# Velocity S-wave (km/s) = 3.12042 3.97527 3.57350
# Velocity P-wave (km/s) = 4.85310 7.50300 6.31853
#
# Compressibility (1/GPa) = 0.03846303
#
# Stress axis : x y z
#
# Youngs Moduli (GPa) = 23.66561 146.90998 156.51123
#
# Poissons Ratio (x) = 0.23551 0.61877
# Poissons Ratio (y) = 0.03794 0.45978
# Poissons Ratio (z) = 0.09356 0.43158
#
# Static dielectric constant tensor:
#      x y z
#    x 4.531410 -0.000010 0.224190 
#    y -0.000010 4.502960 -0.000010 
#    z 0.224190 -0.000010 4.806830 
# 
# 
# High freq. dielectric constant tensor:
#      x y z
#    x 1.969750 0.000000 0.007570 
#    y 0.000000 1.963370 0.000000 
#    z 0.007570 0.000000 2.008650 
# 
# From -- ./inp_files/170372.got.cif
#   From: 2010.06.25/outbox.cif.g09.slc.cpg/sg15_86_cif.got.tgz:170372.got - 2010.06.28 07:06:18.
