data_PCOD8134372
_publ_section_title
;
Structure prediction by ZEFSAII (Michael W. Deem and Ramdas Pophale) SiO2 
 PCOD8134372
Probable space group: C 2/C
;
_chemical_formula_sum "Si O2"
_cell_formula_units_Z 56
_cell_length_a 23.120488
_cell_length_b 15.636467
_cell_length_c 8.667118
_cell_angle_alpha 90.000000
_cell_angle_beta 55.802808
_cell_angle_gamma 90.000000
_cell_volume 2591.627759
_symmetry_space_group_name_H-M "C 2/C"
_symmetry_group_IT_number 15
_symmetry_cell_setting 'monoclinic'
loop_
_space_group_symop_operation_xyz
x,y,z
-x,y,1/2-z
-x,-y,-z
x,-y,1/2+z
1/2+x,1/2+y,z
1/2-x,1/2+y,1/2-z
1/2-x,1/2-y,-z
1/2+x,1/2-y,1/2+z
loop_
_atom_site_type_symbol
_atom_site_label
_atom_site_fract_x
_atom_site_fract_y
_atom_site_fract_z
Si Si1 0.847180 0.115108 0.136957
Si Si2 0.687488 0.875527 0.836234
Si Si3 0.674028 0.961599 0.184850
Si Si4 0.966550 0.579628 0.465311
Si Si5 0.456350 0.735861 0.088995
Si Si6 0.168781 0.945654 0.503839
Si Si7 0.599805 0.287516 0.495784
O O1 0.768623 0.152171 0.237387
O O2 0.907141 0.189271 0.033134
O O3 0.859023 0.071591 0.284300
O O4 0.857999 0.040829 0.995364
O O5 0.674393 0.934864 0.704776
O O6 0.661453 0.928931 0.028035
O O7 0.644726 0.790356 0.859552
O O8 0.617257 0.924085 0.389627
O O9 0.748675 0.931885 0.134776
O O10 0.986496 0.671819 0.499422
O O11 0.000000 0.571188 0.250000
O O12 0.000000 0.500000 0.500000
O O13 0.411810 0.742606 0.311201
O O14 0.529133 0.687564 0.010939
O O15 0.140812 0.876311 0.424910
#
# Coordination Sequence:
#
# PCOD8134372 Si02
#       7
#     8   8   8   8   8   8   8
#     4   9  20  38  62  89 117 156 196 250 297 355
#     4  10  19  35  62  86 119 153 199 241 295 352
#     4  10  20  35  58  85 116 154 198 239 288 357
#     4  12  25  38  59  85 120 160 191 237 292 351
#     4  10  22  38  57  86 121 153 203 241 295 352
#     4   9  20  37  62  86 113 153 203 243 300 345
#     4  10  20  36  61  88 114 156 200 245 289 359
#
# _framework density 21.608041
#
# number of rings (size 3 to 8) (size 9 to 14) (size 15 to 20)
#    0.000    2.000    1.429    1.714    4.000    2.286 
#    2.571    0.000    0.000    4.286    0.000    0.000 
#    0.000    0.000    0.000    0.000    0.000    0.000 
#
# Total GULP energy -346927.221277 kJ/mol
# GULP energy per Si atom -12390.257903 kJ/mol
# Density = 2.155886 g / cm^3
# Si number density = 21.608041 Si / 1000 Ang^3
#
#
#
# Elastic Constant Matrix: (Units=GPa)
#
#
# Indices 1 2 3 4 5 6 
#
# 1 68.9647 24.1376 17.5052 0.0000 -13.4415 0.0000
# 2 24.1376 82.5478 21.3420 0.0000 -12.4197 0.0000
# 3 17.5052 21.3420 51.7530 0.0000 -7.5849 0.0000
# 4 0.0000 0.0000 0.0000 29.7943 0.0000 -5.7580
# 5 -13.4415 -12.4197 -7.5849 0.0000 14.7219 0.0000
# 6 0.0000 0.0000 0.0000 -5.7580 0.0000 40.3726
#
#
#
# Elastic Compliance Matrix: (Units=1/GPa)
#
#
# Indices 1 2 3 4 5 6 
#
# 1 0.018862 -0.002657 -0.003341 0.000000 0.013259 0.000000
# 2 -0.002657 0.015210 -0.004163 0.000000 0.008261 0.000000
# 3 -0.003341 -0.004163 0.022940 0.000000 0.005256 0.000000
# 4 0.000000 0.000000 0.000000 0.034515 0.000000 0.004923
# 5 0.013259 0.008261 0.005256 0.000000 0.089709 0.000000
# 6 0.000000 0.000000 0.000000 0.004923 0.000000 0.025471
#
#
# Mechanical properties :
#
#
# Convention : Reuss Voigt Hill
#
# Bulk Modulus (GPa) = 27.25511 36.58168 31.91840
# Shear Modulus (GPa) = 20.89776 26.32981 23.61379
#
# Velocity S-wave (km/s) = 3.11324 3.49452 3.30938
# Velocity P-wave (km/s) = 5.05607 5.76616 5.42275
#
# Compressibility (1/GPa) = 0.03669036
#
# Stress axis : x y z
#
# Youngs Moduli (GPa) = 53.01549 65.74482 43.59230
#
# Poissons Ratio (x) = 0.17467 0.14565
# Poissons Ratio (y) = 0.14085 0.18148
# Poissons Ratio (z) = 0.17714 0.27370
#
# Static dielectric constant tensor:
#      x y z
#    x 4.014600 0.000000 -0.216650 
#    y 0.000000 3.947600 0.000000 
#    z -0.216650 0.000000 3.637560 
# 
# 
# High freq. dielectric constant tensor:
#      x y z
#    x 1.854000 0.000000 -0.015900 
#    y 0.000000 1.848070 0.000000 
#    z -0.015900 0.000000 1.825910 
# 
# From -- ./inp_files/61834.got.cif
#   From: 2010.06.25/outbox.cif.g09.slc.cpg/sg15_31_cif.got.tgz:61834.got - 2010.06.28 07:06:18.
