data_PCOD8134195
_publ_section_title
;
Structure prediction by ZEFSAII (Michael W. Deem and Ramdas Pophale) SiO2 
 PCOD8134195
Probable space group: C 2/C
;
_chemical_formula_sum "Si O2"
_cell_formula_units_Z 48
_cell_length_a 12.979403
_cell_length_b 23.127594
_cell_length_c 13.109351
_cell_angle_alpha 90.000000
_cell_angle_beta 135.355522
_cell_angle_gamma 90.000000
_cell_volume 2765.284153
_symmetry_space_group_name_H-M "C 2/C"
_symmetry_group_IT_number 15
_symmetry_cell_setting 'monoclinic'
loop_
_space_group_symop_operation_xyz
x,y,z
-x,y,1/2-z
-x,-y,-z
x,-y,1/2+z
1/2+x,1/2+y,z
1/2-x,1/2+y,1/2-z
1/2-x,1/2-y,-z
1/2+x,1/2-y,1/2+z
loop_
_atom_site_type_symbol
_atom_site_label
_atom_site_fract_x
_atom_site_fract_y
_atom_site_fract_z
Si Si1 0.381722 0.082515 0.910401
Si Si2 0.091646 0.679296 0.409966
Si Si3 0.416412 0.526123 0.091807
Si Si4 0.925521 0.190685 0.594005
Si Si5 0.412121 0.020334 0.589283
Si Si6 0.448061 0.583019 0.903795
O O1 0.501700 0.072805 0.905823
O O2 0.221164 0.081638 0.748359
O O3 0.418702 0.141844 0.994682
O O4 0.392583 0.032413 0.999996
O O5 0.032419 0.742880 0.399998
O O6 0.253519 0.682921 0.480241
O O7 0.000000 0.653705 0.250000
O O8 0.500000 0.548974 0.250000
O O9 0.453648 0.458207 0.100168
O O10 0.246378 0.540461 0.986034
O O11 0.473028 0.562601 0.036309
O O12 0.000000 0.169251 0.750000
O O13 0.990063 0.148268 0.553600
O O14 0.500000 0.998930 0.750000
#
# Coordination Sequence:
#
# PCOD8134195 Si02
#       6
#     8   8   8   8   8   8
#     4  11  21  35  57  80 111 147 179 218 271 324
#     4  10  21  34  54  86 110 138 177 228 271 312
#     4  11  22  36  55  83 110 141 183 222 265 321
#     4  10  19  35  58  80 110 140 179 223 270 319
#     4  11  22  35  53  83 114 142 179 223 267 317
#     4  11  21  35  60  79 106 151 180 215 271 327
#
# _framework density 17.358072
#
# number of rings (size 3 to 8) (size 9 to 14) (size 15 to 20)
#    0.000    1.333    5.000    2.000    0.000    1.333 
#    0.000    0.000    0.000    2.000    0.000    0.000 
#    0.000    0.000    0.000    0.000    0.000    0.000 
#
# Total GULP energy -297609.566854 kJ/mol
# GULP energy per Si atom -12400.398619 kJ/mol
# Density = 1.731856 g / cm^3
# Si number density = 17.358072 Si / 1000 Ang^3
#
#
#
# Elastic Constant Matrix: (Units=GPa)
#
#
# Indices 1 2 3 4 5 6 
#
# 1 85.2612 36.3792 26.7530 0.0000 4.9445 0.0000
# 2 36.3792 91.8906 28.0836 0.0000 -8.2297 0.0000
# 3 26.7530 28.0836 116.2893 0.0000 -0.6019 0.0000
# 4 0.0000 0.0000 0.0000 24.5991 0.0000 -20.1387
# 5 4.9445 -8.2297 -0.6019 0.0000 31.6834 0.0000
# 6 0.0000 0.0000 0.0000 -20.1387 0.0000 88.6990
#
#
#
# Elastic Compliance Matrix: (Units=1/GPa)
#
#
# Indices 1 2 3 4 5 6 
#
# 1 0.015025 -0.005648 -0.002113 0.000000 -0.003852 0.000000
# 2 -0.005648 0.014164 -0.002098 0.000000 0.004521 0.000000
# 3 -0.002113 -0.002098 0.009592 0.000000 -0.000033 0.000000
# 4 0.000000 0.000000 0.000000 0.049933 0.000000 0.011337
# 5 -0.003852 0.004521 -0.000033 0.000000 0.033337 0.000000
# 6 0.000000 0.000000 0.000000 0.011337 0.000000 0.013848
#
#
# Mechanical properties :
#
#
# Convention : Reuss Voigt Hill
#
# Bulk Modulus (GPa) = 52.45344 52.87475 52.66409
# Shear Modulus (GPa) = 30.86987 42.47800 36.67394
#
# Velocity S-wave (km/s) = 4.22170 4.95225 4.60149
# Velocity P-wave (km/s) = 7.35172 7.95154 7.65750
#
# Compressibility (1/GPa) = 0.01906453
#
# Stress axis : x y z
#
# Youngs Moduli (GPa) = 66.55756 70.59952 104.25631
#
# Poissons Ratio (x) = 0.39871 0.22025
# Poissons Ratio (y) = 0.37588 0.21873
# Poissons Ratio (z) = 0.14061 0.14812
#
# Static dielectric constant tensor:
#      x y z
#    x 3.274010 0.000000 0.042230 
#    y 0.000000 3.256800 0.000000 
#    z 0.042230 0.000000 3.532830 
# 
# 
# High freq. dielectric constant tensor:
#      x y z
#    x 1.662700 0.000000 0.009600 
#    y 0.000000 1.653520 0.000000 
#    z 0.009600 0.000000 1.690180 
# 
# From -- ./inp_files/31903.got.cif
#   From: 2010.06.25/outbox.cif.g09.slc.cpg/sg15_16_cif.got.tgz:31903.got - 2010.06.28 07:06:18.
