data_PCOD8134124
_publ_section_title
;
Structure prediction by ZEFSAII (Michael W. Deem and Ramdas Pophale) SiO2 
 PCOD8134124
Probable space group: C 2/C
;
_chemical_formula_sum "Si O2"
_cell_formula_units_Z 56
_cell_length_a 11.452624
_cell_length_b 22.281763
_cell_length_c 22.248845
_cell_angle_alpha 90.000000
_cell_angle_beta 31.687058
_cell_angle_gamma 90.000000
_cell_volume 2982.307628
_symmetry_space_group_name_H-M "C 2/C"
_symmetry_group_IT_number 15
_symmetry_cell_setting 'monoclinic'
loop_
_space_group_symop_operation_xyz
x,y,z
-x,y,1/2-z
-x,-y,-z
x,-y,1/2+z
1/2+x,1/2+y,z
1/2-x,1/2+y,1/2-z
1/2-x,1/2-y,-z
1/2+x,1/2-y,1/2+z
loop_
_atom_site_type_symbol
_atom_site_label
_atom_site_fract_x
_atom_site_fract_y
_atom_site_fract_z
Si Si1 0.755584 0.947547 0.840698
Si Si2 0.000000 0.860647 0.250000
Si Si3 0.273897 0.220774 0.553889
Si Si4 0.143245 0.331552 0.072721
Si Si5 0.599875 0.723996 0.380328
Si Si6 0.500000 0.770452 0.250000
Si Si7 0.305559 0.823879 0.681512
Si Si8 0.056705 0.430828 0.410666
O O1 0.792068 0.890971 0.780346
O O2 0.000000 0.972154 0.750000
O O3 0.617328 0.000351 0.867900
O O4 0.622323 0.927381 0.957971
O O5 0.943290 0.816580 0.330957
O O6 0.787010 0.899366 0.327352
O O7 0.250000 0.250000 0.500000
O O8 0.336623 0.270859 0.577181
O O9 0.467170 0.172770 0.455591
O O10 0.988699 0.290102 0.098079
O O11 0.121873 0.315213 0.151582
O O12 0.061535 0.399256 0.094777
O O13 0.405897 0.322935 0.945905
O O14 0.812216 0.699037 0.248573
O O15 0.334302 0.727689 0.288544
#
# Coordination Sequence:
#
# PCOD8134124 Si02
#       8
#     8   4   8   8   8   4   8   8
#     4  11  21  37  59  87 119 158 207 253 301 352
#     4  12  22  39  52  84 127 152 194 246 298 366
#     4  12  24  37  55  84 122 162 190 239 310 375
#     4  10  19  35  56  86 117 146 194 250 301 353
#     4  10  20  34  57  85 114 151 195 249 299 357
#     4  10  20  31  60  86 115 146 192 250 304 354
#     4  11  20  35  56  86 116 150 197 248 298 359
#     4  11  23  36  57  87 119 161 199 249 302 360
#
# _framework density 18.777404000000001
#
# number of rings (size 3 to 8) (size 9 to 14) (size 15 to 20)
#    0.000    1.143    5.714    1.714    4.000    0.000 
#    0.000    0.000    0.000    1.714    0.000    4.000 
#    0.000    0.000    0.000    0.000    0.000    0.000 
#
# Total GULP energy -346953.282788 kJ/mol
# GULP energy per Si atom -12391.188671 kJ/mol
# Density = 1.873467 g / cm^3
# Si number density = 18.777404 Si / 1000 Ang^3
#
#
#
# Elastic Constant Matrix: (Units=GPa)
#
#
# Indices 1 2 3 4 5 6 
#
# 1 75.5878 43.3007 22.3458 -0.0137 20.9381 -0.0083
# 2 43.3007 106.6971 32.7259 0.0797 11.2421 0.0245
# 3 22.3458 32.7259 111.1320 0.0602 10.7906 0.1075
# 4 -0.0137 0.0797 0.0602 35.0018 0.0406 -5.1416
# 5 20.9381 11.2421 10.7906 0.0406 28.1244 -0.0064
# 6 -0.0083 0.0245 0.1075 -5.1416 -0.0064 23.7315
#
#
#
# Elastic Compliance Matrix: (Units=1/GPa)
#
#
# Indices 1 2 3 4 5 6 
#
# 1 0.020900 -0.006873 -0.000971 0.000044 -0.012440 0.000025
# 2 -0.006873 0.012825 -0.002486 -0.000030 0.000945 -0.000011
# 3 -0.000971 -0.002486 0.010137 -0.000017 -0.002173 -0.000048
# 4 0.000044 -0.000030 -0.000017 0.029509 -0.000055 0.006393
# 5 -0.012440 0.000945 -0.002173 -0.000055 0.045274 0.000005
# 6 0.000025 -0.000011 -0.000048 0.006393 0.000005 0.043523
#
#
# Mechanical properties :
#
#
# Convention : Reuss Voigt Hill
#
# Bulk Modulus (GPa) = 43.10175 54.46241 48.78208
# Shear Modulus (GPa) = 26.23822 30.37453 28.30637
#
# Velocity S-wave (km/s) = 3.74214 4.02632 3.88683
# Velocity P-wave (km/s) = 6.45565 7.11914 6.79550
#
# Compressibility (1/GPa) = 0.02320091
#
# Stress axis : x y z
#
# Youngs Moduli (GPa) = 47.84714 77.97385 98.65211
#
# Poissons Ratio (x) = 0.53595 0.09575
# Poissons Ratio (y) = 0.32887 0.24527
# Poissons Ratio (z) = 0.04644 0.19386
#
# Static dielectric constant tensor:
#      x y z
#    x 3.214250 -0.000220 -0.039960 
#    y -0.000220 3.423630 0.000370 
#    z -0.039960 0.000370 4.463680 
# 
# 
# High freq. dielectric constant tensor:
#      x y z
#    x 1.701070 -0.000020 -0.003710 
#    y -0.000020 1.711010 0.000050 
#    z -0.003710 0.000050 1.756530 
# 
# From -- ./inp_files/271151.got.cif
#   From: 2010.06.25/outbox.cif.g09.slc.cpg/sg15_136_cif.got.tgz:271151.got - 2010.06.28 07:06:18.
