data_PCOD8134957
_publ_section_title
;
Structure prediction by ZEFSAII (Michael W. Deem and Ramdas Pophale) SiO2 
 PCOD8134957
Probable space group: C 2/C
;
_chemical_formula_sum "Si O2"
_cell_formula_units_Z 48
_cell_length_a 7.484417
_cell_length_b 13.799280
_cell_length_c 29.280718
_cell_angle_alpha 90.000000
_cell_angle_beta 133.608630
_cell_angle_gamma 90.000000
_cell_volume 2189.653868
_symmetry_space_group_name_H-M "C 2/C"
_symmetry_group_IT_number 15
_symmetry_cell_setting 'monoclinic'
loop_
_space_group_symop_operation_xyz
x,y,z
-x,y,1/2-z
-x,-y,-z
x,-y,1/2+z
1/2+x,1/2+y,z
1/2-x,1/2+y,1/2-z
1/2-x,1/2-y,-z
1/2+x,1/2-y,1/2+z
loop_
_atom_site_type_symbol
_atom_site_label
_atom_site_fract_x
_atom_site_fract_y
_atom_site_fract_z
Si Si1 0.290884 0.103062 0.076624
Si Si2 0.501859 0.842553 0.140617
Si Si3 0.346724 0.314827 0.121596
Si Si4 0.286491 0.971424 0.795979
Si Si5 0.501992 0.426717 0.062203
Si Si6 0.784609 0.778786 0.749033
O O1 0.254711 0.216223 0.081524
O O2 0.577515 0.072367 0.134394
O O3 0.114831 0.035629 0.078213
O O4 0.226738 0.084474 0.012548
O O5 0.624703 0.857263 0.112943
O O6 0.207503 0.846545 0.083341
O O7 0.601182 0.744920 0.181469
O O8 0.577837 0.927439 0.190398
O O9 0.412224 0.399543 0.097156
O O10 0.578368 0.296741 0.195976
O O11 0.327674 0.887579 0.765139
O O12 0.000000 0.995234 0.750000
O O13 0.000000 0.784379 0.750000
#
# Coordination Sequence:
#
# PCOD8134957 Si02
#       6
#     8   8   8   8   8   8
#     4   9  21  40  61  91 123 167 214 251 317 382
#     4  11  22  39  62  91 121 158 207 255 311 383
#     4  11  21  38  62  90 121 163 208 259 313 371
#     4   9  19  37  60  85 120 156 198 255 310 364
#     4  10  21  42  62  86 131 164 205 265 310 379
#     4  10  19  37  58  84 118 158 201 248 317 368
#
# _framework density 21.921272999999999
#
# number of rings (size 3 to 8) (size 9 to 14) (size 15 to 20)
#    0.000    2.000    1.667    2.000    0.000    0.667 
#    9.000    7.500    0.000    0.000    0.000    0.000 
#    0.000    0.000    0.000    0.000    0.000    0.000 
#
# Total GULP energy -297376.665081 kJ/mol
# GULP energy per Si atom -12390.694378 kJ/mol
# Density = 2.187138 g / cm^3
# Si number density = 21.921273 Si / 1000 Ang^3
#
#
#
# Elastic Constant Matrix: (Units=GPa)
#
#
# Indices 1 2 3 4 5 6 
#
# 1 101.0139 6.1527 17.8939 0.0000 -9.9697 0.0000
# 2 6.1527 76.2111 13.6817 0.0000 -5.9625 0.0000
# 3 17.8939 13.6817 85.2183 0.0000 22.0334 0.0000
# 4 0.0000 0.0000 0.0000 33.4022 0.0000 1.1262
# 5 -9.9697 -5.9625 22.0334 0.0000 25.9085 0.0000
# 6 0.0000 0.0000 0.0000 1.1262 0.0000 20.4488
#
#
#
# Elastic Compliance Matrix: (Units=1/GPa)
#
#
# Indices 1 2 3 4 5 6 
#
# 1 0.011557 0.000595 -0.004752 0.000000 0.008625 0.000000
# 2 0.000595 0.014409 -0.004300 0.000000 0.007202 0.000000
# 3 -0.004752 -0.004300 0.018140 0.000000 -0.018245 0.000000
# 4 0.000000 0.000000 0.000000 0.029994 0.000000 -0.001652
# 5 0.008625 0.007202 -0.018245 0.000000 0.059090 0.000000
# 6 0.000000 0.000000 0.000000 -0.001652 0.000000 0.048994
#
#
# Mechanical properties :
#
#
# Convention : Reuss Voigt Hill
#
# Bulk Modulus (GPa) = 36.77777 37.54444 37.16110
# Shear Modulus (GPa) = 24.01971 30.93288 27.47630
#
# Velocity S-wave (km/s) = 3.31377 3.76052 3.54419
# Velocity P-wave (km/s) = 5.60848 6.00162 5.80838
#
# Compressibility (1/GPa) = 0.02719034
#
# Stress axis : x y z
#
# Youngs Moduli (GPa) = 86.53133 69.40154 55.12607
#
# Poissons Ratio (x) = -0.04129 0.26197
# Poissons Ratio (y) = -0.05148 0.23706
# Poissons Ratio (z) = 0.41122 0.29845
#
# Static dielectric constant tensor:
#      x y z
#    x 3.551940 0.000000 0.250130 
#    y 0.000000 4.274110 0.000000 
#    z 0.250130 0.000000 4.065070 
# 
# 
# High freq. dielectric constant tensor:
#      x y z
#    x 1.823180 0.000000 0.021540 
#    y 0.000000 1.870150 0.000000 
#    z 0.021540 0.000000 1.868240 
# 
# From -- ./inp_files/308114.got.cif
#   From: 2010.06.25/outbox.cif.g09.slc.cpg/sg15_155_cif.got.tgz:308114.got - 2010.06.28 07:06:18.
