data_PCOD8134498
_publ_section_title
;
Structure prediction by ZEFSAII (Michael W. Deem and Ramdas Pophale) SiO2 
 PCOD8134498
Probable space group: C 2/C
;
_chemical_formula_sum "Si O2"
_cell_formula_units_Z 64
_cell_length_a 22.468360
_cell_length_b 15.475850
_cell_length_c 18.101864
_cell_angle_alpha 90.000000
_cell_angle_beta 146.940364
_cell_angle_gamma 90.000000
_cell_volume 3433.627870
_symmetry_space_group_name_H-M "C 2/C"
_symmetry_group_IT_number 15
_symmetry_cell_setting 'monoclinic'
loop_
_space_group_symop_operation_xyz
x,y,z
-x,y,1/2-z
-x,-y,-z
x,-y,1/2+z
1/2+x,1/2+y,z
1/2-x,1/2+y,1/2-z
1/2-x,1/2-y,-z
1/2+x,1/2-y,1/2+z
loop_
_atom_site_type_symbol
_atom_site_label
_atom_site_fract_x
_atom_site_fract_y
_atom_site_fract_z
Si Si1 0.379584 0.325520 0.439452
Si Si2 0.754643 0.763110 0.826058
Si Si3 0.631083 0.366099 0.681379
Si Si4 0.288243 0.798608 0.967218
Si Si5 0.380905 0.105527 0.995003
Si Si6 0.626868 0.978589 0.390301
Si Si7 0.137770 0.414135 0.764687
Si Si8 0.249291 0.518913 0.761190
O O1 0.340857 0.281108 0.322643
O O2 0.503786 0.354304 0.561926
O O3 0.364023 0.262318 0.494085
O O4 0.313171 0.415037 0.381526
O O5 0.836562 0.811471 0.856343
O O6 0.828244 0.699275 0.951915
O O7 0.701414 0.823240 0.834094
O O8 0.686819 0.330875 0.813718
O O9 0.665795 0.466127 0.702886
O O10 0.250000 0.750000 0.000000
O O11 0.352454 0.880062 0.066958
O O12 0.340987 0.074843 0.874216
O O13 0.328443 0.040440 0.999328
O O14 0.510605 0.107360 0.135270
O O15 0.500000 0.990923 0.250000
O O16 0.678159 0.016082 0.367726
O O17 0.172205 0.451688 0.722086
#
# Coordination Sequence:
#
# PCOD8134498 Si02
#       8
#     8   8   8   8   8   8   8   8
#     4  10  21  35  56  84 110 148 186 237 288 328
#     4   9  20  35  56  84 107 136 188 235 278 340
#     4  10  20  36  56  80 113 146 182 236 285 332
#     4  11  23  37  54  82 115 151 192 229 281 343
#     4  10  19  36  56  80 112 145 184 232 284 331
#     4  10  22  37  54  80 111 149 184 229 281 335
#     4  10  20  35  57  82 111 147 187 231 282 336
#     4  10  19  36  56  84 111 148 191 233 280 340
#
# _framework density 18.639178000000001
#
# number of rings (size 3 to 8) (size 9 to 14) (size 15 to 20)
#    0.000    2.000    1.250    2.250    1.750    0.500 
#    4.500    0.000    0.000    0.000    0.000    0.000 
#    0.000    0.000    0.000    0.000    0.000    0.000 
#
# Total GULP energy -396570.708419 kJ/mol
# GULP energy per Si atom -12392.834638 kJ/mol
# Density = 1.859675 g / cm^3
# Si number density = 18.639178 Si / 1000 Ang^3
#
#
#
# Elastic Constant Matrix: (Units=GPa)
#
#
# Indices 1 2 3 4 5 6 
#
# 1 88.2178 50.0469 38.8491 0.0000 1.0995 0.0000
# 2 50.0469 134.0950 42.7778 0.0000 0.8916 0.0000
# 3 38.8491 42.7778 71.0022 0.0000 7.0055 0.0000
# 4 0.0000 0.0000 0.0000 36.0026 0.0000 -7.9631
# 5 1.0995 0.8916 7.0055 0.0000 21.4294 0.0000
# 6 0.0000 0.0000 0.0000 -7.9631 0.0000 37.3674
#
#
#
# Elastic Compliance Matrix: (Units=1/GPa)
#
#
# Indices 1 2 3 4 5 6 
#
# 1 0.016603 -0.004036 -0.006805 0.000000 0.001541 0.000000
# 2 -0.004036 0.010259 -0.004082 0.000000 0.001115 0.000000
# 3 -0.006805 -0.004082 0.020889 0.000000 -0.006310 0.000000
# 4 0.000000 0.000000 0.000000 0.029150 0.000000 0.006212
# 5 0.001541 0.001115 -0.006310 0.000000 0.048602 0.000000
# 6 0.000000 0.000000 0.000000 0.006212 0.000000 0.028085
#
#
# Mechanical properties :
#
#
# Convention : Reuss Voigt Hill
#
# Bulk Modulus (GPa) = 55.85099 61.85142 58.85120
# Shear Modulus (GPa) = 26.39892 29.73595 28.06744
#
# Velocity S-wave (km/s) = 3.76748 3.99851 3.88471
# Velocity P-wave (km/s) = 6.99675 7.38736 7.19471
#
# Compressibility (1/GPa) = 0.01790479
#
# Stress axis : x y z
#
# Youngs Moduli (GPa) = 60.23162 97.47914 47.87119
#
# Poissons Ratio (x) = 0.39342 0.32574
# Poissons Ratio (y) = 0.24309 0.19543
# Poissons Ratio (z) = 0.40985 0.39795
#
# Static dielectric constant tensor:
#      x y z
#    x 3.394400 0.000000 -0.127430 
#    y 0.000000 3.920410 0.000000 
#    z -0.127430 0.000000 3.372950 
# 
# 
# High freq. dielectric constant tensor:
#      x y z
#    x 1.712350 0.000000 0.000020 
#    y 0.000000 1.742330 0.000000 
#    z 0.000020 0.000000 1.716340 
# 
# From -- ./inp_files/113651.got.cif
#   From: 2010.06.25/outbox.cif.g09.slc.cpg/sg15_57_cif.got.tgz:113651.got - 2010.06.28 07:06:18.
