data_PCOD8134762
_publ_section_title
;
Structure prediction by ZEFSAII (Michael W. Deem and Ramdas Pophale) SiO2 
 PCOD8134762
Probable space group: C 2/C
;
_chemical_formula_sum "Si O2"
_cell_formula_units_Z 64
_cell_length_a 8.584737
_cell_length_b 20.779655
_cell_length_c 19.870557
_cell_angle_alpha 90.000000
_cell_angle_beta 64.003980
_cell_angle_gamma 90.000000
_cell_volume 3186.032989
_symmetry_space_group_name_H-M "C 2/C"
_symmetry_group_IT_number 15
_symmetry_cell_setting 'monoclinic'
loop_
_space_group_symop_operation_xyz
x,y,z
-x,y,1/2-z
-x,-y,-z
x,-y,1/2+z
1/2+x,1/2+y,z
1/2-x,1/2+y,1/2-z
1/2-x,1/2-y,-z
1/2+x,1/2-y,1/2+z
loop_
_atom_site_type_symbol
_atom_site_label
_atom_site_fract_x
_atom_site_fract_y
_atom_site_fract_z
Si Si1 0.580112 0.283461 0.003049
Si Si2 0.701434 0.376258 0.219474
Si Si3 0.499903 0.828056 0.076584
Si Si4 0.049108 0.433900 0.956194
Si Si5 0.051762 0.973934 0.403807
Si Si6 0.351620 0.490757 0.818979
Si Si7 0.221014 0.156641 0.865234
Si Si8 0.205645 0.078876 0.447117
O O1 0.496120 0.240334 0.960956
O O2 0.624542 0.350818 0.959542
O O3 0.750000 0.250000 0.000000
O O4 0.441346 0.295787 0.089027
O O5 0.500000 0.359124 0.250000
O O6 0.742530 0.453833 0.208305
O O7 0.767904 0.345244 0.277182
O O8 0.805521 0.344498 0.137545
O O9 0.617113 0.821982 0.120555
O O10 0.569845 0.880510 0.009815
O O11 0.226782 0.441136 0.880364
O O12 0.906910 0.413992 0.927659
O O13 0.000000 0.500000 0.000000
O O14 0.178158 0.915475 0.396727
O O15 0.883844 0.970823 0.483856
O O16 0.162749 0.041028 0.385748
O O17 0.967184 0.965052 0.347073
O O18 0.500000 0.450838 0.750000
#
# Coordination Sequence:
#
# PCOD8134762 Si02
#       8
#     8   8   8   8   8   8   8   8
#     4  11  23  42  65  90 129 175 223 261 323 389
#     4  11  21  40  65  94 132 168 212 268 329 390
#     4  12  24  40  65  98 129 170 221 277 315 380
#     4  12  21  36  63  96 130 161 217 263 320 380
#     4  10  19  36  61  91 127 157 201 264 329 372
#     4  11  22  38  59  92 133 172 199 261 335 390
#     4  11  23  39  64  99 130 162 213 275 327 378
#     4  10  21  36  61  95 121 163 208 264 314 379
#
# _framework density 20.087675999999998
#
# number of rings (size 3 to 8) (size 9 to 14) (size 15 to 20)
#    0.000    1.000    6.250    2.250    3.500    0.000 
#    0.000    0.625    2.750    1.500    0.000    0.000 
#    0.000    0.000    0.000    0.000    0.000    0.000 
#
# Total GULP energy -396613.228432 kJ/mol
# GULP energy per Si atom -12394.163388 kJ/mol
# Density = 2.004196 g / cm^3
# Si number density = 20.087676 Si / 1000 Ang^3
#
#
#
# Elastic Constant Matrix: (Units=GPa)
#
#
# Indices 1 2 3 4 5 6 
#
# 1 95.0082 31.1545 35.1795 0.0000 8.0132 0.0000
# 2 31.1545 103.3469 46.4779 0.0000 2.8559 0.0000
# 3 35.1795 46.4779 125.2939 0.0000 -14.2634 0.0000
# 4 0.0000 0.0000 0.0000 26.6797 0.0000 1.6967
# 5 8.0132 2.8559 -14.2634 0.0000 32.8396 0.0000
# 6 0.0000 0.0000 0.0000 1.6967 0.0000 32.6740
#
#
#
# Elastic Compliance Matrix: (Units=1/GPa)
#
#
# Indices 1 2 3 4 5 6 
#
# 1 0.012848 -0.002290 -0.003253 0.000000 -0.004349 0.000000
# 2 -0.002290 0.012316 -0.004191 0.000000 -0.002333 0.000000
# 3 -0.003253 -0.004191 0.011132 0.000000 0.005993 0.000000
# 4 0.000000 0.000000 0.000000 0.037606 0.000000 -0.001953
# 5 -0.004349 -0.002333 0.005993 0.000000 0.034318 0.000000
# 6 0.000000 0.000000 0.000000 -0.001953 0.000000 0.030707
#
#
# Mechanical properties :
#
#
# Convention : Reuss Voigt Hill
#
# Bulk Modulus (GPa) = 59.42831 61.03029 60.22930
# Shear Modulus (GPa) = 30.48737 32.49448 31.49093
#
# Velocity S-wave (km/s) = 3.90001 4.02634 3.96368
# Velocity P-wave (km/s) = 7.06603 7.21548 7.14115
#
# Compressibility (1/GPa) = 0.01682700
#
# Stress axis : x y z
#
# Youngs Moduli (GPa) = 77.83592 81.19662 89.83487
#
# Poissons Ratio (x) = 0.18593 0.29222
# Poissons Ratio (y) = 0.17823 0.37651
# Poissons Ratio (z) = 0.25319 0.34031
#
# Static dielectric constant tensor:
#      x y z
#    x 3.739850 0.000000 -0.009890 
#    y 0.000000 3.509540 0.000000 
#    z -0.009890 0.000000 3.847110 
# 
# 
# High freq. dielectric constant tensor:
#      x y z
#    x 1.790290 0.000000 -0.000720 
#    y 0.000000 1.759510 0.000000 
#    z -0.000720 0.000000 1.780120 
# 
# From -- ./inp_files/233860.got.cif
#   From: 2010.06.25/outbox.cif.g09.slc.cpg/sg15_117_cif.got.tgz:233860.got - 2010.06.28 07:06:18.
