data_PCOD8134627
_publ_section_title
;
Structure prediction by ZEFSAII (Michael W. Deem and Ramdas Pophale) SiO2 
 PCOD8134627
Probable space group: C 2/C
;
_chemical_formula_sum "Si O2"
_cell_formula_units_Z 48
_cell_length_a 24.960866
_cell_length_b 15.174708
_cell_length_c 8.499525
_cell_angle_alpha 90.000000
_cell_angle_beta 137.105550
_cell_angle_gamma 90.000000
_cell_volume 2191.282837
_symmetry_space_group_name_H-M "C 2/C"
_symmetry_group_IT_number 15
_symmetry_cell_setting 'monoclinic'
loop_
_space_group_symop_operation_xyz
x,y,z
-x,y,1/2-z
-x,-y,-z
x,-y,1/2+z
1/2+x,1/2+y,z
1/2-x,1/2+y,1/2-z
1/2-x,1/2-y,-z
1/2+x,1/2-y,1/2+z
loop_
_atom_site_type_symbol
_atom_site_label
_atom_site_fract_x
_atom_site_fract_y
_atom_site_fract_z
Si Si1 0.080890 0.901725 0.367600
Si Si2 0.049658 0.198545 0.506104
Si Si3 0.753996 0.937880 0.680424
Si Si4 0.692146 0.754272 0.620055
Si Si5 0.698944 0.101845 0.722726
Si Si6 0.912425 0.266114 0.399834
O O1 0.074487 0.884955 0.166342
O O2 0.155906 0.961728 0.574780
O O3 0.088005 0.806828 0.466641
O O4 0.000000 0.949107 0.250000
O O5 0.127315 0.248669 0.617112
O O6 0.996506 0.268222 0.492152
O O7 0.000000 0.162655 0.250000
O O8 0.731222 0.849497 0.724636
O O9 0.748453 0.925707 0.482677
O O10 0.694842 0.016280 0.603166
O O11 0.757221 0.678830 0.780061
O O12 0.656355 0.741504 0.369667
O O13 0.611139 0.138034 0.578053
#
# Coordination Sequence:
#
# PCOD8134627 Si02
#       6
#     8   8   8   8   8   8
#     4  10  19  36  59  84 119 157 197 242 299 360
#     4   9  20  33  61  91 112 154 206 244 306 353
#     4  11  23  38  58  92 118 162 205 243 302 356
#     4  10  19  39  62  84 121 158 197 256 297 355
#     4  11  22  38  62  86 127 158 201 248 295 360
#     4   9  17  39  60  83 115 164 196 240 300 356
#
# _framework density 21.904978
#
# number of rings (size 3 to 8) (size 9 to 14) (size 15 to 20)
#    0.000    2.000    3.333    1.000    2.333    2.000 
#    0.000    4.167    0.000    7.000    0.000    0.000 
#    0.000    0.000    0.000    0.000    0.000    0.000 
#
# Total GULP energy -297539.437913 kJ/mol
# GULP energy per Si atom -12397.476580 kJ/mol
# Density = 2.185512 g / cm^3
# Si number density = 21.904978 Si / 1000 Ang^3
#
#
#
# Elastic Constant Matrix: (Units=GPa)
#
#
# Indices 1 2 3 4 5 6 
#
# 1 109.9340 30.5026 12.2417 0.0000 2.8193 0.0000
# 2 30.5026 83.0135 -9.1158 0.0000 -8.0034 0.0000
# 3 12.2417 -9.1158 37.5634 0.0000 3.7930 0.0000
# 4 0.0000 0.0000 0.0000 16.3294 0.0000 1.8826
# 5 2.8193 -8.0034 3.7930 0.0000 19.1840 0.0000
# 6 0.0000 0.0000 0.0000 1.8826 0.0000 30.3929
#
#
#
# Elastic Compliance Matrix: (Units=1/GPa)
#
#
# Indices 1 2 3 4 5 6 
#
# 1 0.010994 -0.004794 -0.004471 0.000000 -0.002732 0.000000
# 2 -0.004794 0.014889 0.004568 0.000000 0.006013 0.000000
# 3 -0.004471 0.004568 0.029518 0.000000 -0.003273 0.000000
# 4 0.000000 0.000000 0.000000 0.061680 0.000000 -0.003821
# 5 -0.002732 0.006013 -0.003273 0.000000 0.055684 0.000000
# 6 0.000000 0.000000 0.000000 -0.003821 0.000000 0.033139
#
#
# Mechanical properties :
#
#
# Convention : Reuss Voigt Hill
#
# Bulk Modulus (GPa) = 21.73489 33.08530 27.41010
# Shear Modulus (GPa) = 21.67948 26.30676 23.99312
#
# Velocity S-wave (km/s) = 3.14937 3.46923 3.31316
# Velocity P-wave (km/s) = 4.81338 5.58428 5.21310
#
# Compressibility (1/GPa) = 0.04600897
#
# Stress axis : x y z
#
# Youngs Moduli (GPa) = 90.95506 67.16289 33.87789
#
# Poissons Ratio (x) = 0.32199 0.15145
# Poissons Ratio (y) = 0.43605 -0.15477
# Poissons Ratio (z) = 0.40662 -0.30683
#
# Static dielectric constant tensor:
#      x y z
#    x 4.295920 0.000000 0.209210 
#    y 0.000000 3.578790 0.000000 
#    z 0.209210 0.000000 4.073070 
# 
# 
# High freq. dielectric constant tensor:
#      x y z
#    x 1.874410 0.000000 -0.002810 
#    y 0.000000 1.821970 0.000000 
#    z -0.002810 0.000000 1.855410 
# 
# From -- ./inp_files/66426.got.cif
#   From: 2010.06.25/outbox.cif.g09.slc.cpg/sg15_34_cif.got.tgz:66426.got - 2010.06.28 07:06:18.
