data_PCOD8134474
_publ_section_title
;
Structure prediction by ZEFSAII (Michael W. Deem and Ramdas Pophale) SiO2 
 PCOD8134474
Probable space group: C 2/C
;
_chemical_formula_sum "Si O2"
_cell_formula_units_Z 48
_cell_length_a 28.931892
_cell_length_b 11.049572
_cell_length_c 7.871403
_cell_angle_alpha 90.000000
_cell_angle_beta 75.463256
_cell_angle_gamma 90.000000
_cell_volume 2435.812790
_symmetry_space_group_name_H-M "C 2/C"
_symmetry_group_IT_number 15
_symmetry_cell_setting 'monoclinic'
loop_
_space_group_symop_operation_xyz
x,y,z
-x,y,1/2-z
-x,-y,-z
x,-y,1/2+z
1/2+x,1/2+y,z
1/2-x,1/2+y,1/2-z
1/2-x,1/2-y,-z
1/2+x,1/2-y,1/2+z
loop_
_atom_site_type_symbol
_atom_site_label
_atom_site_fract_x
_atom_site_fract_y
_atom_site_fract_z
Si Si1 0.402117 0.068464 0.001379
Si Si2 0.760949 0.113251 0.523488
Si Si3 0.660413 0.890899 0.243786
Si Si4 0.554860 0.161992 0.206530
Si Si5 0.132918 0.173062 0.481515
Si Si6 0.674171 0.534452 0.754947
O O1 0.429288 0.156109 0.109412
O O2 0.359104 0.005084 0.137954
O O3 0.377047 0.144198 0.872995
O O4 0.438034 0.968182 0.889871
O O5 0.750000 0.250000 0.500000
O O6 0.711292 0.058296 0.635470
O O7 0.806572 0.111311 0.605781
O O8 0.778848 0.041650 0.342063
O O9 0.665740 0.774623 0.361060
O O10 0.500000 0.198912 0.250000
O O11 0.582097 0.267703 0.076501
O O12 0.157445 0.130198 0.632040
O O13 0.131230 0.056426 0.356308
#
# Coordination Sequence:
#
# PCOD8134474 Si02
#       6
#     8   8   8   8   8   8
#     4   9  20  34  59  85 123 140 169 229 286 336
#     4  11  21  36  58  80 114 148 197 220 263 329
#     4  10  19  36  54  87 112 151 181 219 277 333
#     4  10  20  37  60  88 111 143 182 227 282 345
#     4  10  22  38  58  77 111 150 187 229 284 323
#     4  10  23  40  53  79 113 154 184 239 269 311
#
# _framework density 19.705947999999999
#
# number of rings (size 3 to 8) (size 9 to 14) (size 15 to 20)
#    0.000    2.000    1.667    1.500    2.333    0.667 
#    3.000    0.833    0.000    0.000    0.000    0.000 
#    0.000    0.000    0.000    0.000    0.000    0.000 
#
# Total GULP energy -297457.031545 kJ/mol
# GULP energy per Si atom -12394.042981 kJ/mol
# Density = 1.966110 g / cm^3
# Si number density = 19.705948 Si / 1000 Ang^3
#
#
#
# Elastic Constant Matrix: (Units=GPa)
#
#
# Indices 1 2 3 4 5 6 
#
# 1 94.9052 46.0587 42.7455 0.0000 -13.5132 0.0000
# 2 46.0587 84.6988 37.0055 0.0000 3.4468 0.0000
# 3 42.7455 37.0055 93.1359 0.0000 2.9088 0.0000
# 4 0.0000 0.0000 0.0000 28.8577 0.0000 8.2743
# 5 -13.5132 3.4468 2.9088 0.0000 35.3695 0.0000
# 6 0.0000 0.0000 0.0000 8.2743 0.0000 20.3884
#
#
#
# Elastic Compliance Matrix: (Units=1/GPa)
#
#
# Indices 1 2 3 4 5 6 
#
# 1 0.017819 -0.007664 -0.005383 0.000000 0.007998 0.000000
# 2 -0.007664 0.017613 -0.003344 0.000000 -0.004369 0.000000
# 3 -0.005383 -0.003344 0.014628 0.000000 -0.002934 0.000000
# 4 0.000000 0.000000 0.000000 0.039216 0.000000 -0.015915
# 5 0.007998 -0.004369 -0.002934 0.000000 0.031996 0.000000
# 6 0.000000 0.000000 0.000000 -0.015915 0.000000 0.055506
#
#
# Mechanical properties :
#
#
# Convention : Reuss Voigt Hill
#
# Bulk Modulus (GPa) = 57.87663 58.26214 58.06938
# Shear Modulus (GPa) = 23.22124 26.71848 24.96986
#
# Velocity S-wave (km/s) = 3.43649 3.68619 3.56353
# Velocity P-wave (km/s) = 6.72159 6.90994 6.81642
#
# Compressibility (1/GPa) = 0.01727813
#
# Stress axis : x y z
#
# Youngs Moduli (GPa) = 56.11864 56.77642 68.36153
#
# Poissons Ratio (x) = 0.43511 0.36800
# Poissons Ratio (y) = 0.43007 0.22863
# Poissons Ratio (z) = 0.30210 0.18988
#
# Static dielectric constant tensor:
#      x y z
#    x 3.806780 0.000000 -0.158530 
#    y 0.000000 3.450220 0.000000 
#    z -0.158530 0.000000 4.210050 
# 
# 
# High freq. dielectric constant tensor:
#      x y z
#    x 1.741380 0.000000 -0.000480 
#    y 0.000000 1.750930 0.000000 
#    z -0.000480 0.000000 1.792310 
# 
# From -- ./inp_files/60519.got.cif
#   From: 2010.06.25/outbox.cif.g09.slc.cpg/sg15_31_cif.got.tgz:60519.got - 2010.06.28 07:06:18.
