data_PCOD8134346
_publ_section_title
;
Structure prediction by ZEFSAII (Michael W. Deem and Ramdas Pophale) SiO2 
 PCOD8134346
Probable space group: C 2/C
;
_chemical_formula_sum "Si O2"
_cell_formula_units_Z 64
_cell_length_a 14.492746
_cell_length_b 17.310351
_cell_length_c 18.535911
_cell_angle_alpha 90.000000
_cell_angle_beta 43.287206
_cell_angle_gamma 90.000000
_cell_volume 3188.428343
_symmetry_space_group_name_H-M "C 2/C"
_symmetry_group_IT_number 15
_symmetry_cell_setting 'monoclinic'
loop_
_space_group_symop_operation_xyz
x,y,z
-x,y,1/2-z
-x,-y,-z
x,-y,1/2+z
1/2+x,1/2+y,z
1/2-x,1/2+y,1/2-z
1/2-x,1/2-y,-z
1/2+x,1/2-y,1/2+z
loop_
_atom_site_type_symbol
_atom_site_label
_atom_site_fract_x
_atom_site_fract_y
_atom_site_fract_z
Si Si1 0.440169 0.230181 0.600739
Si Si2 0.211630 0.856080 0.995197
Si Si3 0.556647 0.785814 0.558381
Si Si4 0.196704 0.664916 0.213368
Si Si5 0.691845 0.679345 0.985923
Si Si6 0.386048 0.121164 0.758749
Si Si7 0.312760 0.493231 0.667192
Si Si8 0.602445 0.486708 0.545058
O O1 0.481996 0.189934 0.501214
O O2 0.288871 0.262154 0.682567
O O3 0.539585 0.302320 0.551438
O O4 0.460905 0.172880 0.656206
O O5 0.295590 0.821038 0.012912
O O6 0.304797 0.852693 0.870798
O O7 0.074741 0.807257 0.056925
O O8 0.174579 0.941916 0.043442
O O9 0.452316 0.817127 0.675512
O O10 0.247565 0.588413 0.224217
O O11 0.783309 0.673933 0.862637
O O12 0.750000 0.750000 0.000000
O O13 0.671732 0.593750 0.033814
O O14 0.500000 0.088035 0.750000
O O15 0.305538 0.057021 0.758285
O O16 0.441163 0.497235 0.648369
O O17 0.367325 0.501443 0.555901
#
# Coordination Sequence:
#
# PCOD8134346 Si02
#       8
#     8   8   8   8   8   8   8   8
#     4  11  22  38  57  86 118 156 194 238 296 357
#     4   9  20  36  59  90 118 153 199 243 291 345
#     4  10  21  36  58  87 119 159 192 240 295 347
#     4  10  19  35  61  87 114 149 198 243 289 347
#     4  11  21  38  63  89 116 150 194 250 301 345
#     4  11  23  37  59  88 114 153 201 246 294 357
#     4   9  19  33  59  87 112 150 199 247 291 341
#     4   9  18  35  60  88 116 148 196 247 292 346
#
# _framework density 20.072586000000001
#
# number of rings (size 3 to 8) (size 9 to 14) (size 15 to 20)
#    0.000    2.000    2.500    1.125    7.000    3.000 
#    0.000    0.625    2.750    0.000    0.000    0.000 
#    0.000    0.000    0.000    0.000    0.000    0.000 
#
# Total GULP energy -396512.651310 kJ/mol
# GULP energy per Si atom -12391.020353 kJ/mol
# Density = 2.002690 g / cm^3
# Si number density = 20.072586 Si / 1000 Ang^3
#
#
#
# Elastic Constant Matrix: (Units=GPa)
#
#
# Indices 1 2 3 4 5 6 
#
# 1 66.9241 41.9554 18.6477 0.0001 -6.3016 0.0000
# 2 41.9554 127.8550 39.3138 0.0000 -2.2873 0.0000
# 3 18.6477 39.3138 74.5482 0.0003 -12.0245 -0.0002
# 4 0.0001 0.0000 0.0003 22.0053 -0.0001 -6.6534
# 5 -6.3016 -2.2873 -12.0245 -0.0001 25.1435 0.0001
# 6 0.0000 0.0000 -0.0002 -6.6534 0.0001 30.7279
#
#
#
# Elastic Compliance Matrix: (Units=1/GPa)
#
#
# Indices 1 2 3 4 5 6 
#
# 1 0.019325 -0.005938 -0.001093 0.000000 0.003781 0.000000
# 2 -0.005938 0.011222 -0.004885 0.000000 -0.002803 0.000000
# 3 -0.001093 -0.004885 0.017497 0.000000 0.007650 0.000000
# 4 0.000000 0.000000 0.000000 0.048627 0.000000 0.010529
# 5 0.003781 -0.002803 0.007650 0.000000 0.044122 0.000000
# 6 0.000000 0.000000 0.000000 0.010529 0.000000 0.034824
#
#
# Mechanical properties :
#
#
# Convention : Reuss Voigt Hill
#
# Bulk Modulus (GPa) = 41.29943 52.12900 46.71421
# Shear Modulus (GPa) = 24.09411 26.86939 25.48175
#
# Velocity S-wave (km/s) = 3.46836 3.66267 3.56684
# Velocity P-wave (km/s) = 6.05468 6.62673 6.34715
#
# Compressibility (1/GPa) = 0.02421341
#
# Stress axis : x y z
#
# Youngs Moduli (GPa) = 51.74561 89.11295 57.15130
#
# Poissons Ratio (x) = 0.52914 0.06246
# Poissons Ratio (y) = 0.30726 0.27917
# Poissons Ratio (z) = 0.05655 0.43529
#
# Static dielectric constant tensor:
#      x y z
#    x 3.531690 0.000000 -0.262700 
#    y 0.000000 3.778820 0.000000 
#    z -0.262700 0.000000 3.425190 
# 
# 
# High freq. dielectric constant tensor:
#      x y z
#    x 1.772920 0.000000 -0.028000 
#    y 0.000000 1.783290 0.000000 
#    z -0.028000 0.000000 1.760710 
# 
# From -- ./inp_files/206427.got.cif
#   From: 2010.06.25/outbox.cif.g09.slc.cpg/sg15_104_cif.got.tgz:206427.got - 2010.06.28 07:06:18.
