data_PCOD8134924
_publ_section_title
;
Structure prediction by ZEFSAII (Michael W. Deem and Ramdas Pophale) SiO2 
 PCOD8134924
Probable space group: C 2/C
;
_chemical_formula_sum "Si O2"
_cell_formula_units_Z 40
_cell_length_a 9.253531
_cell_length_b 11.875182
_cell_length_c 30.943768
_cell_angle_alpha 90.000000
_cell_angle_beta 36.464154
_cell_angle_gamma 90.000000
_cell_volume 2020.882763
_symmetry_space_group_name_H-M "C 2/C"
_symmetry_group_IT_number 15
_symmetry_cell_setting 'monoclinic'
loop_
_space_group_symop_operation_xyz
x,y,z
-x,y,1/2-z
-x,-y,-z
x,-y,1/2+z
1/2+x,1/2+y,z
1/2-x,1/2+y,1/2-z
1/2-x,1/2-y,-z
1/2+x,1/2-y,1/2+z
loop_
_atom_site_type_symbol
_atom_site_label
_atom_site_fract_x
_atom_site_fract_y
_atom_site_fract_z
Si Si1 0.556802 0.057465 0.591920
Si Si2 0.830547 0.857889 0.953072
Si Si3 0.893271 0.220300 0.559743
Si Si4 0.815718 0.750133 0.332780
Si Si5 0.429521 0.192690 0.397014
O O1 0.721995 0.039695 0.507889
O O2 0.707886 0.119183 0.593674
O O3 0.315571 0.129447 0.640087
O O4 0.473882 0.935390 0.627702
O O5 0.705656 0.840102 0.936160
O O6 0.123261 0.854753 0.878795
O O7 0.750000 0.750000 0.000000
O O8 0.147420 0.190514 0.476832
O O9 0.915918 0.234573 0.605806
O O10 0.965601 0.749265 0.341588
O O11 0.000000 0.729328 0.250000
#
# Coordination Sequence:
#
# PCOD8134924 Si02
#       5
#     8   8   8   8   8
#     4  10  19  37  57  78 110 142 178 224 270 312
#     4   8  15  34  53  77 106 139 172 221 269 301
#     4   9  18  33  54  88 107 126 183 233 258 312
#     4  10  20  38  54  75 115 146 176 220 272 329
#     4  11  19  33  59  85 103 141 182 222 272 315
#
# _framework density 19.793331999999999
#
# number of rings (size 3 to 8) (size 9 to 14) (size 15 to 20)
#    0.000    2.800    6.000    0.600    0.000    0.800 
#    0.000   10.000    0.000    0.000    0.000    0.000 
#    0.000    0.000    0.000    0.000    0.000    0.000 
#
# Total GULP energy -247845.002927 kJ/mol
# GULP energy per Si atom -12392.250146 kJ/mol
# Density = 1.974828 g / cm^3
# Si number density = 19.793332 Si / 1000 Ang^3
#
#
#
# Elastic Constant Matrix: (Units=GPa)
#
#
# Indices 1 2 3 4 5 6 
#
# 1 129.6831 31.3349 47.8047 0.0006 33.4832 -0.0015
# 2 31.3349 64.4105 19.7407 0.0016 7.5809 -0.0010
# 3 47.8047 19.7407 112.1508 0.0064 15.1274 -0.0044
# 4 0.0006 0.0016 0.0064 7.3289 -0.0013 1.3176
# 5 33.4832 7.5809 15.1274 -0.0013 29.5790 0.0014
# 6 -0.0015 -0.0010 -0.0044 1.3176 0.0014 16.7208
#
#
#
# Elastic Compliance Matrix: (Units=1/GPa)
#
#
# Indices 1 2 3 4 5 6 
#
# 1 0.012934 -0.003896 -0.003209 0.000000 -0.012002 0.000001
# 2 -0.003896 0.017824 -0.001563 -0.000002 0.000642 0.000000
# 3 -0.003209 -0.001563 0.010758 -0.000010 -0.001469 0.000003
# 4 0.000000 -0.000002 -0.000010 0.138406 0.000012 -0.010906
# 5 -0.012002 0.000642 -0.001469 0.000012 0.047980 -0.000006
# 6 0.000001 0.000000 0.000003 -0.010906 -0.000006 0.060665
#
#
# Mechanical properties :
#
#
# Convention : Reuss Voigt Hill
#
# Bulk Modulus (GPa) = 41.35653 56.00056 48.67854
# Shear Modulus (GPa) = 15.92539 24.55001 20.23770
#
# Velocity S-wave (km/s) = 2.83960 3.52563 3.20105
# Velocity P-wave (km/s) = 5.62944 6.70280 6.18943
#
# Compressibility (1/GPa) = 0.02417998
#
# Stress axis : x y z
#
# Youngs Moduli (GPa) = 77.31516 56.10258 92.95831
#
# Poissons Ratio (x) = 0.21859 0.29826
# Poissons Ratio (y) = 0.30125 0.14531
# Poissons Ratio (z) = 0.24807 0.08770
#
# Static dielectric constant tensor:
#      x y z
#    x 4.139460 0.000000 0.257750 
#    y 0.000000 3.430710 0.000000 
#    z 0.257750 0.000000 3.498320 
# 
# 
# High freq. dielectric constant tensor:
#      x y z
#    x 1.789960 0.000000 0.008640 
#    y 0.000000 1.737410 0.000000 
#    z 0.008640 0.000000 1.728160 
# 
# From -- ./inp_files/188373.got.cif
#   From: 2010.06.25/outbox.cif.g09.slc.cpg/sg15_95_cif.got.tgz:188373.got - 2010.06.28 07:06:18.
