data_PCOD8134917
_publ_section_title
;
Structure prediction by ZEFSAII (Michael W. Deem and Ramdas Pophale) SiO2 
 PCOD8134917
Probable space group: C 2/C
;
_chemical_formula_sum "Si O2"
_cell_formula_units_Z 48
_cell_length_a 16.973132
_cell_length_b 8.882297
_cell_length_c 21.311947
_cell_angle_alpha 90.000000
_cell_angle_beta 130.484021
_cell_angle_gamma 90.000000
_cell_volume 2443.764425
_symmetry_space_group_name_H-M "C 2/C"
_symmetry_group_IT_number 15
_symmetry_cell_setting 'monoclinic'
loop_
_space_group_symop_operation_xyz
x,y,z
-x,y,1/2-z
-x,-y,-z
x,-y,1/2+z
1/2+x,1/2+y,z
1/2-x,1/2+y,1/2-z
1/2-x,1/2-y,-z
1/2+x,1/2-y,1/2+z
loop_
_atom_site_type_symbol
_atom_site_label
_atom_site_fract_x
_atom_site_fract_y
_atom_site_fract_z
Si Si1 0.410281 0.904681 0.247470
Si Si2 0.078236 0.639406 0.036286
Si Si3 0.325934 0.830531 0.785593
Si Si4 0.636636 0.506365 0.737257
Si Si5 0.031158 0.824477 0.897251
Si Si6 0.691939 0.347733 0.879396
O O1 0.500000 0.970467 0.250000
O O2 0.464399 0.798945 0.326260
O O3 0.323698 0.815456 0.162064
O O4 0.358541 0.047049 0.252226
O O5 0.093455 0.690391 0.115670
O O6 0.188137 0.598812 0.059527
O O7 0.033443 0.777076 0.971478
O O8 0.000000 0.500000 0.000000
O O9 0.315646 0.670722 0.746218
O O10 0.215376 0.876711 0.754891
O O11 0.529657 0.483174 0.643289
O O12 0.623986 0.471475 0.805152
O O13 0.146562 0.841671 0.926941
#
# Coordination Sequence:
#
# PCOD8134917 Si02
#       6
#     8   8   8   8   8   8
#     4   9  18  35  57  79 111 146 195 238 280 333
#     4  11  21  33  59  83 117 151 187 232 287 348
#     4  11  21  36  54  87 110 149 191 235 292 331
#     4  10  21  34  60  79 113 144 196 241 277 337
#     4  10  19  37  56  83 113 149 191 230 285 344
#     4   9  20  36  59  84 108 153 193 234 280 338
#
# _framework density 19.641828
#
# number of rings (size 3 to 8) (size 9 to 14) (size 15 to 20)
#    0.000    2.000    1.667    5.000    2.333    2.000 
#    0.000    0.000    0.000    1.000    0.000    0.000 
#    0.000    0.000    0.000    0.000    0.000    0.000 
#
# Total GULP energy -297435.459571 kJ/mol
# GULP energy per Si atom -12393.144149 kJ/mol
# Density = 1.959712 g / cm^3
# Si number density = 19.641828 Si / 1000 Ang^3
#
#
#
# Elastic Constant Matrix: (Units=GPa)
#
#
# Indices 1 2 3 4 5 6 
#
# 1 88.2386 39.1879 26.7145 0.0000 3.0832 0.0000
# 2 39.1879 80.1603 6.6906 0.0000 -0.4988 0.0000
# 3 26.7145 6.6906 58.2302 0.0000 3.8461 0.0000
# 4 0.0000 0.0000 0.0000 19.7757 0.0000 4.0011
# 5 3.0832 -0.4988 3.8461 0.0000 36.3939 0.0000
# 6 0.0000 0.0000 0.0000 4.0011 0.0000 32.9114
#
#
#
# Elastic Compliance Matrix: (Units=1/GPa)
#
#
# Indices 1 2 3 4 5 6 
#
# 1 0.016816 -0.007660 -0.006781 0.000000 -0.000813 0.000000
# 2 -0.007660 0.016089 0.001619 0.000000 0.000698 0.000000
# 3 -0.006781 0.001619 0.020200 0.000000 -0.001538 0.000000
# 4 0.000000 0.000000 0.000000 0.051842 0.000000 -0.006302
# 5 -0.000813 0.000698 -0.001538 0.000000 0.027718 0.000000
# 6 0.000000 0.000000 0.000000 -0.006302 0.000000 0.031151
#
#
# Mechanical properties :
#
#
# Convention : Reuss Voigt Hill
#
# Bulk Modulus (GPa) = 36.41430 41.31278 38.86354
# Shear Modulus (GPa) = 25.17461 28.08528 26.62994
#
# Velocity S-wave (km/s) = 3.58394 3.78547 3.68608
# Velocity P-wave (km/s) = 5.97542 6.33917 6.15998
#
# Compressibility (1/GPa) = 0.02746174
#
# Stress axis : x y z
#
# Youngs Moduli (GPa) = 59.46655 62.15466 49.50574
#
# Poissons Ratio (x) = 0.47610 0.33570
# Poissons Ratio (y) = 0.45551 -0.08017
# Poissons Ratio (z) = 0.40324 -0.10066
#
# Static dielectric constant tensor:
#      x y z
#    x 3.869570 0.000000 -0.057910 
#    y 0.000000 3.333730 0.000000 
#    z -0.057910 0.000000 3.629030 
# 
# 
# High freq. dielectric constant tensor:
#      x y z
#    x 1.774960 0.000000 0.002130 
#    y 0.000000 1.737320 0.000000 
#    z 0.002130 0.000000 1.758350 
# 
# From -- ./inp_files/279437.got.cif
#   From: 2010.06.25/outbox.cif.g09.slc.cpg/sg15_140_cif.got.tgz:279437.got - 2010.06.28 07:06:18.
