data_PCOD8134614
_publ_section_title
;
Structure prediction by ZEFSAII (Michael W. Deem and Ramdas Pophale) SiO2 
 PCOD8134614
Probable space group: C 2/C
;
_chemical_formula_sum "Si O2"
_cell_formula_units_Z 60
_cell_length_a 6.335250
_cell_length_b 27.794796
_cell_length_c 16.281003
_cell_angle_alpha 90.000000
_cell_angle_beta 84.715605
_cell_angle_gamma 90.000000
_cell_volume 2854.687945
_symmetry_space_group_name_H-M "C 2/C"
_symmetry_group_IT_number 15
_symmetry_cell_setting 'monoclinic'
loop_
_space_group_symop_operation_xyz
x,y,z
-x,y,1/2-z
-x,-y,-z
x,-y,1/2+z
1/2+x,1/2+y,z
1/2-x,1/2+y,1/2-z
1/2-x,1/2-y,-z
1/2+x,1/2-y,1/2+z
loop_
_atom_site_type_symbol
_atom_site_label
_atom_site_fract_x
_atom_site_fract_y
_atom_site_fract_z
Si Si1 0.093416 0.869038 0.161313
Si Si2 0.136632 0.290731 0.405526
Si Si3 0.250977 0.146441 0.961742
Si Si4 0.711461 0.911220 0.623772
Si Si5 0.397799 0.069128 0.546559
Si Si6 0.095345 0.509295 0.328692
Si Si7 0.000000 0.046227 0.250000
Si Si8 0.133117 0.185198 0.434104
O O1 0.224862 0.818766 0.168212
O O2 0.265078 0.907203 0.124430
O O3 0.000000 0.886636 0.250000
O O4 0.895595 0.867558 0.108237
O O5 0.122293 0.234428 0.381981
O O6 0.268474 0.301484 0.482607
O O7 0.898503 0.309671 0.426541
O O8 0.393008 0.100445 0.983107
O O9 0.102799 0.162844 0.043883
O O10 0.748814 0.933260 0.530161
O O11 0.494019 0.935722 0.662501
O O12 0.711204 0.853070 0.616386
O O13 0.892613 0.922303 0.683038
O O14 0.462483 0.017523 0.583545
O O15 0.344981 0.511758 0.306412
O O16 0.000000 0.483988 0.250000
#
# Coordination Sequence:
#
# PCOD8134614 Si02
#       8
#     8   8   8   8   8   8   4   8
#     4  10  22  36  57  95 133 162 202 257 313 373
#     4   9  19  36  58  92 122 163 206 254 305 381
#     4  10  19  36  58  94 120 159 201 255 309 365
#     4  11  22  44  61  96 122 159 219 262 310 374
#     4  11  23  38  65  94 122 164 211 258 314 388
#     4  10  25  43  61  91 125 167 210 261 320 378
#     4  10  26  44  64  82 130 166 204 270 312 370
#     4  10  19  37  63  89 124 159 208 254 316 368
#
# _framework density 21.018058
#
# number of rings (size 3 to 8) (size 9 to 14) (size 15 to 20)
#    0.000    1.867    4.000    0.800    4.667    3.200 
#    0.000    3.333    0.000    0.000    0.000    0.000 
#    0.000    0.000    0.000    0.000    0.000    0.000 
#
# Total GULP energy -371735.885612 kJ/mol
# GULP energy per Si atom -12391.196187 kJ/mol
# Density = 2.097022 g / cm^3
# Si number density = 21.018058 Si / 1000 Ang^3
#
#
#
# Elastic Constant Matrix: (Units=GPa)
#
#
# Indices 1 2 3 4 5 6 
#
# 1 102.2586 37.5238 20.7753 0.0000 -6.8275 0.0000
# 2 37.5238 103.7245 19.7533 0.0000 3.5130 0.0000
# 3 20.7753 19.7533 87.0944 0.0000 4.3027 0.0000
# 4 0.0000 0.0000 0.0000 23.5120 0.0000 -3.7713
# 5 -6.8275 3.5130 4.3027 0.0000 26.2424 0.0000
# 6 0.0000 0.0000 0.0000 -3.7713 0.0000 19.4178
#
#
#
# Elastic Compliance Matrix: (Units=1/GPa)
#
#
# Indices 1 2 3 4 5 6 
#
# 1 0.011970 -0.004060 -0.002132 0.000000 0.004007 0.000000
# 2 -0.004060 0.011478 -0.001519 0.000000 -0.002344 0.000000
# 3 -0.002132 -0.001519 0.012453 0.000000 -0.002393 0.000000
# 4 0.000000 0.000000 0.000000 0.043899 0.000000 0.008526
# 5 0.004007 -0.002344 -0.002393 0.000000 0.039855 0.000000
# 6 0.000000 0.000000 0.000000 0.008526 0.000000 0.053155
#
#
# Mechanical properties :
#
#
# Convention : Reuss Voigt Hill
#
# Bulk Modulus (GPa) = 48.83164 49.90914 49.37039
# Shear Modulus (GPa) = 25.63324 28.16944 26.90134
#
# Velocity S-wave (km/s) = 3.49604 3.66491 3.58147
# Velocity P-wave (km/s) = 6.29126 6.45803 6.37519
#
# Compressibility (1/GPa) = 0.02047853
#
# Stress axis : x y z
#
# Youngs Moduli (GPa) = 83.54454 87.12096 80.30048
#
# Poissons Ratio (x) = 0.35370 0.17123
# Poissons Ratio (y) = 0.33918 0.12198
# Poissons Ratio (z) = 0.17815 0.13235
#
# Static dielectric constant tensor:
#      x y z
#    x 3.921210 0.000000 -0.046030 
#    y 0.000000 4.069990 0.000000 
#    z -0.046030 0.000000 3.729410 
# 
# 
# High freq. dielectric constant tensor:
#      x y z
#    x 1.827670 0.000000 0.001230 
#    y 0.000000 1.817110 0.000000 
#    z 0.001230 0.000000 1.806470 
# 
# From -- ./inp_files/186185.got.cif
#   From: 2010.06.25/outbox.cif.g09.slc.cpg/sg15_94_cif.got.tgz:186185.got - 2010.06.28 07:06:18.
