data_PCOD8134131
_publ_section_title
;
Structure prediction by ZEFSAII (Michael W. Deem and Ramdas Pophale) SiO2 
 PCOD8134131
Probable space group: C 2/C
;
_chemical_formula_sum "Si O2"
_cell_formula_units_Z 64
_cell_length_a 17.143226
_cell_length_b 8.853978
_cell_length_c 21.986938
_cell_angle_alpha 90.000000
_cell_angle_beta 97.330370
_cell_angle_gamma 90.000000
_cell_volume 3310.027839
_symmetry_space_group_name_H-M "C 2/C"
_symmetry_group_IT_number 15
_symmetry_cell_setting 'monoclinic'
loop_
_space_group_symop_operation_xyz
x,y,z
-x,y,1/2-z
-x,-y,-z
x,-y,1/2+z
1/2+x,1/2+y,z
1/2-x,1/2+y,1/2-z
1/2-x,1/2-y,-z
1/2+x,1/2-y,1/2+z
loop_
_atom_site_type_symbol
_atom_site_label
_atom_site_fract_x
_atom_site_fract_y
_atom_site_fract_z
Si Si1 0.105298 0.213167 0.117639
Si Si2 0.647784 0.027795 0.535650
Si Si3 0.180577 0.078128 0.467049
Si Si4 0.794921 0.059914 0.886773
Si Si5 0.522176 0.059450 0.682963
Si Si6 0.517377 0.520628 0.932023
Si Si7 0.081858 0.706252 0.119422
Si Si8 0.367958 0.100298 0.589656
O O1 0.129639 0.305023 0.059049
O O2 0.093943 0.328509 0.172731
O O3 0.174881 0.095986 0.139798
O O4 0.023829 0.122096 0.103875
O O5 0.739124 0.982462 0.554433
O O6 0.592625 0.909065 0.564909
O O7 0.625359 0.027674 0.461987
O O8 0.179776 0.063818 0.539809
O O9 0.162728 0.251521 0.448902
O O10 0.110865 0.980288 0.430189
O O11 0.837332 0.202490 0.858152
O O12 0.701064 0.062290 0.868783
O O13 0.500000 0.081547 0.750000
O O14 0.449234 0.107650 0.633022
O O15 0.551986 0.888300 0.674967
O O16 0.486749 0.678185 0.903818
O O17 0.500000 0.500000 0.000000
#
# Coordination Sequence:
#
# PCOD8134131 Si02
#       8
#     8   8   8   8   8   8   8   8
#     4  10  22  35  57  85 117 146 182 235 282 330
#     4  10  20  32  55  90 117 149 176 219 292 354
#     4  11  18  32  55  90 128 143 169 220 287 356
#     4  10  19  35  56  90 117 142 177 221 289 350
#     4  11  26  42  56  76 109 152 203 243 270 317
#     4  11  19  32  55  90 122 144 177 219 286 348
#     4  10  20  36  58  80 117 146 184 227 280 345
#     4  11  20  34  59  83 118 151 183 222 285 341
#
# _framework density 19.335186
#
# number of rings (size 3 to 8) (size 9 to 14) (size 15 to 20)
#    0.000    1.500    6.250    0.750    1.750    4.000 
#    0.000    3.750    0.000    0.000    0.000    0.000 
#    0.000    0.000    0.000    0.000    0.000    0.000 
#
# Total GULP energy -396696.783468 kJ/mol
# GULP energy per Si atom -12396.774483 kJ/mol
# Density = 1.929118 g / cm^3
# Si number density = 19.335186 Si / 1000 Ang^3
#
#
#
# Elastic Constant Matrix: (Units=GPa)
#
#
# Indices 1 2 3 4 5 6 
#
# 1 88.6803 27.9527 14.0478 0.0000 -16.6320 0.0000
# 2 27.9527 109.6330 25.7868 0.0000 -12.6479 0.0000
# 3 14.0478 25.7868 62.3521 0.0000 -18.4133 0.0000
# 4 0.0000 0.0000 0.0000 17.3594 0.0000 -7.1788
# 5 -16.6320 -12.6479 -18.4133 0.0000 15.9402 0.0000
# 6 0.0000 0.0000 0.0000 -7.1788 0.0000 23.9649
#
#
#
# Elastic Compliance Matrix: (Units=1/GPa)
#
#
# Indices 1 2 3 4 5 6 
#
# 1 0.014712 -0.002462 0.002519 0.000000 0.016307 0.000000
# 2 -0.002462 0.010769 -0.003239 0.000000 0.002234 0.000000
# 3 0.002519 -0.003239 0.025540 0.000000 0.029560 0.000000
# 4 0.000000 0.000000 0.000000 0.065751 0.000000 0.019696
# 5 0.016307 0.002234 0.029560 0.000000 0.115668 0.000000
# 6 0.000000 0.000000 0.000000 0.019696 0.000000 0.047628
#
#
# Mechanical properties :
#
#
# Convention : Reuss Voigt Hill
#
# Bulk Modulus (GPa) = 22.39358 44.02666 33.21012
# Shear Modulus (GPa) = 16.59387 24.31143 20.45265
#
# Velocity S-wave (km/s) = 2.93272 3.54978 3.25590
# Velocity P-wave (km/s) = 4.80361 6.29452 5.59891
#
# Compressibility (1/GPa) = 0.04465565
#
# Stress axis : x y z
#
# Youngs Moduli (GPa) = 67.97239 92.86135 39.15502
#
# Poissons Ratio (x) = 0.22866 -0.09865
# Poissons Ratio (y) = 0.16737 0.12683
# Poissons Ratio (z) = -0.17125 0.30080
#
# Static dielectric constant tensor:
#      x y z
#    x 4.159400 0.000000 -0.288390 
#    y 0.000000 3.693770 0.000000 
#    z -0.288390 0.000000 3.004510 
# 
# 
# High freq. dielectric constant tensor:
#      x y z
#    x 1.765560 0.000000 -0.026420 
#    y 0.000000 1.765650 0.000000 
#    z -0.026420 0.000000 1.688670 
# 
# From -- ./inp_files/276282.got.cif
#   From: 2010.06.25/outbox.cif.g09.slc.cpg/sg15_139_cif.got.tgz:276282.got - 2010.06.28 07:06:18.
