data_PCOD8134416
_publ_section_title
;
Structure prediction by ZEFSAII (Michael W. Deem and Ramdas Pophale) SiO2 
 PCOD8134416
Probable space group: C 2/C
;
_chemical_formula_sum "Si O2"
_cell_formula_units_Z 48
_cell_length_a 32.452912
_cell_length_b 7.275376
_cell_length_c 20.983050
_cell_angle_alpha 90.000000
_cell_angle_beta 25.008083
_cell_angle_gamma 90.000000
_cell_volume 2094.389036
_symmetry_space_group_name_H-M "C 2/C"
_symmetry_group_IT_number 15
_symmetry_cell_setting 'monoclinic'
loop_
_space_group_symop_operation_xyz
x,y,z
-x,y,1/2-z
-x,-y,-z
x,-y,1/2+z
1/2+x,1/2+y,z
1/2-x,1/2+y,1/2-z
1/2-x,1/2-y,-z
1/2+x,1/2-y,1/2+z
loop_
_atom_site_type_symbol
_atom_site_label
_atom_site_fract_x
_atom_site_fract_y
_atom_site_fract_z
Si Si1 0.778270 0.065134 0.425543
Si Si2 0.308426 0.653828 0.242964
Si Si3 0.538041 0.428032 0.762118
Si Si4 0.642229 0.673419 0.909584
Si Si5 0.448502 0.038810 0.506677
Si Si6 0.565466 0.000458 0.716410
O O1 0.750000 0.250000 0.500000
O O2 0.829293 0.117328 0.287416
O O3 0.865129 0.968511 0.345742
O O4 0.680676 0.940251 0.552179
O O5 0.299420 0.457600 0.220393
O O6 0.208540 0.770655 0.377256
O O7 0.393067 0.769421 0.090881
O O8 0.500000 0.523604 0.750000
O O9 0.565191 0.218570 0.709595
O O10 0.453231 0.433792 0.933467
O O11 0.621571 0.865279 0.903915
O O12 0.522337 0.064711 0.344169
O O13 0.500000 0.000000 0.500000
O O14 0.500000 0.916590 0.750000
#
# Coordination Sequence:
#
# PCOD8134416 Si02
#       6
#     8   8   8   8   8   8
#     4  10  19  35  63  93 123 173 217 267 327 406
#     4  12  23  40  68  94 133 171 226 274 342 399
#     4   9  18  34  59  89 124 164 219 263 326 398
#     4  11  23  40  63  95 129 173 217 277 340 399
#     4  11  23  40  65  99 130 170 221 283 339 410
#     4   9  18  35  61  89 126 170 217 262 335 405
#
# _framework density 22.918378000000001
#
# number of rings (size 3 to 8) (size 9 to 14) (size 15 to 20)
#    0.000    1.667    1.667    7.000    0.000    2.667 
#    0.000    0.833    0.000    7.000    0.000    0.000 
#    0.000    0.000    0.000    0.000    0.000    0.000 
#
# Total GULP energy -297461.234491 kJ/mol
# GULP energy per Si atom -12394.218104 kJ/mol
# Density = 2.286621 g / cm^3
# Si number density = 22.918378 Si / 1000 Ang^3
#
#
#
# Elastic Constant Matrix: (Units=GPa)
#
#
# Indices 1 2 3 4 5 6 
#
# 1 205.6754 12.8632 80.0855 0.0161 -9.1707 -0.0063
# 2 12.8632 55.9313 27.0694 0.0157 7.7435 -0.0195
# 3 80.0855 27.0694 133.7127 0.0471 -6.5378 -0.0202
# 4 0.0161 0.0157 0.0471 23.0710 -0.0188 -1.3114
# 5 -9.1707 7.7435 -6.5378 -0.0188 51.1504 0.0041
# 6 -0.0063 -0.0195 -0.0202 -1.3114 0.0041 7.4633
#
#
#
# Elastic Compliance Matrix: (Units=1/GPa)
#
#
# Indices 1 2 3 4 5 6 
#
# 1 0.006368 0.000315 -0.003848 0.000003 0.000602 -0.000004
# 2 0.000315 0.020493 -0.004514 -0.000005 -0.003623 0.000043
# 3 -0.003848 -0.004514 0.010764 -0.000014 0.001369 0.000011
# 4 0.000003 -0.000005 -0.000014 0.043782 0.000015 0.007693
# 5 0.000602 -0.003623 0.001369 0.000015 0.020382 -0.000014
# 6 -0.000004 0.000043 0.000011 0.007693 -0.000014 0.135341
#
#
# Mechanical properties :
#
#
# Convention : Reuss Voigt Hill
#
# Bulk Modulus (GPa) = 46.44784 70.59508 58.52146
# Shear Modulus (GPa) = 19.20113 34.69036 26.94575
#
# Velocity S-wave (km/s) = 2.89763 3.89478 3.43261
# Velocity P-wave (km/s) = 5.61299 7.14811 6.42655
#
# Compressibility (1/GPa) = 0.02152953
#
# Stress axis : x y z
#
# Youngs Moduli (GPa) = 157.04684 48.79689 92.90003
#
# Poissons Ratio (x) = -0.01535 0.35748
# Poissons Ratio (y) = -0.04940 0.41937
# Poissons Ratio (z) = 0.60431 0.22028
#
# Static dielectric constant tensor:
#      x y z
#    x 4.812610 -0.000050 -0.582270 
#    y -0.000050 3.573110 0.000050 
#    z -0.582270 0.000050 4.486520 
# 
# 
# High freq. dielectric constant tensor:
#      x y z
#    x 1.924780 0.000000 -0.009370 
#    y 0.000000 1.866440 0.000000 
#    z -0.009370 0.000000 1.907360 
# 
# From -- ./inp_files/224550.got.cif
#   From: 2010.06.25/outbox.cif.g09.slc.cpg/sg15_113_cif.got.tgz:224550.got - 2010.06.28 07:06:18.
