data_PCOD8134926
_publ_section_title
;
Structure prediction by ZEFSAII (Michael W. Deem and Ramdas Pophale) SiO2 
 PCOD8134926
Probable space group: C 2/C
;
_chemical_formula_sum "Si O2"
_cell_formula_units_Z 44
_cell_length_a 7.362424
_cell_length_b 17.150448
_cell_length_c 23.587091
_cell_angle_alpha 90.000000
_cell_angle_beta 123.599105
_cell_angle_gamma 90.000000
_cell_volume 2480.727842
_symmetry_space_group_name_H-M "C 2/C"
_symmetry_group_IT_number 15
_symmetry_cell_setting 'monoclinic'
loop_
_space_group_symop_operation_xyz
x,y,z
-x,y,1/2-z
-x,-y,-z
x,-y,1/2+z
1/2+x,1/2+y,z
1/2-x,1/2+y,1/2-z
1/2-x,1/2-y,-z
1/2+x,1/2-y,1/2+z
loop_
_atom_site_type_symbol
_atom_site_label
_atom_site_fract_x
_atom_site_fract_y
_atom_site_fract_z
Si Si1 0.000000 0.369692 0.250000
Si Si2 0.460933 0.434964 0.310119
Si Si3 0.991005 0.310855 0.927508
Si Si4 0.586818 0.603998 0.328020
Si Si5 0.270804 0.189983 0.919376
Si Si6 0.061491 0.263075 0.368488
O O1 0.208946 0.425496 0.282977
O O2 0.004367 0.315795 0.195745
O O3 0.500000 0.425593 0.250000
O O4 0.534224 0.519931 0.345439
O O5 0.597681 0.371106 0.366870
O O6 0.850671 0.381177 0.875092
O O7 0.824741 0.241910 0.919553
O O8 0.153265 0.273169 0.909435
O O9 0.126362 0.342495 0.004575
O O10 0.500000 0.606547 0.250000
O O11 0.470789 0.674480 0.342656
O O12 0.464182 0.200791 0.908203
#
# Coordination Sequence:
#
# PCOD8134926 Si02
#       6
#     4   8   8   8   8   8
#     4  12  20  38  58  82 112 146 190 242 268 334
#     4  11  22  37  55  83 112 150 185 232 287 327
#     4   9  21  37  57  83 114 143 191 229 272 333
#     4   9  20  39  53  79 120 141 179 234 280 324
#     4  11  20  35  63  82 107 152 189 225 278 333
#     4  10  19  37  57  81 113 142 184 231 273 329
#
# _framework density 17.736730999999999
#
# number of rings (size 3 to 8) (size 9 to 14) (size 15 to 20)
#    1.091    0.727    4.545    0.545    0.000    0.727 
#    6.545    0.000    0.000    3.273    0.000    0.000 
#    0.000    0.000    0.000    0.000    0.000    0.000 
#
# Total GULP energy -272651.341688 kJ/mol
# GULP energy per Si atom -12393.242804 kJ/mol
# Density = 1.769636 g / cm^3
# Si number density = 17.736731 Si / 1000 Ang^3
#
#
#
# Elastic Constant Matrix: (Units=GPa)
#
#
# Indices 1 2 3 4 5 6 
#
# 1 82.7883 15.5186 24.9097 0.0000 1.8652 0.0000
# 2 15.5186 75.5294 36.0970 0.0000 -2.7217 0.0000
# 3 24.9097 36.0970 94.7551 0.0000 7.8562 0.0000
# 4 0.0000 0.0000 0.0000 -2.9744 0.0000 1.6217
# 5 1.8652 -2.7217 7.8562 0.0000 28.7188 0.0000
# 6 0.0000 0.0000 0.0000 1.6217 0.0000 15.1089
#
#
#
# Elastic Compliance Matrix: (Units=1/GPa)
#
#
# Indices 1 2 3 4 5 6 
#
# 1 0.013219 -0.001306 -0.002963 0.000000 -0.000172 0.000000
# 2 -0.001306 0.016627 -0.006270 0.000000 0.003376 0.000000
# 3 -0.002963 -0.006270 0.014074 0.000000 -0.004252 0.000000
# 4 0.000000 0.000000 0.000000 -0.317618 0.000000 0.034091
# 5 -0.000172 0.003376 -0.004252 0.000000 0.036315 0.000000
# 6 0.000000 0.000000 0.000000 0.034091 0.000000 0.062527
#
#
# Mechanical properties :
#
#
# Convention : Reuss Voigt Hill
#
# Bulk Modulus (GPa) = 43.78288 45.12481 44.45385
# Shear Modulus (GPa) = -34.20834 19.94049 -7.13392
#
# Velocity S-wave (km/s) = -4.39643 3.35662 -2.00770
# Velocity P-wave (km/s) = 1.01637 6.36547 4.44332
#
# Compressibility (1/GPa) = 0.02283998
#
# Stress axis : x y z
#
# Youngs Moduli (GPa) = 75.64680 60.14436 71.05395
#
# Poissons Ratio (x) = 0.07855 0.21056
# Poissons Ratio (y) = 0.09880 0.44554
# Poissons Ratio (z) = 0.22417 0.37713
#
# Static dielectric constant tensor:
#      x y z
#    x 3.223360 0.000000 0.120360 
#    y 0.000000 3.343440 0.000000 
#    z 0.120360 0.000000 3.254290 
# 
# 
# High freq. dielectric constant tensor:
#      x y z
#    x 1.679500 0.000000 0.009450 
#    y 0.000000 1.671040 0.000000 
#    z 0.009450 0.000000 1.692300 
# 
# From -- ./inp_files/260791.got.cif
#   From: 2010.06.25/outbox.cif.g09.slc.cpg/sg15_131_cif.got.tgz:260791.got - 2010.06.28 07:06:18.
