data_PCOD8134005
_publ_section_title
;
Structure prediction by ZEFSAII (Michael W. Deem and Ramdas Pophale) SiO2 
 PCOD8134005
Probable space group: C 2/C
;
_chemical_formula_sum "Si O2"
_cell_formula_units_Z 64
_cell_length_a 15.177629
_cell_length_b 25.627947
_cell_length_c 9.296793
_cell_angle_alpha 90.000000
_cell_angle_beta 71.821082
_cell_angle_gamma 90.000000
_cell_volume 3435.692178
_symmetry_space_group_name_H-M "C 2/C"
_symmetry_group_IT_number 15
_symmetry_cell_setting 'monoclinic'
loop_
_space_group_symop_operation_xyz
x,y,z
-x,y,1/2-z
-x,-y,-z
x,-y,1/2+z
1/2+x,1/2+y,z
1/2-x,1/2+y,1/2-z
1/2-x,1/2-y,-z
1/2+x,1/2-y,1/2+z
loop_
_atom_site_type_symbol
_atom_site_label
_atom_site_fract_x
_atom_site_fract_y
_atom_site_fract_z
Si Si1 0.612306 0.948799 0.030775
Si Si2 0.603617 0.053293 0.870554
Si Si3 0.721707 0.859765 0.812111
Si Si4 0.711446 0.859017 0.481522
Si Si5 0.106462 0.741608 0.410197
Si Si6 0.098469 0.262634 0.442386
Si Si7 0.393961 0.304488 0.815738
Si Si8 0.098871 0.179486 0.664971
O O1 0.505234 0.935635 0.056761
O O2 0.632521 0.953602 0.190036
O O3 0.677069 0.904838 0.930356
O O4 0.636974 0.003045 0.941674
O O5 0.652949 0.102619 0.914012
O O6 0.705630 0.873482 0.652648
O O7 0.679555 0.804421 0.877604
O O8 0.830010 0.853100 0.797484
O O9 0.672727 0.800871 0.476003
O O10 0.817146 0.861610 0.368213
O O11 0.130184 0.787549 0.510097
O O12 0.110265 0.768835 0.254543
O O13 0.005661 0.715111 0.488125
O O14 0.121958 0.249847 0.264828
O O15 0.101691 0.203706 0.504346
O O16 0.500000 0.324042 0.750000
O O17 0.000000 0.151405 0.750000
#
# Coordination Sequence:
#
# PCOD8134005 Si02
#       8
#     8   8   8   8   8   8   8   8
#     4  10  23  42  62  85 114 141 177 225 278 333
#     4  10  23  42  62  86 112 142 177 225 279 330
#     4  12  22  35  56  84 111 148 191 228 277 330
#     4  12  22  34  58  83 111 148 190 230 274 331
#     4  10  21  32  52  79 115 152 188 230 271 322
#     4  10  19  35  51  78 116 152 188 224 272 327
#     4  10  22  36  51  77 117 155 188 231 274 318
#     4  10  20  35  52  78 114 155 192 225 265 322
#
# _framework density 18.627977999999999
#
# number of rings (size 3 to 8) (size 9 to 14) (size 15 to 20)
#    0.000    1.500    2.500    3.000    3.500    2.500 
#    0.000    0.000    0.000    0.750    0.000    3.500 
#    0.000    0.000    0.000    0.000    0.000    0.000 
#
# Total GULP energy -396786.034656 kJ/mol
# GULP energy per Si atom -12399.563583 kJ/mol
# Density = 1.858558 g / cm^3
# Si number density = 18.627978 Si / 1000 Ang^3
#
#
#
# Elastic Constant Matrix: (Units=GPa)
#
#
# Indices 1 2 3 4 5 6 
#
# 1 90.6873 35.3604 45.6740 0.0000 -2.0789 0.0000
# 2 35.3604 61.9126 36.9456 0.0000 -5.0940 0.0000
# 3 45.6740 36.9456 95.2983 0.0000 -0.3725 0.0000
# 4 0.0000 0.0000 0.0000 22.2432 0.0000 3.7259
# 5 -2.0789 -5.0940 -0.3725 0.0000 28.8767 0.0000
# 6 0.0000 0.0000 0.0000 3.7259 0.0000 27.2062
#
#
#
# Elastic Compliance Matrix: (Units=1/GPa)
#
#
# Indices 1 2 3 4 5 6 
#
# 1 0.016065 -0.005955 -0.005390 0.000000 0.000036 0.000000
# 2 -0.005955 0.023602 -0.006282 0.000000 0.003654 0.000000
# 3 -0.005390 -0.006282 0.015507 0.000000 -0.001296 0.000000
# 4 0.000000 0.000000 0.000000 0.046013 0.000000 -0.006302
# 5 0.000036 0.003654 -0.001296 0.000000 0.035260 0.000000
# 6 0.000000 0.000000 0.000000 -0.006302 0.000000 0.037619
#
#
# Mechanical properties :
#
#
# Convention : Reuss Voigt Hill
#
# Bulk Modulus (GPa) = 50.20324 53.76205 51.98264
# Shear Modulus (GPa) = 23.15224 24.32642 23.73933
#
# Velocity S-wave (km/s) = 3.52927 3.61765 3.57373
# Velocity P-wave (km/s) = 6.60429 6.80981 6.70783
#
# Compressibility (1/GPa) = 0.01991903
#
# Stress axis : x y z
#
# Youngs Moduli (GPa) = 62.24824 42.36882 64.48666
#
# Poissons Ratio (x) = 0.25232 0.34761
# Poissons Ratio (y) = 0.37072 0.40508
# Poissons Ratio (z) = 0.33555 0.26615
#
# Static dielectric constant tensor:
#      x y z
#    x 3.626190 0.000000 -0.002530 
#    y 0.000000 3.006510 0.000000 
#    z -0.002530 0.000000 3.597330 
# 
# 
# High freq. dielectric constant tensor:
#      x y z
#    x 1.730560 0.000000 0.004330 
#    y 0.000000 1.674600 0.000000 
#    z 0.004330 0.000000 1.746100 
# 
# From -- ./inp_files/43534.got.cif
#   From: 2010.06.25/outbox.cif.g09.slc.cpg/sg15_22_cif.got.tgz:43534.got - 2010.06.28 07:06:18.
