data_PCOD8134985
_publ_section_title
;
Structure prediction by ZEFSAII (Michael W. Deem and Ramdas Pophale) SiO2 
 PCOD8134985
Probable space group: C 2/C
;
_chemical_formula_sum "Si O2"
_cell_formula_units_Z 44
_cell_length_a 19.986536
_cell_length_b 12.253646
_cell_length_c 15.554535
_cell_angle_alpha 90.000000
_cell_angle_beta 35.708447
_cell_angle_gamma 90.000000
_cell_volume 2223.414913
_symmetry_space_group_name_H-M "C 2/C"
_symmetry_group_IT_number 15
_symmetry_cell_setting 'monoclinic'
loop_
_space_group_symop_operation_xyz
x,y,z
-x,y,1/2-z
-x,-y,-z
x,-y,1/2+z
1/2+x,1/2+y,z
1/2-x,1/2+y,1/2-z
1/2-x,1/2-y,-z
1/2+x,1/2-y,1/2+z
loop_
_atom_site_type_symbol
_atom_site_label
_atom_site_fract_x
_atom_site_fract_y
_atom_site_fract_z
Si Si1 0.856026 0.375888 0.663569
Si Si2 0.122240 0.876295 0.642037
Si Si3 0.253080 0.771560 0.356752
Si Si4 0.500000 0.414247 0.250000
Si Si5 0.308124 0.281248 0.528816
Si Si6 0.117209 0.389094 0.419074
O O1 0.840642 0.277876 0.611197
O O2 0.769567 0.362927 0.833877
O O3 0.834365 0.488319 0.635148
O O4 0.981603 0.379952 0.573209
O O5 0.197102 0.860885 0.477793
O O6 0.188197 0.827008 0.653415
O O7 0.000000 0.816783 0.750000
O O8 0.097274 0.004819 0.689543
O O9 0.353805 0.830414 0.200517
O O10 0.433076 0.337800 0.387394
O O11 0.250000 0.250000 0.500000
O O12 0.322981 0.167486 0.562528
#
# Coordination Sequence:
#
# PCOD8134985 Si02
#       6
#     8   8   8   4   8   8
#     4  10  22  39  59  86 119 159 195 244 300 360
#     4   9  20  34  59  87 117 151 193 250 292 355
#     4  10  19  37  59  85 118 154 195 245 298 351
#     4  10  22  38  58  90 114 150 204 244 294 352
#     4  11  23  40  64  87 121 158 201 254 299 362
#     4  10  22  39  57  86 120 156 199 244 300 355
#
# _framework density 19.789380000000001
#
# number of rings (size 3 to 8) (size 9 to 14) (size 15 to 20)
#    0.545    1.455    0.000    3.273    2.545    0.000 
#    0.000    1.818    2.000    0.000    0.000    0.000 
#    0.000    0.000    0.000    0.000    0.000    0.000 
#
# Total GULP energy -272699.436613 kJ/mol
# GULP energy per Si atom -12395.428937 kJ/mol
# Density = 1.974434 g / cm^3
# Si number density = 19.789380 Si / 1000 Ang^3
#
#
#
# Elastic Constant Matrix: (Units=GPa)
#
#
# Indices 1 2 3 4 5 6 
#
# 1 76.4038 25.2119 37.4766 0.0000 6.7469 0.0000
# 2 25.2119 94.1636 49.1531 0.0000 -4.4884 0.0000
# 3 37.4766 49.1531 141.0002 0.0000 0.2157 0.0000
# 4 0.0000 0.0000 0.0000 33.4947 0.0000 -9.2523
# 5 6.7469 -4.4884 0.2157 0.0000 21.7641 0.0000
# 6 0.0000 0.0000 0.0000 -9.2523 0.0000 24.1682
#
#
#
# Elastic Compliance Matrix: (Units=1/GPa)
#
#
# Indices 1 2 3 4 5 6 
#
# 1 0.016136 -0.002874 -0.003278 0.000000 -0.005562 0.000000
# 2 -0.002874 0.013657 -0.004003 0.000000 0.003747 0.000000
# 3 -0.003278 -0.004003 0.009359 0.000000 0.000098 0.000000
# 4 0.000000 0.000000 0.000000 0.033386 0.000000 0.012781
# 5 -0.005562 0.003747 0.000098 0.000000 0.048443 0.000000
# 6 0.000000 0.000000 0.000000 0.012781 0.000000 0.046270
#
#
# Mechanical properties :
#
#
# Convention : Reuss Voigt Hill
#
# Bulk Modulus (GPa) = 53.07429 59.47232 56.27331
# Shear Modulus (GPa) = 25.79414 29.20047 27.49731
#
# Velocity S-wave (km/s) = 3.61423 3.84547 3.73164
# Velocity P-wave (km/s) = 6.65542 7.05937 6.86037
#
# Compressibility (1/GPa) = 0.01884152
#
# Stress axis : x y z
#
# Youngs Moduli (GPa) = 61.97307 73.22008 106.85137
#
# Poissons Ratio (x) = 0.21045 0.35030
# Poissons Ratio (y) = 0.17812 0.42771
# Poissons Ratio (z) = 0.20317 0.29309
#
# Static dielectric constant tensor:
#      x y z
#    x 3.280340 0.000000 -0.051180 
#    y 0.000000 3.617050 0.000000 
#    z -0.051180 0.000000 3.740480 
# 
# 
# High freq. dielectric constant tensor:
#      x y z
#    x 1.756400 0.000000 -0.003060 
#    y 0.000000 1.771630 0.000000 
#    z -0.003060 0.000000 1.785550 
# 
# From -- ./inp_files/104352.got.cif
#   From: 2010.06.25/outbox.cif.g09.slc.cpg/sg15_53_cif.got.tgz:104352.got - 2010.06.28 07:06:18.
