data_PCOD8134144
_publ_section_title
;
Structure prediction by ZEFSAII (Michael W. Deem and Ramdas Pophale) SiO2 
 PCOD8134144
Probable space group: C 2/C
;
_chemical_formula_sum "Si O2"
_cell_formula_units_Z 40
_cell_length_a 12.299336
_cell_length_b 12.625022
_cell_length_c 12.712373
_cell_angle_alpha 90.000000
_cell_angle_beta 99.130235
_cell_angle_gamma 90.000000
_cell_volume 1948.959714
_symmetry_space_group_name_H-M "C 2/C"
_symmetry_group_IT_number 15
_symmetry_cell_setting 'monoclinic'
loop_
_space_group_symop_operation_xyz
x,y,z
-x,y,1/2-z
-x,-y,-z
x,-y,1/2+z
1/2+x,1/2+y,z
1/2-x,1/2+y,1/2-z
1/2-x,1/2-y,-z
1/2+x,1/2-y,1/2+z
loop_
_atom_site_type_symbol
_atom_site_label
_atom_site_fract_x
_atom_site_fract_y
_atom_site_fract_z
Si Si1 0.092544 0.671018 0.347349
Si Si2 0.776015 0.284238 0.264456
Si Si3 0.990983 0.705271 0.936696
Si Si4 0.683829 0.947751 0.403802
Si Si5 0.816053 0.837607 0.575851
O O1 0.167465 0.768762 0.318558
O O2 0.033324 0.705449 0.444279
O O3 0.170181 0.570057 0.376255
O O4 0.000000 0.640639 0.250000
O O5 0.880494 0.301142 0.353872
O O6 0.763547 0.387465 0.188595
O O7 0.788982 0.177501 0.195100
O O8 0.066618 0.604986 0.916204
O O9 0.053908 0.815854 0.921192
O O10 0.769751 0.946018 0.517307
O O11 0.750000 0.750000 0.500000
#
# Coordination Sequence:
#
# PCOD8134144 Si02
#       5
#     8   8   8   8   8
#     4  12  22  34  56  87 113 144 186 233 275 323
#     4  10  20  35  54  82 114 146 181 228 280 329
#     4  10  19  35  57  80 109 145 183 229 277 327
#     4  10  20  36  58  82 110 147 187 228 276 328
#     4   8  16  34  55  75 105 146 179 218 273 327
#
# _framework density 20.523769000000001
#
# number of rings (size 3 to 8) (size 9 to 14) (size 15 to 20)
#    0.000    2.400    0.000    8.400    0.000    1.600 
#    0.000    1.000    0.000   12.000    0.000    0.000 
#    0.000    0.000    0.000    0.000    0.000    0.000 
#
# Total GULP energy -247884.521567 kJ/mol
# GULP energy per Si atom -12394.226078 kJ/mol
# Density = 2.047706 g / cm^3
# Si number density = 20.523769 Si / 1000 Ang^3
#
#
#
# Elastic Constant Matrix: (Units=GPa)
#
#
# Indices 1 2 3 4 5 6 
#
# 1 49.1495 17.7557 -2.9018 0.0000 -23.6588 0.0000
# 2 17.7557 24.6713 -2.7408 0.0000 -9.4612 0.0000
# 3 -2.9018 -2.7408 85.7126 0.0000 -14.2857 0.0000
# 4 0.0000 0.0000 0.0000 16.3681 0.0000 4.3613
# 5 -23.6588 -9.4612 -14.2857 0.0000 43.4184 0.0000
# 6 0.0000 0.0000 0.0000 4.3613 0.0000 24.5398
#
#
#
# Elastic Compliance Matrix: (Units=1/GPa)
#
#
# Indices 1 2 3 4 5 6 
#
# 1 0.035036 -0.018678 0.003272 0.000000 0.016097 0.000000
# 2 -0.018678 0.055030 0.001513 0.000000 0.002311 0.000000
# 3 0.003272 0.001513 0.012885 0.000000 0.006352 0.000000
# 4 0.000000 0.000000 0.000000 0.064131 0.000000 -0.011398
# 5 0.016097 0.002311 0.006352 0.000000 0.034397 0.000000
# 6 0.000000 0.000000 0.000000 -0.011398 0.000000 0.042776
#
#
# Mechanical properties :
#
#
# Convention : Reuss Voigt Hill
#
# Bulk Modulus (GPa) = 13.30451 20.41772 16.86112
# Shear Modulus (GPa) = 16.82958 26.69327 21.76143
#
# Velocity S-wave (km/s) = 2.86668 3.61030 3.25976
# Velocity P-wave (km/s) = 4.17776 5.22962 4.73300
#
# Compressibility (1/GPa) = 0.07516248
#
# Stress axis : x y z
#
# Youngs Moduli (GPa) = 28.54237 18.17196 77.61161
#
# Poissons Ratio (x) = 0.33942 -0.25393
# Poissons Ratio (y) = 0.53312 -0.11739
# Poissons Ratio (z) = -0.09338 -0.02749
#
# Static dielectric constant tensor:
#      x y z
#    x 3.984040 0.000000 0.185370 
#    y 0.000000 3.524630 0.000000 
#    z 0.185370 0.000000 4.366200 
# 
# 
# High freq. dielectric constant tensor:
#      x y z
#    x 1.801030 0.000000 0.001850 
#    y 0.000000 1.752370 0.000000 
#    z 0.001850 0.000000 1.826220 
# 
# From -- ./inp_files/85699.got.cif
#   From: 2010.06.25/outbox.cif.g09.slc.cpg/sg15_43_cif.got.tgz:85699.got - 2010.06.28 07:06:18.
