data_PCOD8134141
_publ_section_title
;
Structure prediction by ZEFSAII (Michael W. Deem and Ramdas Pophale) SiO2 
 PCOD8134141
Probable space group: C 2/C
;
_chemical_formula_sum "Si O2"
_cell_formula_units_Z 56
_cell_length_a 9.359925
_cell_length_b 16.739732
_cell_length_c 25.169480
_cell_angle_alpha 90.000000
_cell_angle_beta 123.684081
_cell_angle_gamma 90.000000
_cell_volume 3281.519121
_symmetry_space_group_name_H-M "C 2/C"
_symmetry_group_IT_number 15
_symmetry_cell_setting 'monoclinic'
loop_
_space_group_symop_operation_xyz
x,y,z
-x,y,1/2-z
-x,-y,-z
x,-y,1/2+z
1/2+x,1/2+y,z
1/2-x,1/2+y,1/2-z
1/2-x,1/2-y,-z
1/2+x,1/2-y,1/2+z
loop_
_atom_site_type_symbol
_atom_site_label
_atom_site_fract_x
_atom_site_fract_y
_atom_site_fract_z
Si Si1 0.968151 0.368918 0.372241
Si Si2 0.842844 0.870907 0.006058
Si Si3 0.212833 0.094872 0.618869
Si Si4 0.086494 0.465767 0.887257
Si Si5 0.683785 0.192030 0.763206
Si Si6 0.785666 0.272536 0.421878
Si Si7 0.474514 0.812473 0.805769
O O1 0.834057 0.349386 0.297678
O O2 0.927436 0.316436 0.415312
O O3 0.163266 0.349310 0.392791
O O4 0.957654 0.464803 0.382515
O O5 0.769884 0.832002 0.043781
O O6 0.024522 0.910511 0.055735
O O7 0.708262 0.938179 0.960573
O O8 0.869231 0.806451 0.964518
O O9 0.213342 0.129435 0.678481
O O10 0.293315 0.005173 0.634376
O O11 0.979071 0.392620 0.841632
O O12 0.500000 0.214511 0.750000
O O13 0.790124 0.273414 0.778806
O O14 0.621562 0.249592 0.352896
O O15 0.500000 0.835414 0.750000
#
# Coordination Sequence:
#
# PCOD8134141 Si02
#       7
#     8   8   8   8   8   8   8
#     4   9  20  35  53  83 111 140 180 221 279 319
#     4  10  19  35  57  79 110 145 190 219 264 321
#     4   9  19  35  58  78 109 147 176 225 268 326
#     4   9  22  34  57  81 109 142 180 227 274 318
#     4  10  19  35  59  78 107 141 181 221 274 325
#     4  10  20  34  54  86 108 144 186 222 265 324
#     4  11  20  34  60  81 105 142 185 229 263 325
#
# _framework density 17.065266000000001
#
# number of rings (size 3 to 8) (size 9 to 14) (size 15 to 20)
#    0.857    1.429    2.857    0.429    2.000    1.143 
#    0.000    0.000    6.286    0.000    0.000    0.000 
#    0.000    0.000    0.000    0.000    0.000    0.000 
#
# Total GULP energy -347031.680417 kJ/mol
# GULP energy per Si atom -12393.988586 kJ/mol
# Density = 1.702642 g / cm^3
# Si number density = 17.065266 Si / 1000 Ang^3
#
#
#
# Elastic Constant Matrix: (Units=GPa)
#
#
# Indices 1 2 3 4 5 6 
#
# 1 45.3130 31.5286 33.7508 0.0000 1.2191 0.0000
# 2 31.5286 91.9568 36.6993 0.0000 6.4962 0.0000
# 3 33.7508 36.6993 95.5638 0.0000 5.4002 0.0000
# 4 0.0000 0.0000 0.0000 5.5325 0.0000 -2.4602
# 5 1.2191 6.4962 5.4002 0.0000 28.4462 0.0000
# 6 0.0000 0.0000 0.0000 -2.4602 0.0000 26.4488
#
#
#
# Elastic Compliance Matrix: (Units=1/GPa)
#
#
# Indices 1 2 3 4 5 6 
#
# 1 0.034654 -0.008387 -0.009141 0.000000 0.002165 0.000000
# 2 -0.008387 0.014988 -0.002649 0.000000 -0.002561 0.000000
# 3 -0.009141 -0.002649 0.014812 0.000000 -0.001815 0.000000
# 4 0.000000 0.000000 0.000000 0.188548 0.000000 0.017538
# 5 0.002165 -0.002561 -0.001815 0.000000 0.035991 0.000000
# 6 0.000000 0.000000 0.000000 0.017538 0.000000 0.039440
#
#
# Mechanical properties :
#
#
# Convention : Reuss Voigt Hill
#
# Bulk Modulus (GPa) = 41.49076 48.53232 45.01154
# Shear Modulus (GPa) = 13.26891 20.80917 17.03904
#
# Velocity S-wave (km/s) = 2.79146 3.49576 3.16328
# Velocity P-wave (km/s) = 5.89538 6.69289 6.30675
#
# Compressibility (1/GPa) = 0.02410175
#
# Stress axis : x y z
#
# Youngs Moduli (GPa) = 28.85663 66.71852 67.51068
#
# Poissons Ratio (x) = 0.55954 0.61709
# Poissons Ratio (y) = 0.24201 0.17886
# Poissons Ratio (z) = 0.26377 0.17676
#
# Static dielectric constant tensor:
#      x y z
#    x 2.945970 0.000000 0.022680 
#    y 0.000000 3.091150 0.000000 
#    z 0.022680 0.000000 3.278740 
# 
# 
# High freq. dielectric constant tensor:
#      x y z
#    x 1.637130 0.000000 0.002570 
#    y 0.000000 1.650650 0.000000 
#    z 0.002570 0.000000 1.669950 
# 
# From -- ./inp_files/232188.got.cif
#   From: 2010.06.25/outbox.cif.g09.slc.cpg/sg15_117_cif.got.tgz:232188.got - 2010.06.28 07:06:18.
