data_PCOD8134632
_publ_section_title
;
Structure prediction by ZEFSAII (Michael W. Deem and Ramdas Pophale) SiO2 
 PCOD8134632
Probable space group: C 2/C
;
_chemical_formula_sum "Si O2"
_cell_formula_units_Z 56
_cell_length_a 22.657092
_cell_length_b 9.072427
_cell_length_c 13.924141
_cell_angle_alpha 90.000000
_cell_angle_beta 74.346832
_cell_angle_gamma 90.000000
_cell_volume 2756.023621
_symmetry_space_group_name_H-M "C 2/C"
_symmetry_group_IT_number 15
_symmetry_cell_setting 'monoclinic'
loop_
_space_group_symop_operation_xyz
x,y,z
-x,y,1/2-z
-x,-y,-z
x,-y,1/2+z
1/2+x,1/2+y,z
1/2-x,1/2+y,1/2-z
1/2-x,1/2-y,-z
1/2+x,1/2-y,1/2+z
loop_
_atom_site_type_symbol
_atom_site_label
_atom_site_fract_x
_atom_site_fract_y
_atom_site_fract_z
Si Si1 0.263329 0.899521 0.547738
Si Si2 0.347736 0.913031 0.875058
Si Si3 0.416227 0.608869 0.618079
Si Si4 0.134922 0.421221 0.847585
Si Si5 0.948705 0.072847 0.933565
Si Si6 0.556834 0.101072 0.008665
Si Si7 0.152456 0.084418 0.668295
O O1 0.250000 0.750000 0.500000
O O2 0.303423 0.868988 0.625334
O O3 0.295544 0.006179 0.457679
O O4 0.198993 0.964197 0.610359
O O5 0.353579 0.976881 0.765367
O O6 0.414429 0.932024 0.897651
O O7 0.323541 0.746210 0.870638
O O8 0.415256 0.788228 0.622359
O O9 0.480973 0.535311 0.622242
O O10 0.409377 0.546328 0.513074
O O11 0.360343 0.559375 0.712440
O O12 0.110556 0.567339 0.909747
O O13 0.955251 0.225296 0.990956
O O14 0.914741 0.076871 0.848262
O O15 0.500000 0.000000 0.000000
#
# Coordination Sequence:
#
# PCOD8134632 Si02
#       7
#     8   8   8   8   8   8   8
#     4  11  23  38  58  85 121 152 192 254 293 336
#     4   9  22  38  58  84 112 156 200 236 285 361
#     4  10  20  36  58  85 112 151 191 236 292 345
#     4  10  21  38  59  85 118 153 199 235 291 353
#     4  10  20  35  59  84 116 148 189 240 288 344
#     4  10  19  36  59  85 117 150 188 240 292 347
#     4  10  21  38  58  82 111 154 198 231 287 351
#
# _framework density 20.319129
#
# number of rings (size 3 to 8) (size 9 to 14) (size 15 to 20)
#    0.000    2.000    1.429    1.714    0.000    5.143 
#    0.000    1.429    6.286    0.000    0.000    0.000 
#    0.000    0.000    0.000    0.000    0.000    0.000 
#
# Total GULP energy -346921.705265 kJ/mol
# GULP energy per Si atom -12390.060902 kJ/mol
# Density = 2.027288 g / cm^3
# Si number density = 20.319129 Si / 1000 Ang^3
#
#
#
# Elastic Constant Matrix: (Units=GPa)
#
#
# Indices 1 2 3 4 5 6 
#
# 1 81.0943 16.4437 33.9110 0.0000 0.5183 0.0000
# 2 16.4437 53.9660 36.3530 0.0000 -15.7325 0.0000
# 3 33.9110 36.3530 124.7676 0.0000 -1.0161 0.0000
# 4 0.0000 0.0000 0.0000 28.6951 0.0000 -4.0064
# 5 0.5183 -15.7325 -1.0161 0.0000 30.4707 0.0000
# 6 0.0000 0.0000 0.0000 -4.0064 0.0000 32.0153
#
#
#
# Elastic Compliance Matrix: (Units=1/GPa)
#
#
# Indices 1 2 3 4 5 6 
#
# 1 0.014186 -0.002780 -0.003060 0.000000 -0.001778 0.000000
# 2 -0.002780 0.028673 -0.007480 0.000000 0.014602 0.000000
# 3 -0.003060 -0.007480 0.010998 0.000000 -0.003443 0.000000
# 4 0.000000 0.000000 0.000000 0.035469 0.000000 0.004439
# 5 -0.001778 0.014602 -0.003443 0.000000 0.040273 0.000000
# 6 0.000000 0.000000 0.000000 0.004439 0.000000 0.031790
#
#
# Mechanical properties :
#
#
# Convention : Reuss Voigt Hill
#
# Bulk Modulus (GPa) = 36.74127 48.13813 42.43970
# Shear Modulus (GPa) = 25.36771 29.77756 27.57264
#
# Velocity S-wave (km/s) = 3.53719 3.83233 3.68772
# Velocity P-wave (km/s) = 5.89947 6.58216 6.25014
#
# Compressibility (1/GPa) = 0.02721735
#
# Stress axis : x y z
#
# Youngs Moduli (GPa) = 70.49196 34.87644 90.92565
#
# Poissons Ratio (x) = 0.09694 0.27826
# Poissons Ratio (y) = 0.19593 0.68011
# Poissons Ratio (z) = 0.21573 0.26087
#
# Static dielectric constant tensor:
#      x y z
#    x 3.802180 0.000000 0.086020 
#    y 0.000000 3.671130 0.000000 
#    z 0.086020 0.000000 3.714890 
# 
# 
# High freq. dielectric constant tensor:
#      x y z
#    x 1.794360 0.000000 0.003870 
#    y 0.000000 1.782130 0.000000 
#    z 0.003870 0.000000 1.797310 
# 
# From -- ./inp_files/171822.got.cif
#   From: 2010.06.25/outbox.cif.g09.slc.cpg/sg15_86_cif.got.tgz:171822.got - 2010.06.28 07:06:18.
