data_PCOD8134033
_publ_section_title
;
Structure prediction by ZEFSAII (Michael W. Deem and Ramdas Pophale) SiO2 
 PCOD8134033
Probable space group: C 2/C
;
_chemical_formula_sum "Si O2"
_cell_formula_units_Z 60
_cell_length_a 22.706271
_cell_length_b 14.967744
_cell_length_c 8.856175
_cell_angle_alpha 90.000000
_cell_angle_beta 85.876325
_cell_angle_gamma 90.000000
_cell_volume 3002.082162
_symmetry_space_group_name_H-M "C 2/C"
_symmetry_group_IT_number 15
_symmetry_cell_setting 'monoclinic'
loop_
_space_group_symop_operation_xyz
x,y,z
-x,y,1/2-z
-x,-y,-z
x,-y,1/2+z
1/2+x,1/2+y,z
1/2-x,1/2+y,1/2-z
1/2-x,1/2-y,-z
1/2+x,1/2-y,1/2+z
loop_
_atom_site_type_symbol
_atom_site_label
_atom_site_fract_x
_atom_site_fract_y
_atom_site_fract_z
Si Si1 0.447884 0.884009 0.034714
Si Si2 0.402990 0.010570 0.296939
Si Si3 0.842205 0.608394 0.046478
Si Si4 0.371980 0.727554 0.351667
Si Si5 0.833489 0.287087 0.045815
Si Si6 0.778329 0.107881 0.000809
Si Si7 0.000000 0.732169 0.750000
Si Si8 0.788601 0.073663 0.346912
O O1 0.397430 0.818585 0.979193
O O2 0.501607 0.825965 0.091566
O O3 0.425573 0.931270 0.190669
O O4 0.458919 0.950736 0.890322
O O5 0.371614 0.086677 0.203242
O O6 0.356634 0.969957 0.424569
O O7 0.771707 0.612708 0.072478
O O8 0.867824 0.704471 0.992453
O O9 0.332323 0.769185 0.225301
O O10 0.439504 0.711623 0.277972
O O11 0.343446 0.632357 0.400693
O O12 0.816643 0.196886 0.958943
O O13 0.789563 0.368565 0.019559
O O14 0.786790 0.075070 0.168221
O O15 0.799741 0.028988 0.888357
#
# Coordination Sequence:
#
# PCOD8134033 Si02
#       8
#     8   8   8   8   8   8   4   8
#     4  10  19  35  53  82 109 155 186 232 274 337
#     4  10  20  32  56  83 122 144 187 224 286 341
#     4  11  19  35  52  86 118 148 175 232 285 347
#     4  10  22  38  57  82 110 155 194 234 279 329
#     4   9  18  35  55  77 115 148 184 217 284 345
#     4  10  21  35  55  84 115 153 182 225 281 345
#     4  10  20  40  60  72 114 154 198 232 282 326
#     4  11  22  35  57  85 117 147 187 229 281 342
#
# _framework density 19.986128000000001
#
# number of rings (size 3 to 8) (size 9 to 14) (size 15 to 20)
#    0.000    1.867    2.667    3.600    1.867    0.533 
#    4.800    0.000    0.000    7.200    0.000    0.000 
#    0.000    0.000    0.000    0.000    0.000    0.000 
#
# Total GULP energy -371839.159460 kJ/mol
# GULP energy per Si atom -12394.638649 kJ/mol
# Density = 1.994064 g / cm^3
# Si number density = 19.986128 Si / 1000 Ang^3
#
#
#
# Elastic Constant Matrix: (Units=GPa)
#
#
# Indices 1 2 3 4 5 6 
#
# 1 78.2093 33.5623 25.9117 0.0000 14.6833 0.0000
# 2 33.5623 107.1161 36.0548 0.0000 8.4792 0.0000
# 3 25.9117 36.0548 81.8876 0.0000 9.9148 0.0000
# 4 0.0000 0.0000 0.0000 24.8480 0.0000 6.0769
# 5 14.6833 8.4792 9.9148 0.0000 23.4628 0.0000
# 6 0.0000 0.0000 0.0000 6.0769 0.0000 15.5837
#
#
#
# Elastic Compliance Matrix: (Units=1/GPa)
#
#
# Indices 1 2 3 4 5 6 
#
# 1 0.016781 -0.003713 -0.002704 0.000000 -0.008017 0.000000
# 2 -0.003713 0.011874 -0.004021 0.000000 -0.000268 0.000000
# 3 -0.002704 -0.004021 0.015237 0.000000 -0.003293 0.000000
# 4 0.000000 0.000000 0.000000 0.044487 0.000000 -0.017348
# 5 -0.008017 -0.000268 -0.003293 0.000000 0.049126 0.000000
# 6 0.000000 0.000000 0.000000 -0.017348 0.000000 0.070935
#
#
# Mechanical properties :
#
#
# Convention : Reuss Voigt Hill
#
# Bulk Modulus (GPa) = 43.44980 50.91897 47.18438
# Shear Modulus (GPa) = 21.09824 24.22452 22.66138
#
# Velocity S-wave (km/s) = 3.25259 3.48525 3.37093
# Velocity P-wave (km/s) = 5.99108 6.45975 6.22982
#
# Compressibility (1/GPa) = 0.02301507
#
# Stress axis : x y z
#
# Youngs Moduli (GPa) = 59.59224 84.22080 65.63154
#
# Poissons Ratio (x) = 0.31271 0.17750
# Poissons Ratio (y) = 0.22126 0.26387
# Poissons Ratio (z) = 0.16116 0.33861
#
# Static dielectric constant tensor:
#      x y z
#    x 3.594830 0.000000 0.266940 
#    y 0.000000 3.702700 0.000000 
#    z 0.266940 0.000000 3.697510 
# 
# 
# High freq. dielectric constant tensor:
#      x y z
#    x 1.765510 0.000000 0.019170 
#    y 0.000000 1.765800 0.000000 
#    z 0.019170 0.000000 1.781490 
# 
# From -- ./inp_files/61558.got.cif
#   From: 2010.06.25/outbox.cif.g09.slc.cpg/sg15_31_cif.got.tgz:61558.got - 2010.06.28 07:06:18.
