data_PCOD8134959
_publ_section_title
;
Structure prediction by ZEFSAII (Michael W. Deem and Ramdas Pophale) SiO2 
 PCOD8134959
Probable space group: C 2/C
;
_chemical_formula_sum "Si O2"
_cell_formula_units_Z 40
_cell_length_a 16.875658
_cell_length_b 8.756875
_cell_length_c 26.490904
_cell_angle_alpha 90.000000
_cell_angle_beta 148.307427
_cell_angle_gamma 90.000000
_cell_volume 2056.670752
_symmetry_space_group_name_H-M "C 2/C"
_symmetry_group_IT_number 15
_symmetry_cell_setting 'monoclinic'
loop_
_space_group_symop_operation_xyz
x,y,z
-x,y,1/2-z
-x,-y,-z
x,-y,1/2+z
1/2+x,1/2+y,z
1/2-x,1/2+y,1/2-z
1/2-x,1/2-y,-z
1/2+x,1/2-y,1/2+z
loop_
_atom_site_type_symbol
_atom_site_label
_atom_site_fract_x
_atom_site_fract_y
_atom_site_fract_z
Si Si1 0.497793 0.675465 0.630676
Si Si2 0.633819 0.427345 0.103409
Si Si3 0.442422 0.851046 0.997143
Si Si4 0.211693 0.591793 0.530809
Si Si5 0.744489 0.231792 0.341355
O O1 0.590986 0.584593 0.638999
O O2 0.353314 0.577603 0.570221
O O3 0.434927 0.835696 0.575544
O O4 0.605481 0.696685 0.736760
O O5 0.660091 0.258355 0.094261
O O6 0.772993 0.545666 0.170202
O O7 0.500000 0.500000 0.000000
O O8 0.331664 0.916329 0.980188
O O9 0.594649 0.767613 0.099300
O O10 0.500000 0.000000 0.000000
O O11 0.253923 0.700942 0.601222
#
# Coordination Sequence:
#
# PCOD8134959 Si02
#       5
#     8   8   8   8   8
#     4  11  21  34  61  83 117 154 193 232 298 340
#     4  10  19  37  58  85 114 152 192 243 286 343
#     4   9  17  36  58  79 113 151 188 237 283 334
#     4  10  21  38  56  85 116 154 191 241 287 345
#     4  10  21  35  60  83 115 153 198 237 284 350
#
# _framework density 19.448907999999999
#
# number of rings (size 3 to 8) (size 9 to 14) (size 15 to 20)
#    0.000    2.000    6.000    0.600    2.800    0.000 
#    0.000    4.000    0.000    4.800    0.000    0.000 
#    0.000    0.000    0.000    0.000    0.000    0.000 
#
# Total GULP energy -247782.447452 kJ/mol
# GULP energy per Si atom -12389.122373 kJ/mol
# Density = 1.940464 g / cm^3
# Si number density = 19.448908 Si / 1000 Ang^3
#
#
#
# Elastic Constant Matrix: (Units=GPa)
#
#
# Indices 1 2 3 4 5 6 
#
# 1 65.9830 23.6417 4.2886 0.0000 -3.8639 0.0000
# 2 23.6417 93.2745 4.2596 0.0000 1.8305 0.0000
# 3 4.2886 4.2596 75.2256 0.0003 -9.7179 0.0000
# 4 0.0000 0.0000 0.0003 19.7248 0.0000 -2.4427
# 5 -3.8639 1.8305 -9.7179 0.0000 18.5533 0.0000
# 6 0.0000 0.0000 0.0000 -2.4427 0.0000 27.4523
#
#
#
# Elastic Compliance Matrix: (Units=1/GPa)
#
#
# Indices 1 2 3 4 5 6 
#
# 1 0.016959 -0.004364 -0.000223 0.000000 0.003846 0.000000
# 2 -0.004364 0.011910 -0.000745 0.000000 -0.002474 0.000000
# 3 -0.000223 -0.000745 0.014321 0.000000 0.007528 0.000000
# 4 0.000000 0.000000 0.000000 0.051262 0.000000 0.004561
# 5 0.003846 -0.002474 0.007528 0.000000 0.058887 0.000000
# 6 0.000000 0.000000 0.000000 0.004561 0.000000 0.036833
#
#
# Mechanical properties :
#
#
# Convention : Reuss Voigt Hill
#
# Bulk Modulus (GPa) = 30.74526 33.20700 31.97613
# Shear Modulus (GPa) = 23.62097 26.63230 25.12664
#
# Velocity S-wave (km/s) = 3.48877 3.70448 3.59824
# Velocity P-wave (km/s) = 5.66315 5.95051 5.80861
#
# Compressibility (1/GPa) = 0.03252534
#
# Stress axis : x y z
#
# Youngs Moduli (GPa) = 58.96706 83.96543 69.82876
#
# Poissons Ratio (x) = 0.36640 0.01557
# Poissons Ratio (y) = 0.25731 0.05204
# Poissons Ratio (z) = 0.01315 0.06257
#
# Static dielectric constant tensor:
#      x y z
#    x 3.563880 0.000000 -0.002970 
#    y 0.000000 3.971500 0.000000 
#    z -0.002970 0.000000 3.453730 
# 
# 
# High freq. dielectric constant tensor:
#      x y z
#    x 1.743560 0.000000 -0.007640 
#    y 0.000000 1.755970 0.000000 
#    z -0.007640 0.000000 1.740710 
# 
# From -- ./inp_files/165378.got.cif
#   From: 2010.06.25/outbox.cif.g09.slc.cpg/sg15_83_cif.got.tgz:165378.got - 2010.06.28 07:06:18.
