data_PCOD8134304
_publ_section_title
;
Structure prediction by ZEFSAII (Michael W. Deem and Ramdas Pophale) SiO2 
 PCOD8134304
Probable space group: C 2/C
;
_chemical_formula_sum "Si O2"
_cell_formula_units_Z 48
_cell_length_a 29.173816
_cell_length_b 16.125827
_cell_length_c 16.212179
_cell_angle_alpha 90.000000
_cell_angle_beta 164.623441
_cell_angle_gamma 90.000000
_cell_volume 2022.401406
_symmetry_space_group_name_H-M "C 2/C"
_symmetry_group_IT_number 15
_symmetry_cell_setting 'monoclinic'
loop_
_space_group_symop_operation_xyz
x,y,z
-x,y,1/2-z
-x,-y,-z
x,-y,1/2+z
1/2+x,1/2+y,z
1/2-x,1/2+y,1/2-z
1/2-x,1/2-y,-z
1/2+x,1/2-y,1/2+z
loop_
_atom_site_type_symbol
_atom_site_label
_atom_site_fract_x
_atom_site_fract_y
_atom_site_fract_z
Si Si1 0.953540 0.358049 0.871236
Si Si2 0.959209 0.721870 0.542857
Si Si3 0.265089 0.547974 0.866740
Si Si4 0.760990 0.233890 0.848500
Si Si5 0.089878 0.128841 0.660097
Si Si6 0.436365 0.513465 0.508747
O O1 0.771120 0.345145 0.513552
O O2 0.939735 0.356780 0.947491
O O3 0.059092 0.441906 0.028950
O O4 0.059611 0.274928 0.024522
O O5 0.790406 0.725791 0.309164
O O6 0.981900 0.801952 0.524666
O O7 0.132489 0.714392 0.898191
O O8 0.340425 0.640230 0.980581
O O9 0.368078 0.509585 0.122643
O O10 0.300001 0.489473 0.847596
O O11 0.130292 0.047111 0.677604
O O12 0.951689 0.105346 0.493594
#
# Coordination Sequence:
#
# PCOD8134304 Si02
#       6
#     8   8   8   8   8   8
#     4  10  22  32  58  87 117 144 192 251 280 347
#     4  11  18  37  56  85 116 152 193 228 297 353
#     4   9  18  39  56  79 100 165 196 231 280 343
#     4   9  19  35  59  81 109 160 195 221 282 355
#     4  11  20  33  53  89 111 147 187 246 294 331
#     4  10  19  35  60  72 110 153 203 227 282 364
#
# _framework density 23.734161
#
# number of rings (size 3 to 8) (size 9 to 14) (size 15 to 20)
#    1.000    1.000    3.333    2.000    0.000    3.333 
#    0.000    3.333    0.000    4.000    0.000    0.000 
#    0.000    0.000    0.000    0.000    0.000    0.000 
#
# Total GULP energy -297355.495672 kJ/mol
# GULP energy per Si atom -12389.812320 kJ/mol
# Density = 2.368014 g / cm^3
# Si number density = 23.734161 Si / 1000 Ang^3
#
#
#
# Elastic Constant Matrix: (Units=GPa)
#
#
# Indices 1 2 3 4 5 6 
#
# 1 174.7618 26.2189 44.4262 0.0000 -6.0077 0.0000
# 2 26.2189 18.1422 6.4677 0.0000 -9.7748 0.0000
# 3 44.4262 6.4677 56.4908 0.0000 -3.3280 0.0000
# 4 0.0000 0.0000 0.0000 -2.9127 0.0000 -12.0641
# 5 -6.0077 -9.7748 -3.3280 0.0000 30.7081 0.0000
# 6 0.0000 0.0000 0.0000 -12.0641 0.0000 43.0609
#
#
#
# Elastic Compliance Matrix: (Units=1/GPa)
#
#
# Indices 1 2 3 4 5 6 
#
# 1 0.008958 -0.012402 -0.005791 0.000000 -0.002823 0.000000
# 2 -0.012402 0.086090 0.001377 0.000000 0.025126 0.000000
# 3 -0.005791 0.001377 0.022199 0.000000 0.001711 0.000000
# 4 0.000000 0.000000 0.000000 -0.158917 0.000000 -0.044523
# 5 -0.002823 0.025126 0.001711 0.000000 0.040196 0.000000
# 6 0.000000 0.000000 0.000000 -0.044523 0.000000 0.010749
#
#
# Mechanical properties :
#
#
# Convention : Reuss Voigt Hill
#
# Bulk Modulus (GPa) = 11.95956 44.84673 28.40314
# Shear Modulus (GPa) = 70.64135 25.65671 48.14903
#
# Velocity S-wave (km/s) = 5.46152 3.29143 4.50897
# Velocity P-wave (km/s) = 6.69484 5.77764 6.25308
#
# Compressibility (1/GPa) = 0.08361515
#
# Stress axis : x y z
#
# Youngs Moduli (GPa) = 111.63416 11.61572 45.04617
#
# Poissons Ratio (x) = 0.14406 0.26087
# Poissons Ratio (y) = 1.38450 -0.06203
# Poissons Ratio (z) = 0.64648 -0.01600
#
# Static dielectric constant tensor:
#      x y z
#    x 4.556130 0.000000 -0.022440 
#    y 0.000000 4.035040 0.000000 
#    z -0.022440 0.000000 3.773020 
# 
# 
# High freq. dielectric constant tensor:
#      x y z
#    x 1.959210 0.000000 -0.000870 
#    y 0.000000 1.916100 0.000000 
#    z -0.000870 0.000000 1.916970 
# 
# From -- ./inp_files/178959.got.cif
#   From: 2010.06.25/outbox.cif.g09.slc.cpg/sg15_90_cif.got.tgz:178959.got - 2010.06.28 07:06:18.
