data_PCOD8134962
_publ_section_title
;
Structure prediction by ZEFSAII (Michael W. Deem and Ramdas Pophale) SiO2 
 PCOD8134962
Probable space group: C 2/C
;
_chemical_formula_sum "Si O2"
_cell_formula_units_Z 48
_cell_length_a 10.060136
_cell_length_b 12.215089
_cell_length_c 16.644129
_cell_angle_alpha 90.000000
_cell_angle_beta 121.632808
_cell_angle_gamma 90.000000
_cell_volume 1741.441358
_symmetry_space_group_name_H-M "C 2/C"
_symmetry_group_IT_number 15
_symmetry_cell_setting 'monoclinic'
loop_
_space_group_symop_operation_xyz
x,y,z
-x,y,1/2-z
-x,-y,-z
x,-y,1/2+z
1/2+x,1/2+y,z
1/2-x,1/2+y,1/2-z
1/2-x,1/2-y,-z
1/2+x,1/2-y,1/2+z
loop_
_atom_site_type_symbol
_atom_site_label
_atom_site_fract_x
_atom_site_fract_y
_atom_site_fract_z
Si Si1 0.647683 0.642794 0.187854
Si Si2 0.422275 0.055929 0.550630
Si Si3 0.297289 0.299835 0.618954
Si Si4 0.644840 0.409871 0.128621
Si Si5 0.801722 0.875102 0.014611
Si Si6 0.757869 0.361793 0.328773
O O1 0.730933 0.642134 0.302487
O O2 0.466987 0.670067 0.142298
O O3 0.682106 0.538121 0.143562
O O4 0.724963 0.731162 0.152760
O O5 0.325829 0.160857 0.486663
O O6 0.571596 0.095865 0.649940
O O7 0.500000 0.000000 0.500000
O O8 0.312417 0.966707 0.562894
O O9 0.273968 0.166023 0.623205
O O10 0.475997 0.386754 0.034763
O O11 0.632506 0.378195 0.218816
O O12 0.801580 0.917058 0.108079
O O13 0.750000 0.750000 0.000000
#
# Coordination Sequence:
#
# PCOD8134962 Si02
#       6
#     8   8   8   8   8   8
#     4  10  21  40  63  91 121 168 206 261 322 381
#     4  10  19  37  58  86 121 164 199 258 311 372
#     4  10  21  38  64  90 124 164 213 253 320 386
#     4  11  21  39  66  92 122 167 212 260 315 391
#     4  11  22  39  61  92 123 166 214 263 315 381
#     4  10  23  38  62  92 124 162 213 258 320 382
#
# _framework density 27.563375000000001
#
# number of rings (size 3 to 8) (size 9 to 14) (size 15 to 20)
#    0.000    1.667    1.667    4.500    2.333    2.000 
#    3.000    1.667   11.000    0.000    0.000    0.000 
#    0.000    0.000    0.000    0.000    0.000    0.000 
#
# Total GULP energy -297469.219000 kJ/mol
# GULP energy per Si atom -12394.550792 kJ/mol
# Density = 2.750064 g / cm^3
# Si number density = 27.563375 Si / 1000 Ang^3
#
#
#
# Elastic Constant Matrix: (Units=GPa)
#
#
# Indices 1 2 3 4 5 6 
#
# 1 86.1876 17.9375 14.5051 0.0000 -1.3253 0.0000
# 2 17.9375 179.3158 14.7986 0.0000 21.6737 0.0000
# 3 14.5051 14.7986 62.5785 0.0000 10.2783 0.0000
# 4 0.0000 0.0000 0.0000 36.8402 0.0000 10.0841
# 5 -1.3253 21.6737 10.2783 0.0000 40.9985 0.0000
# 6 0.0000 0.0000 0.0000 10.0841 0.0000 40.8405
#
#
#
# Elastic Compliance Matrix: (Units=1/GPa)
#
#
# Indices 1 2 3 4 5 6 
#
# 1 0.012365 -0.001213 -0.002868 0.000000 0.001760 0.000000
# 2 -0.001213 0.006129 -0.000657 0.000000 -0.003115 0.000000
# 3 -0.002868 -0.000657 0.017478 0.000000 -0.004127 0.000000
# 4 0.000000 0.000000 0.000000 0.029112 0.000000 -0.007188
# 5 0.001760 -0.003115 -0.004127 0.000000 0.027129 0.000000
# 6 0.000000 0.000000 0.000000 -0.007188 0.000000 0.026260
#
#
# Mechanical properties :
#
#
# Convention : Reuss Voigt Hill
#
# Bulk Modulus (GPa) = 37.74179 46.95160 42.34670
# Shear Modulus (GPa) = 36.55494 42.45856 39.50675
#
# Velocity S-wave (km/s) = 3.64567 3.92905 3.79001
# Velocity P-wave (km/s) = 5.60747 6.13631 5.87784
#
# Compressibility (1/GPa) = 0.02649583
#
# Stress axis : x y z
#
# Youngs Moduli (GPa) = 80.87468 163.16612 57.21500
#
# Poissons Ratio (x) = 0.19790 0.16411
# Poissons Ratio (y) = 0.09809 0.03757
# Poissons Ratio (z) = 0.23197 0.10714
#
# Static dielectric constant tensor:
#      x y z
#    x 5.189710 0.000000 0.035350 
#    y 0.000000 4.274070 0.000000 
#    z 0.035350 0.000000 5.308460 
# 
# 
# High freq. dielectric constant tensor:
#      x y z
#    x 2.107970 0.000000 -0.014000 
#    y 0.000000 2.129170 0.000000 
#    z -0.014000 0.000000 2.115130 
# 
# From -- ./inp_files/237757.got.cif
#   From: 2010.06.25/outbox.cif.g09.slc.cpg/sg15_119_cif.got.tgz:237757.got - 2010.06.28 07:06:18.
