data_PCOD8134494
_publ_section_title
;
Structure prediction by ZEFSAII (Michael W. Deem and Ramdas Pophale) SiO2 
 PCOD8134494
Probable space group: C 2/C
;
_chemical_formula_sum "Si O2"
_cell_formula_units_Z 48
_cell_length_a 9.989840
_cell_length_b 14.597071
_cell_length_c 17.858738
_cell_angle_alpha 90.000000
_cell_angle_beta 77.658704
_cell_angle_gamma 90.000000
_cell_volume 2544.025579
_symmetry_space_group_name_H-M "C 2/C"
_symmetry_group_IT_number 15
_symmetry_cell_setting 'monoclinic'
loop_
_space_group_symop_operation_xyz
x,y,z
-x,y,1/2-z
-x,-y,-z
x,-y,1/2+z
1/2+x,1/2+y,z
1/2-x,1/2+y,1/2-z
1/2-x,1/2-y,-z
1/2+x,1/2-y,1/2+z
loop_
_atom_site_type_symbol
_atom_site_label
_atom_site_fract_x
_atom_site_fract_y
_atom_site_fract_z
Si Si1 0.751378 0.684075 0.388577
Si Si2 0.069722 0.379834 0.056203
Si Si3 0.981798 0.792246 0.836589
Si Si4 0.263003 0.123837 0.550279
Si Si5 0.982863 0.453707 0.835448
Si Si6 0.754047 0.426929 0.600627
O O1 0.625592 0.667533 0.347935
O O2 0.781282 0.793030 0.390217
O O3 0.706403 0.643987 0.474476
O O4 0.886853 0.635587 0.341805
O O5 0.075015 0.289503 0.105587
O O6 0.928168 0.386142 0.026841
O O7 0.088673 0.468644 0.105890
O O8 0.192488 0.378836 0.981870
O O9 0.874260 0.874206 0.850860
O O10 0.000000 0.756051 0.750000
O O11 0.201662 0.030021 0.589919
O O12 0.129770 0.425963 0.850140
O O13 0.000000 0.493347 0.750000
#
# Coordination Sequence:
#
# PCOD8134494 Si02
#       6
#     8   8   8   8   8   8
#     4  10  19  36  56  79 109 143 180 219 280 322
#     4  10  19  38  59  81 106 146 192 225 263 325
#     4  11  24  37  52  81 120 147 171 226 291 324
#     4   9  18  35  60  80 105 141 183 229 265 319
#     4  11  20  35  60  84 109 143 189 231 266 318
#     4  11  20  38  58  83 108 144 190 227 261 328
#
# _framework density 18.867735
#
# number of rings (size 3 to 8) (size 9 to 14) (size 15 to 20)
#    0.000    1.667    3.333    3.000    0.000    0.667 
#    0.000    0.833    0.000    0.000    0.000    0.000 
#    0.000    0.000    0.000    0.000    0.000    0.000 
#
# Total GULP energy -297697.304327 kJ/mol
# GULP energy per Si atom -12404.054347 kJ/mol
# Density = 1.882479 g / cm^3
# Si number density = 18.867735 Si / 1000 Ang^3
#
#
#
# Elastic Constant Matrix: (Units=GPa)
#
#
# Indices 1 2 3 4 5 6 
#
# 1 54.9234 35.0008 32.9425 0.0000 22.7486 0.0000
# 2 35.0008 106.0234 22.6338 0.0000 5.2835 0.0000
# 3 32.9425 22.6338 108.8606 0.0000 16.7755 0.0000
# 4 0.0000 0.0000 0.0000 12.1576 0.0000 -0.6217
# 5 22.7486 5.2835 16.7755 0.0000 23.9907 0.0000
# 6 0.0000 0.0000 0.0000 -0.6217 0.0000 29.1947
#
#
#
# Elastic Compliance Matrix: (Units=1/GPa)
#
#
# Indices 1 2 3 4 5 6 
#
# 1 0.042855 -0.011297 -0.005313 0.000000 -0.034433 0.000000
# 2 -0.011297 0.012863 -0.000527 0.000000 0.008248 0.000000
# 3 -0.005313 -0.000527 0.011330 0.000000 -0.002768 0.000000
# 4 0.000000 0.000000 0.000000 0.082343 0.000000 0.001753
# 5 -0.034433 0.008248 -0.002768 0.000000 0.074452 0.000000
# 6 0.000000 0.000000 0.000000 0.001753 0.000000 0.034290
#
#
# Mechanical properties :
#
#
# Convention : Reuss Voigt Hill
#
# Bulk Modulus (GPa) = 30.51265 50.10682 40.30974
# Shear Modulus (GPa) = 16.48352 25.01728 20.75040
#
# Velocity S-wave (km/s) = 2.95894 3.64528 3.31989
# Velocity P-wave (km/s) = 5.28022 6.65823 6.00886
#
# Compressibility (1/GPa) = 0.03277329
#
# Stress axis : x y z
#
# Youngs Moduli (GPa) = 23.33428 77.74354 88.26077
#
# Poissons Ratio (x) = 0.87829 0.46897
# Poissons Ratio (y) = 0.26361 0.04649
# Poissons Ratio (z) = 0.12399 0.04095
#
# Static dielectric constant tensor:
#      x y z
#    x 3.216300 0.000000 0.190720 
#    y 0.000000 3.555890 0.000000 
#    z 0.190720 0.000000 3.426800 
# 
# 
# High freq. dielectric constant tensor:
#      x y z
#    x 1.711240 0.000000 0.015710 
#    y 0.000000 1.740000 0.000000 
#    z 0.015710 0.000000 1.736930 
# 
# From -- ./inp_files/189221.got.cif
#   From: 2010.06.25/outbox.cif.g09.slc.cpg/sg15_95_cif.got.tgz:189221.got - 2010.06.28 07:06:18.
