data_PCOD8134996
_publ_section_title
;
Structure prediction by ZEFSAII (Michael W. Deem and Ramdas Pophale) SiO2 
 PCOD8134996
Probable space group: C 2/C
;
_chemical_formula_sum "Si O2"
_cell_formula_units_Z 48
_cell_length_a 32.920627
_cell_length_b 14.234111
_cell_length_c 16.298167
_cell_angle_alpha 90.000000
_cell_angle_beta 17.433068
_cell_angle_gamma 90.000000
_cell_volume 2288.056082
_symmetry_space_group_name_H-M "C 2/C"
_symmetry_group_IT_number 15
_symmetry_cell_setting 'monoclinic'
loop_
_space_group_symop_operation_xyz
x,y,z
-x,y,1/2-z
-x,-y,-z
x,-y,1/2+z
1/2+x,1/2+y,z
1/2-x,1/2+y,1/2-z
1/2-x,1/2-y,-z
1/2+x,1/2-y,1/2+z
loop_
_atom_site_type_symbol
_atom_site_label
_atom_site_fract_x
_atom_site_fract_y
_atom_site_fract_z
Si Si1 0.482071 0.664524 0.090790
Si Si2 0.730263 0.336577 0.362248
Si Si3 0.977725 0.626788 0.602010
Si Si4 0.196742 0.860557 0.715701
Si Si5 0.999311 0.563626 0.122617
Si Si6 0.295837 0.434934 0.248352
O O1 0.359597 0.632882 0.386720
O O2 0.530392 0.769604 0.022236
O O3 0.436167 0.661463 0.083633
O O4 0.612609 0.598420 0.850950
O O5 0.762351 0.225014 0.302630
O O6 0.654348 0.374330 0.426615
O O7 0.874163 0.387373 0.080642
O O8 0.031860 0.548604 0.561542
O O9 0.027892 0.599527 0.415984
O O10 0.813975 0.624523 0.921949
O O11 0.177777 0.952698 0.809145
O O12 0.862634 0.586711 0.434906
#
# Coordination Sequence:
#
# PCOD8134996 Si02
#       6
#     8   8   8   8   8   8
#     4  11  20  40  62  87 113 158 199 236 282 357
#     4  11  21  41  62  82 118 162 195 233 291 354
#     4   9  18  35  65  87 105 155 202 234 270 348
#     4  10  20  41  63  82 116 161 196 230 292 357
#     4  10  19  37  59  88 118 146 195 239 289 335
#     4  11  25  35  58  93 122 146 190 251 298 332
#
# _framework density 20.978505999999999
#
# number of rings (size 3 to 8) (size 9 to 14) (size 15 to 20)
#    0.000    1.667    3.333    2.500    0.000    2.000 
#    0.000    8.333    0.000    0.000    0.000    0.000 
#    0.000    0.000    0.000    0.000    0.000    0.000 
#
# Total GULP energy -297478.240412 kJ/mol
# GULP energy per Si atom -12394.926684 kJ/mol
# Density = 2.093076 g / cm^3
# Si number density = 20.978506 Si / 1000 Ang^3
#
#
#
# Elastic Constant Matrix: (Units=GPa)
#
#
# Indices 1 2 3 4 5 6 
#
# 1 70.0113 41.6816 11.0413 0.0000 10.6421 0.0000
# 2 41.6816 151.5767 38.9246 0.0000 -1.6647 -0.0001
# 3 11.0413 38.9246 51.3213 -0.0001 -2.6611 0.0000
# 4 0.0000 0.0000 -0.0001 23.7418 0.0000 1.9555
# 5 10.6421 -1.6647 -2.6611 0.0000 25.3260 0.0000
# 6 0.0000 -0.0001 0.0000 1.9555 0.0000 27.1336
#
#
#
# Elastic Compliance Matrix: (Units=1/GPa)
#
#
# Indices 1 2 3 4 5 6 
#
# 1 0.018643 -0.005064 -0.000597 0.000000 -0.008230 0.000000
# 2 -0.005064 0.009569 -0.006058 0.000000 0.002120 0.000000
# 3 -0.000597 -0.006058 0.024333 0.000000 0.002409 0.000000
# 4 0.000000 0.000000 0.000000 0.042371 0.000000 -0.003054
# 5 -0.008230 0.002120 0.002409 0.000000 0.043336 0.000000
# 6 0.000000 0.000000 0.000000 -0.003054 0.000000 0.037075
#
#
# Mechanical properties :
#
#
# Convention : Reuss Voigt Hill
#
# Bulk Modulus (GPa) = 34.35541 50.68937 42.52239
# Shear Modulus (GPa) = 23.98459 27.32439 25.65449
#
# Velocity S-wave (km/s) = 3.38493 3.61292 3.50078
# Velocity P-wave (km/s) = 5.62930 6.45130 6.05427
#
# Compressibility (1/GPa) = 0.02910749
#
# Stress axis : x y z
#
# Youngs Moduli (GPa) = 53.63887 104.50689 41.09608
#
# Poissons Ratio (x) = 0.52919 0.02454
# Poissons Ratio (y) = 0.27161 0.24896
# Poissons Ratio (z) = 0.03203 0.63311
#
# Static dielectric constant tensor:
#      x y z
#    x 3.602870 0.000000 -0.030320 
#    y 0.000000 4.088090 0.000000 
#    z -0.030320 0.000000 3.597480 
# 
# 
# High freq. dielectric constant tensor:
#      x y z
#    x 1.802750 0.000000 -0.004320 
#    y 0.000000 1.832490 0.000000 
#    z -0.004320 0.000000 1.805570 
# 
# From -- ./inp_files/143564.got.cif
#   From: 2010.06.25/outbox.cif.g09.slc.cpg/sg15_72_cif.got.tgz:143564.got - 2010.06.28 07:06:18.
