data_PCOD8134904
_publ_section_title
;
Structure prediction by ZEFSAII (Michael W. Deem and Ramdas Pophale) SiO2 
 PCOD8134904
Probable space group: C 2/C
;
_chemical_formula_sum "Si O2"
_cell_formula_units_Z 40
_cell_length_a 13.673850
_cell_length_b 20.566091
_cell_length_c 14.088769
_cell_angle_alpha 90.000000
_cell_angle_beta 148.408344
_cell_angle_gamma 90.000000
_cell_volume 2075.546159
_symmetry_space_group_name_H-M "C 2/C"
_symmetry_group_IT_number 15
_symmetry_cell_setting 'monoclinic'
loop_
_space_group_symop_operation_xyz
x,y,z
-x,y,1/2-z
-x,-y,-z
x,-y,1/2+z
1/2+x,1/2+y,z
1/2-x,1/2+y,1/2-z
1/2-x,1/2-y,-z
1/2+x,1/2-y,1/2+z
loop_
_atom_site_type_symbol
_atom_site_label
_atom_site_fract_x
_atom_site_fract_y
_atom_site_fract_z
Si Si1 0.344749 0.917168 0.867120
Si Si2 0.420180 0.326669 0.953692
Si Si3 0.326379 0.182701 0.863130
Si Si4 0.067346 0.506989 0.401369
Si Si5 0.295745 0.632547 0.548946
O O1 0.155191 0.878727 0.684986
O O2 0.397258 0.966436 0.825547
O O3 0.513515 0.868100 0.030977
O O4 0.306415 0.958638 0.930849
O O5 0.387422 0.254936 0.884442
O O6 0.638760 0.338816 0.152833
O O7 0.294796 0.334359 0.944921
O O8 0.294600 0.182687 0.950592
O O9 0.182461 0.566451 0.453652
O O10 0.000000 0.469615 0.250000
O O11 0.500000 0.612760 0.750000
#
# Coordination Sequence:
#
# PCOD8134904 Si02
#       5
#     8   8   8   8   8
#     4  10  21  35  54  81 105 147 178 216 273 308
#     4  11  18  33  53  79 112 139 171 223 264 325
#     4  10  20  31  52  82 110 141 173 214 272 325
#     4  10  19  37  55  73 111 142 183 221 256 321
#     4   9  19  32  49  81 110 140 175 214 272 321
#
# _framework density 19.272036
#
# number of rings (size 3 to 8) (size 9 to 14) (size 15 to 20)
#    0.000    2.000    4.000    0.600    0.000    0.000 
#    3.600    4.000    0.000    1.200    0.000    0.000 
#    0.000    0.000    0.000    0.000    0.000    0.000 
#
# Total GULP energy -247961.656041 kJ/mol
# GULP energy per Si atom -12398.082802 kJ/mol
# Density = 1.922817 g / cm^3
# Si number density = 19.272036 Si / 1000 Ang^3
#
#
#
# Elastic Constant Matrix: (Units=GPa)
#
#
# Indices 1 2 3 4 5 6 
#
# 1 34.5130 19.4608 21.1030 0.0000 -15.3744 0.0000
# 2 19.4608 74.1047 43.0460 0.0000 -19.1116 0.0000
# 3 21.1030 43.0460 106.2693 0.0000 -14.4582 0.0000
# 4 0.0000 0.0000 0.0000 39.2300 0.0000 -7.3741
# 5 -15.3744 -19.1116 -14.4582 0.0000 28.1950 0.0000
# 6 0.0000 0.0000 0.0000 -7.3741 0.0000 1.8759
#
#
#
# Elastic Compliance Matrix: (Units=1/GPa)
#
#
# Indices 1 2 3 4 5 6 
#
# 1 0.041772 -0.003840 -0.004294 0.000000 0.017973 0.000001
# 2 -0.003840 0.020365 -0.006335 0.000000 0.008461 0.000000
# 3 -0.004294 -0.006335 0.012821 0.000000 -0.000062 0.000000
# 4 0.000000 0.000000 0.000000 0.097627 0.000000 0.383764
# 5 0.017973 0.008461 -0.000062 0.000000 0.050971 0.000001
# 6 0.000001 0.000000 0.000000 0.383764 0.000001 2.041604
#
#
# Mechanical properties :
#
#
# Convention : Reuss Voigt Hill
#
# Bulk Modulus (GPa) = 21.73065 42.45628 32.09346
# Shear Modulus (GPa) = 2.16503 22.61200 12.38852
#
# Velocity S-wave (km/s) = 1.06106 3.42907 2.53815
# Velocity P-wave (km/s) = 3.57790 6.14458 5.02778
#
# Compressibility (1/GPa) = 0.04601796
#
# Stress axis : x y z
#
# Youngs Moduli (GPa) = 23.93950 49.10319 77.99878
#
# Poissons Ratio (x) = 0.18857 0.33495
# Poissons Ratio (y) = 0.09193 0.49416
# Poissons Ratio (z) = 0.10280 0.31109
#
# Static dielectric constant tensor:
#      x y z
#    x 3.188800 0.000000 -0.092970 
#    y 0.000000 3.437800 0.000000 
#    z -0.092970 0.000000 3.590920 
# 
# 
# High freq. dielectric constant tensor:
#      x y z
#    x 1.699680 0.000000 -0.005760 
#    y 0.000000 1.745720 0.000000 
#    z -0.005760 0.000000 1.759540 
# 
# From -- ./inp_files/156054.got.cif
#   From: 2010.06.25/outbox.cif.g09.slc.cpg/sg15_79_cif.got.tgz:156054.got - 2010.06.28 07:06:18.
