data_PCOD8134224
_publ_section_title
;
Structure prediction by ZEFSAII (Michael W. Deem and Ramdas Pophale) SiO2 
 PCOD8134224
Probable space group: C 2/C
;
_chemical_formula_sum "Si O2"
_cell_formula_units_Z 48
_cell_length_a 10.078905
_cell_length_b 18.483346
_cell_length_c 29.944636
_cell_angle_alpha 90.000000
_cell_angle_beta 151.370105
_cell_angle_gamma 90.000000
_cell_volume 2672.910274
_symmetry_space_group_name_H-M "C 2/C"
_symmetry_group_IT_number 15
_symmetry_cell_setting 'monoclinic'
loop_
_space_group_symop_operation_xyz
x,y,z
-x,y,1/2-z
-x,-y,-z
x,-y,1/2+z
1/2+x,1/2+y,z
1/2-x,1/2+y,1/2-z
1/2-x,1/2-y,-z
1/2+x,1/2-y,1/2+z
loop_
_atom_site_type_symbol
_atom_site_label
_atom_site_fract_x
_atom_site_fract_y
_atom_site_fract_z
Si Si1 0.740385 0.447103 0.644611
Si Si2 0.112871 0.166571 0.508631
Si Si3 0.205928 0.039545 0.414355
Si Si4 0.504003 0.418301 0.302648
Si Si5 0.057104 0.400769 0.317962
Si Si6 0.034957 0.669763 0.974861
O O1 0.640335 0.385267 0.580871
O O2 0.483754 0.477274 0.598275
O O3 0.851886 0.515911 0.650392
O O4 0.000000 0.415521 0.750000
O O5 0.214306 0.146372 0.588354
O O6 0.001624 0.247992 0.479693
O O7 0.357909 0.162430 0.544467
O O8 0.252860 0.126662 0.428818
O O9 0.500000 0.000000 0.500000
O O10 0.041723 0.004543 0.324213
O O11 0.500000 0.406252 0.250000
O O12 0.743243 0.369254 0.394423
O O13 0.225033 0.387325 0.239845
O O14 0.000000 0.376846 0.250000
#
# Coordination Sequence:
#
# PCOD8134224 Si02
#       6
#     8   8   8   8   8   8
#     4  10  19  35  58  86 115 149 190 238 287 334
#     4  10  20  37  56  86 117 151 189 230 289 347
#     4   9  18  35  58  79 112 147 185 237 283 332
#     4  11  19  35  59  87 109 148 197 235 283 337
#     4  11  21  37  58  84 118 150 191 238 286 337
#     4   9  20  36  57  82 113 150 190 236 282 339
#
# _framework density 17.957954999999998
#
# number of rings (size 3 to 8) (size 9 to 14) (size 15 to 20)
#    0.000    2.000    5.000    0.500    0.000    0.667 
#    3.000    1.667    0.000    0.000    0.000    0.000 
#    0.000    0.000    0.000    0.000    0.000    0.000 
#
# Total GULP energy -297332.611246 kJ/mol
# GULP energy per Si atom -12388.858802 kJ/mol
# Density = 1.791708 g / cm^3
# Si number density = 17.957955 Si / 1000 Ang^3
#
#
#
# Elastic Constant Matrix: (Units=GPa)
#
#
# Indices 1 2 3 4 5 6 
#
# 1 80.6096 36.4765 46.4494 0.0015 -2.7203 -0.0003
# 2 36.4765 116.7324 53.2756 -0.0017 -14.9724 0.0000
# 3 46.4494 53.2756 99.7666 -0.0057 -14.2685 0.0024
# 4 0.0015 -0.0017 -0.0057 22.0335 -0.0001 0.0373
# 5 -2.7203 -14.9724 -14.2685 -0.0001 35.4669 -0.0001
# 6 -0.0003 0.0000 0.0024 0.0373 -0.0001 23.2955
#
#
#
# Elastic Compliance Matrix: (Units=1/GPa)
#
#
# Indices 1 2 3 4 5 6 
#
# 1 0.017634 -0.002551 -0.007224 -0.000003 -0.002631 0.000001
# 2 -0.002551 0.011908 -0.004754 0.000000 0.002919 0.000000
# 3 -0.007224 -0.004754 0.016509 0.000004 0.004081 -0.000002
# 4 -0.000003 0.000000 0.000004 0.045385 0.000002 -0.000073
# 5 -0.002631 0.002919 0.004081 0.000002 0.030867 0.000000
# 6 0.000001 0.000000 -0.000002 -0.000073 0.000000 0.042927
#
#
# Mechanical properties :
#
#
# Convention : Reuss Voigt Hill
#
# Bulk Modulus (GPa) = 58.84664 63.27904 61.06284
# Shear Modulus (GPa) = 25.00616 26.88633 25.94625
#
# Velocity S-wave (km/s) = 3.73565 3.87354 3.80522
# Velocity P-wave (km/s) = 7.17266 7.43771 7.30639
#
# Compressibility (1/GPa) = 0.01699332
#
# Stress axis : x y z
#
# Youngs Moduli (GPa) = 56.71014 83.98063 60.57339
#
# Poissons Ratio (x) = 0.21419 0.43759
# Poissons Ratio (y) = 0.14464 0.28795
# Poissons Ratio (z) = 0.40968 0.39922
#
# Static dielectric constant tensor:
#      x y z
#    x 3.147700 0.000000 0.039990 
#    y 0.000000 3.347130 -0.000010 
#    z 0.039990 -0.000010 3.567050 
# 
# 
# High freq. dielectric constant tensor:
#      x y z
#    x 1.679200 0.000000 0.012340 
#    y 0.000000 1.683920 0.000000 
#    z 0.012340 0.000000 1.702940 
# 
# From -- ./inp_files/191956.got.cif
#   From: 2010.06.25/outbox.cif.g09.slc.cpg/sg15_96_cif.got.tgz:191956.got - 2010.06.28 07:06:18.
