data_PCOD8134115
_publ_section_title
;
Structure prediction by ZEFSAII (Michael W. Deem and Ramdas Pophale) SiO2 
 PCOD8134115
Probable space group: C 2/C
;
_chemical_formula_sum "Si O2"
_cell_formula_units_Z 60
_cell_length_a 14.854298
_cell_length_b 8.385623
_cell_length_c 23.826005
_cell_angle_alpha 90.000000
_cell_angle_beta 85.725570
_cell_angle_gamma 90.000000
_cell_volume 2959.572746
_symmetry_space_group_name_H-M "C 2/C"
_symmetry_group_IT_number 15
_symmetry_cell_setting 'monoclinic'
loop_
_space_group_symop_operation_xyz
x,y,z
-x,y,1/2-z
-x,-y,-z
x,-y,1/2+z
1/2+x,1/2+y,z
1/2-x,1/2+y,1/2-z
1/2-x,1/2-y,-z
1/2+x,1/2-y,1/2+z
loop_
_atom_site_type_symbol
_atom_site_label
_atom_site_fract_x
_atom_site_fract_y
_atom_site_fract_z
Si Si1 0.260064 0.440223 0.367396
Si Si2 0.430478 0.887726 0.432633
Si Si3 0.043802 0.209879 0.846646
Si Si4 0.894344 0.402422 0.557651
Si Si5 0.644269 0.952671 0.772719
Si Si6 0.447972 0.606912 0.352858
Si Si7 0.500000 0.807580 0.250000
Si Si8 0.148347 0.376756 0.647632
O O1 0.192035 0.496622 0.418766
O O2 0.226125 0.485387 0.306869
O O3 0.354810 0.524430 0.372215
O O4 0.274698 0.249870 0.373512
O O5 0.380889 0.849424 0.493890
O O6 0.466944 0.726416 0.403058
O O7 0.517230 0.992668 0.439778
O O8 0.357450 0.978563 0.396547
O O9 0.091093 0.247324 0.904124
O O10 0.108983 0.278250 0.794574
O O11 0.947935 0.293255 0.843065
O O12 0.030393 0.019623 0.843727
O O13 0.675929 0.946965 0.706986
O O14 0.564330 0.081368 0.784824
O O15 0.440900 0.700557 0.294584
#
# Coordination Sequence:
#
# PCOD8134115 Si02
#       8
#     8   8   8   8   8   8   4   8
#     4  10  24  36  55  88 124 149 203 242 309 352
#     4  10  20  40  66  83 114 156 212 238 302 357
#     4   9  19  36  58  83 116 155 196 234 309 347
#     4   9  20  42  63  84 112 163 199 252 290 370
#     4  11  20  39  59  80 120 166 192 244 297 369
#     4  11  23  36  56  94 117 153 198 252 292 369
#     4  12  22  36  60  82 118 156 202 238 288 364
#     4  10  19  35  56  83 116 159 189 247 300 358
#
# _framework density 20.273195999999999
#
# number of rings (size 3 to 8) (size 9 to 14) (size 15 to 20)
#    0.000    1.867    2.667    1.600    5.600    1.600 
#    0.000    5.333    0.000    0.000    0.000    0.000 
#    0.000    0.000    0.000    0.000    0.000    0.000 
#
# Total GULP energy -371996.347775 kJ/mol
# GULP energy per Si atom -12399.878259 kJ/mol
# Density = 2.022705 g / cm^3
# Si number density = 20.273196 Si / 1000 Ang^3
#
#
#
# Elastic Constant Matrix: (Units=GPa)
#
#
# Indices 1 2 3 4 5 6 
#
# 1 42.6173 20.5703 20.2324 0.0000 -1.4252 0.0000
# 2 20.5703 110.6924 44.4755 0.0000 6.6660 0.0000
# 3 20.2324 44.4755 147.1043 0.0000 5.4749 0.0000
# 4 0.0000 0.0000 0.0000 19.8831 0.0000 -5.5873
# 5 -1.4252 6.6660 5.4749 0.0000 24.9470 0.0000
# 6 0.0000 0.0000 0.0000 -5.5873 0.0000 26.5705
#
#
#
# Elastic Compliance Matrix: (Units=1/GPa)
#
#
# Indices 1 2 3 4 5 6 
#
# 1 0.026783 -0.004145 -0.002549 0.000000 0.003197 0.000000
# 2 -0.004145 0.011033 -0.002669 0.000000 -0.002599 0.000000
# 3 -0.002549 -0.002669 0.008000 0.000000 -0.001188 0.000000
# 4 0.000000 0.000000 0.000000 0.053452 0.000000 0.011240
# 5 0.003197 -0.002599 -0.001188 0.000000 0.041223 0.000000
# 6 0.000000 0.000000 0.000000 0.011240 0.000000 0.039999
#
#
# Mechanical properties :
#
#
# Convention : Reuss Voigt Hill
#
# Bulk Modulus (GPa) = 36.91605 52.33004 44.62305
# Shear Modulus (GPa) = 24.00994 28.62250 26.31622
#
# Velocity S-wave (km/s) = 3.44513 3.76152 3.60680
# Velocity P-wave (km/s) = 5.83730 6.68834 6.27726
#
# Compressibility (1/GPa) = 0.02708849
#
# Stress axis : x y z
#
# Youngs Moduli (GPa) = 37.33750 90.63496 125.00519
#
# Poissons Ratio (x) = 0.37571 0.31868
# Poissons Ratio (y) = 0.15478 0.33363
# Poissons Ratio (z) = 0.09519 0.24190
#
# Static dielectric constant tensor:
#      x y z
#    x 3.505110 0.000000 0.078150 
#    y 0.000000 3.854140 0.000000 
#    z 0.078150 0.000000 3.813730 
# 
# 
# High freq. dielectric constant tensor:
#      x y z
#    x 1.775010 0.000000 0.004010 
#    y 0.000000 1.790010 0.000000 
#    z 0.004010 0.000000 1.791870 
# 
# From -- ./inp_files/272715.got.cif
#   From: 2010.06.25/outbox.cif.g09.slc.cpg/sg15_137_cif.got.tgz:272715.got - 2010.06.28 07:06:18.
