data_PCOD8134203
_publ_section_title
;
Structure prediction by ZEFSAII (Michael W. Deem and Ramdas Pophale) SiO2 
 PCOD8134203
Probable space group: C 2/C
;
_chemical_formula_sum "Si O2"
_cell_formula_units_Z 56
_cell_length_a 23.227416
_cell_length_b 8.710789
_cell_length_c 14.216738
_cell_angle_alpha 90.000000
_cell_angle_beta 106.267795
_cell_angle_gamma 90.000000
_cell_volume 2761.294961
_symmetry_space_group_name_H-M "C 2/C"
_symmetry_group_IT_number 15
_symmetry_cell_setting 'monoclinic'
loop_
_space_group_symop_operation_xyz
x,y,z
-x,y,1/2-z
-x,-y,-z
x,-y,1/2+z
1/2+x,1/2+y,z
1/2-x,1/2+y,1/2-z
1/2-x,1/2-y,-z
1/2+x,1/2-y,1/2+z
loop_
_atom_site_type_symbol
_atom_site_label
_atom_site_fract_x
_atom_site_fract_y
_atom_site_fract_z
Si Si1 0.471371 0.545866 0.338323
Si Si2 0.729658 0.281155 0.220178
Si Si3 0.172724 0.004196 0.546727
Si Si4 0.142821 0.776013 0.681833
Si Si5 0.056786 0.811689 0.019434
Si Si6 0.247227 0.396333 0.065052
Si Si7 0.360697 0.042705 0.393487
O O1 0.500000 0.513932 0.250000
O O2 0.405026 0.613201 0.290733
O O3 0.467544 0.384250 0.393269
O O4 0.505707 0.675518 0.416172
O O5 0.715438 0.413386 0.140541
O O6 0.796624 0.219707 0.227942
O O7 0.728050 0.355636 0.321714
O O8 0.679872 0.148707 0.192573
O O9 0.160011 0.834282 0.583708
O O10 0.205264 0.010759 0.461340
O O11 0.110304 0.087803 0.503025
O O12 0.117346 0.602867 0.657874
O O13 0.080550 0.636700 0.043897
O O14 0.182210 0.481401 0.041284
O O15 0.250000 0.250000 0.000000
#
# Coordination Sequence:
#
# PCOD8134203 Si02
#       7
#     8   8   8   8   8   8   8
#     4  10  22  41  61  80 108 157 204 249 293 348
#     4  10  21  36  58  87 126 154 189 239 293 357
#     4  10  20  37  58  85 119 159 186 236 292 355
#     4  10  19  35  58  82 117 153 187 239 299 332
#     4   9  22  40  58  83 115 150 202 245 296 337
#     4  11  21  34  58  89 124 156 191 222 299 367
#     4  10  21  37  59  90 123 155 186 246 292 353
#
# _framework density 20.280339999999999
#
# number of rings (size 3 to 8) (size 9 to 14) (size 15 to 20)
#    0.000    2.000    2.857    1.714    0.000    8.571 
#    0.000    0.714    0.000    0.000    0.000    0.000 
#    0.000    0.000    0.000    0.000    0.000    0.000 
#
# Total GULP energy -347024.715155 kJ/mol
# GULP energy per Si atom -12393.739827 kJ/mol
# Density = 2.023418 g / cm^3
# Si number density = 20.280340 Si / 1000 Ang^3
#
#
#
# Elastic Constant Matrix: (Units=GPa)
#
#
# Indices 1 2 3 4 5 6 
#
# 1 94.7742 10.1915 43.1926 0.0000 -17.3732 0.0000
# 2 10.1915 81.0489 15.5404 0.0000 -4.5580 0.0000
# 3 43.1926 15.5404 83.0398 0.0000 -11.9870 0.0000
# 4 0.0000 0.0000 0.0000 21.5448 0.0000 4.2696
# 5 -17.3732 -4.5580 -11.9870 0.0000 40.5874 0.0000
# 6 0.0000 0.0000 0.0000 4.2696 0.0000 33.3462
#
#
#
# Elastic Compliance Matrix: (Units=1/GPa)
#
#
# Indices 1 2 3 4 5 6 
#
# 1 0.014474 -0.000268 -0.006882 0.000000 0.004133 0.000000
# 2 -0.000268 0.012825 -0.002161 0.000000 0.000687 0.000000
# 3 -0.006882 -0.002161 0.016259 0.000000 0.001614 0.000000
# 4 0.000000 0.000000 0.000000 0.047623 0.000000 -0.006098
# 5 0.004133 0.000687 0.001614 0.000000 0.026961 0.000000
# 6 0.000000 0.000000 0.000000 -0.006098 0.000000 0.030769
#
#
# Mechanical properties :
#
#
# Convention : Reuss Voigt Hill
#
# Bulk Modulus (GPa) = 40.10307 44.07907 42.09107
# Shear Modulus (GPa) = 28.43381 31.75823 30.09602
#
# Velocity S-wave (km/s) = 3.74844 3.96152 3.85645
# Velocity P-wave (km/s) = 6.20900 6.53505 6.37411
#
# Compressibility (1/GPa) = 0.02493575
#
# Stress axis : x y z
#
# Youngs Moduli (GPa) = 69.08830 77.97251 61.50282
#
# Poissons Ratio (x) = 0.02090 0.42326
# Poissons Ratio (y) = 0.01852 0.13294
# Poissons Ratio (z) = 0.47546 0.16854
#
# Static dielectric constant tensor:
#      x y z
#    x 4.034540 0.000000 -0.195580 
#    y 0.000000 3.920890 0.000000 
#    z -0.195580 0.000000 3.746500 
# 
# 
# High freq. dielectric constant tensor:
#      x y z
#    x 1.789880 0.000000 0.005860 
#    y 0.000000 1.798180 0.000000 
#    z 0.005860 0.000000 1.771120 
# 
# From -- ./inp_files/171976.got.cif
#   From: 2010.06.25/outbox.cif.g09.slc.cpg/sg15_86_cif.got.tgz:171976.got - 2010.06.28 07:06:18.
