data_PCOD8134949
_publ_section_title
;
Structure prediction by ZEFSAII (Michael W. Deem and Ramdas Pophale) SiO2 
 PCOD8134949
Probable space group: C 2/C
;
_chemical_formula_sum "Si O2"
_cell_formula_units_Z 44
_cell_length_a 16.291470
_cell_length_b 9.580883
_cell_length_c 30.297594
_cell_angle_alpha 90.000000
_cell_angle_beta 28.711127
_cell_angle_gamma 90.000000
_cell_volume 2271.806692
_symmetry_space_group_name_H-M "C 2/C"
_symmetry_group_IT_number 15
_symmetry_cell_setting 'monoclinic'
loop_
_space_group_symop_operation_xyz
x,y,z
-x,y,1/2-z
-x,-y,-z
x,-y,1/2+z
1/2+x,1/2+y,z
1/2-x,1/2+y,1/2-z
1/2-x,1/2-y,-z
1/2+x,1/2-y,1/2+z
loop_
_atom_site_type_symbol
_atom_site_label
_atom_site_fract_x
_atom_site_fract_y
_atom_site_fract_z
Si Si1 0.428824 0.473897 0.430256
Si Si2 0.266433 0.749001 0.067187
Si Si3 0.423179 0.710918 0.085573
Si Si4 0.500000 0.539052 0.250000
Si Si5 0.773004 0.571547 0.053380
Si Si6 0.896161 0.834418 0.228999
O O1 0.333749 0.338676 0.494047
O O2 0.496716 0.564126 0.438670
O O3 0.305238 0.573490 0.459153
O O4 0.581932 0.415219 0.327580
O O5 0.339228 0.684995 0.077784
O O6 0.060953 0.738575 0.162053
O O7 0.324166 0.910541 0.037780
O O8 0.277327 0.745978 0.190517
O O9 0.563518 0.832255 0.019209
O O10 0.628755 0.624672 0.157080
O O11 0.375423 0.444687 0.278630
#
# Coordination Sequence:
#
# PCOD8134949 Si02
#       6
#     8   8   8   4   8   8
#     4  10  23  37  56  84 122 148 182 242 287 333
#     4  10  20  39  60  81 114 156 190 225 282 346
#     4  12  21  36  61  92 111 144 194 246 278 325
#     4   8  16  36  56  78 106 154 194 222 260 344
#     4  10  20  37  61  80 115 153 195 225 281 339
#     4  10  19  37  58  82 112 156 194 220 276 345
#
# _framework density 19.367844999999999
#
# number of rings (size 3 to 8) (size 9 to 14) (size 15 to 20)
#    0.000    2.182    3.636    3.818    0.000    2.909 
#    3.273    0.000    4.000    0.000    0.000    0.000 
#    0.000    0.000    0.000    0.000    0.000    0.000 
#
# Total GULP energy -272670.821117 kJ/mol
# GULP energy per Si atom -12394.128233 kJ/mol
# Density = 1.932376 g / cm^3
# Si number density = 19.367845 Si / 1000 Ang^3
#
#
#
# Elastic Constant Matrix: (Units=GPa)
#
#
# Indices 1 2 3 4 5 6 
#
# 1 81.0757 32.7722 39.9900 0.0001 3.8769 0.0006
# 2 32.7722 63.8749 50.6064 0.0002 -6.6599 0.0013
# 3 39.9900 50.6064 119.4334 0.0011 -4.7235 0.0015
# 4 0.0001 0.0002 0.0011 16.6171 0.0000 -1.9593
# 5 3.8769 -6.6599 -4.7235 0.0000 26.5737 0.0001
# 6 0.0006 0.0013 0.0015 -1.9593 0.0001 27.6697
#
#
#
# Elastic Compliance Matrix: (Units=1/GPa)
#
#
# Indices 1 2 3 4 5 6 
#
# 1 0.016728 -0.006750 -0.002925 0.000000 -0.004652 0.000000
# 2 -0.006750 0.026757 -0.008835 0.000000 0.006120 -0.000001
# 3 -0.002925 -0.008835 0.013117 -0.000001 0.000544 0.000000
# 4 0.000000 0.000000 -0.000001 0.060686 0.000000 0.004297
# 5 -0.004652 0.006120 0.000544 0.000000 0.039940 0.000000
# 6 0.000000 -0.000001 0.000000 0.004297 0.000000 0.036445
#
#
# Mechanical properties :
#
#
# Convention : Reuss Voigt Hill
#
# Bulk Modulus (GPa) = 51.06845 56.79125 53.92985
# Shear Modulus (GPa) = 21.07738 23.57313 22.32525
#
# Velocity S-wave (km/s) = 3.30247 3.49252 3.39882
# Velocity P-wave (km/s) = 6.40052 6.75646 6.58089
#
# Compressibility (1/GPa) = 0.01958156
#
# Stress axis : x y z
#
# Youngs Moduli (GPa) = 59.78064 37.37329 76.23502
#
# Poissons Ratio (x) = 0.25228 0.22296
# Poissons Ratio (y) = 0.40354 0.67355
# Poissons Ratio (z) = 0.17484 0.33020
#
# Static dielectric constant tensor:
#      x y z
#    x 3.557020 0.000000 0.138790 
#    y 0.000000 3.161650 0.000000 
#    z 0.138790 0.000000 3.661880 
# 
# 
# High freq. dielectric constant tensor:
#      x y z
#    x 1.759820 0.000000 0.013170 
#    y 0.000000 1.720990 0.000000 
#    z 0.013170 0.000000 1.760520 
# 
# From -- ./inp_files/209857.got.cif
#   From: 2010.06.25/outbox.cif.g09.slc.cpg/sg15_105_cif.got.tgz:209857.got - 2010.06.28 07:06:18.
