data_PCOD8134219
_publ_section_title
;
Structure prediction by ZEFSAII (Michael W. Deem and Ramdas Pophale) SiO2 
 PCOD8134219
Probable space group: C 2/C
;
_chemical_formula_sum "Si O2"
_cell_formula_units_Z 48
_cell_length_a 18.106101
_cell_length_b 9.116139
_cell_length_c 16.256176
_cell_angle_alpha 90.000000
_cell_angle_beta 66.360042
_cell_angle_gamma 90.000000
_cell_volume 2458.041651
_symmetry_space_group_name_H-M "C 2/C"
_symmetry_group_IT_number 15
_symmetry_cell_setting 'monoclinic'
loop_
_space_group_symop_operation_xyz
x,y,z
-x,y,1/2-z
-x,-y,-z
x,-y,1/2+z
1/2+x,1/2+y,z
1/2-x,1/2+y,1/2-z
1/2-x,1/2-y,-z
1/2+x,1/2-y,1/2+z
loop_
_atom_site_type_symbol
_atom_site_label
_atom_site_fract_x
_atom_site_fract_y
_atom_site_fract_z
Si Si1 0.423899 0.512648 0.974138
Si Si2 0.432143 0.772807 0.842394
Si Si3 0.166590 0.990711 0.828012
Si Si4 0.826835 0.313461 0.739733
Si Si5 0.518673 0.310629 0.834276
Si Si6 0.970838 0.496081 0.605649
O O1 0.419219 0.660495 0.922699
O O2 0.434155 0.372113 0.909921
O O3 0.500000 0.500000 0.000000
O O4 0.345545 0.508152 0.067319
O O5 0.500000 0.708506 0.750000
O O6 0.352413 0.803103 0.824382
O O7 0.459083 0.928704 0.868294
O O8 0.241785 0.891607 0.771433
O O9 0.088473 0.931646 0.814114
O O10 0.184560 0.153486 0.791486
O O11 0.890870 0.399254 0.654218
O O12 0.500000 0.273760 0.750000
O O13 0.548570 0.162588 0.863096
O O14 0.000000 0.500000 0.500000
#
# Coordination Sequence:
#
# PCOD8134219 Si02
#       6
#     8   8   8   8   8   8
#     4  10  19  35  58  85 113 147 191 231 277 336
#     4  10  20  37  59  84 115 152 193 235 282 340
#     4  11  23  38  58  83 116 154 190 235 287 339
#     4  11  23  40  58  82 117 154 192 235 289 341
#     4  11  20  35  60  87 114 147 189 236 284 336
#     4  11  21  37  61  87 114 147 190 236 282 341
#
# _framework density 19.527740000000001
#
# number of rings (size 3 to 8) (size 9 to 14) (size 15 to 20)
#    0.000    1.333    0.000   11.000    0.000    0.667 
#    0.000    1.667    0.000    8.000    0.000    0.000 
#    0.000    0.000    0.000    0.000    0.000    0.000 
#
# Total GULP energy -297569.367627 kJ/mol
# GULP energy per Si atom -12398.723651 kJ/mol
# Density = 1.948329 g / cm^3
# Si number density = 19.527740 Si / 1000 Ang^3
#
#
#
# Elastic Constant Matrix: (Units=GPa)
#
#
# Indices 1 2 3 4 5 6 
#
# 1 63.7470 32.4020 44.9923 0.0000 -12.0965 0.0000
# 2 32.4020 137.3819 51.4298 0.0000 -19.9083 -0.0001
# 3 44.9923 51.4298 140.4310 0.0000 -3.1445 0.0000
# 4 0.0000 0.0000 0.0000 22.3874 0.0000 19.3165
# 5 -12.0965 -19.9083 -3.1445 0.0000 20.1042 0.0000
# 6 0.0000 -0.0001 0.0000 19.3165 0.0000 15.1787
#
#
#
# Elastic Compliance Matrix: (Units=1/GPa)
#
#
# Indices 1 2 3 4 5 6 
#
# 1 0.023316 -0.001280 -0.006739 0.000000 0.011708 0.000000
# 2 -0.001280 0.009973 -0.003049 0.000001 0.008629 -0.000001
# 3 -0.006739 -0.003049 0.010274 0.000000 -0.005467 0.000000
# 4 0.000000 0.000001 0.000000 -0.455633 0.000001 0.579840
# 5 0.011708 0.008629 -0.005467 0.000001 0.064475 -0.000001
# 6 0.000000 -0.000001 0.000000 0.579840 -0.000001 -0.672024
#
#
# Mechanical properties :
#
#
# Convention : Reuss Voigt Hill
#
# Bulk Modulus (GPa) = 46.67081 66.57867 56.62474
# Shear Modulus (GPa) = -5.04876 25.71645 10.33385
#
# Velocity S-wave (km/s) = -1.60967 3.63287 2.30290
# Velocity P-wave (km/s) = 4.52735 7.19482 6.01092
#
# Compressibility (1/GPa) = 0.02142667
#
# Stress axis : x y z
#
# Youngs Moduli (GPa) = 42.88989 100.27460 97.32999
#
# Poissons Ratio (x) = 0.12831 0.65593
# Poissons Ratio (y) = 0.05488 0.29677
# Poissons Ratio (z) = 0.28904 0.30574
#
# Static dielectric constant tensor:
#      x y z
#    x 3.421070 0.000000 -0.051290 
#    y 0.000000 3.874300 0.000000 
#    z -0.051290 0.000000 4.127740 
# 
# 
# High freq. dielectric constant tensor:
#      x y z
#    x 1.731190 0.000000 0.007150 
#    y 0.000000 1.776490 0.000000 
#    z 0.007150 0.000000 1.777380 
# 
# From -- ./inp_files/166157.got.cif
#   From: 2010.06.25/outbox.cif.g09.slc.cpg/sg15_84_cif.got.tgz:166157.got - 2010.06.28 07:06:18.
