data_PCOD8134223
_publ_section_title
;
Structure prediction by ZEFSAII (Michael W. Deem and Ramdas Pophale) SiO2 
 PCOD8134223
Probable space group: C 2/C
;
_chemical_formula_sum "Si O2"
_cell_formula_units_Z 48
_cell_length_a 11.019215
_cell_length_b 10.232282
_cell_length_c 19.005576
_cell_angle_alpha 90.000000
_cell_angle_beta 85.286426
_cell_angle_gamma 90.000000
_cell_volume 2135.663854
_symmetry_space_group_name_H-M "C 2/C"
_symmetry_group_IT_number 15
_symmetry_cell_setting 'monoclinic'
loop_
_space_group_symop_operation_xyz
x,y,z
-x,y,1/2-z
-x,-y,-z
x,-y,1/2+z
1/2+x,1/2+y,z
1/2-x,1/2+y,1/2-z
1/2-x,1/2-y,-z
1/2+x,1/2-y,1/2+z
loop_
_atom_site_type_symbol
_atom_site_label
_atom_site_fract_x
_atom_site_fract_y
_atom_site_fract_z
Si Si1 0.335335 0.961943 0.801111
Si Si2 0.208311 0.090253 0.925801
Si Si3 0.395337 0.842331 0.526125
Si Si4 0.414366 0.976578 0.153438
Si Si5 0.591140 0.631063 0.498280
Si Si6 0.734744 0.267975 0.110381
O O1 0.454961 0.043701 0.817457
O O2 0.325149 0.957972 0.716757
O O3 0.337922 0.810932 0.825752
O O4 0.224819 0.038295 0.845452
O O5 0.192712 0.246165 0.925461
O O6 0.082450 0.023090 0.967983
O O7 0.326154 0.070291 0.970945
O O8 0.444365 0.942523 0.581436
O O9 0.496598 0.747901 0.485367
O O10 0.349747 0.841939 0.137355
O O11 0.635804 0.636073 0.577594
O O12 0.714382 0.660927 0.447010
#
# Coordination Sequence:
#
# PCOD8134223 Si02
#       6
#     8   8   8   8   8   8
#     4  10  23  39  57  83 115 153 194 234 290 348
#     4  10  22  37  55  86 117 153 187 242 292 340
#     4  11  21  35  59  86 116 149 193 240 290 344
#     4  11  22  37  59  85 112 153 193 237 286 352
#     4  10  19  35  58  86 113 143 192 240 288 341
#     4  10  20  35  60  84 112 147 190 241 288 340
#
# _framework density 22.475448
#
# number of rings (size 3 to 8) (size 9 to 14) (size 15 to 20)
#    0.000    1.667    3.333    1.500    2.333    1.333 
#    0.000    0.000    0.000    0.000    0.000    0.000 
#    0.000    0.000    0.000    0.000    0.000    0.000 
#
# Total GULP energy -297339.580516 kJ/mol
# GULP energy per Si atom -12389.149188 kJ/mol
# Density = 2.242429 g / cm^3
# Si number density = 22.475448 Si / 1000 Ang^3
#
#
#
# Elastic Constant Matrix: (Units=GPa)
#
#
# Indices 1 2 3 4 5 6 
#
# 1 60.5875 6.6475 2.4988 0.0000 -0.9655 0.0000
# 2 6.6475 64.6705 1.0746 0.0000 -0.4713 0.0000
# 3 2.4988 1.0746 60.3746 0.0000 -17.3866 0.0000
# 4 0.0000 0.0000 0.0000 25.3369 0.0000 -2.4863
# 5 -0.9655 -0.4713 -17.3866 0.0000 32.9276 0.0000
# 6 0.0000 0.0000 0.0000 -2.4863 0.0000 38.5137
#
#
#
# Elastic Compliance Matrix: (Units=1/GPa)
#
#
# Indices 1 2 3 4 5 6 
#
# 1 0.016720 -0.001707 -0.000622 0.000000 0.000137 0.000000
# 2 -0.001707 0.015642 -0.000186 0.000000 0.000076 0.000000
# 3 -0.000622 -0.000186 0.019561 0.000000 0.010308 0.000000
# 4 0.000000 0.000000 0.000000 0.039720 0.000000 0.002564
# 5 0.000137 0.000076 0.010308 0.000000 0.035818 0.000000
# 6 0.000000 0.000000 0.000000 0.002564 0.000000 0.026130
#
#
# Mechanical properties :
#
#
# Convention : Reuss Voigt Hill
#
# Bulk Modulus (GPa) = 21.32545 22.89715 22.11130
# Shear Modulus (GPa) = 28.69404 31.04975 29.87190
#
# Velocity S-wave (km/s) = 3.57695 3.72088 3.64962
# Velocity P-wave (km/s) = 5.15445 5.35441 5.25538
#
# Compressibility (1/GPa) = 0.04689232
#
# Stress axis : x y z
#
# Youngs Moduli (GPa) = 59.80782 63.92988 51.12285
#
# Poissons Ratio (x) = 0.10915 0.03180
# Poissons Ratio (y) = 0.10211 0.00951
# Poissons Ratio (z) = 0.03721 0.01189
#
# Static dielectric constant tensor:
#      x y z
#    x 4.094290 0.000000 -0.286880 
#    y 0.000000 4.174080 0.000000 
#    z -0.286880 0.000000 4.157270 
# 
# 
# High freq. dielectric constant tensor:
#      x y z
#    x 1.887190 0.000000 -0.021830 
#    y 0.000000 1.892220 0.000000 
#    z -0.021830 0.000000 1.871870 
# 
# From -- ./inp_files/196110.got.cif
#   From: 2010.06.25/outbox.cif.g09.slc.cpg/sg15_99_cif.got.tgz:196110.got - 2010.06.28 07:06:18.
