data_PCOD8134228
_publ_section_title
;
Structure prediction by ZEFSAII (Michael W. Deem and Ramdas Pophale) SiO2 
 PCOD8134228
Probable space group: C 2/C
;
_chemical_formula_sum "Si O2"
_cell_formula_units_Z 40
_cell_length_a 18.747740
_cell_length_b 15.692222
_cell_length_c 9.074797
_cell_angle_alpha 90.000000
_cell_angle_beta 37.739688
_cell_angle_gamma 90.000000
_cell_volume 1634.085963
_symmetry_space_group_name_H-M "C 2/C"
_symmetry_group_IT_number 15
_symmetry_cell_setting 'monoclinic'
loop_
_space_group_symop_operation_xyz
x,y,z
-x,y,1/2-z
-x,-y,-z
x,-y,1/2+z
1/2+x,1/2+y,z
1/2-x,1/2+y,1/2-z
1/2-x,1/2-y,-z
1/2+x,1/2-y,1/2+z
loop_
_atom_site_type_symbol
_atom_site_label
_atom_site_fract_x
_atom_site_fract_y
_atom_site_fract_z
Si Si1 0.500000 0.504488 0.750000
Si Si2 0.822106 0.151093 0.979136
Si Si3 0.855447 0.569210 0.034121
Si Si4 0.799036 0.918864 0.223655
Si Si5 0.000000 0.706880 0.250000
Si Si6 0.589533 0.916087 0.373838
O O1 0.400332 0.564735 0.844718
O O2 0.565380 0.440403 0.530300
O O3 0.785463 0.157212 0.866673
O O4 0.887198 0.234425 0.925343
O O5 0.712425 0.143058 0.268075
O O6 0.763096 0.504105 0.109361
O O7 0.932854 0.515142 0.029839
O O8 0.927626 0.603743 0.773990
O O9 0.723666 0.892506 0.201771
O O10 0.997133 0.647561 0.399254
#
# Coordination Sequence:
#
# PCOD8134228 Si02
#       6
#     4   8   8   8   4   8
#     4   9  16  28  60  92 111 136 198 251 284 336
#     4  10  19  35  58  87 123 146 188 245 308 338
#     4   9  17  37  63  85 104 156 202 244 271 351
#     4   9  17  33  58  87 108 149 195 247 276 342
#     4  11  26  36  52  92 133 156 180 245 302 354
#     4  10  21  38  60  87 118 156 203 240 288 342
#
# _framework density 24.478517
#
# number of rings (size 3 to 8) (size 9 to 14) (size 15 to 20)
#    1.200    1.200    2.000    0.600    0.000    5.600 
#    0.000    0.000    0.000    4.800    0.000    0.000 
#    0.000    0.000    0.000    0.000    0.000    0.000 
#
# Total GULP energy -247860.976223 kJ/mol
# GULP energy per Si atom -12393.048811 kJ/mol
# Density = 2.442280 g / cm^3
# Si number density = 24.478517 Si / 1000 Ang^3
#
#
#
# Elastic Constant Matrix: (Units=GPa)
#
#
# Indices 1 2 3 4 5 6 
#
# 1 111.8692 31.8843 64.9616 0.0000 29.7889 0.0000
# 2 31.8843 93.9618 66.4179 0.0000 6.2839 0.0000
# 3 64.9616 66.4179 202.8940 0.0000 20.5389 0.0000
# 4 0.0000 0.0000 0.0000 37.5371 0.0000 -5.6361
# 5 29.7889 6.2839 20.5389 0.0000 44.2327 0.0000
# 6 0.0000 0.0000 0.0000 -5.6361 0.0000 32.6279
#
#
#
# Elastic Compliance Matrix: (Units=1/GPa)
#
#
# Indices 1 2 3 4 5 6 
#
# 1 0.013046 -0.001962 -0.002805 0.000000 -0.007204 0.000000
# 2 -0.001962 0.014143 -0.004126 0.000000 0.001228 0.000000
# 3 -0.002805 -0.004126 0.007269 0.000000 -0.000900 0.000000
# 4 0.000000 0.000000 0.000000 0.027350 0.000000 0.004724
# 5 -0.007204 0.001228 -0.000900 0.000000 0.027703 0.000000
# 6 0.000000 0.000000 0.000000 0.004724 0.000000 0.031465
#
#
# Mechanical properties :
#
#
# Convention : Reuss Voigt Hill
#
# Bulk Modulus (GPa) = 59.98583 81.69471 70.84027
# Shear Modulus (GPa) = 34.64598 39.24364 36.94481
#
# Velocity S-wave (km/s) = 3.76621 4.00833 3.88915
# Velocity P-wave (km/s) = 6.59327 7.40734 7.01213
#
# Compressibility (1/GPa) = 0.01667060
#
# Stress axis : x y z
#
# Youngs Moduli (GPa) = 76.65397 70.70839 137.57971
#
# Poissons Ratio (x) = 0.13873 0.38595
# Poissons Ratio (y) = 0.15040 0.56762
# Poissons Ratio (z) = 0.21504 0.29172
#
# Static dielectric constant tensor:
#      x y z
#    x 4.432230 0.000000 -0.194700 
#    y 0.000000 3.930280 0.000000 
#    z -0.194700 0.000000 4.321160 
# 
# 
# High freq. dielectric constant tensor:
#      x y z
#    x 2.003650 0.000000 -0.015250 
#    y 0.000000 1.927910 0.000000 
#    z -0.015250 0.000000 1.975950 
# 
# From -- ./inp_files/61389.got.cif
#   From: 2010.06.25/outbox.cif.g09.slc.cpg/sg15_31_cif.got.tgz:61389.got - 2010.06.28 07:06:18.
