data_PCOD8134625
_publ_section_title
;
Structure prediction by ZEFSAII (Michael W. Deem and Ramdas Pophale) SiO2 
 PCOD8134625
Probable space group: C 2/C
;
_chemical_formula_sum "Si O2"
_cell_formula_units_Z 64
_cell_length_a 17.401525
_cell_length_b 11.751153
_cell_length_c 20.405108
_cell_angle_alpha 90.000000
_cell_angle_beta 127.128312
_cell_angle_gamma 90.000000
_cell_volume 3326.754077
_symmetry_space_group_name_H-M "C 2/C"
_symmetry_group_IT_number 15
_symmetry_cell_setting 'monoclinic'
loop_
_space_group_symop_operation_xyz
x,y,z
-x,y,1/2-z
-x,-y,-z
x,-y,1/2+z
1/2+x,1/2+y,z
1/2-x,1/2+y,1/2-z
1/2-x,1/2-y,-z
1/2+x,1/2-y,1/2+z
loop_
_atom_site_type_symbol
_atom_site_label
_atom_site_fract_x
_atom_site_fract_y
_atom_site_fract_z
Si Si1 0.936992 0.940641 0.357831
Si Si2 0.956319 0.723512 0.876919
Si Si3 0.803124 0.025909 0.663147
Si Si4 0.280138 0.767101 0.443134
Si Si5 0.497704 0.208430 0.044906
Si Si6 0.199547 0.103579 0.158520
Si Si7 0.633413 0.018275 0.166037
Si Si8 0.558028 0.397065 0.845475
O O1 0.872622 0.949126 0.259743
O O2 0.967426 0.816700 0.395826
O O3 0.872557 0.995385 0.383190
O O4 0.032342 0.014052 0.390545
O O5 0.859448 0.801717 0.829301
O O6 0.917213 0.599022 0.836946
O O7 0.032471 0.771062 0.861063
O O8 0.014473 0.724216 0.975662
O O9 0.798255 0.147145 0.625858
O O10 0.697642 0.994629 0.634367
O O11 0.834472 0.926819 0.626510
O O12 0.250000 0.750000 0.500000
O O13 0.386143 0.819318 0.496571
O O14 0.278345 0.648366 0.402555
O O15 0.549178 0.101490 0.102329
O O16 0.301724 0.071472 0.242990
O O17 0.500000 0.420865 0.750000
#
# Coordination Sequence:
#
# PCOD8134625 Si02
#       8
#     8   8   8   8   8   8   8   8
#     4   9  19  35  60  86 114 154 204 247 286 365
#     4  10  21  38  60  88 122 154 198 254 297 359
#     4  10  19  36  59  83 114 157 202 238 293 362
#     4  11  22  36  56  84 122 152 193 254 305 352
#     4  11  22  35  60  90 118 157 197 247 311 358
#     4   9  20  37  60  86 113 158 209 242 290 358
#     4  11  21  38  65  82 121 155 205 243 299 368
#     4   9  19  37  59  85 113 156 199 247 295 345
#
# _framework density 19.237971000000002
#
# number of rings (size 3 to 8) (size 9 to 14) (size 15 to 20)
#    0.000    2.000    2.500    2.625    1.750    5.500 
#    0.000    3.750    0.000    0.000    0.000    0.000 
#    0.000    0.000    0.000    0.000    0.000    0.000 
#
# Total GULP energy -396457.759429 kJ/mol
# GULP energy per Si atom -12389.304982 kJ/mol
# Density = 1.919418 g / cm^3
# Si number density = 19.237971 Si / 1000 Ang^3
#
#
#
# Elastic Constant Matrix: (Units=GPa)
#
#
# Indices 1 2 3 4 5 6 
#
# 1 94.7049 44.9907 26.8229 0.0000 -18.8545 0.0000
# 2 44.9907 119.8608 42.7423 0.0000 2.1901 0.0000
# 3 26.8229 42.7423 54.2580 0.0000 -3.5291 0.0000
# 4 0.0000 0.0000 0.0000 27.4761 0.0000 -3.6812
# 5 -18.8545 2.1901 -3.5291 0.0000 28.3202 0.0000
# 6 0.0000 0.0000 0.0000 -3.6812 0.0000 31.9236
#
#
#
# Elastic Compliance Matrix: (Units=1/GPa)
#
#
# Indices 1 2 3 4 5 6 
#
# 1 0.015988 -0.005039 -0.003243 0.000000 0.010629 0.000000
# 2 -0.005039 0.013310 -0.008347 0.000000 -0.005424 0.000000
# 3 -0.003243 -0.008347 0.026727 0.000000 0.001817 0.000000
# 4 0.000000 0.000000 0.000000 0.036966 0.000000 0.004263
# 5 0.010629 -0.005424 0.001817 0.000000 0.043033 0.000000
# 6 0.000000 0.000000 0.000000 0.004263 0.000000 0.031816
#
#
# Mechanical properties :
#
#
# Convention : Reuss Voigt Hill
#
# Bulk Modulus (GPa) = 43.92220 55.32619 49.62420
# Shear Modulus (GPa) = 23.95937 27.82850 25.89394
#
# Velocity S-wave (km/s) = 3.53288 3.80747 3.67274
# Velocity P-wave (km/s) = 6.28667 6.93905 6.62090
#
# Compressibility (1/GPa) = 0.02276753
#
# Stress axis : x y z
#
# Youngs Moduli (GPa) = 62.54876 75.13147 37.41530
#
# Poissons Ratio (x) = 0.37858 0.12133
# Poissons Ratio (y) = 0.31518 0.31230
# Poissons Ratio (z) = 0.20283 0.62711
#
# Static dielectric constant tensor:
#      x y z
#    x 3.833540 0.000000 -0.052960 
#    y 0.000000 3.324750 0.000000 
#    z -0.052960 0.000000 3.509980 
# 
# 
# High freq. dielectric constant tensor:
#      x y z
#    x 1.739020 0.000000 -0.000990 
#    y 0.000000 1.745250 0.000000 
#    z -0.000990 0.000000 1.742770 
# 
# From -- ./inp_files/248643.got.cif
#   From: 2010.06.25/outbox.cif.g09.slc.cpg/sg15_125_cif.got.tgz:248643.got - 2010.06.28 07:06:18.
