data_PCOD8134446
_publ_section_title
;
Structure prediction by ZEFSAII (Michael W. Deem and Ramdas Pophale) SiO2 
 PCOD8134446
Probable space group: C 2/C
;
_chemical_formula_sum "Si O2"
_cell_formula_units_Z 64
_cell_length_a 14.563305
_cell_length_b 12.034627
_cell_length_c 18.533684
_cell_angle_alpha 90.000000
_cell_angle_beta 78.994896
_cell_angle_gamma 90.000000
_cell_volume 3188.551148
_symmetry_space_group_name_H-M "C 2/C"
_symmetry_group_IT_number 15
_symmetry_cell_setting 'monoclinic'
loop_
_space_group_symop_operation_xyz
x,y,z
-x,y,1/2-z
-x,-y,-z
x,-y,1/2+z
1/2+x,1/2+y,z
1/2-x,1/2+y,1/2-z
1/2-x,1/2-y,-z
1/2+x,1/2-y,1/2+z
loop_
_atom_site_type_symbol
_atom_site_label
_atom_site_fract_x
_atom_site_fract_y
_atom_site_fract_z
Si Si1 0.517701 0.521653 0.080094
Si Si2 0.640698 0.618628 0.840653
Si Si3 0.419855 0.848745 0.707997
Si Si4 0.709942 0.609794 0.083779
Si Si5 0.195783 0.363902 0.074650
Si Si6 0.494132 0.945339 0.336088
Si Si7 0.939770 0.209486 0.186046
Si Si8 0.731138 0.572834 0.243643
O O1 0.464465 0.424511 0.130853
O O2 0.627986 0.521349 0.078800
O O3 0.476005 0.638357 0.113401
O O4 0.500000 0.500000 0.000000
O O5 0.630439 0.746988 0.824077
O O6 0.706490 0.607002 0.900851
O O7 0.687717 0.546626 0.769884
O O8 0.500000 0.804102 0.750000
O O9 0.461447 0.937887 0.642435
O O10 0.333645 0.909483 0.763785
O O11 0.668497 0.735043 0.089357
O O12 0.749807 0.576933 0.155142
O O13 0.791453 0.603670 0.011257
O O14 0.110698 0.434428 0.119298
O O15 0.500000 0.968368 0.250000
O O16 0.557161 0.836695 0.342175
O O17 0.000000 0.192031 0.250000
O O18 0.834548 0.174392 0.220951
#
# Coordination Sequence:
#
# PCOD8134446 Si02
#       8
#     8   8   8   8   8   8   8   8
#     4  11  21  37  58  94 130 159 206 262 325 362
#     4  11  24  37  64  94 127 170 207 267 319 391
#     4  11  25  40  59  93 132 166 201 265 328 377
#     4  11  21  38  66  97 125 171 218 272 306 384
#     4  11  21  40  68  93 126 164 230 264 312 371
#     4  10  20  38  65  89 123 162 211 271 301 372
#     4  10  19  35  66  96 119 160 219 266 301 367
#     4  11  23  39  65  93 130 165 219 261 321 380
#
# _framework density 20.071812000000001
#
# number of rings (size 3 to 8) (size 9 to 14) (size 15 to 20)
#    0.000    1.250    5.000    2.250    3.500    0.000 
#    0.000    0.625    0.000    0.750    0.000    0.000 
#    0.000    0.000    0.000    0.000    0.000    0.000 
#
# Total GULP energy -396620.102820 kJ/mol
# GULP energy per Si atom -12394.378213 kJ/mol
# Density = 2.002613 g / cm^3
# Si number density = 20.071812 Si / 1000 Ang^3
#
#
#
# Elastic Constant Matrix: (Units=GPa)
#
#
# Indices 1 2 3 4 5 6 
#
# 1 105.2506 33.4415 27.3451 0.0000 -19.8515 0.0000
# 2 33.4415 119.3759 37.0743 0.0000 -10.9786 0.0000
# 3 27.3451 37.0743 113.4405 0.0000 -6.8248 0.0000
# 4 0.0000 0.0000 0.0000 18.6457 0.0000 -4.0841
# 5 -19.8515 -10.9786 -6.8248 0.0000 29.5398 0.0000
# 6 0.0000 0.0000 0.0000 -4.0841 0.0000 32.4313
#
#
#
# Elastic Compliance Matrix: (Units=1/GPa)
#
#
# Indices 1 2 3 4 5 6 
#
# 1 0.011931 -0.002171 -0.001757 0.000000 0.006805 0.000000
# 2 -0.002171 0.009952 -0.002631 0.000000 0.001632 0.000000
# 3 -0.001757 -0.002631 0.010109 0.000000 0.000177 0.000000
# 4 0.000000 0.000000 0.000000 0.055153 0.000000 0.006946
# 5 0.006805 0.001632 0.000177 0.000000 0.039073 0.000000
# 6 0.000000 0.000000 0.000000 0.006946 0.000000 0.031709
#
#
# Mechanical properties :
#
#
# Convention : Reuss Voigt Hill
#
# Bulk Modulus (GPa) = 52.98157 59.30988 56.14572
# Shear Modulus (GPa) = 28.19488 32.13711 30.16599
#
# Velocity S-wave (km/s) = 3.75200 4.00572 3.88094
# Velocity P-wave (km/s) = 6.72483 7.14195 6.93652
#
# Compressibility (1/GPa) = 0.01887449
#
# Stress axis : x y z
#
# Youngs Moduli (GPa) = 83.81607 100.47990 98.91892
#
# Poissons Ratio (x) = 0.21811 0.17381
# Poissons Ratio (y) = 0.18194 0.26027
# Poissons Ratio (z) = 0.14728 0.26437
#
# Static dielectric constant tensor:
#      x y z
#    x 3.809250 0.000000 -0.290540 
#    y 0.000000 3.836890 0.000000 
#    z -0.290540 0.000000 3.626520 
# 
# 
# High freq. dielectric constant tensor:
#      x y z
#    x 1.786110 0.000000 -0.021790 
#    y 0.000000 1.782270 0.000000 
#    z -0.021790 0.000000 1.768610 
# 
# From -- ./inp_files/243692.got.cif
#   From: 2010.06.25/outbox.cif.g09.slc.cpg/sg15_122_cif.got.tgz:243692.got - 2010.06.28 07:06:18.
