data_PCOD8134374
_publ_section_title
;
Structure prediction by ZEFSAII (Michael W. Deem and Ramdas Pophale) SiO2 
 PCOD8134374
Probable space group: C 2/C
;
_chemical_formula_sum "Si O2"
_cell_formula_units_Z 64
_cell_length_a 16.810478
_cell_length_b 19.621152
_cell_length_c 17.537001
_cell_angle_alpha 90.000000
_cell_angle_beta 143.865917
_cell_angle_gamma 90.000000
_cell_volume 3410.939391
_symmetry_space_group_name_H-M "C 2/C"
_symmetry_group_IT_number 15
_symmetry_cell_setting 'monoclinic'
loop_
_space_group_symop_operation_xyz
x,y,z
-x,y,1/2-z
-x,-y,-z
x,-y,1/2+z
1/2+x,1/2+y,z
1/2-x,1/2+y,1/2-z
1/2-x,1/2-y,-z
1/2+x,1/2-y,1/2+z
loop_
_atom_site_type_symbol
_atom_site_label
_atom_site_fract_x
_atom_site_fract_y
_atom_site_fract_z
Si Si1 0.909494 0.729715 0.480420
Si Si2 0.593031 0.677868 0.668369
Si Si3 0.406974 0.762338 0.608927
Si Si4 0.091525 0.864026 0.932427
Si Si5 0.158364 0.509053 0.616003
Si Si6 0.298836 0.615975 0.147222
Si Si7 0.369285 0.839169 0.435014
Si Si8 0.627263 0.451845 0.105901
O O1 0.911664 0.777300 0.409857
O O2 0.914865 0.782225 0.556057
O O3 0.776891 0.683693 0.383079
O O4 0.037433 0.678424 0.567218
O O5 0.466044 0.690366 0.625133
O O6 0.728710 0.701098 0.816994
O O7 0.588441 0.598983 0.643863
O O8 0.500000 0.788614 0.750000
O O9 0.250000 0.750000 0.500000
O O10 0.436517 0.818179 0.566587
O O11 0.184062 0.878091 0.930564
O O12 0.940240 0.889040 0.800167
O O13 0.155561 0.909450 0.050213
O O14 0.216352 0.451901 0.604074
O O15 0.172623 0.582667 0.589755
O O16 0.238149 0.507923 0.760090
O O17 0.000000 0.500000 0.500000
O O18 0.500000 0.500000 0.000000
#
# Coordination Sequence:
#
# PCOD8134374 Si02
#       8
#     8   8   8   8   8   8   8   8
#     4  10  19  35  62  86 122 155 204 250 304 363
#     4   9  20  35  59  86 114 153 202 245 299 362
#     4  11  21  39  58  87 122 152 201 259 308 357
#     4  10  22  38  60  97 120 158 208 255 311 359
#     4  11  22  41  63  87 123 164 207 248 304 366
#     4  11  21  38  62  90 128 159 200 259 309 366
#     4  10  20  37  59  86 118 162 202 245 308 369
#     4  10  20  41  62  87 116 160 206 246 290 371
#
# _framework density 18.763159999999999
#
# number of rings (size 3 to 8) (size 9 to 14) (size 15 to 20)
#    0.000    1.750    3.750    1.125    0.000    0.000 
#    4.500    0.625    0.000    0.000    0.000    0.000 
#    0.000    0.000    0.000    0.000    0.000    0.000 
#
# Total GULP energy -396511.151417 kJ/mol
# GULP energy per Si atom -12390.973482 kJ/mol
# Density = 1.872045 g / cm^3
# Si number density = 18.763160 Si / 1000 Ang^3
#
#
#
# Elastic Constant Matrix: (Units=GPa)
#
#
# Indices 1 2 3 4 5 6 
#
# 1 97.0977 29.7604 44.4580 0.0003 11.4377 0.0001
# 2 29.7604 78.4016 23.1410 -0.0012 2.9414 -0.0006
# 3 44.4580 23.1410 118.9919 0.0006 8.4372 0.0005
# 4 0.0003 -0.0012 0.0006 29.9458 0.0006 3.0749
# 5 11.4377 2.9414 8.4372 0.0006 35.3397 0.0004
# 6 0.0001 -0.0006 0.0005 3.0749 0.0004 27.0372
#
#
#
# Elastic Compliance Matrix: (Units=1/GPa)
#
#
# Indices 1 2 3 4 5 6 
#
# 1 0.013764 -0.003877 -0.004166 0.000000 -0.003137 0.000000
# 2 -0.003877 0.014633 -0.001424 0.000001 0.000377 0.000000
# 3 -0.004166 -0.001424 0.010308 0.000000 -0.000994 0.000000
# 4 0.000000 0.000001 0.000000 0.033788 0.000000 -0.003843
# 5 -0.003137 0.000377 -0.000994 0.000000 0.029518 0.000000
# 6 0.000000 0.000000 0.000000 -0.003843 0.000000 0.037423
#
#
# Mechanical properties :
#
#
# Convention : Reuss Voigt Hill
#
# Bulk Modulus (GPa) = 50.58070 54.35668 52.46869
# Shear Modulus (GPa) = 30.31046 31.60666 30.95856
#
# Velocity S-wave (km/s) = 4.02359 4.10873 4.06638
# Velocity P-wave (km/s) = 6.97149 7.17925 7.07613
#
# Compressibility (1/GPa) = 0.01977039
#
# Stress axis : x y z
#
# Youngs Moduli (GPa) = 72.65070 68.33972 97.01313
#
# Poissons Ratio (x) = 0.26498 0.40417
# Poissons Ratio (y) = 0.28170 0.13812
# Poissons Ratio (z) = 0.30268 0.09730
#
# Static dielectric constant tensor:
#      x y z
#    x 3.515490 0.000000 -0.057830 
#    y 0.000000 3.767760 -0.000030 
#    z -0.057830 -0.000030 3.155140 
# 
# 
# High freq. dielectric constant tensor:
#      x y z
#    x 1.720850 0.000000 0.004370 
#    y 0.000000 1.728270 0.000000 
#    z 0.004370 0.000000 1.739230 
# 
# From -- ./inp_files/211975.got.cif
#   From: 2010.06.25/outbox.cif.g09.slc.cpg/sg15_106_cif.got.tgz:211975.got - 2010.06.28 07:06:18.
