data_PCOD8134364
_publ_section_title
;
Structure prediction by ZEFSAII (Michael W. Deem and Ramdas Pophale) SiO2 
 PCOD8134364
Probable space group: C 2/C
;
_chemical_formula_sum "Si O2"
_cell_formula_units_Z 60
_cell_length_a 27.330222
_cell_length_b 6.309953
_cell_length_c 18.860677
_cell_angle_alpha 90.000000
_cell_angle_beta 67.567488
_cell_angle_gamma 90.000000
_cell_volume 3006.446262
_symmetry_space_group_name_H-M "C 2/C"
_symmetry_group_IT_number 15
_symmetry_cell_setting 'monoclinic'
loop_
_space_group_symop_operation_xyz
x,y,z
-x,y,1/2-z
-x,-y,-z
x,-y,1/2+z
1/2+x,1/2+y,z
1/2-x,1/2+y,1/2-z
1/2-x,1/2-y,-z
1/2+x,1/2-y,1/2+z
loop_
_atom_site_type_symbol
_atom_site_label
_atom_site_fract_x
_atom_site_fract_y
_atom_site_fract_z
Si Si1 0.368945 0.358740 0.131717
Si Si2 0.554924 0.998871 0.381319
Si Si3 0.000000 0.060674 0.750000
Si Si4 0.584285 0.794440 0.219748
Si Si5 0.380791 0.255943 0.541095
Si Si6 0.682773 0.342376 0.730535
Si Si7 0.450222 0.108128 0.382261
Si Si8 0.207568 0.521653 0.837454
O O1 0.422884 0.231754 0.113656
O O2 0.375500 0.491263 0.054827
O O3 0.358733 0.524766 0.199903
O O4 0.318640 0.206941 0.155591
O O5 0.490949 0.004897 0.416900
O O6 0.574387 0.945063 0.291830
O O7 0.576823 0.830268 0.425109
O O8 0.951014 0.915674 0.753497
O O9 0.981648 0.207346 0.824830
O O10 0.647105 0.737294 0.184090
O O11 0.570239 0.922514 0.156973
O O12 0.400275 0.206720 0.451130
O O13 0.322943 0.150412 0.584255
O O14 0.731203 0.485544 0.675223
O O15 0.705044 0.146095 0.764243
#
# Coordination Sequence:
#
# PCOD8134364 Si02
#       8
#     8   8   4   8   8   8   8   8
#     4  10  19  35  61  92 120 150 201 255 309 361
#     4  11  20  40  63  90 124 157 210 261 303 366
#     4  12  24  40  64  86 126 174 210 244 306 384
#     4  12  23  40  63  94 125 158 217 254 305 373
#     4  10  24  39  60  91 128 162 206 255 315 365
#     4  11  20  35  64  98 117 159 204 263 309 357
#     4  12  25  41  58  88 130 171 200 257 307 373
#     4  10  20  36  63  91 125 150 204 263 307 356
#
# _framework density 19.957115999999999
#
# number of rings (size 3 to 8) (size 9 to 14) (size 15 to 20)
#    0.000    1.067    8.000    1.200    0.000    2.667 
#    0.000    0.667    0.000    1.600    0.000    0.000 
#    0.000    0.000    0.000    0.000    0.000    0.000 
#
# Total GULP energy -371984.633815 kJ/mol
# GULP energy per Si atom -12399.487794 kJ/mol
# Density = 1.991169 g / cm^3
# Si number density = 19.957116 Si / 1000 Ang^3
#
#
#
# Elastic Constant Matrix: (Units=GPa)
#
#
# Indices 1 2 3 4 5 6 
#
# 1 123.7581 37.9545 25.4073 0.0001 -22.8758 0.0005
# 2 37.9545 102.9503 22.1012 0.0003 -3.0676 0.0014
# 3 25.4073 22.1012 78.8330 0.0004 -13.9262 0.0003
# 4 0.0001 0.0003 0.0004 13.7321 0.0002 -8.2076
# 5 -22.8758 -3.0676 -13.9262 0.0002 20.1842 0.0003
# 6 0.0005 0.0014 0.0003 -8.2076 0.0003 32.4234
#
#
#
# Elastic Compliance Matrix: (Units=1/GPa)
#
#
# Indices 1 2 3 4 5 6 
#
# 1 0.011614 -0.003807 -0.000516 0.000000 0.012228 0.000000
# 2 -0.003807 0.011587 -0.002816 0.000000 -0.004496 0.000000
# 3 -0.000516 -0.002816 0.015330 -0.000001 0.009565 0.000000
# 4 0.000000 0.000000 -0.000001 0.085804 -0.000002 0.021720
# 5 0.012228 -0.004496 0.009565 -0.000002 0.069319 -0.000001
# 6 0.000000 0.000000 0.000000 0.021720 -0.000001 0.036340
#
#
# Mechanical properties :
#
#
# Convention : Reuss Voigt Hill
#
# Bulk Modulus (GPa) = 41.22842 52.94081 47.08461
# Shear Modulus (GPa) = 19.81326 27.93984 23.87655
#
# Velocity S-wave (km/s) = 3.15428 3.74571 3.46264
# Velocity P-wave (km/s) = 5.82832 6.72993 6.29529
#
# Compressibility (1/GPa) = 0.02425511
#
# Stress axis : x y z
#
# Youngs Moduli (GPa) = 86.10378 86.30095 65.22993
#
# Poissons Ratio (x) = 0.32851 0.03364
# Poissons Ratio (y) = 0.32776 0.18369
# Poissons Ratio (z) = 0.04440 0.24302
#
# Static dielectric constant tensor:
#      x y z
#    x 3.752820 -0.000010 -0.194950 
#    y -0.000010 3.835480 0.000000 
#    z -0.194950 0.000000 3.431830 
# 
# 
# High freq. dielectric constant tensor:
#      x y z
#    x 1.772590 0.000000 -0.017990 
#    y 0.000000 1.793700 0.000000 
#    z -0.017990 0.000000 1.750150 
# 
# From -- ./inp_files/258424.got.cif
#   From: 2010.06.25/outbox.cif.g09.slc.cpg/sg15_130_cif.got.tgz:258424.got - 2010.06.28 07:06:18.
