data_PCOD8134560
_publ_section_title
;
Structure prediction by ZEFSAII (Michael W. Deem and Ramdas Pophale) SiO2 
 PCOD8134560
Probable space group: C 2/C
;
_chemical_formula_sum "Si O2"
_cell_formula_units_Z 40
_cell_length_a 11.663680
_cell_length_b 15.111067
_cell_length_c 12.369616
_cell_angle_alpha 90.000000
_cell_angle_beta 100.069232
_cell_angle_gamma 90.000000
_cell_volume 2146.572424
_symmetry_space_group_name_H-M "C 2/C"
_symmetry_group_IT_number 15
_symmetry_cell_setting 'monoclinic'
loop_
_space_group_symop_operation_xyz
x,y,z
-x,y,1/2-z
-x,-y,-z
x,-y,1/2+z
1/2+x,1/2+y,z
1/2-x,1/2+y,1/2-z
1/2-x,1/2-y,-z
1/2+x,1/2-y,1/2+z
loop_
_atom_site_type_symbol
_atom_site_label
_atom_site_fract_x
_atom_site_fract_y
_atom_site_fract_z
Si Si1 0.867973 0.193994 0.033244
Si Si2 0.801655 0.614754 0.353903
Si Si3 0.821731 0.572077 0.771455
Si Si4 0.618238 0.302588 0.203527
Si Si5 0.454706 0.129001 0.583453
O O1 0.827681 0.117913 0.110239
O O2 0.961811 0.263414 0.096359
O O3 0.750000 0.250000 0.000000
O O4 0.907836 0.159769 0.921996
O O5 0.794435 0.532220 0.272269
O O6 0.828084 0.703582 0.290012
O O7 0.905403 0.600953 0.458442
O O8 0.708025 0.630907 0.776184
O O9 0.869676 0.590457 0.660459
O O10 0.915094 0.594011 0.880309
O O11 0.500000 0.301911 0.250000
#
# Coordination Sequence:
#
# PCOD8134560 Si02
#       5
#     8   8   8   8   8
#     4   8  15  37  54  70 107 150 171 210 271 328
#     4  10  19  36  58  79 111 144 179 217 281 315
#     4  11  19  32  59  85 105 140 184 228 256 328
#     4  10  20  37  55  79 110 144 180 219 273 319
#     4   9  18  34  57  81 109 135 185 226 269 311
#
# _framework density 18.634357999999999
#
# number of rings (size 3 to 8) (size 9 to 14) (size 15 to 20)
#    0.000    2.800    6.000    0.600    2.800    0.000 
#    0.000    7.000    0.000    0.000    0.000    0.000 
#    0.000    0.000    0.000    0.000    0.000    0.000 
#
# Total GULP energy -247813.210070 kJ/mol
# GULP energy per Si atom -12390.660504 kJ/mol
# Density = 1.859195 g / cm^3
# Si number density = 18.634358 Si / 1000 Ang^3
#
#
#
# Elastic Constant Matrix: (Units=GPa)
#
#
# Indices 1 2 3 4 5 6 
#
# 1 82.4448 54.5707 33.0321 0.0000 -26.9063 0.0000
# 2 54.5707 111.3828 34.6848 0.0000 4.9807 0.0000
# 3 33.0321 34.6848 59.2897 0.0000 -16.8309 0.0000
# 4 0.0000 0.0000 0.0000 24.0604 0.0000 0.2247
# 5 -26.9063 4.9807 -16.8309 0.0000 24.5384 0.0000
# 6 0.0000 0.0000 0.0000 0.2247 0.0000 19.6547
#
#
#
# Elastic Compliance Matrix: (Units=1/GPa)
#
#
# Indices 1 2 3 4 5 6 
#
# 1 0.052089 -0.031526 0.009255 0.000000 0.069862 0.000000
# 2 -0.031526 0.031586 -0.015581 0.000000 -0.051667 0.000000
# 3 0.009255 -0.015581 0.030552 0.000000 0.034267 0.000000
# 4 0.000000 0.000000 0.000000 0.041567 0.000000 -0.000475
# 5 0.069862 -0.051667 0.034267 0.000000 0.151347 0.000000
# 6 0.000000 0.000000 0.000000 -0.000475 0.000000 0.050884
#
#
# Mechanical properties :
#
#
# Convention : Reuss Voigt Hill
#
# Bulk Modulus (GPa) = 25.95832 55.29917 40.62875
# Shear Modulus (GPa) = 11.19645 22.37267 16.78456
#
# Velocity S-wave (km/s) = 2.45388 3.46875 3.00448
# Velocity P-wave (km/s) = 4.68928 6.76633 5.82119
#
# Compressibility (1/GPa) = 0.03852329
#
# Stress axis : x y z
#
# Youngs Moduli (GPa) = 19.19803 31.65933 32.73072
#
# Poissons Ratio (x) = 0.99810 -0.30293
# Poissons Ratio (y) = 0.60524 0.50997
# Poissons Ratio (z) = -0.17768 0.49328
#
# Static dielectric constant tensor:
#      x y z
#    x 3.539910 0.000000 -0.207980 
#    y 0.000000 3.746060 0.000000 
#    z -0.207980 0.000000 3.491740 
# 
# 
# High freq. dielectric constant tensor:
#      x y z
#    x 1.701650 0.000000 -0.011450 
#    y 0.000000 1.712990 0.000000 
#    z -0.011450 0.000000 1.711030 
# 
# From -- ./inp_files/85612.got.cif
#   From: 2010.06.25/outbox.cif.g09.slc.cpg/sg15_43_cif.got.tgz:85612.got - 2010.06.28 07:06:18.
