data_PCOD8134956
_publ_section_title
;
Structure prediction by ZEFSAII (Michael W. Deem and Ramdas Pophale) SiO2 
 PCOD8134956
Probable space group: C 2/C
;
_chemical_formula_sum "Si O2"
_cell_formula_units_Z 56
_cell_length_a 9.238791
_cell_length_b 15.180877
_cell_length_c 25.107085
_cell_angle_alpha 90.000000
_cell_angle_beta 123.851165
_cell_angle_gamma 90.000000
_cell_volume 2924.430655
_symmetry_space_group_name_H-M "C 2/C"
_symmetry_group_IT_number 15
_symmetry_cell_setting 'monoclinic'
loop_
_space_group_symop_operation_xyz
x,y,z
-x,y,1/2-z
-x,-y,-z
x,-y,1/2+z
1/2+x,1/2+y,z
1/2-x,1/2+y,1/2-z
1/2-x,1/2-y,-z
1/2+x,1/2-y,1/2+z
loop_
_atom_site_type_symbol
_atom_site_label
_atom_site_fract_x
_atom_site_fract_y
_atom_site_fract_z
Si Si1 0.466449 0.404573 0.472446
Si Si2 0.903362 0.779256 0.908732
Si Si3 0.904718 0.661606 0.628516
Si Si4 0.340433 0.940028 0.257082
Si Si5 0.699416 0.134520 0.273510
Si Si6 0.285356 0.728361 0.814677
Si Si7 0.354915 0.705056 0.568343
O O1 0.500000 0.500000 0.500000
O O2 0.513604 0.333512 0.526527
O O3 0.263743 0.397656 0.416737
O O4 0.584087 0.389618 0.443066
O O5 0.813849 0.847009 0.849351
O O6 0.764660 0.707023 0.903397
O O7 0.058090 0.725320 0.913147
O O8 0.870943 0.723196 0.673907
O O9 0.071676 0.596632 0.670342
O O10 0.500000 0.946085 0.250000
O O11 0.195775 0.869399 0.208096
O O12 0.258706 0.037816 0.242745
O O13 0.500000 0.146808 0.250000
O O14 0.758607 0.202325 0.240215
O O15 0.465459 0.756256 0.880410
O O16 0.250000 0.750000 0.500000
#
# Coordination Sequence:
#
# PCOD8134956 Si02
#       7
#     8   8   8   8   8   8   8
#     4  10  23  38  61  85 111 151 202 241 284 349
#     4  11  21  37  59  84 112 154 192 234 297 344
#     4  10  21  39  60  81 120 153 188 239 296 342
#     4   9  20  33  55  84 116 147 191 232 284 344
#     4  11  21  33  61  88 113 150 195 235 284 352
#     4  10  19  37  58  84 118 149 190 238 289 341
#     4   9  20  36  56  82 111 149 192 234 280 341
#
# _framework density 19.149025999999999
#
# number of rings (size 3 to 8) (size 9 to 14) (size 15 to 20)
#    0.000    2.000    2.857    0.429    8.000    0.000 
#    0.000    2.143    6.286    0.000    0.000    0.000 
#    0.000    0.000    0.000    0.000    0.000    0.000 
#
# Total GULP energy -346937.276277 kJ/mol
# GULP energy per Si atom -12390.617010 kJ/mol
# Density = 1.910544 g / cm^3
# Si number density = 19.149026 Si / 1000 Ang^3
#
#
#
# Elastic Constant Matrix: (Units=GPa)
#
#
# Indices 1 2 3 4 5 6 
#
# 1 78.6346 47.3304 23.7621 0.0000 -10.8374 0.0000
# 2 47.3304 118.9062 33.7250 0.0000 -12.5084 0.0000
# 3 23.7621 33.7250 100.7956 0.0000 2.5636 0.0000
# 4 0.0000 0.0000 0.0000 33.9808 0.0000 -1.9786
# 5 -10.8374 -12.5084 2.5636 0.0000 31.8711 0.0000
# 6 0.0000 0.0000 0.0000 -1.9786 0.0000 19.5549
#
#
#
# Elastic Compliance Matrix: (Units=1/GPa)
#
#
# Indices 1 2 3 4 5 6 
#
# 1 0.017483 -0.005925 -0.002236 0.000000 0.003799 0.000000
# 2 -0.005925 0.011812 -0.002627 0.000000 0.002832 0.000000
# 3 -0.002236 -0.002627 0.011396 0.000000 -0.002708 0.000000
# 4 0.000000 0.000000 0.000000 0.029603 0.000000 0.002995
# 5 0.003799 0.002832 -0.002708 0.000000 0.033998 0.000000
# 6 0.000000 0.000000 0.000000 0.002995 0.000000 0.051441
#
#
# Mechanical properties :
#
#
# Convention : Reuss Voigt Hill
#
# Bulk Modulus (GPa) = 52.31704 56.44126 54.37915
# Shear Modulus (GPa) = 27.22138 29.98262 28.60200
#
# Velocity S-wave (km/s) = 3.77444 3.96125 3.86897
# Velocity P-wave (km/s) = 6.80996 7.10357 6.95831
#
# Compressibility (1/GPa) = 0.01911423
#
# Stress axis : x y z
#
# Youngs Moduli (GPa) = 57.19976 84.66258 87.75008
#
# Poissons Ratio (x) = 0.50164 0.19617
# Poissons Ratio (y) = 0.33892 0.23054
# Poissons Ratio (z) = 0.12787 0.22243
#
# Static dielectric constant tensor:
#      x y z
#    x 3.544460 0.000000 -0.063690 
#    y 0.000000 4.027900 0.000000 
#    z -0.063690 0.000000 3.812020 
# 
# 
# High freq. dielectric constant tensor:
#      x y z
#    x 1.728360 0.000000 0.005140 
#    y 0.000000 1.721770 0.000000 
#    z 0.005140 0.000000 1.767890 
# 
# From -- ./inp_files/264615.got.cif
#   From: 2010.06.25/outbox.cif.g09.slc.cpg/sg15_133_cif.got.tgz:264615.got - 2010.06.28 07:06:18.
