data_PCOD8134110
_publ_section_title
;
Structure prediction by ZEFSAII (Michael W. Deem and Ramdas Pophale) SiO2 
 PCOD8134110
Probable space group: C 2/C
;
_chemical_formula_sum "Si O2"
_cell_formula_units_Z 40
_cell_length_a 8.975471
_cell_length_b 17.147212
_cell_length_c 27.722296
_cell_angle_alpha 90.000000
_cell_angle_beta 150.323330
_cell_angle_gamma 90.000000
_cell_volume 2112.405139
_symmetry_space_group_name_H-M "C 2/C"
_symmetry_group_IT_number 15
_symmetry_cell_setting 'monoclinic'
loop_
_space_group_symop_operation_xyz
x,y,z
-x,y,1/2-z
-x,-y,-z
x,-y,1/2+z
1/2+x,1/2+y,z
1/2-x,1/2+y,1/2-z
1/2-x,1/2-y,-z
1/2+x,1/2-y,1/2+z
loop_
_atom_site_type_symbol
_atom_site_label
_atom_site_fract_x
_atom_site_fract_y
_atom_site_fract_z
Si Si1 0.056981 0.782514 0.344186
Si Si2 0.551646 0.656307 0.010356
Si Si3 0.337309 0.587212 0.361421
Si Si4 0.036289 0.249737 0.131973
Si Si5 0.142038 0.087612 0.645232
O O1 0.171126 0.717825 0.415013
O O2 0.278705 0.784908 0.361002
O O3 0.721188 0.760066 0.233278
O O4 0.036011 0.867006 0.363194
O O5 0.481574 0.616700 0.940416
O O6 0.271185 0.704432 0.951823
O O7 0.639243 0.589251 0.073661
O O8 0.536356 0.657548 0.395401
O O9 0.442419 0.503203 0.371885
O O10 0.000000 0.606345 0.250000
O O11 0.500000 0.100001 0.750000
#
# Coordination Sequence:
#
# PCOD8134110 Si02
#       5
#     8   8   8   8   8
#     4  10  19  36  56  81 111 145 182 226 269 323
#     4  11  20  37  60  83 106 149 187 221 271 332
#     4  10  19  35  56  82 110 145 184 224 267 330
#     4  10  19  37  61  79 104 150 195 213 263 339
#     4  11  22  34  55  86 115 138 181 234 278 312
#
# _framework density 18.935762
#
# number of rings (size 3 to 8) (size 9 to 14) (size 15 to 20)
#    0.000    1.600    6.000    3.600    0.000    0.000 
#    0.000    4.000    0.000    4.800    0.000    0.000 
#    0.000    0.000    0.000    0.000    0.000    0.000 
#
# Total GULP energy -247915.805839 kJ/mol
# GULP energy per Si atom -12395.790292 kJ/mol
# Density = 1.889266 g / cm^3
# Si number density = 18.935762 Si / 1000 Ang^3
#
#
#
# Elastic Constant Matrix: (Units=GPa)
#
#
# Indices 1 2 3 4 5 6 
#
# 1 45.8644 49.4418 25.9987 -0.0047 -15.4068 -0.0008
# 2 49.4418 135.8875 37.0658 -0.0095 -9.9177 -0.0024
# 3 25.9987 37.0658 128.2087 -0.0265 -22.6934 -0.0121
# 4 -0.0047 -0.0095 -0.0265 10.2115 -0.0114 -10.1844
# 5 -15.4068 -9.9177 -22.6934 -0.0114 25.5422 -0.0042
# 6 -0.0008 -0.0024 -0.0121 -10.1844 -0.0042 29.7258
#
#
#
# Elastic Compliance Matrix: (Units=1/GPa)
#
#
# Indices 1 2 3 4 5 6 
#
# 1 0.045090 -0.014557 -0.001331 0.000043 0.020363 0.000017
# 2 -0.014557 0.012722 -0.001668 -0.000009 -0.005323 -0.000004
# 3 -0.001331 -0.001668 0.009843 0.000055 0.007295 0.000024
# 4 0.000043 -0.000009 0.000055 0.148761 0.000146 0.050967
# 5 0.020363 -0.005323 0.007295 0.000146 0.055849 0.000061
# 6 0.000017 -0.000004 0.000024 0.050967 0.000061 0.051103
#
#
# Mechanical properties :
#
#
# Convention : Reuss Voigt Hill
#
# Bulk Modulus (GPa) = 30.72761 59.44148 45.08455
# Shear Modulus (GPa) = 13.53814 26.25952 19.89883
#
# Velocity S-wave (km/s) = 2.67676 3.72797 3.24521
# Velocity P-wave (km/s) = 5.08093 7.07034 6.15652
#
# Compressibility (1/GPa) = 0.03254402
#
# Stress axis : x y z
#
# Youngs Moduli (GPa) = 22.17776 78.60449 101.59298
#
# Poissons Ratio (x) = 1.14421 0.13520
# Poissons Ratio (y) = 0.32283 0.16949
# Poissons Ratio (z) = 0.02951 0.13114
#
# Static dielectric constant tensor:
#      x y z
#    x 3.053510 0.000000 -0.225890 
#    y 0.000000 3.553590 0.000000 
#    z -0.225890 0.000000 4.009340 
# 
# 
# High freq. dielectric constant tensor:
#      x y z
#    x 1.693470 0.000000 -0.021810 
#    y 0.000000 1.736340 0.000000 
#    z -0.021810 0.000000 1.767750 
# 
# From -- ./inp_files/133801.got.cif
#   From: 2010.06.25/outbox.cif.g09.slc.cpg/sg15_67_cif.got.tgz:133801.got - 2010.06.28 07:06:18.
