data_PCOD8134021
_publ_section_title
;
Structure prediction by ZEFSAII (Michael W. Deem and Ramdas Pophale) SiO2 
 PCOD8134021
Probable space group: C 2/C
;
_chemical_formula_sum "Si O2"
_cell_formula_units_Z 44
_cell_length_a 13.518319
_cell_length_b 16.673604
_cell_length_c 12.181508
_cell_angle_alpha 90.000000
_cell_angle_beta 58.308184
_cell_angle_gamma 90.000000
_cell_volume 2336.278900
_symmetry_space_group_name_H-M "C 2/C"
_symmetry_group_IT_number 15
_symmetry_cell_setting 'monoclinic'
loop_
_space_group_symop_operation_xyz
x,y,z
-x,y,1/2-z
-x,-y,-z
x,-y,1/2+z
1/2+x,1/2+y,z
1/2-x,1/2+y,1/2-z
1/2-x,1/2-y,-z
1/2+x,1/2-y,1/2+z
loop_
_atom_site_type_symbol
_atom_site_label
_atom_site_fract_x
_atom_site_fract_y
_atom_site_fract_z
Si Si1 0.500000 0.982250 0.250000
Si Si2 0.905429 0.779492 0.380274
Si Si3 0.450233 0.123271 0.130877
Si Si4 0.127173 0.805152 0.671098
Si Si5 0.144049 0.361839 0.048391
Si Si6 0.272780 0.697122 0.154935
O O1 0.612351 0.925124 0.162613
O O2 0.492395 0.036577 0.145856
O O3 0.790936 0.770928 0.370242
O O4 0.871720 0.830881 0.508817
O O5 0.000000 0.826528 0.250000
O O6 0.962065 0.693413 0.381956
O O7 0.323453 0.130890 0.261864
O O8 0.439993 0.122669 0.006090
O O9 0.115959 0.727867 0.601628
O O10 0.219635 0.867752 0.564814
O O11 0.167195 0.775148 0.767832
O O12 0.000000 0.847102 0.750000
#
# Coordination Sequence:
#
# PCOD8134021 Si02
#       6
#     4   8   8   8   8   8
#     4  12  20  36  54  82 112 142 178 224 276 336
#     4   9  16  29  49  79 106 140 175 220 271 310
#     4  10  19  35  52  81 113 141 174 227 275 321
#     4  10  19  36  54  79 108 140 185 227 267 311
#     4  10  22  33  55  83 107 144 182 223 273 321
#     4   9  17  30  53  74 108 142 177 223 270 307
#
# _framework density 18.833368
#
# number of rings (size 3 to 8) (size 9 to 14) (size 15 to 20)
#    0.000    2.182    3.636    1.636    0.000    1.455 
#    0.000    0.000    0.000    5.455    0.000    0.000 
#    0.000    0.000    0.000    0.000    0.000    0.000 
#
# Total GULP energy -272538.848656 kJ/mol
# GULP energy per Si atom -12388.129484 kJ/mol
# Density = 1.879050 g / cm^3
# Si number density = 18.833368 Si / 1000 Ang^3
#
#
#
# Elastic Constant Matrix: (Units=GPa)
#
#
# Indices 1 2 3 4 5 6 
#
# 1 99.8224 19.1677 36.5916 0.0000 -2.7274 0.0000
# 2 19.1677 45.3906 17.0046 0.0000 -2.0427 0.0000
# 3 36.5916 17.0046 118.2083 0.0000 -13.1184 0.0000
# 4 0.0000 0.0000 0.0000 27.9703 0.0000 1.4438
# 5 -2.7274 -2.0427 -13.1184 0.0000 37.4590 0.0000
# 6 0.0000 0.0000 0.0000 1.4438 0.0000 11.6323
#
#
#
# Elastic Compliance Matrix: (Units=1/GPa)
#
#
# Indices 1 2 3 4 5 6 
#
# 1 0.011913 -0.003859 -0.003183 0.000000 -0.000458 0.000000
# 2 -0.003859 0.024536 -0.002307 0.000000 0.000249 0.000000
# 3 -0.003183 -0.002307 0.010131 0.000000 0.003190 0.000000
# 4 0.000000 0.000000 0.000000 0.035983 0.000000 -0.004466
# 5 -0.000458 0.000249 0.003190 0.000000 0.027793 0.000000
# 6 0.000000 0.000000 0.000000 -0.004466 0.000000 0.086522
#
#
# Mechanical properties :
#
#
# Convention : Reuss Voigt Hill
#
# Bulk Modulus (GPa) = 35.86669 45.43878 40.65274
# Shear Modulus (GPa) = 22.23493 28.12281 25.17887
#
# Velocity S-wave (km/s) = 3.43973 3.86844 3.66037
# Velocity P-wave (km/s) = 5.90434 6.64321 6.28464
#
# Compressibility (1/GPa) = 0.02788102
#
# Stress axis : x y z
#
# Youngs Moduli (GPa) = 83.94061 40.75621 98.70606
#
# Poissons Ratio (x) = 0.15727 0.31423
# Poissons Ratio (y) = 0.32390 0.22776
# Poissons Ratio (z) = 0.26722 0.09404
#
# Static dielectric constant tensor:
#      x y z
#    x 3.617590 0.000000 -0.136210 
#    y 0.000000 2.843520 0.000000 
#    z -0.136210 0.000000 4.077310 
# 
# 
# High freq. dielectric constant tensor:
#      x y z
#    x 1.733190 0.000000 0.000390 
#    y 0.000000 1.657180 0.000000 
#    z 0.000390 0.000000 1.765740 
# 
# From -- ./inp_files/96586.got.cif
#   From: 2010.06.25/outbox.cif.g09.slc.cpg/sg15_49_cif.got.tgz:96586.got - 2010.06.28 07:06:18.
