data_PCOD8134467
_publ_section_title
;
Structure prediction by ZEFSAII (Michael W. Deem and Ramdas Pophale) SiO2 
 PCOD8134467
Probable space group: C 2/C
;
_chemical_formula_sum "Si O2"
_cell_formula_units_Z 52
_cell_length_a 26.137609
_cell_length_b 10.575778
_cell_length_c 9.398188
_cell_angle_alpha 90.000000
_cell_angle_beta 86.671262
_cell_angle_gamma 90.000000
_cell_volume 2593.516161
_symmetry_space_group_name_H-M "C 2/C"
_symmetry_group_IT_number 15
_symmetry_cell_setting 'monoclinic'
loop_
_space_group_symop_operation_xyz
x,y,z
-x,y,1/2-z
-x,-y,-z
x,-y,1/2+z
1/2+x,1/2+y,z
1/2-x,1/2+y,1/2-z
1/2-x,1/2-y,-z
1/2+x,1/2-y,1/2+z
loop_
_atom_site_type_symbol
_atom_site_label
_atom_site_fract_x
_atom_site_fract_y
_atom_site_fract_z
Si Si1 0.383585 0.347801 0.180311
Si Si2 0.399956 0.563144 0.371988
Si Si3 0.560049 0.885745 0.737045
Si Si4 0.786314 0.871628 0.830478
Si Si5 0.000000 0.201799 0.250000
Si Si6 0.956789 0.593806 0.562278
Si Si7 0.268893 0.381015 0.158186
O O1 0.399842 0.417482 0.323078
O O2 0.410639 0.213126 0.169283
O O3 0.323530 0.322415 0.188836
O O4 0.400556 0.432049 0.042353
O O5 0.348396 0.627944 0.316808
O O6 0.451148 0.621184 0.300447
O O7 0.500000 0.852801 0.750000
O O8 0.579469 0.879387 0.569070
O O9 0.572469 0.023814 0.802862
O O10 0.770599 0.729020 0.784197
O O11 0.762065 0.981657 0.733938
O O12 0.764048 0.902085 0.990104
O O13 0.016088 0.281464 0.385103
O O14 0.000000 0.500000 0.500000
#
# Coordination Sequence:
#
# PCOD8134467 Si02
#       7
#     8   8   8   8   4   8   8
#     4  10  22  39  56  85 114 152 190 238 282 343
#     4  10  23  37  58  81 120 151 193 232 285 337
#     4  10  20  35  55  75 111 145 187 234 281 329
#     4   9  19  40  61  87 116 151 188 244 288 345
#     4  12  22  36  58  82 114 158 192 230 280 340
#     4  10  19  36  54  75 107 149 186 237 279 323
#     4   9  19  39  63  84 118 148 189 240 296 340
#
# _framework density 20.050001000000002
#
# number of rings (size 3 to 8) (size 9 to 14) (size 15 to 20)
#    0.000    2.154    2.308    1.846    3.231    1.231 
#    2.769    1.538    0.000    0.000    0.000    0.000 
#    0.000    0.000    0.000    0.000    0.000    0.000 
#
# Total GULP energy -322250.141196 kJ/mol
# GULP energy per Si atom -12394.236200 kJ/mol
# Density = 2.000437 g / cm^3
# Si number density = 20.050001 Si / 1000 Ang^3
#
#
#
# Elastic Constant Matrix: (Units=GPa)
#
#
# Indices 1 2 3 4 5 6 
#
# 1 71.6542 43.7106 21.4363 0.0000 -8.0272 0.0000
# 2 43.7106 85.9473 27.9039 0.0000 5.2240 0.0000
# 3 21.4363 27.9039 101.0707 0.0000 15.3141 0.0000
# 4 0.0000 0.0000 0.0000 40.3064 0.0000 4.1748
# 5 -8.0272 5.2240 15.3141 0.0000 21.7188 0.0000
# 6 0.0000 0.0000 0.0000 4.1748 0.0000 29.2659
#
#
#
# Elastic Compliance Matrix: (Units=1/GPa)
#
#
# Indices 1 2 3 4 5 6 
#
# 1 0.023967 -0.011761 -0.004038 0.000000 0.014535 0.000000
# 2 -0.011761 0.018561 -0.001450 0.000000 -0.007789 0.000000
# 3 -0.004038 -0.001450 0.012679 0.000000 -0.010084 0.000000
# 4 0.000000 0.000000 0.000000 0.025182 0.000000 -0.003592
# 5 0.014535 -0.007789 -0.010084 0.000000 0.060399 0.000000
# 6 0.000000 0.000000 0.000000 -0.003592 0.000000 0.034682
#
#
# Mechanical properties :
#
#
# Convention : Reuss Voigt Hill
#
# Bulk Modulus (GPa) = 48.29119 49.41932 48.85526
# Shear Modulus (GPa) = 23.05528 29.29965 26.17746
#
# Velocity S-wave (km/s) = 3.39468 3.82688 3.61724
# Velocity P-wave (km/s) = 6.28513 6.65043 6.47036
#
# Compressibility (1/GPa) = 0.02070771
#
# Stress axis : x y z
#
# Youngs Moduli (GPa) = 41.72398 53.87751 78.87276
#
# Poissons Ratio (x) = 0.63367 0.31852
# Poissons Ratio (y) = 0.49073 0.11433
# Poissons Ratio (z) = 0.16850 0.07810
#
# Static dielectric constant tensor:
#      x y z
#    x 3.426620 0.000000 0.157100 
#    y 0.000000 3.674210 0.000000 
#    z 0.157100 0.000000 4.389980 
# 
# 
# High freq. dielectric constant tensor:
#      x y z
#    x 1.755660 0.000000 0.009970 
#    y 0.000000 1.779630 0.000000 
#    z 0.009970 0.000000 1.793470 
# 
# From -- ./inp_files/65166.got.cif
#   From: 2010.06.25/outbox.cif.g09.slc.cpg/sg15_33_cif.got.tgz:65166.got - 2010.06.28 07:06:18.
