data_PCOD8134007
_publ_section_title
;
Structure prediction by ZEFSAII (Michael W. Deem and Ramdas Pophale) SiO2 
 PCOD8134007
Probable space group: C 2/C
;
_chemical_formula_sum "Si O2"
_cell_formula_units_Z 48
_cell_length_a 15.260303
_cell_length_b 27.180953
_cell_length_c 11.690759
_cell_angle_alpha 90.000000
_cell_angle_beta 28.638092
_cell_angle_gamma 90.000000
_cell_volume 2324.104968
_symmetry_space_group_name_H-M "C 2/C"
_symmetry_group_IT_number 15
_symmetry_cell_setting 'monoclinic'
loop_
_space_group_symop_operation_xyz
x,y,z
-x,y,1/2-z
-x,-y,-z
x,-y,1/2+z
1/2+x,1/2+y,z
1/2-x,1/2+y,1/2-z
1/2-x,1/2-y,-z
1/2+x,1/2-y,1/2+z
loop_
_atom_site_type_symbol
_atom_site_label
_atom_site_fract_x
_atom_site_fract_y
_atom_site_fract_z
Si Si1 0.928247 0.959657 0.668551
Si Si2 0.249817 0.600452 0.756936
Si Si3 0.727368 0.800813 0.384347
Si Si4 0.806398 0.695156 0.324774
Si Si5 0.831118 0.405595 0.697776
Si Si6 0.294398 0.036264 0.468377
O O1 0.762507 0.927698 0.806297
O O2 0.100241 0.923971 0.500146
O O3 0.000000 0.000000 0.500000
O O4 0.841828 0.989037 0.875120
O O5 0.313848 0.657204 0.703905
O O6 0.253279 0.575109 0.877575
O O7 0.050314 0.594783 0.928687
O O8 0.771597 0.745214 0.292206
O O9 0.803600 0.804687 0.428022
O O10 0.514236 0.811407 0.622781
O O11 0.751030 0.649257 0.309237
O O12 0.769800 0.438463 0.875051
O O13 0.500000 0.017038 0.250000
#
# Coordination Sequence:
#
# PCOD8134007 Si02
#       6
#     8   8   8   8   8   8
#     4  10  22  33  48  77  94 132 183 211 241 303
#     4   9  18  32  48  67 103 131 169 208 238 292
#     4   9  16  28  42  71  98 130 173 198 230 304
#     4   9  17  27  45  68  97 137 169 191 243 301
#     4  10  19  35  52  66 104 146 160 202 265 284
#     4   9  18  34  51  68  98 135 172 209 247 298
#
# _framework density 20.653113000000001
#
# number of rings (size 3 to 8) (size 9 to 14) (size 15 to 20)
#    0.000    2.667    1.667    0.000    2.333    8.667 
#    0.000    1.667    0.000    0.000    0.000    0.000 
#    0.000    1.333    2.000    2.667    0.667    0.000 
#
# Total GULP energy -297418.861711 kJ/mol
# GULP energy per Si atom -12392.452571 kJ/mol
# Density = 2.060611 g / cm^3
# Si number density = 20.653113 Si / 1000 Ang^3
#
#
#
# Elastic Constant Matrix: (Units=GPa)
#
#
# Indices 1 2 3 4 5 6 
#
# 1 30.9444 23.6222 12.3863 0.0012 -15.1476 -0.0023
# 2 23.6222 167.8923 59.4838 -0.0013 -5.7222 -0.0004
# 3 12.3863 59.4838 71.8294 0.0129 -8.4437 -0.0022
# 4 0.0012 -0.0013 0.0129 32.4680 -0.0026 -9.4836
# 5 -15.1476 -5.7222 -8.4437 -0.0026 15.5336 0.0004
# 6 -0.0023 -0.0004 -0.0022 -9.4836 0.0004 9.7902
#
#
#
# Elastic Compliance Matrix: (Units=1/GPa)
#
#
# Indices 1 2 3 4 5 6 
#
# 1 0.070782 -0.008696 0.002919 0.000007 0.067406 0.000021
# 2 -0.008696 0.009506 -0.007432 0.000003 -0.009018 0.000000
# 3 0.002919 -0.007432 0.020923 -0.000009 0.011482 -0.000004
# 4 0.000007 0.000003 -0.000009 0.042953 0.000010 0.041607
# 5 0.067406 -0.009018 0.011482 0.000010 0.133027 0.000022
# 6 0.000021 0.000000 -0.000004 0.041607 0.000022 0.142446
#
#
# Mechanical properties :
#
#
# Convention : Reuss Voigt Hill
#
# Bulk Modulus (GPa) = 13.37025 51.29451 32.33238
# Shear Modulus (GPa) = 10.61603 23.23662 16.92633
#
# Velocity S-wave (km/s) = 2.26965 3.35788 2.86589
# Velocity P-wave (km/s) = 3.65461 6.31854 5.16140
#
# Compressibility (1/GPa) = 0.07479294
#
# Stress axis : x y z
#
# Youngs Moduli (GPa) = 14.12790 105.20092 47.79376
#
# Poissons Ratio (x) = 0.91481 -0.13953
# Poissons Ratio (y) = 0.12285 0.35522
# Poissons Ratio (z) = -0.04124 0.78190
#
# Static dielectric constant tensor:
#      x y z
#    x 3.251370 0.000000 -0.252520 
#    y 0.000000 4.178910 0.000020 
#    z -0.252520 0.000020 3.868700 
# 
# 
# High freq. dielectric constant tensor:
#      x y z
#    x 1.760640 0.000000 -0.040800 
#    y 0.000000 1.819920 0.000000 
#    z -0.040800 0.000000 1.788210 
# 
# From -- ./inp_files/101598.got.cif
#   From: 2010.06.25/outbox.cif.g09.slc.cpg/sg15_51_cif.got.tgz:101598.got - 2010.06.28 07:06:18.
