data_PCOD8134802
_publ_section_title
;
Structure prediction by ZEFSAII (Michael W. Deem and Ramdas Pophale) SiO2 
 PCOD8134802
Probable space group: C 2/C
;
_chemical_formula_sum "Si O2"
_cell_formula_units_Z 56
_cell_length_a 10.633713
_cell_length_b 11.062603
_cell_length_c 23.919259
_cell_angle_alpha 90.000000
_cell_angle_beta 111.814950
_cell_angle_gamma 90.000000
_cell_volume 2612.281174
_symmetry_space_group_name_H-M "C 2/C"
_symmetry_group_IT_number 15
_symmetry_cell_setting 'monoclinic'
loop_
_space_group_symop_operation_xyz
x,y,z
-x,y,1/2-z
-x,-y,-z
x,-y,1/2+z
1/2+x,1/2+y,z
1/2-x,1/2+y,1/2-z
1/2-x,1/2-y,-z
1/2+x,1/2-y,1/2+z
loop_
_atom_site_type_symbol
_atom_site_label
_atom_site_fract_x
_atom_site_fract_y
_atom_site_fract_z
Si Si1 0.617929 0.414173 0.959718
Si Si2 0.765998 0.793883 0.426186
Si Si3 0.150362 0.822276 0.620951
Si Si4 0.980124 0.682724 0.685610
Si Si5 0.438760 0.910631 0.684302
Si Si6 0.988270 0.614459 0.425640
Si Si7 0.315893 0.093267 0.944377
O O1 0.661217 0.280769 0.946877
O O2 0.454441 0.411501 0.929125
O O3 0.674291 0.521718 0.929973
O O4 0.682031 0.416605 0.033387
O O5 0.679890 0.819728 0.356485
O O6 0.899165 0.719304 0.436279
O O7 0.275197 0.905115 0.662205
O O8 0.210668 0.720573 0.589446
O O9 0.077964 0.757969 0.661372
O O10 0.012783 0.540817 0.693568
O O11 0.000000 0.741863 0.750000
O O12 0.500000 0.844884 0.750000
O O13 0.482447 0.849226 0.633333
O O14 0.125701 0.612495 0.483953
O O15 0.916384 0.483966 0.421247
#
# Coordination Sequence:
#
# PCOD8134802 Si02
#       7
#     8   8   8   8   8   8   8
#     4   9  18  34  59  95 119 155 199 247 307 365
#     4   9  17  33  62  89 122 156 201 248 302 361
#     4  11  22  42  61  89 125 157 202 256 304 362
#     4  10  22  41  62  85 119 166 206 248 301 357
#     4  11  25  42  61  88 124 163 209 250 297 371
#     4  10  19  36  62  93 122 161 203 245 312 363
#     4  10  19  36  67  88 126 161 192 258 311 358
#
# _framework density 21.437201999999999
#
# number of rings (size 3 to 8) (size 9 to 14) (size 15 to 20)
#    0.000    2.000    2.857    0.857    6.000    0.571 
#    2.571    1.429    0.000    0.000    0.000    0.000 
#    0.000    0.000    0.000    0.000    0.000    0.000 
#
# Total GULP energy -346964.845372 kJ/mol
# GULP energy per Si atom -12391.601620 kJ/mol
# Density = 2.138841 g / cm^3
# Si number density = 21.437202 Si / 1000 Ang^3
#
#
#
# Elastic Constant Matrix: (Units=GPa)
#
#
# Indices 1 2 3 4 5 6 
#
# 1 84.4370 15.5464 50.2449 0.0000 9.5819 0.0000
# 2 15.5464 30.5217 11.6818 0.0000 -4.9680 0.0000
# 3 50.2449 11.6818 152.5791 0.0000 6.0425 0.0000
# 4 0.0000 0.0000 0.0000 10.6200 0.0000 5.3610
# 5 9.5819 -4.9680 6.0425 0.0000 34.1496 0.0000
# 6 0.0000 0.0000 0.0000 5.3610 0.0000 25.8996
#
#
#
# Elastic Compliance Matrix: (Units=1/GPa)
#
#
# Indices 1 2 3 4 5 6 
#
# 1 0.016559 -0.007437 -0.004690 0.000000 -0.004898 0.000000
# 2 -0.007437 0.038113 -0.000777 0.000000 0.007769 0.000000
# 3 -0.004690 -0.000777 0.008167 0.000000 -0.000242 0.000000
# 4 0.000000 0.000000 0.000000 0.105149 0.000000 -0.021765
# 5 -0.004898 0.007769 -0.000242 0.000000 0.031830 0.000000
# 6 0.000000 0.000000 0.000000 -0.021765 0.000000 0.043116
#
#
# Mechanical properties :
#
#
# Convention : Reuss Voigt Hill
#
# Bulk Modulus (GPa) = 27.00268 46.94267 36.97267
# Shear Modulus (GPa) = 17.78823 26.80484 22.29653
#
# Velocity S-wave (km/s) = 2.88372 3.53992 3.22854
# Velocity P-wave (km/s) = 4.86943 6.21718 5.58411
#
# Compressibility (1/GPa) = 0.03703337
#
# Stress axis : x y z
#
# Youngs Moduli (GPa) = 60.39095 26.23759 122.43920
#
# Poissons Ratio (x) = 0.19512 0.57418
# Poissons Ratio (y) = 0.44911 0.09510
# Poissons Ratio (z) = 0.28320 0.02038
#
# Static dielectric constant tensor:
#      x y z
#    x 3.770220 0.000000 0.001800 
#    y 0.000000 3.663410 0.000000 
#    z 0.001800 0.000000 4.303600 
# 
# 
# High freq. dielectric constant tensor:
#      x y z
#    x 1.835440 0.000000 0.000440 
#    y 0.000000 1.819920 0.000000 
#    z 0.000440 0.000000 1.841690 
# 
# From -- ./inp_files/269001.got.cif
#   From: 2010.06.25/outbox.cif.g09.slc.cpg/sg15_135_cif.got.tgz:269001.got - 2010.06.28 07:06:18.
