data_PCOD8134279
_publ_section_title
;
Structure prediction by ZEFSAII (Michael W. Deem and Ramdas Pophale) SiO2 
 PCOD8134279
Probable space group: C 2/C
;
_chemical_formula_sum "Si O2"
_cell_formula_units_Z 56
_cell_length_a 16.373775
_cell_length_b 9.310873
_cell_length_c 21.375013
_cell_angle_alpha 90.000000
_cell_angle_beta 63.935622
_cell_angle_gamma 90.000000
_cell_volume 2927.301491
_symmetry_space_group_name_H-M "C 2/C"
_symmetry_group_IT_number 15
_symmetry_cell_setting 'monoclinic'
loop_
_space_group_symop_operation_xyz
x,y,z
-x,y,1/2-z
-x,-y,-z
x,-y,1/2+z
1/2+x,1/2+y,z
1/2-x,1/2+y,1/2-z
1/2-x,1/2-y,-z
1/2+x,1/2-y,1/2+z
loop_
_atom_site_type_symbol
_atom_site_label
_atom_site_fract_x
_atom_site_fract_y
_atom_site_fract_z
Si Si1 0.141780 0.121205 0.773613
Si Si2 0.376932 0.587161 0.052181
Si Si3 0.229416 0.792239 0.076493
Si Si4 0.394715 0.868064 0.799430
Si Si5 0.836683 0.928748 0.852999
Si Si6 0.262180 0.880727 0.348125
Si Si7 0.481126 0.497893 0.400643
O O1 0.149657 0.279988 0.742644
O O2 0.138998 0.994997 0.722745
O O3 0.229714 0.107970 0.787521
O O4 0.048363 0.112485 0.843901
O O5 0.310285 0.720007 0.090045
O O6 0.318613 0.440462 0.080504
O O7 0.460229 0.601169 0.073163
O O8 0.411732 0.591053 0.968508
O O9 0.130658 0.727527 0.130467
O O10 0.231576 0.962438 0.087914
O O11 0.250000 0.750000 0.000000
O O12 0.500000 0.883084 0.750000
O O13 0.353695 0.025950 0.821159
O O14 0.785653 0.778847 0.862449
O O15 0.926435 0.911011 0.866589
#
# Coordination Sequence:
#
# PCOD8134279 Si02
#       7
#     8   8   8   8   8   8   8
#     4  10  20  37  59  82 112 153 198 234 288 352
#     4   9  20  37  59  82 116 157 186 243 291 342
#     4  10  19  37  59  86 114 158 199 235 283 361
#     4  10  21  36  56  85 113 149 191 242 292 332
#     4  11  21  35  62  86 112 156 198 239 285 353
#     4  10  22  38  55  84 119 151 186 241 304 344
#     4  10  19  35  59  87 114 146 200 238 286 346
#
# _framework density 19.130248000000002
#
# number of rings (size 3 to 8) (size 9 to 14) (size 15 to 20)
#    0.000    2.000    1.429    3.000    0.000    2.857 
#    0.000    1.429    0.000    7.714    0.000    0.000 
#    0.000    0.000    0.000    0.000    0.000    0.000 
#
# Total GULP energy -347039.865927 kJ/mol
# GULP energy per Si atom -12394.280926 kJ/mol
# Density = 1.908671 g / cm^3
# Si number density = 19.130248 Si / 1000 Ang^3
#
#
#
# Elastic Constant Matrix: (Units=GPa)
#
#
# Indices 1 2 3 4 5 6 
#
# 1 96.3263 43.4835 36.7669 0.0000 0.5323 0.0000
# 2 43.4835 129.3021 45.7742 0.0000 -1.3368 0.0001
# 3 36.7669 45.7742 130.6194 0.0000 -2.7380 0.0000
# 4 0.0000 0.0000 0.0000 20.5280 0.0000 -0.2309
# 5 0.5323 -1.3368 -2.7380 0.0000 32.9043 0.0000
# 6 0.0000 0.0001 0.0000 -0.2309 0.0000 20.3609
#
#
#
# Elastic Compliance Matrix: (Units=1/GPa)
#
#
# Indices 1 2 3 4 5 6 
#
# 1 0.012878 -0.003481 -0.002417 0.000000 -0.000551 0.000000
# 2 -0.003481 0.009770 -0.002439 0.000000 0.000250 0.000000
# 3 -0.002417 -0.002439 0.009206 0.000000 0.000706 0.000000
# 4 0.000000 0.000000 0.000000 0.048720 0.000000 0.000553
# 5 -0.000551 0.000250 0.000706 0.000000 0.030469 0.000000
# 6 0.000000 0.000000 0.000000 0.000553 0.000000 0.049120
#
#
# Mechanical properties :
#
#
# Convention : Reuss Voigt Hill
#
# Bulk Modulus (GPa) = 65.87117 67.58857 66.72987
# Shear Modulus (GPa) = 27.48812 30.10687 28.79750
#
# Velocity S-wave (km/s) = 3.79475 3.97140 3.88408
# Velocity P-wave (km/s) = 7.32857 7.51244 7.42107
#
# Compressibility (1/GPa) = 0.01518115
#
# Stress axis : x y z
#
# Youngs Moduli (GPa) = 77.65032 102.34949 108.63027
#
# Poissons Ratio (x) = 0.35628 0.26252
# Poissons Ratio (y) = 0.27030 0.26493
# Poissons Ratio (z) = 0.18765 0.24962
#
# Static dielectric constant tensor:
#      x y z
#    x 3.705540 0.000000 -0.007360 
#    y 0.000000 3.471780 0.000000 
#    z -0.007360 0.000000 3.739970 
# 
# 
# High freq. dielectric constant tensor:
#      x y z
#    x 1.747820 0.000000 0.000380 
#    y 0.000000 1.717920 0.000000 
#    z 0.000380 0.000000 1.759860 
# 
# From -- ./inp_files/247366.got.cif
#   From: 2010.06.25/outbox.cif.g09.slc.cpg/sg15_124_cif.got.tgz:247366.got - 2010.06.28 07:06:18.
