data_PCOD8134553
_publ_section_title
;
Structure prediction by ZEFSAII (Michael W. Deem and Ramdas Pophale) SiO2 
 PCOD8134553
Probable space group: C 2/C
;
_chemical_formula_sum "Si O2"
_cell_formula_units_Z 64
_cell_length_a 12.132425
_cell_length_b 15.950106
_cell_length_c 19.802228
_cell_angle_alpha 90.000000
_cell_angle_beta 72.161227
_cell_angle_gamma 90.000000
_cell_volume 3647.764134
_symmetry_space_group_name_H-M "C 2/C"
_symmetry_group_IT_number 15
_symmetry_cell_setting 'monoclinic'
loop_
_space_group_symop_operation_xyz
x,y,z
-x,y,1/2-z
-x,-y,-z
x,-y,1/2+z
1/2+x,1/2+y,z
1/2-x,1/2+y,1/2-z
1/2-x,1/2-y,-z
1/2+x,1/2-y,1/2+z
loop_
_atom_site_type_symbol
_atom_site_label
_atom_site_fract_x
_atom_site_fract_y
_atom_site_fract_z
Si Si1 0.284356 0.133584 0.332285
Si Si2 0.712763 0.147820 0.581334
Si Si3 0.633351 0.883592 0.832290
Si Si4 0.048677 0.512823 0.667352
Si Si5 0.801038 0.157196 0.416861
Si Si6 0.544083 0.602182 0.918670
Si Si7 0.467907 0.407195 0.583139
Si Si8 0.533976 0.262816 0.167351
O O1 0.297695 0.124997 0.249997
O O2 0.150470 0.137391 0.374934
O O3 0.339978 0.219152 0.351733
O O4 0.345885 0.052805 0.352768
O O5 0.596753 0.096093 0.622000
O O6 0.743979 0.129622 0.498089
O O7 0.688537 0.244602 0.596714
O O8 0.820051 0.124993 0.609908
O O9 0.724583 0.887406 0.874943
O O10 0.551338 0.802812 0.852773
O O11 0.558281 0.969159 0.851736
O O12 0.000000 0.536709 0.750000
O O13 0.931603 0.125003 0.386787
O O14 0.535210 0.505400 0.903302
O O15 0.468746 0.653913 0.878001
O O16 0.492065 0.620394 0.001913
O O17 0.500000 0.286701 0.250000
#
# Coordination Sequence:
#
# PCOD8134553 Si02
#       8
#     8   8   8   8   8   8   8   8
#     4   9  18  35  57  79 107 140 179 223 265 313
#     4  10  19  36  58  77 106 148 181 212 262 326
#     4   9  18  35  57  79 107 140 179 223 265 313
#     4   9  18  35  58  80 101 141 186 217 262 321
#     4  10  21  35  54  81 110 142 178 217 271 319
#     4  10  19  36  58  77 106 148 181 212 262 326
#     4  10  21  35  54  81 110 142 178 217 271 319
#     4   9  18  35  58  80 101 141 186 217 262 321
#
# _framework density 17.544993000000002
#
# number of rings (size 3 to 8) (size 9 to 14) (size 15 to 20)
#    0.000    2.500    2.500    1.500    0.000    1.500 
#    4.500    1.250    0.000    0.000    0.000    0.000 
#    0.000    0.000    0.000    0.000    0.000    0.000 
#
# Total GULP energy -396723.996511 kJ/mol
# GULP energy per Si atom -12397.624891 kJ/mol
# Density = 1.750506 g / cm^3
# Si number density = 17.544993 Si / 1000 Ang^3
#
#
#
# Elastic Constant Matrix: (Units=GPa)
#
#
# Indices 1 2 3 4 5 6 
#
# 1 154.8878 61.4365 65.5433 0.0000 2.6956 0.0000
# 2 61.4365 82.5241 50.0086 0.0000 -0.1536 0.0000
# 3 65.5433 50.0086 63.9247 0.0000 -5.3246 0.0000
# 4 0.0000 0.0000 0.0000 -18.7091 0.0000 -1.4967
# 5 2.6956 -0.1536 -5.3246 0.0000 85.9133 0.0000
# 6 0.0000 0.0000 0.0000 -1.4967 0.0000 29.1982
#
#
#
# Elastic Compliance Matrix: (Units=1/GPa)
#
#
# Indices 1 2 3 4 5 6 
#
# 1 0.011807 -0.002672 -0.010099 0.000000 -0.001001 0.000000
# 2 -0.002672 0.023745 -0.015908 0.000000 -0.000860 0.000000
# 3 -0.010099 -0.015908 0.038667 0.000000 0.002685 0.000000
# 4 0.000000 0.000000 0.000000 -0.053232 0.000000 -0.002729
# 5 -0.001001 -0.000860 0.002685 0.000000 0.011836 0.000000
# 6 0.000000 0.000000 0.000000 -0.002729 0.000000 0.034109
#
#
# Mechanical properties :
#
#
# Convention : Reuss Voigt Hill
#
# Bulk Modulus (GPa) = 59.30878 72.81261 66.06070
# Shear Modulus (GPa) = 38.48758 27.57035 33.02897
#
# Velocity S-wave (km/s) = 4.68872 3.96840 4.34352
# Velocity P-wave (km/s) = 7.94917 7.91127 7.93025
#
# Compressibility (1/GPa) = 0.01686091
#
# Stress axis : x y z
#
# Youngs Moduli (GPa) = 84.69404 42.11339 25.86172
#
# Poissons Ratio (x) = 0.11252 0.26119
# Poissons Ratio (y) = 0.22629 0.41141
# Poissons Ratio (z) = 0.85535 0.66995
#
# Static dielectric constant tensor:
#      x y z
#    x 3.114440 0.000000 -0.000180 
#    y 0.000000 3.203440 0.000000 
#    z -0.000180 0.000000 3.105530 
# 
# 
# High freq. dielectric constant tensor:
#      x y z
#    x 1.679310 0.000000 -0.000400 
#    y 0.000000 1.675140 0.000000 
#    z -0.000400 0.000000 1.666350 
# 
# From -- ./inp_files/238728.got.cif
#   From: 2010.06.25/outbox.cif.g09.slc.cpg/sg15_120_cif.got.tgz:238728.got - 2010.06.28 07:06:18.
