data_PCOD8134452
_publ_section_title
;
Structure prediction by ZEFSAII (Michael W. Deem and Ramdas Pophale) SiO2 
 PCOD8134452
Probable space group: C 2/C
;
_chemical_formula_sum "Si O2"
_cell_formula_units_Z 56
_cell_length_a 11.336153
_cell_length_b 19.212425
_cell_length_c 14.546094
_cell_angle_alpha 90.000000
_cell_angle_beta 124.780812
_cell_angle_gamma 90.000000
_cell_volume 2602.060570
_symmetry_space_group_name_H-M "C 2/C"
_symmetry_group_IT_number 15
_symmetry_cell_setting 'monoclinic'
loop_
_space_group_symop_operation_xyz
x,y,z
-x,y,1/2-z
-x,-y,-z
x,-y,1/2+z
1/2+x,1/2+y,z
1/2-x,1/2+y,1/2-z
1/2-x,1/2-y,-z
1/2+x,1/2-y,1/2+z
loop_
_atom_site_type_symbol
_atom_site_label
_atom_site_fract_x
_atom_site_fract_y
_atom_site_fract_z
Si Si1 0.853742 0.466145 0.903147
Si Si2 0.025764 0.696264 0.863450
Si Si3 0.880693 0.351094 0.769957
Si Si4 0.934855 0.827934 0.933273
Si Si5 0.776328 0.897311 0.483967
Si Si6 0.699939 0.085828 0.751539
Si Si7 0.055599 0.807761 0.176201
O O1 0.894227 0.396423 0.867162
O O2 0.769633 0.519582 0.798934
O O3 0.749289 0.448237 0.941420
O O4 0.000000 0.500000 0.000000
O O5 0.961181 0.750099 0.907259
O O6 0.955934 0.618659 0.838761
O O7 0.000000 0.727911 0.750000
O O8 0.193183 0.677393 0.956667
O O9 0.720770 0.358011 0.658702
O O10 0.910158 0.273037 0.812798
O O11 0.000000 0.376921 0.750000
O O12 0.054377 0.879992 0.944920
O O13 0.939537 0.825056 0.046070
O O14 0.721958 0.936990 0.367506
O O15 0.801178 0.150940 0.778764
O O16 0.000000 0.831764 0.250000
#
# Coordination Sequence:
#
# PCOD8134452 Si02
#       7
#     8   8   8   8   8   8   8
#     4  12  26  42  71  99 139 185 228 281 340 421
#     4  10  19  35  69 100 138 174 218 285 338 400
#     4  11  27  44  70 104 140 183 234 282 343 414
#     4  11  23  43  69 101 142 171 232 293 335 406
#     4  10  23  41  68 103 134 182 226 283 346 397
#     4  10  22  44  66 100 139 175 231 282 338 415
#     4  10  23  45  69 100 137 184 228 281 351 406
#
# _framework density 21.521405000000001
#
# number of rings (size 3 to 8) (size 9 to 14) (size 15 to 20)
#    0.000    1.429    2.857    1.286    4.000    3.429 
#    2.571    1.429    0.000    0.000    0.000    0.000 
#    0.000    0.000    0.000    0.000    0.000    0.000 
#
# Total GULP energy -347234.241881 kJ/mol
# GULP energy per Si atom -12401.222924 kJ/mol
# Density = 2.147242 g / cm^3
# Si number density = 21.521405 Si / 1000 Ang^3
#
#
#
# Elastic Constant Matrix: (Units=GPa)
#
#
# Indices 1 2 3 4 5 6 
#
# 1 127.8498 31.9516 76.9764 0.0000 -9.1900 0.0000
# 2 31.9516 57.5057 39.3852 0.0000 -20.0752 0.0000
# 3 76.9764 39.3852 116.1919 0.0000 -16.4425 0.0000
# 4 0.0000 0.0000 0.0000 31.5951 0.0000 -7.7273
# 5 -9.1900 -20.0752 -16.4425 0.0000 51.4149 0.0000
# 6 0.0000 0.0000 0.0000 -7.7273 0.0000 23.5857
#
#
#
# Elastic Compliance Matrix: (Units=1/GPa)
#
#
# Indices 1 2 3 4 5 6 
#
# 1 0.013196 -0.002106 -0.008181 0.000000 -0.001080 0.000000
# 2 -0.002106 0.025417 -0.006147 0.000000 0.007582 0.000000
# 3 -0.008181 -0.006147 0.016302 0.000000 0.001351 0.000000
# 4 0.000000 0.000000 0.000000 0.034408 0.000000 0.011273
# 5 -0.001080 0.007582 0.001351 0.000000 0.022649 0.000000
# 6 0.000000 0.000000 0.000000 0.011273 0.000000 0.046092
#
#
# Mechanical properties :
#
#
# Convention : Reuss Voigt Hill
#
# Bulk Modulus (GPa) = 45.36147 66.46375 55.91261
# Shear Modulus (GPa) = 25.21677 31.53472 28.37575
#
# Velocity S-wave (km/s) = 3.42673 3.83204 3.63504
# Velocity P-wave (km/s) = 6.06463 7.10838 6.60715
#
# Compressibility (1/GPa) = 0.02204514
#
# Stress axis : x y z
#
# Youngs Moduli (GPa) = 75.77905 39.34410 61.34386
#
# Poissons Ratio (x) = 0.08285 0.50188
# Poissons Ratio (y) = 0.15957 0.37711
# Poissons Ratio (z) = 0.61999 0.24187
#
# Static dielectric constant tensor:
#      x y z
#    x 4.056910 0.000000 -0.236080 
#    y 0.000000 3.675550 0.000000 
#    z -0.236080 0.000000 4.135140 
# 
# 
# High freq. dielectric constant tensor:
#      x y z
#    x 1.847050 0.000000 -0.006790 
#    y 0.000000 1.830600 0.000000 
#    z -0.006790 0.000000 1.856220 
# 
# From -- ./inp_files/88870.got.cif
#   From: 2010.06.25/outbox.cif.g09.slc.cpg/sg15_45_cif.got.tgz:88870.got - 2010.06.28 07:06:18.
