data_PCOD8134321
_publ_section_title
;
Structure prediction by ZEFSAII (Michael W. Deem and Ramdas Pophale) SiO2 
 PCOD8134321
Probable space group: C 2/C
;
_chemical_formula_sum "Si O2"
_cell_formula_units_Z 60
_cell_length_a 16.828953
_cell_length_b 8.691484
_cell_length_c 23.004152
_cell_angle_alpha 90.000000
_cell_angle_beta 65.090759
_cell_angle_gamma 90.000000
_cell_volume 3051.779152
_symmetry_space_group_name_H-M "C 2/C"
_symmetry_group_IT_number 15
_symmetry_cell_setting 'monoclinic'
loop_
_space_group_symop_operation_xyz
x,y,z
-x,y,1/2-z
-x,-y,-z
x,-y,1/2+z
1/2+x,1/2+y,z
1/2-x,1/2+y,1/2-z
1/2-x,1/2-y,-z
1/2+x,1/2-y,1/2+z
loop_
_atom_site_type_symbol
_atom_site_label
_atom_site_fract_x
_atom_site_fract_y
_atom_site_fract_z
Si Si1 0.226683 0.524803 0.403909
Si Si2 0.074575 0.938819 0.396530
Si Si3 0.082925 0.931169 0.614325
Si Si4 0.401944 0.209410 0.594569
Si Si5 0.413143 0.237068 0.996633
Si Si6 0.500000 0.268827 0.750000
Si Si7 0.363100 0.095052 0.724659
Si Si8 0.198910 0.291084 0.796410
O O1 0.323949 0.496537 0.397633
O O2 0.184654 0.355939 0.409920
O O3 0.163447 0.616968 0.467064
O O4 0.233852 0.615956 0.341377
O O5 0.085812 0.877386 0.458176
O O6 0.125920 0.832806 0.335581
O O7 0.112158 0.111579 0.386653
O O8 0.974601 0.943290 0.403465
O O9 0.102640 0.791189 0.564499
O O10 0.027303 0.875540 0.687375
O O11 0.487984 0.170085 0.529668
O O12 0.418988 0.115892 0.648880
O O13 0.418545 0.155859 0.761997
O O14 0.276829 0.198488 0.742851
O O15 0.339228 0.914024 0.738659
#
# Coordination Sequence:
#
# PCOD8134321 Si02
#       8
#     8   8   8   8   8   4   8   8
#     4  10  21  35  59  90 115 151 206 244 294 348
#     4  10  21  40  61  85 121 160 201 242 299 358
#     4  11  21  37  61  89 120 161 194 249 303 347
#     4  10  19  35  60  87 113 158 198 245 290 351
#     4  10  20  38  60  84 122 163 203 242 297 359
#     4  12  22  38  60  88 120 150 200 246 296 354
#     4  11  21  38  61  85 119 150 197 242 294 360
#     4  10  22  38  60  87 113 155 197 238 294 362
#
# _framework density 19.660661000000001
#
# number of rings (size 3 to 8) (size 9 to 14) (size 15 to 20)
#    0.000    1.600    4.000    3.200    0.000    0.000 
#    0.000    7.333    0.000    0.000    0.000    0.000 
#    0.000    0.000    0.000    0.000    0.000    0.000 
#
# Total GULP energy -371877.307121 kJ/mol
# GULP energy per Si atom -12395.910237 kJ/mol
# Density = 1.961591 g / cm^3
# Si number density = 19.660661 Si / 1000 Ang^3
#
#
#
# Elastic Constant Matrix: (Units=GPa)
#
#
# Indices 1 2 3 4 5 6 
#
# 1 128.0700 47.9319 14.6902 0.0000 -12.5151 0.0001
# 2 47.9319 92.4949 13.9890 -0.0001 -14.4600 0.0002
# 3 14.6902 13.9890 66.4261 0.0000 -5.6075 0.0000
# 4 0.0000 -0.0001 0.0000 26.0091 0.0000 -5.6275
# 5 -12.5151 -14.4600 -5.6075 0.0000 27.8710 0.0000
# 6 0.0001 0.0002 0.0000 -5.6275 0.0000 30.7059
#
#
#
# Elastic Compliance Matrix: (Units=1/GPa)
#
#
# Indices 1 2 3 4 5 6 
#
# 1 0.009849 -0.004666 -0.001044 0.000000 0.001792 0.000000
# 2 -0.004666 0.014242 -0.001547 0.000000 0.004983 0.000000
# 3 -0.001044 -0.001547 0.015772 0.000000 0.001902 0.000000
# 4 0.000000 0.000000 0.000000 0.040036 0.000000 0.007337
# 5 0.001792 0.004983 0.001902 0.000000 0.039652 0.000000
# 6 0.000000 0.000000 0.000000 0.007337 0.000000 0.033912
#
#
# Mechanical properties :
#
#
# Convention : Reuss Voigt Hill
#
# Bulk Modulus (GPa) = 39.44932 48.91259 44.18096
# Shear Modulus (GPa) = 28.34039 30.94253 29.64146
#
# Velocity S-wave (km/s) = 3.80080 3.97146 3.88706
# Velocity P-wave (km/s) = 6.27456 6.77955 6.53194
#
# Compressibility (1/GPa) = 0.02534898
#
# Stress axis : x y z
#
# Youngs Moduli (GPa) = 101.52868 70.21334 63.40528
#
# Poissons Ratio (x) = 0.32762 0.06621
# Poissons Ratio (y) = 0.47374 0.09808
# Poissons Ratio (z) = 0.10603 0.10861
#
# Static dielectric constant tensor:
#      x y z
#    x 3.582730 0.000000 -0.091140 
#    y 0.000000 3.515020 0.000000 
#    z -0.091140 0.000000 3.720390 
# 
# 
# High freq. dielectric constant tensor:
#      x y z
#    x 1.758300 0.000000 -0.012330 
#    y 0.000000 1.754540 0.000000 
#    z -0.012330 0.000000 1.776760 
# 
# From -- ./inp_files/273131.got.cif
#   From: 2010.06.25/outbox.cif.g09.slc.cpg/sg15_137_cif.got.tgz:273131.got - 2010.06.28 07:06:18.
