data_PCOD8134955
_publ_section_title
;
Structure prediction by ZEFSAII (Michael W. Deem and Ramdas Pophale) SiO2 
 PCOD8134955
Probable space group: C 2/C
;
_chemical_formula_sum "Si O2"
_cell_formula_units_Z 52
_cell_length_a 11.573238
_cell_length_b 26.788543
_cell_length_c 18.873669
_cell_angle_alpha 90.000000
_cell_angle_beta 27.013733
_cell_angle_gamma 90.000000
_cell_volume 2657.732781
_symmetry_space_group_name_H-M "C 2/C"
_symmetry_group_IT_number 15
_symmetry_cell_setting 'monoclinic'
loop_
_space_group_symop_operation_xyz
x,y,z
-x,y,1/2-z
-x,-y,-z
x,-y,1/2+z
1/2+x,1/2+y,z
1/2-x,1/2+y,1/2-z
1/2-x,1/2-y,-z
1/2+x,1/2-y,1/2+z
loop_
_atom_site_type_symbol
_atom_site_label
_atom_site_fract_x
_atom_site_fract_y
_atom_site_fract_z
Si Si1 0.727048 0.054281 0.181343
Si Si2 0.323905 0.842403 0.744178
Si Si3 0.219423 0.443438 0.188474
Si Si4 0.849554 0.343663 0.200602
Si Si5 0.500000 0.783883 0.250000
Si Si6 0.159018 0.197426 0.473074
Si Si7 0.427031 0.790284 0.551676
O O1 0.500000 0.060519 0.250000
O O2 0.678023 0.097654 0.265900
O O3 0.711232 0.999529 0.225735
O O4 0.001276 0.064258 0.996505
O O5 0.589397 0.820364 0.626275
O O6 0.121348 0.828179 0.915830
O O7 0.262477 0.818338 0.701942
O O8 0.168375 0.403485 0.278657
O O9 0.000000 0.437487 0.250000
O O10 0.013721 0.318963 0.173567
O O11 0.571971 0.319214 0.351226
O O12 0.972692 0.331854 0.057395
O O13 0.251684 0.749507 0.389372
O O14 0.154917 0.257755 0.463616
#
# Coordination Sequence:
#
# PCOD8134955 Si02
#       7
#     8   8   8   8   4   8   8
#     4  10  19  37  58  84 107 143 186 232 280 329
#     4  11  20  37  57  80 113 147 181 226 280 331
#     4  10  20  34  61  84 105 140 193 235 270 328
#     4  11  20  37  56  82 110 144 188 233 272 320
#     4  10  22  38  52  74 114 156 188 218 266 338
#     4  10  20  36  56  77 111 151 190 214 268 336
#     4  11  24  34  53  82 115 148 181 230 279 327
#
# _framework density 19.565549000000001
#
# number of rings (size 3 to 8) (size 9 to 14) (size 15 to 20)
#    0.000    1.538    3.846    2.769    0.000    4.308 
#    0.000    0.769    0.000    0.000    0.000    6.462 
#    0.000    0.000    0.000    0.000    0.000    0.000 
#
# Total GULP energy -322256.052945 kJ/mol
# GULP energy per Si atom -12394.463575 kJ/mol
# Density = 1.952102 g / cm^3
# Si number density = 19.565549 Si / 1000 Ang^3
#
#
#
# Elastic Constant Matrix: (Units=GPa)
#
#
# Indices 1 2 3 4 5 6 
#
# 1 35.7143 25.2438 23.3045 0.4192 -4.6177 -0.2145
# 2 25.2438 168.6870 26.7076 0.1776 9.7512 -0.0965
# 3 23.3045 26.7076 66.7079 0.5849 0.4862 -0.2619
# 4 0.4192 0.1776 0.5849 8.4533 -0.2421 4.6181
# 5 -4.6177 9.7512 0.4862 -0.2421 36.4930 0.1023
# 6 -0.2145 -0.0965 -0.2619 4.6181 0.1023 13.9461
#
#
#
# Elastic Compliance Matrix: (Units=1/GPa)
#
#
# Indices 1 2 3 4 5 6 
#
# 1 0.039933 -0.004409 -0.012218 -0.001254 0.006384 0.000723
# 2 -0.004409 0.006918 -0.001213 0.000125 -0.002389 -0.000067
# 3 -0.012218 -0.001213 0.019768 -0.001075 -0.001494 0.000542
# 4 -0.001254 0.000125 -0.001075 0.144650 0.000916 -0.047945
# 5 0.006384 -0.002389 -0.001494 0.000916 0.028876 -0.000462
# 6 0.000723 -0.000067 0.000542 -0.047945 -0.000462 0.087605
#
#
# Mechanical properties :
#
#
# Convention : Reuss Voigt Hill
#
# Bulk Modulus (GPa) = 32.32301 46.84677 39.58489
# Shear Modulus (GPa) = 13.37815 24.83536 19.10676
#
# Velocity S-wave (km/s) = 2.61772 3.56665 3.12837
# Velocity P-wave (km/s) = 5.06881 6.39975 5.77276
#
# Compressibility (1/GPa) = 0.03093771
#
# Stress axis : x y z
#
# Youngs Moduli (GPa) = 25.04165 144.55099 50.58801
#
# Poissons Ratio (x) = 0.63729 0.61810
# Poissons Ratio (y) = 0.11040 0.06139
# Poissons Ratio (z) = 0.30597 0.17541
#
# Static dielectric constant tensor:
#      x y z
#    x 3.421500 -0.000210 -0.155250 
#    y -0.000210 3.985460 0.000750 
#    z -0.155250 0.000750 3.526600 
# 
# 
# High freq. dielectric constant tensor:
#      x y z
#    x 1.737820 -0.000010 -0.025130 
#    y -0.000010 1.776200 0.000040 
#    z -0.025130 0.000040 1.751720 
# 
# From -- ./inp_files/33494.got.cif
#   From: 2010.06.25/outbox.cif.g09.slc.cpg/sg15_17_cif.got.tgz:33494.got - 2010.06.28 07:06:18.
