data_PCOD8134682
_publ_section_title
;
Structure prediction by ZEFSAII (Michael W. Deem and Ramdas Pophale) SiO2 
 PCOD8134682
Probable space group: C 2/C
;
_chemical_formula_sum "Si O2"
_cell_formula_units_Z 40
_cell_length_a 8.656377
_cell_length_b 23.332844
_cell_length_c 13.615877
_cell_angle_alpha 90.000000
_cell_angle_beta 136.428056
_cell_angle_gamma 90.000000
_cell_volume 1895.551529
_symmetry_space_group_name_H-M "C 2/C"
_symmetry_group_IT_number 15
_symmetry_cell_setting 'monoclinic'
loop_
_space_group_symop_operation_xyz
x,y,z
-x,y,1/2-z
-x,-y,-z
x,-y,1/2+z
1/2+x,1/2+y,z
1/2-x,1/2+y,1/2-z
1/2-x,1/2-y,-z
1/2+x,1/2-y,1/2+z
loop_
_atom_site_type_symbol
_atom_site_label
_atom_site_fract_x
_atom_site_fract_y
_atom_site_fract_z
Si Si1 0.202791 0.011215 0.274197
Si Si2 0.531984 0.309205 0.607793
Si Si3 0.382711 0.915485 0.471686
Si Si4 0.874169 0.698426 0.436844
Si Si5 0.259635 0.581936 0.386825
O O1 0.384363 0.055980 0.395248
O O2 0.169817 0.024758 0.142856
O O3 0.000000 0.028357 0.250000
O O4 0.278278 0.945193 0.326160
O O5 0.301004 0.318829 0.559491
O O6 0.742205 0.294957 0.774201
O O7 0.500184 0.257599 0.516855
O O8 0.579167 0.366643 0.569794
O O9 0.427023 0.848490 0.475847
O O10 0.207764 0.928291 0.481233
O O11 0.000000 0.598954 0.250000
#
# Coordination Sequence:
#
# PCOD8134682 Si02
#       5
#     8   8   8   8   8
#     4  10  20  37  60  81 115 160 192 244 295 352
#     4  10  20  37  63  86 116 160 193 239 293 363
#     4  10  21  37  59  86 118 152 199 247 291 357
#     4  10  20  38  62  86 118 154 200 238 296 352
#     4  10  19  36  60  86 113 153 196 233 302 349
#
# _framework density 21.102036999999999
#
# number of rings (size 3 to 8) (size 9 to 14) (size 15 to 20)
#    0.000    2.000    4.000    1.200    0.000    1.600 
#    3.600    4.000   26.400    0.000    0.000    0.000 
#    0.000    0.000    0.000    0.000    0.000    0.000 
#
# Total GULP energy -247938.614423 kJ/mol
# GULP energy per Si atom -12396.930721 kJ/mol
# Density = 2.105401 g / cm^3
# Si number density = 21.102037 Si / 1000 Ang^3
#
#
#
# Elastic Constant Matrix: (Units=GPa)
#
#
# Indices 1 2 3 4 5 6 
#
# 1 102.2895 43.5917 37.9493 0.0000 -11.8755 0.0000
# 2 43.5917 103.3907 63.1756 0.0000 -24.1662 0.0000
# 3 37.9493 63.1756 57.4534 0.0000 -15.0426 0.0000
# 4 0.0000 0.0000 0.0000 21.2890 0.0000 -4.2449
# 5 -11.8755 -24.1662 -15.0426 0.0000 21.3818 0.0000
# 6 0.0000 0.0000 0.0000 -4.2449 0.0000 32.2754
#
#
#
# Elastic Compliance Matrix: (Units=1/GPa)
#
#
# Indices 1 2 3 4 5 6 
#
# 1 0.012991 -0.000431 -0.007778 0.000000 0.001256 0.000000
# 2 -0.000431 0.032705 -0.031947 0.000000 0.014249 0.000000
# 3 -0.007778 -0.031947 0.057719 0.000000 0.000179 0.000000
# 4 0.000000 0.000000 0.000000 0.048238 0.000000 0.006344
# 5 0.001256 0.014249 0.000179 0.000000 0.063697 0.000000
# 6 0.000000 0.000000 0.000000 0.006344 0.000000 0.031818
#
#
# Mechanical properties :
#
#
# Convention : Reuss Voigt Hill
#
# Bulk Modulus (GPa) = 43.28477 61.39633 52.34055
# Shear Modulus (GPa) = 14.91723 22.88369 18.90046
#
# Velocity S-wave (km/s) = 2.66166 3.29664 2.99602
# Velocity P-wave (km/s) = 5.47746 6.60671 6.06841
#
# Compressibility (1/GPa) = 0.02310282
#
# Stress axis : x y z
#
# Youngs Moduli (GPa) = 76.97377 30.57610 17.32528
#
# Poissons Ratio (x) = 0.01318 0.13476
# Poissons Ratio (y) = 0.03318 0.55349
# Poissons Ratio (z) = 0.59873 0.97682
#
# Static dielectric constant tensor:
#      x y z
#    x 4.088690 0.000000 -0.196830 
#    y 0.000000 3.798390 0.000000 
#    z -0.196830 0.000000 3.814880 
# 
# 
# High freq. dielectric constant tensor:
#      x y z
#    x 1.834600 0.000000 -0.000810 
#    y 0.000000 1.820760 0.000000 
#    z -0.000810 0.000000 1.809870 
# 
# From -- ./inp_files/23603.got.cif
#   From: 2010.06.25/outbox.cif.g09.slc.cpg/sg15_12_cif.got.tgz:23603.got - 2010.06.28 07:06:18.
