data_PCOD8134559
_publ_section_title
;
Structure prediction by ZEFSAII (Michael W. Deem and Ramdas Pophale) SiO2 
 PCOD8134559
Probable space group: C 2/C
;
_chemical_formula_sum "Si O2"
_cell_formula_units_Z 48
_cell_length_a 33.066476
_cell_length_b 9.067589
_cell_length_c 8.962933
_cell_angle_alpha 90.000000
_cell_angle_beta 104.894837
_cell_angle_gamma 90.000000
_cell_volume 2597.086846
_symmetry_space_group_name_H-M "C 2/C"
_symmetry_group_IT_number 15
_symmetry_cell_setting 'monoclinic'
loop_
_space_group_symop_operation_xyz
x,y,z
-x,y,1/2-z
-x,-y,-z
x,-y,1/2+z
1/2+x,1/2+y,z
1/2-x,1/2+y,1/2-z
1/2-x,1/2-y,-z
1/2+x,1/2-y,1/2+z
loop_
_atom_site_type_symbol
_atom_site_label
_atom_site_fract_x
_atom_site_fract_y
_atom_site_fract_z
Si Si1 0.615595 0.335763 0.223119
Si Si2 0.626216 0.644504 0.382868
Si Si3 0.548916 0.149372 0.301284
Si Si4 0.670775 0.931583 0.749500
Si Si5 0.793644 0.671342 0.515148
Si Si6 0.088289 0.391203 0.157187
O O1 0.628529 0.482244 0.319885
O O2 0.569959 0.285840 0.234706
O O3 0.649530 0.211882 0.305083
O O4 0.613432 0.357567 0.043638
O O5 0.671943 0.711149 0.403805
O O6 0.593737 0.742872 0.258614
O O7 0.500000 0.176984 0.250000
O O8 0.563824 0.148086 0.485372
O O9 0.560223 0.997006 0.231959
O O10 0.701431 0.875485 0.650468
O O11 0.701010 0.019737 0.888611
O O12 0.632624 0.033967 0.653913
O O13 0.750000 0.750000 0.500000
#
# Coordination Sequence:
#
# PCOD8134559 Si02
#       6
#     8   8   8   8   8   8
#     4  10  20  37  56  79 109 147 185 221 271 335
#     4  10  21  37  58  81 108 147 186 221 272 334
#     4  11  21  35  56  84 110 141 183 231 274 319
#     4   9  19  37  57  77 107 146 180 215 268 331
#     4  10  21  36  56  84 111 139 182 230 270 315
#     4  10  19  36  58  79 108 144 183 222 270 334
#
# _framework density 18.482247000000001
#
# number of rings (size 3 to 8) (size 9 to 14) (size 15 to 20)
#    0.000    2.000    0.000    6.500    0.000    4.000 
#    0.000    5.833    0.000    0.000    0.000    0.000 
#    0.000    0.000    0.000    0.000    0.000    0.000 
#
# Total GULP energy -297617.999429 kJ/mol
# GULP energy per Si atom -12400.749976 kJ/mol
# Density = 1.844018 g / cm^3
# Si number density = 18.482247 Si / 1000 Ang^3
#
#
#
# Elastic Constant Matrix: (Units=GPa)
#
#
# Indices 1 2 3 4 5 6 
#
# 1 116.5009 54.5672 56.8426 0.0000 -14.1637 0.0000
# 2 54.5672 147.9168 64.9613 0.0000 -4.5196 0.0000
# 3 56.8426 64.9613 115.0471 0.0000 -3.2625 0.0000
# 4 0.0000 0.0000 0.0000 42.2052 0.0000 2.9199
# 5 -14.1637 -4.5196 -3.2625 0.0000 18.3123 0.0000
# 6 0.0000 0.0000 0.0000 2.9199 0.0000 25.6333
#
#
#
# Elastic Compliance Matrix: (Units=1/GPa)
#
#
# Indices 1 2 3 4 5 6 
#
# 1 0.013170 -0.002451 -0.004876 0.000000 0.008713 0.000000
# 2 -0.002451 0.009478 -0.004149 0.000000 -0.000296 0.000000
# 3 -0.004876 -0.004149 0.013376 0.000000 -0.002412 0.000000
# 4 0.000000 0.000000 0.000000 0.023882 0.000000 -0.002720
# 5 0.008713 -0.000296 -0.002412 0.000000 0.060844 0.000000
# 6 0.000000 0.000000 0.000000 -0.002720 0.000000 0.039322
#
#
# Mechanical properties :
#
#
# Convention : Reuss Voigt Hill
#
# Bulk Modulus (GPa) = 76.50304 81.35631 78.92967
# Shear Modulus (GPa) = 26.68366 30.76973 28.72669
#
# Velocity S-wave (km/s) = 3.80379 4.08465 3.94672
# Velocity P-wave (km/s) = 7.79579 8.14617 7.97290
#
# Compressibility (1/GPa) = 0.01307138
#
# Stress axis : x y z
#
# Youngs Moduli (GPa) = 75.93071 105.50945 74.76255
#
# Poissons Ratio (x) = 0.25858 0.36455
# Poissons Ratio (y) = 0.18609 0.31020
# Poissons Ratio (z) = 0.37025 0.43777
#
# Static dielectric constant tensor:
#      x y z
#    x 3.260050 0.000000 -0.124730 
#    y 0.000000 3.471720 0.000000 
#    z -0.124730 0.000000 3.459480 
# 
# 
# High freq. dielectric constant tensor:
#      x y z
#    x 1.703050 0.000000 -0.011640 
#    y 0.000000 1.724870 0.000000 
#    z -0.011640 0.000000 1.725890 
# 
# From -- ./inp_files/68542.got.cif
#   From: 2010.06.25/outbox.cif.g09.slc.cpg/sg15_35_cif.got.tgz:68542.got - 2010.06.28 07:06:18.
