data_PCOD8134592
_publ_section_title
;
Structure prediction by ZEFSAII (Michael W. Deem and Ramdas Pophale) SiO2 
 PCOD8134592
Probable space group: C 2/C
;
_chemical_formula_sum "Si O2"
_cell_formula_units_Z 48
_cell_length_a 9.926043
_cell_length_b 16.045595
_cell_length_c 15.918187
_cell_angle_alpha 90.000000
_cell_angle_beta 82.126605
_cell_angle_gamma 90.000000
_cell_volume 2511.378345
_symmetry_space_group_name_H-M "C 2/C"
_symmetry_group_IT_number 15
_symmetry_cell_setting 'monoclinic'
loop_
_space_group_symop_operation_xyz
x,y,z
-x,y,1/2-z
-x,-y,-z
x,-y,1/2+z
1/2+x,1/2+y,z
1/2-x,1/2+y,1/2-z
1/2-x,1/2-y,-z
1/2+x,1/2-y,1/2+z
loop_
_atom_site_type_symbol
_atom_site_label
_atom_site_fract_x
_atom_site_fract_y
_atom_site_fract_z
Si Si1 0.342566 0.306082 0.607165
Si Si2 0.071297 0.261694 0.568518
Si Si3 0.054544 0.081937 0.151766
Si Si4 0.885484 0.898664 0.328132
Si Si5 0.150066 0.676153 0.751395
Si Si6 0.764738 0.724269 0.095024
O O1 0.183571 0.323893 0.600070
O O2 0.407168 0.243038 0.533258
O O3 0.428192 0.391977 0.602327
O O4 0.360160 0.262047 0.695586
O O5 0.100306 0.169306 0.600733
O O6 0.922263 0.295189 0.603056
O O7 0.181624 0.141579 0.123345
O O8 0.000000 0.088016 0.250000
O O9 0.101726 0.988146 0.128275
O O10 0.740313 0.891589 0.293206
O O11 0.000000 0.881891 0.250000
O O12 0.215827 0.698177 0.655720
O O13 0.000000 0.638103 0.750000
O O14 0.750000 0.750000 0.000000
#
# Coordination Sequence:
#
# PCOD8134592 Si02
#       6
#     8   8   8   8   8   8
#     4  10  19  36  58  85 112 150 187 238 283 338
#     4  10  21  35  59  88 111 146 199 234 275 346
#     4  11  21  38  56  86 118 152 185 236 292 339
#     4  10  22  36  57  84 118 151 192 234 289 343
#     4  11  19  37  60  83 112 158 189 237 289 346
#     4  12  20  35  61  88 109 149 199 240 276 344
#
# _framework density 19.113009999999999
#
# number of rings (size 3 to 8) (size 9 to 14) (size 15 to 20)
#    0.000    1.333    6.667    0.000    0.000    0.667 
#    0.000    3.333    0.000   10.000    0.000    0.000 
#    0.000    0.000    0.000    0.000    0.000    0.000 
#
# Total GULP energy -297573.657121 kJ/mol
# GULP energy per Si atom -12398.902380 kJ/mol
# Density = 1.906951 g / cm^3
# Si number density = 19.113010 Si / 1000 Ang^3
#
#
#
# Elastic Constant Matrix: (Units=GPa)
#
#
# Indices 1 2 3 4 5 6 
#
# 1 190.1330 53.1451 30.7485 0.0000 -1.0583 0.0000
# 2 53.1451 91.6959 22.6396 0.0000 6.9754 0.0000
# 3 30.7485 22.6396 79.9100 0.0000 1.3854 0.0000
# 4 0.0000 0.0000 0.0000 14.7049 0.0000 2.8124
# 5 -1.0583 6.9754 1.3854 0.0000 31.4937 0.0000
# 6 0.0000 0.0000 0.0000 2.8124 0.0000 26.9588
#
#
#
# Elastic Compliance Matrix: (Units=1/GPa)
#
#
# Indices 1 2 3 4 5 6 
#
# 1 0.006479 -0.003457 -0.001532 0.000000 0.001051 0.000000
# 2 -0.003457 0.013763 -0.002516 0.000000 -0.003054 0.000000
# 3 -0.001532 -0.002516 0.013818 0.000000 -0.000102 0.000000
# 4 0.000000 0.000000 0.000000 0.069389 0.000000 -0.007239
# 5 0.001051 -0.003054 -0.000102 0.000000 0.032469 0.000000
# 6 0.000000 0.000000 0.000000 -0.007239 0.000000 0.037849
#
#
# Mechanical properties :
#
#
# Convention : Reuss Voigt Hill
#
# Bulk Modulus (GPa) = 52.49276 63.86727 58.18002
# Shear Modulus (GPa) = 25.62435 31.64519 28.63477
#
# Velocity S-wave (km/s) = 3.66550 4.07343 3.87483
# Velocity P-wave (km/s) = 6.74081 7.45734 7.10811
#
# Compressibility (1/GPa) = 0.01905025
#
# Stress axis : x y z
#
# Youngs Moduli (GPa) = 154.33609 72.66005 72.36854
#
# Poissons Ratio (x) = 0.25119 0.11087
# Poissons Ratio (y) = 0.53354 0.18208
# Poissons Ratio (z) = 0.23644 0.18281
#
# Static dielectric constant tensor:
#      x y z
#    x 4.070460 0.000000 -0.116580 
#    y 0.000000 3.241780 0.000000 
#    z -0.116580 0.000000 3.644620 
# 
# 
# High freq. dielectric constant tensor:
#      x y z
#    x 1.764100 0.000000 0.000040 
#    y 0.000000 1.695210 0.000000 
#    z 0.000040 0.000000 1.756240 
# 
# From -- ./inp_files/189714.got.cif
#   From: 2010.06.25/outbox.cif.g09.slc.cpg/sg15_95_cif.got.tgz:189714.got - 2010.06.28 07:06:18.
