data_PCOD8134823
_publ_section_title
;
Structure prediction by ZEFSAII (Michael W. Deem and Ramdas Pophale) SiO2 
 PCOD8134823
Probable space group: C 2/C
;
_chemical_formula_sum "Si O2"
_cell_formula_units_Z 60
_cell_length_a 6.722361
_cell_length_b 27.141548
_cell_length_c 17.096292
_cell_angle_alpha 90.000000
_cell_angle_beta 67.176168
_cell_angle_gamma 90.000000
_cell_volume 2875.072811
_symmetry_space_group_name_H-M "C 2/C"
_symmetry_group_IT_number 15
_symmetry_cell_setting 'monoclinic'
loop_
_space_group_symop_operation_xyz
x,y,z
-x,y,1/2-z
-x,-y,-z
x,-y,1/2+z
1/2+x,1/2+y,z
1/2-x,1/2+y,1/2-z
1/2-x,1/2-y,-z
1/2+x,1/2-y,1/2+z
loop_
_atom_site_type_symbol
_atom_site_label
_atom_site_fract_x
_atom_site_fract_y
_atom_site_fract_z
Si Si1 0.930985 0.092211 0.507491
Si Si2 0.403058 0.752458 0.348224
Si Si3 0.205887 0.457191 0.907195
Si Si4 0.481171 0.845613 0.428373
Si Si5 0.653263 0.666404 0.367790
Si Si6 0.788212 0.564523 0.559754
Si Si7 0.444016 0.218112 0.434725
Si Si8 0.000000 0.893753 0.750000
O O1 0.109870 0.125097 0.438203
O O2 0.045233 0.067584 0.564347
O O3 0.843893 0.048790 0.465494
O O4 0.739865 0.128110 0.561519
O O5 0.500000 0.739585 0.250000
O O6 0.514352 0.802763 0.360160
O O7 0.468820 0.708577 0.397231
O O8 0.143081 0.754739 0.385878
O O9 0.195975 0.515412 0.889087
O O10 0.322002 0.427017 0.820807
O O11 0.964265 0.437382 0.961735
O O12 0.668528 0.887049 0.393818
O O13 0.478856 0.823680 0.516372
O O14 0.876173 0.692277 0.362414
O O15 0.648654 0.640285 0.283458
O O16 0.250000 0.250000 0.500000
#
# Coordination Sequence:
#
# PCOD8134823 Si02
#       8
#     8   8   8   8   8   8   8   4
#     4  10  19  36  63  91 117 156 210 262 308 364
#     4  12  26  42  56  91 140 168 206 268 327 380
#     4   9  21  39  61  90 126 154 205 265 319 386
#     4  11  22  38  63  91 124 167 221 263 301 382
#     4  11  21  38  61  92 128 163 203 259 322 389
#     4  10  20  38  65  91 115 161 220 260 306 376
#     4  12  23  40  67  91 124 174 224 256 309 383
#     4  10  22  42  60  94 136 162 190 270 348 380
#
# _framework density 20.869035
#
# number of rings (size 3 to 8) (size 9 to 14) (size 15 to 20)
#    0.000    1.333    4.667    1.600    0.000    0.533 
#    2.400    3.333    0.000    0.000    0.000    0.000 
#    0.000    0.000    0.000    0.000    0.000    0.000 
#
# Total GULP energy -371850.058542 kJ/mol
# GULP energy per Si atom -12395.001951 kJ/mol
# Density = 2.082154 g / cm^3
# Si number density = 20.869035 Si / 1000 Ang^3
#
#
#
# Elastic Constant Matrix: (Units=GPa)
#
#
# Indices 1 2 3 4 5 6 
#
# 1 116.2221 35.0502 26.5019 0.0000 3.0971 0.0000
# 2 35.0502 124.7441 21.4802 0.0000 1.1387 0.0000
# 3 26.5019 21.4802 50.1868 0.0000 -1.7005 0.0000
# 4 0.0000 0.0000 0.0000 23.0880 0.0000 3.2309
# 5 3.0971 1.1387 -1.7005 0.0000 25.6513 0.0000
# 6 0.0000 0.0000 0.0000 3.2309 0.0000 36.3116
#
#
#
# Elastic Compliance Matrix: (Units=1/GPa)
#
#
# Indices 1 2 3 4 5 6 
#
# 1 0.010325 -0.002095 -0.004605 0.000000 -0.001459 0.000000
# 2 -0.002095 0.009089 -0.002796 0.000000 -0.000336 0.000000
# 3 -0.004605 -0.002796 0.023630 0.000000 0.002247 0.000000
# 4 0.000000 0.000000 0.000000 0.043859 0.000000 -0.003902
# 5 -0.001459 -0.000336 0.002247 0.000000 0.039324 0.000000
# 6 0.000000 0.000000 0.000000 -0.003902 0.000000 0.027887
#
#
# Mechanical properties :
#
#
# Convention : Reuss Voigt Hill
#
# Bulk Modulus (GPa) = 41.57395 50.80197 46.18796
# Shear Modulus (GPa) = 27.60562 30.88490 29.24526
#
# Velocity S-wave (km/s) = 3.64098 3.85117 3.74755
# Velocity P-wave (km/s) = 6.13517 6.64616 6.39577
#
# Compressibility (1/GPa) = 0.02405353
#
# Stress axis : x y z
#
# Youngs Moduli (GPa) = 96.85301 110.01785 42.31914
#
# Poissons Ratio (x) = 0.23046 0.19488
# Poissons Ratio (y) = 0.20289 0.11830
# Poissons Ratio (z) = 0.44602 0.30756
#
# Static dielectric constant tensor:
#      x y z
#    x 3.950240 0.000000 0.143080 
#    y 0.000000 3.964240 0.000000 
#    z 0.143080 0.000000 3.283030 
# 
# 
# High freq. dielectric constant tensor:
#      x y z
#    x 1.827580 0.000000 0.005030 
#    y 0.000000 1.835550 0.000000 
#    z 0.005030 0.000000 1.762330 
# 
# From -- ./inp_files/186719.got.cif
#   From: 2010.06.25/outbox.cif.g09.slc.cpg/sg15_94_cif.got.tgz:186719.got - 2010.06.28 07:06:18.
