data_PCOD8134801
_publ_section_title
;
Structure prediction by ZEFSAII (Michael W. Deem and Ramdas Pophale) SiO2 
 PCOD8134801
Probable space group: C 2/C
;
_chemical_formula_sum "Si O2"
_cell_formula_units_Z 56
_cell_length_a 9.292208
_cell_length_b 19.615715
_cell_length_c 16.663770
_cell_angle_alpha 90.000000
_cell_angle_beta 107.644379
_cell_angle_gamma 90.000000
_cell_volume 2894.471371
_symmetry_space_group_name_H-M "C 2/C"
_symmetry_group_IT_number 15
_symmetry_cell_setting 'monoclinic'
loop_
_space_group_symop_operation_xyz
x,y,z
-x,y,1/2-z
-x,-y,-z
x,-y,1/2+z
1/2+x,1/2+y,z
1/2-x,1/2+y,1/2-z
1/2-x,1/2-y,-z
1/2+x,1/2-y,1/2+z
loop_
_atom_site_type_symbol
_atom_site_label
_atom_site_fract_x
_atom_site_fract_y
_atom_site_fract_z
Si Si1 0.182378 0.421688 0.516537
Si Si2 0.664035 0.934021 0.069625
Si Si3 0.683765 0.677659 0.008608
Si Si4 0.660192 0.663337 0.592666
Si Si5 0.283470 0.692744 0.140610
Si Si6 0.848921 0.363083 0.274083
Si Si7 0.126861 0.789014 0.673854
O O1 0.242654 0.494356 0.559405
O O2 0.283956 0.392396 0.461866
O O3 0.183604 0.368514 0.589884
O O4 0.015964 0.435536 0.457269
O O5 0.707276 0.916630 0.168717
O O6 0.712440 0.880329 0.010703
O O7 0.691699 0.674590 0.106285
O O8 0.750000 0.750000 0.000000
O O9 0.518769 0.669169 0.942931
O O10 0.731966 0.737524 0.588522
O O11 0.708012 0.640901 0.689862
O O12 0.263293 0.692281 0.233443
O O13 0.459214 0.681257 0.152873
O O14 0.883207 0.293300 0.328815
O O15 0.000000 0.383747 0.250000
#
# Coordination Sequence:
#
# PCOD8134801 Si02
#       7
#     8   8   8   8   8   8   8
#     4  11  22  42  64  88 116 169 214 243 310 383
#     4  11  25  41  59  90 131 161 201 264 312 367
#     4  12  24  39  62  94 130 157 200 266 317 358
#     4  11  22  37  70  90 120 167 209 251 313 375
#     4  10  19  37  64  93 112 156 216 249 290 378
#     4  11  19  40  65  92 122 161 212 259 299 375
#     4  10  19  36  62  93 120 152 200 263 311 348
#
# _framework density 19.347228000000001
#
# number of rings (size 3 to 8) (size 9 to 14) (size 15 to 20)
#    0.000    1.143    7.143    1.286    0.000    1.143 
#    2.571    3.571    0.000    0.000    0.000    0.000 
#    0.000    0.000    0.000    0.000    0.000    0.000 
#
# Total GULP energy -347122.732083 kJ/mol
# GULP energy per Si atom -12397.240432 kJ/mol
# Density = 1.930319 g / cm^3
# Si number density = 19.347228 Si / 1000 Ang^3
#
#
#
# Elastic Constant Matrix: (Units=GPa)
#
#
# Indices 1 2 3 4 5 6 
#
# 1 65.0606 27.4041 29.7523 0.0000 -9.9492 0.0000
# 2 27.4041 133.2841 55.3392 0.0000 -16.3057 0.0000
# 3 29.7523 55.3392 118.8013 0.0000 -20.2509 0.0000
# 4 0.0000 0.0000 0.0000 22.5718 0.0000 -2.5469
# 5 -9.9492 -16.3057 -20.2509 0.0000 34.8236 0.0000
# 6 0.0000 0.0000 0.0000 -2.5469 0.0000 24.6047
#
#
#
# Elastic Compliance Matrix: (Units=1/GPa)
#
#
# Indices 1 2 3 4 5 6 
#
# 1 0.018056 -0.002125 -0.003133 0.000000 0.002342 0.000000
# 2 -0.002125 0.009684 -0.003673 0.000000 0.001791 0.000000
# 3 -0.003133 -0.003673 0.011619 0.000000 0.004142 0.000000
# 4 0.000000 0.000000 0.000000 0.044827 0.000000 0.004640
# 5 0.002342 0.001791 0.004142 0.000000 0.032632 0.000000
# 6 0.000000 0.000000 0.000000 0.004640 0.000000 0.041123
#
#
# Mechanical properties :
#
#
# Convention : Reuss Voigt Hill
#
# Bulk Modulus (GPa) = 46.51937 60.23747 53.37842
# Shear Modulus (GPa) = 27.32689 30.04336 28.68512
#
# Velocity S-wave (km/s) = 3.76233 3.94490 3.85469
# Velocity P-wave (km/s) = 6.55516 7.20778 6.88920
#
# Compressibility (1/GPa) = 0.02149642
#
# Stress axis : x y z
#
# Youngs Moduli (GPa) = 55.38264 103.26270 86.06506
#
# Poissons Ratio (x) = 0.21946 0.26962
# Poissons Ratio (y) = 0.11770 0.31615
# Poissons Ratio (z) = 0.17350 0.37933
#
# Static dielectric constant tensor:
#      x y z
#    x 3.365240 0.000000 -0.001720 
#    y 0.000000 3.836470 0.000000 
#    z -0.001720 0.000000 3.761480 
# 
# 
# High freq. dielectric constant tensor:
#      x y z
#    x 1.738180 0.000000 -0.002190 
#    y 0.000000 1.736910 0.000000 
#    z -0.002190 0.000000 1.771470 
# 
# From -- ./inp_files/191030.got.cif
#   From: 2010.06.25/outbox.cif.g09.slc.cpg/sg15_96_cif.got.tgz:191030.got - 2010.06.28 07:06:18.
