data_PCOD8134527
_publ_section_title
;
Structure prediction by ZEFSAII (Michael W. Deem and Ramdas Pophale) SiO2 
 PCOD8134527
Probable space group: C 2/C
;
_chemical_formula_sum "Si O2"
_cell_formula_units_Z 48
_cell_length_a 8.730604
_cell_length_b 16.771974
_cell_length_c 24.403049
_cell_angle_alpha 90.000000
_cell_angle_beta 47.946688
_cell_angle_gamma 90.000000
_cell_volume 2653.272334
_symmetry_space_group_name_H-M "C 2/C"
_symmetry_group_IT_number 15
_symmetry_cell_setting 'monoclinic'
loop_
_space_group_symop_operation_xyz
x,y,z
-x,y,1/2-z
-x,-y,-z
x,-y,1/2+z
1/2+x,1/2+y,z
1/2-x,1/2+y,1/2-z
1/2-x,1/2-y,-z
1/2+x,1/2-y,1/2+z
loop_
_atom_site_type_symbol
_atom_site_label
_atom_site_fract_x
_atom_site_fract_y
_atom_site_fract_z
Si Si1 0.058996 0.569156 0.529506
Si Si2 0.205186 0.838368 0.074214
Si Si3 0.160992 0.655177 0.078950
Si Si4 0.983215 0.944139 0.556851
Si Si5 0.035680 0.982982 0.326442
Si Si6 0.176022 0.471791 0.837648
O O1 0.297852 0.591184 0.475987
O O2 0.000000 0.500000 0.500000
O O3 0.932029 0.649745 0.546676
O O4 0.997624 0.535596 0.603850
O O5 0.124532 0.748689 0.095987
O O6 0.233407 0.866335 0.004552
O O7 0.041907 0.891839 0.147295
O O8 0.324903 0.627417 0.084839
O O9 0.937393 0.613750 0.140993
O O10 0.893933 0.989948 0.630616
O O11 0.000000 0.000000 0.500000
O O12 0.232956 0.992980 0.240360
O O13 0.850217 0.034668 0.343511
#
# Coordination Sequence:
#
# PCOD8134527 Si02
#       6
#     8   8   8   8   8   8
#     4  11  17  36  58  78 109 150 196 221 267 352
#     4  10  20  37  58  84 114 152 185 234 284 332
#     4  11  21  34  58  89 116 142 185 245 290 313
#     4  12  19  33  57  86 112 142 194 236 269 334
#     4  10  20  36  60  79 108 155 197 219 272 350
#     4  10  19  36  57  83 106 156 190 222 275 346
#
# _framework density 18.090869000000001
#
# number of rings (size 3 to 8) (size 9 to 14) (size 15 to 20)
#    0.000    1.333    8.333    0.000    0.000    1.333 
#    0.000    6.667    0.000    8.000    0.000    0.000 
#    0.000    0.000    0.000    0.000    0.000    0.000 
#
# Total GULP energy -297435.195812 kJ/mol
# GULP energy per Si atom -12393.133159 kJ/mol
# Density = 1.804969 g / cm^3
# Si number density = 18.090869 Si / 1000 Ang^3
#
#
#
# Elastic Constant Matrix: (Units=GPa)
#
#
# Indices 1 2 3 4 5 6 
#
# 1 92.5021 48.7277 41.5873 -0.0011 2.3449 0.0018
# 2 48.7277 94.0913 53.7106 -0.0005 -3.9281 0.0012
# 3 41.5873 53.7106 124.3062 0.0017 7.1217 0.0007
# 4 -0.0011 -0.0005 0.0017 25.4384 0.0003 -3.1008
# 5 2.3449 -3.9281 7.1217 0.0003 30.1411 -0.0012
# 6 0.0018 0.0012 0.0007 -3.1008 -0.0012 29.9559
#
#
#
# Elastic Compliance Matrix: (Units=1/GPa)
#
#
# Indices 1 2 3 4 5 6 
#
# 1 0.015401 -0.006840 -0.002106 0.000001 -0.001592 -0.000001
# 2 -0.006840 0.017482 -0.005501 0.000000 0.004110 0.000000
# 3 -0.002106 -0.005501 0.011311 -0.000001 -0.003226 0.000000
# 4 0.000001 0.000000 -0.000001 0.039813 0.000000 0.004121
# 5 -0.001592 0.004110 -0.003226 0.000000 0.034599 0.000001
# 6 -0.000001 0.000000 0.000000 0.004121 0.000001 0.033809
#
#
# Mechanical properties :
#
#
# Convention : Reuss Voigt Hill
#
# Bulk Modulus (GPa) = 65.35830 66.55009 65.95419
# Shear Modulus (GPa) = 26.82292 28.23201 27.52747
#
# Velocity S-wave (km/s) = 3.85473 3.95469 3.90503
# Velocity P-wave (km/s) = 7.48453 7.59731 7.54113
#
# Compressibility (1/GPa) = 0.01530028
#
# Stress axis : x y z
#
# Youngs Moduli (GPa) = 64.93147 57.20184 88.41206
#
# Poissons Ratio (x) = 0.39127 0.18617
# Poissons Ratio (y) = 0.44415 0.48633
# Poissons Ratio (z) = 0.13672 0.31465
#
# Static dielectric constant tensor:
#      x y z
#    x 3.503620 0.000000 -0.001990 
#    y 0.000000 3.068540 0.000000 
#    z -0.001990 0.000000 3.625050 
# 
# 
# High freq. dielectric constant tensor:
#      x y z
#    x 1.704340 0.000000 0.005310 
#    y 0.000000 1.670170 0.000000 
#    z 0.005310 0.000000 1.701710 
# 
# From -- ./inp_files/231865.got.cif
#   From: 2010.06.25/outbox.cif.g09.slc.cpg/sg15_116_cif.got.tgz:231865.got - 2010.06.28 07:06:18.
