data_PCOD8134425
_publ_section_title
;
Structure prediction by ZEFSAII (Michael W. Deem and Ramdas Pophale) SiO2 
 PCOD8134425
Probable space group: C 2/C
;
_chemical_formula_sum "Si O2"
_cell_formula_units_Z 52
_cell_length_a 19.212600
_cell_length_b 18.747972
_cell_length_c 14.661465
_cell_angle_alpha 90.000000
_cell_angle_beta 28.745737
_cell_angle_gamma 90.000000
_cell_volume 2539.766772
_symmetry_space_group_name_H-M "C 2/C"
_symmetry_group_IT_number 15
_symmetry_cell_setting 'monoclinic'
loop_
_space_group_symop_operation_xyz
x,y,z
-x,y,1/2-z
-x,-y,-z
x,-y,1/2+z
1/2+x,1/2+y,z
1/2-x,1/2+y,1/2-z
1/2-x,1/2-y,-z
1/2+x,1/2-y,1/2+z
loop_
_atom_site_type_symbol
_atom_site_label
_atom_site_fract_x
_atom_site_fract_y
_atom_site_fract_z
Si Si1 0.887764 0.357782 0.557894
Si Si2 0.643880 0.733558 0.040040
Si Si3 0.186101 0.519873 0.123547
Si Si4 0.213452 0.393918 0.218581
Si Si5 0.770752 0.327659 0.877617
Si Si6 0.348296 0.012265 0.546087
Si Si7 0.000000 0.737179 0.250000
O O1 0.883204 0.310322 0.473306
O O2 0.807999 0.314888 0.729597
O O3 0.812868 0.434249 0.626743
O O4 0.050651 0.369468 0.398699
O O5 0.500000 0.702153 0.250000
O O6 0.750000 0.750000 0.000000
O O7 0.691469 0.676412 0.908455
O O8 0.255433 0.451222 0.092474
O O9 0.269099 0.590049 0.061076
O O10 0.019830 0.525936 0.346791
O O11 0.212629 0.514922 0.985536
O O12 0.232482 0.428601 0.297867
O O13 0.912701 0.310077 0.776567
O O14 0.625182 0.283711 0.060375
#
# Coordination Sequence:
#
# PCOD8134425 Si02
#       7
#     8   8   8   8   8   8   4
#     4  11  22  38  66  93 127 161 223 264 314 377
#     4  12  26  43  64  94 134 174 211 264 331 387
#     4  10  19  35  64  90 128 158 219 266 316 372
#     4  11  21  40  62  98 127 169 215 267 319 387
#     4  11  22  42  61  94 123 169 203 269 314 387
#     4  10  19  35  64  98 121 166 218 270 310 377
#     4  10  26  38  62  90 130 164 212 246 336 380
#
# _framework density 20.474321
#
# number of rings (size 3 to 8) (size 9 to 14) (size 15 to 20)
#    0.000    1.231    4.615    2.769    4.308    1.231 
#    1.385    0.000    0.000    2.769    0.000    0.000 
#    0.000    0.000    0.000    0.000    0.000    0.000 
#
# Total GULP energy -322327.817634 kJ/mol
# GULP energy per Si atom -12397.223755 kJ/mol
# Density = 2.042772 g / cm^3
# Si number density = 20.474321 Si / 1000 Ang^3
#
#
#
# Elastic Constant Matrix: (Units=GPa)
#
#
# Indices 1 2 3 4 5 6 
#
# 1 72.7950 17.9247 44.4288 -0.0171 26.9257 0.0115
# 2 17.9247 104.6903 43.6532 -0.0106 15.2522 0.0072
# 3 44.4288 43.6532 93.3890 -0.0147 24.8398 0.0128
# 4 -0.0171 -0.0106 -0.0147 35.3652 0.0145 28.0549
# 5 26.9257 15.2522 24.8398 0.0145 33.7657 -0.0110
# 6 0.0115 0.0072 0.0128 28.0549 -0.0110 21.7236
#
#
#
# Elastic Compliance Matrix: (Units=1/GPa)
#
#
# Indices 1 2 3 4 5 6 
#
# 1 0.023271 0.001352 -0.008212 -0.001028 -0.013125 0.001313
# 2 0.001352 0.012012 -0.005630 -0.000201 -0.002362 0.000257
# 3 -0.008212 -0.005630 0.018435 -0.000381 -0.004470 0.000485
# 4 -0.001028 -0.000201 -0.000381 -1.154360 0.002172 1.490795
# 5 -0.013125 -0.002362 -0.004470 0.002172 0.044436 -0.002772
# 6 0.001313 0.000257 0.000485 1.490795 -0.002772 -1.879249
#
#
# Mechanical properties :
#
#
# Convention : Reuss Voigt Hill
#
# Bulk Modulus (GPa) = 34.79692 53.65419 44.22556
# Shear Modulus (GPa) = -1.72361 29.16207 13.71923
#
# Velocity S-wave (km/s) = -0.91851 3.77812 2.59138
# Velocity P-wave (km/s) = 3.98841 6.73013 5.53182
#
# Compressibility (1/GPa) = 0.02873817
#
# Stress axis : x y z
#
# Youngs Moduli (GPa) = 42.97251 83.24936 54.24471
#
# Poissons Ratio (x) = -0.11254 0.44545
# Poissons Ratio (y) = -0.05809 0.30538
# Poissons Ratio (z) = 0.35289 0.46867
#
# Static dielectric constant tensor:
#      x y z
#    x 3.694740 -0.000020 0.346150 
#    y -0.000020 4.466840 -0.000010 
#    z 0.346150 -0.000010 3.608370 
# 
# 
# High freq. dielectric constant tensor:
#      x y z
#    x 1.789640 0.000000 0.032950 
#    y 0.000000 1.816320 0.000000 
#    z 0.032950 0.000000 1.786410 
# 
# From -- ./inp_files/168971.got.cif
#   From: 2010.06.25/outbox.cif.g09.slc.cpg/sg15_85_cif.got.tgz:168971.got - 2010.06.28 07:06:18.
