data_PCOD8134703
_publ_section_title
;
Structure prediction by ZEFSAII (Michael W. Deem and Ramdas Pophale) SiO2 
 PCOD8134703
Probable space group: C 2/C
;
_chemical_formula_sum "Si O2"
_cell_formula_units_Z 60
_cell_length_a 10.695143
_cell_length_b 16.492828
_cell_length_c 21.765965
_cell_angle_alpha 90.000000
_cell_angle_beta 123.972777
_cell_angle_gamma 90.000000
_cell_volume 3183.999398
_symmetry_space_group_name_H-M "C 2/C"
_symmetry_group_IT_number 15
_symmetry_cell_setting 'monoclinic'
loop_
_space_group_symop_operation_xyz
x,y,z
-x,y,1/2-z
-x,-y,-z
x,-y,1/2+z
1/2+x,1/2+y,z
1/2-x,1/2+y,1/2-z
1/2-x,1/2-y,-z
1/2+x,1/2-y,1/2+z
loop_
_atom_site_type_symbol
_atom_site_label
_atom_site_fract_x
_atom_site_fract_y
_atom_site_fract_z
Si Si1 0.733633 0.666311 0.869146
Si Si2 0.849843 0.294426 0.746056
Si Si3 0.506825 0.285268 0.400351
Si Si4 0.000000 0.958207 0.250000
Si Si5 0.649841 0.641640 0.462008
Si Si6 0.630723 0.441801 0.677404
Si Si7 0.890647 0.056437 0.931029
Si Si8 0.454885 0.195880 0.508772
O O1 0.747384 0.730224 0.818179
O O2 0.669009 0.712396 0.911600
O O3 0.619511 0.594708 0.820980
O O4 0.906880 0.639736 0.928680
O O5 0.882897 0.250757 0.819631
O O6 0.751244 0.374402 0.728387
O O7 0.000000 0.317929 0.750000
O O8 0.473880 0.376795 0.412482
O O9 0.509836 0.224826 0.457823
O O10 0.901115 0.010976 0.268880
O O11 0.528781 0.590288 0.391365
O O12 0.705126 0.602490 0.542556
O O13 0.575999 0.729149 0.453870
O O14 0.800573 0.644907 0.461926
O O15 0.700597 0.500064 0.642689
O O16 0.000000 0.000000 0.000000
#
# Coordination Sequence:
#
# PCOD8134703 Si02
#       8
#     8   8   8   4   8   8   8   8
#     4  11  19  40  60  87 114 163 194 252 297 369
#     4  10  21  38  61  85 118 152 211 247 293 359
#     4  10  19  36  60  89 114 154 203 252 296 362
#     4  12  24  38  64  84 130 152 202 240 316 366
#     4   9  20  37  58  88 116 153 196 247 301 358
#     4  11  21  39  60  85 116 165 193 249 304 366
#     4   9  18  36  62  81 117 155 197 237 308 367
#     4  10  20  35  61  87 117 146 204 253 292 351
#
# _framework density 18.844225999999999
#
# number of rings (size 3 to 8) (size 9 to 14) (size 15 to 20)
#    0.000    1.867    4.667    0.400    1.867    0.000 
#    2.400    0.667    0.000    0.000    0.000    0.000 
#    0.000    0.000    0.000    0.000    0.000    0.000 
#
# Total GULP energy -371748.385620 kJ/mol
# GULP energy per Si atom -12391.612854 kJ/mol
# Density = 1.880134 g / cm^3
# Si number density = 18.844226 Si / 1000 Ang^3
#
#
#
# Elastic Constant Matrix: (Units=GPa)
#
#
# Indices 1 2 3 4 5 6 
#
# 1 73.4021 30.6430 56.5028 0.0000 7.9486 0.0000
# 2 30.6430 81.3207 35.2471 0.0000 1.1782 0.0000
# 3 56.5028 35.2471 84.4425 0.0000 4.0628 0.0000
# 4 0.0000 0.0000 0.0000 34.9416 0.0000 -1.4298
# 5 7.9486 1.1782 4.0628 0.0000 27.8287 0.0000
# 6 0.0000 0.0000 0.0000 -1.4298 0.0000 29.0548
#
#
#
# Elastic Compliance Matrix: (Units=1/GPa)
#
#
# Indices 1 2 3 4 5 6 
#
# 1 0.029555 -0.003176 -0.018178 0.000000 -0.005653 0.000000
# 2 -0.003176 0.015357 -0.004328 0.000000 0.000889 0.000000
# 3 -0.018178 -0.004328 0.025734 0.000000 0.001618 0.000000
# 4 0.000000 0.000000 0.000000 0.028677 0.000000 0.001411
# 5 -0.005653 0.000889 0.001618 0.000000 0.037275 0.000000
# 6 0.000000 0.000000 0.000000 0.001411 0.000000 0.034487
#
#
# Mechanical properties :
#
#
# Convention : Reuss Voigt Hill
#
# Bulk Modulus (GPa) = 51.86117 53.77235 52.81676
# Shear Modulus (GPa) = 21.84595 26.14985 23.99790
#
# Velocity S-wave (km/s) = 3.40853 3.72921 3.57247
# Velocity P-wave (km/s) = 6.56289 6.86584 6.71607
#
# Compressibility (1/GPa) = 0.01928225
#
# Stress axis : x y z
#
# Youngs Moduli (GPa) = 33.83576 65.11860 38.85841
#
# Poissons Ratio (x) = 0.20680 0.70637
# Poissons Ratio (y) = 0.10745 0.16817
# Poissons Ratio (z) = 0.61507 0.28182
#
# Static dielectric constant tensor:
#      x y z
#    x 3.416780 0.000000 -0.221850 
#    y 0.000000 3.525910 0.000000 
#    z -0.221850 0.000000 3.576520 
# 
# 
# High freq. dielectric constant tensor:
#      x y z
#    x 1.721820 0.000000 -0.018940 
#    y 0.000000 1.727620 0.000000 
#    z -0.018940 0.000000 1.734120 
# 
# From -- ./inp_files/233091.got.cif
#   From: 2010.06.25/outbox.cif.g09.slc.cpg/sg15_117_cif.got.tgz:233091.got - 2010.06.28 07:06:18.
