data_PCOD8134421
_publ_section_title
;
Structure prediction by ZEFSAII (Michael W. Deem and Ramdas Pophale) SiO2 
 PCOD8134421
Probable space group: C 2/C
;
_chemical_formula_sum "Si O2"
_cell_formula_units_Z 56
_cell_length_a 9.101947
_cell_length_b 25.098346
_cell_length_c 14.546114
_cell_angle_alpha 90.000000
_cell_angle_beta 123.431249
_cell_angle_gamma 90.000000
_cell_volume 2773.176147
_symmetry_space_group_name_H-M "C 2/C"
_symmetry_group_IT_number 15
_symmetry_cell_setting 'monoclinic'
loop_
_space_group_symop_operation_xyz
x,y,z
-x,y,1/2-z
-x,-y,-z
x,-y,1/2+z
1/2+x,1/2+y,z
1/2-x,1/2+y,1/2-z
1/2-x,1/2-y,-z
1/2+x,1/2-y,1/2+z
loop_
_atom_site_type_symbol
_atom_site_label
_atom_site_fract_x
_atom_site_fract_y
_atom_site_fract_z
Si Si1 0.557221 0.358163 0.640331
Si Si2 0.286184 0.332663 0.993078
Si Si3 0.766154 0.327042 0.879007
Si Si4 0.004356 0.251925 0.643479
Si Si5 0.955832 0.411901 0.502834
Si Si6 0.709794 0.999207 0.652983
Si Si7 0.002852 0.978443 0.898028
O O1 0.671481 0.333846 0.599150
O O2 0.683153 0.365275 0.771723
O O3 0.390968 0.318181 0.601641
O O4 0.482378 0.415312 0.588064
O O5 0.132762 0.290188 0.954858
O O6 0.220464 0.390101 0.006275
O O7 0.457617 0.310146 0.107507
O O8 0.815896 0.270832 0.846036
O O9 0.924085 0.360562 0.980858
O O10 0.000000 0.262632 0.750000
O O11 0.892354 0.443814 0.389743
O O12 0.064177 0.452313 0.605850
O O13 0.826892 0.996417 0.600549
O O14 0.825277 0.997434 0.784917
O O15 0.000000 0.000000 0.000000
#
# Coordination Sequence:
#
# PCOD8134421 Si02
#       7
#     8   8   8   8   8   8   8
#     4  11  19  36  56  90 111 155 199 247 291 365
#     4  10  22  35  59  87 114 146 199 246 303 353
#     4  10  19  35  64  80 117 150 200 251 303 346
#     4  10  20  39  58  85 112 148 193 254 297 367
#     4  10  19  37  58  87 111 162 193 244 301 348
#     4  10  20  38  60  83 125 157 203 246 297 347
#     4  11  21  37  57  88 120 160 201 249 294 365
#
# _framework density 20.193452000000001
#
# number of rings (size 3 to 8) (size 9 to 14) (size 15 to 20)
#    0.000    1.714    4.286    1.714    0.000    0.571 
#    7.714    2.143    0.000    0.000    0.000    0.000 
#    0.000    0.000    0.000    0.000    0.000    0.000 
#
# Total GULP energy -346967.223870 kJ/mol
# GULP energy per Si atom -12391.686567 kJ/mol
# Density = 2.014749 g / cm^3
# Si number density = 20.193452 Si / 1000 Ang^3
#
#
#
# Elastic Constant Matrix: (Units=GPa)
#
#
# Indices 1 2 3 4 5 6 
#
# 1 97.7609 42.6408 32.9431 0.0000 0.8230 0.0000
# 2 42.6408 76.4578 37.4396 0.0000 9.1930 0.0000
# 3 32.9431 37.4396 88.0824 0.0000 2.3075 0.0000
# 4 0.0000 0.0000 0.0000 28.2614 0.0000 8.8284
# 5 0.8230 9.1930 2.3075 0.0000 25.2273 0.0000
# 6 0.0000 0.0000 0.0000 8.8284 0.0000 18.5433
#
#
#
# Elastic Compliance Matrix: (Units=1/GPa)
#
#
# Indices 1 2 3 4 5 6 
#
# 1 0.014034 -0.006949 -0.002355 0.000000 0.002290 0.000000
# 2 -0.006949 0.020723 -0.006032 0.000000 -0.006773 0.000000
# 3 -0.002355 -0.006032 0.014773 0.000000 0.000924 0.000000
# 4 0.000000 0.000000 0.000000 0.041566 0.000000 -0.019789
# 5 0.002290 -0.006773 0.000924 0.000000 0.041949 0.000000
# 6 0.000000 0.000000 0.000000 -0.019789 0.000000 0.063349
#
#
# Mechanical properties :
#
#
# Convention : Reuss Voigt Hill
#
# Bulk Modulus (GPa) = 53.02671 54.26090 53.64380
# Shear Modulus (GPa) = 21.42682 24.35825 22.89254
#
# Velocity S-wave (km/s) = 3.26095 3.47687 3.37064
# Velocity P-wave (km/s) = 6.36355 6.56103 6.46304
#
# Compressibility (1/GPa) = 0.01885842
#
# Stress axis : x y z
#
# Youngs Moduli (GPa) = 71.25342 48.25645 67.68893
#
# Poissons Ratio (x) = 0.33534 0.15942
# Poissons Ratio (y) = 0.49515 0.40828
# Poissons Ratio (z) = 0.16781 0.29107
#
# Static dielectric constant tensor:
#      x y z
#    x 3.834530 0.000000 0.258810 
#    y 0.000000 3.687930 0.000000 
#    z 0.258810 0.000000 3.478520 
# 
# 
# High freq. dielectric constant tensor:
#      x y z
#    x 1.789530 0.000000 0.015750 
#    y 0.000000 1.776620 0.000000 
#    z 0.015750 0.000000 1.765970 
# 
# From -- ./inp_files/139297.got.cif
#   From: 2010.06.25/outbox.cif.g09.slc.cpg/sg15_70_cif.got.tgz:139297.got - 2010.06.28 07:06:18.
