data_PCOD8134507
_publ_section_title
;
Structure prediction by ZEFSAII (Michael W. Deem and Ramdas Pophale) SiO2 
 PCOD8134507
Probable space group: C 2/C
;
_chemical_formula_sum "Si O2"
_cell_formula_units_Z 48
_cell_length_a 27.763786
_cell_length_b 12.817481
_cell_length_c 21.070980
_cell_angle_alpha 90.000000
_cell_angle_beta 161.959352
_cell_angle_gamma 90.000000
_cell_volume 2322.178399
_symmetry_space_group_name_H-M "C 2/C"
_symmetry_group_IT_number 15
_symmetry_cell_setting 'monoclinic'
loop_
_space_group_symop_operation_xyz
x,y,z
-x,y,1/2-z
-x,-y,-z
x,-y,1/2+z
1/2+x,1/2+y,z
1/2-x,1/2+y,1/2-z
1/2-x,1/2-y,-z
1/2+x,1/2-y,1/2+z
loop_
_atom_site_type_symbol
_atom_site_label
_atom_site_fract_x
_atom_site_fract_y
_atom_site_fract_z
Si Si1 0.882572 0.470769 0.465086
Si Si2 0.028534 0.677476 0.639076
Si Si3 0.088299 0.927346 0.160513
Si Si4 0.363487 0.681529 0.029608
Si Si5 0.076823 0.317103 0.632643
Si Si6 0.672671 0.469937 0.581390
O O1 0.772435 0.451172 0.388525
O O2 0.976745 0.366532 0.564670
O O3 0.771622 0.500206 0.267260
O O4 0.999322 0.563246 0.633172
O O5 0.999210 0.652639 0.529030
O O6 0.907707 0.758775 0.519610
O O7 0.204573 0.722458 0.864069
O O8 0.069587 0.806007 0.123673
O O9 0.008497 0.948717 0.128467
O O10 0.000000 0.000000 0.000000
O O11 0.500000 0.700534 0.250000
O O12 0.329936 0.561081 0.973477
O O13 0.250494 0.366474 0.853498
#
# Coordination Sequence:
#
# PCOD8134507 Si02
#       6
#     8   8   8   8   8   8
#     4  10  19  36  56  85 121 150 188 244 304 355
#     4  11  23  37  59  86 119 156 199 246 304 356
#     4  10  21  29  55  92 118 148 187 240 302 361
#     4  12  25  41  59  84 121 164 203 245 295 360
#     4  11  19  36  59  87 126 150 187 248 308 358
#     4  10  20  36  54  85 116 154 196 236 302 354
#
# _framework density 20.670247
#
# number of rings (size 3 to 8) (size 9 to 14) (size 15 to 20)
#    0.000    1.333    3.333    4.500    9.333    0.000 
#    0.000    0.000    0.000    1.000    0.000    0.000 
#    0.000    0.000    0.000    0.000    0.000    0.000 
#
# Total GULP energy -297393.298484 kJ/mol
# GULP energy per Si atom -12391.387437 kJ/mol
# Density = 2.062320 g / cm^3
# Si number density = 20.670247 Si / 1000 Ang^3
#
#
#
# Elastic Constant Matrix: (Units=GPa)
#
#
# Indices 1 2 3 4 5 6 
#
# 1 67.3778 25.6107 45.6699 -0.0014 44.1357 -0.0016
# 2 25.6107 133.3940 27.3731 -0.0014 27.5807 -0.0018
# 3 45.6699 27.3731 87.3760 -0.0011 44.2078 -0.0019
# 4 -0.0014 -0.0014 -0.0011 27.9444 -0.0010 16.3420
# 5 44.1357 27.5807 44.2078 -0.0010 47.3229 -0.0015
# 6 -0.0016 -0.0018 -0.0019 16.3420 -0.0015 21.4049
#
#
#
# Elastic Compliance Matrix: (Units=1/GPa)
#
#
# Indices 1 2 3 4 5 6 
#
# 1 0.038780 0.000088 -0.003739 0.000001 -0.032727 0.000000
# 2 0.000088 0.008528 -0.000306 0.000000 -0.004767 0.000000
# 3 -0.003739 -0.000306 0.022073 0.000000 -0.016954 0.000001
# 4 0.000001 0.000000 0.000000 0.064651 0.000000 -0.049359
# 5 -0.032727 -0.004767 -0.016954 0.000000 0.070270 0.000001
# 6 0.000000 0.000000 0.000001 -0.049359 0.000001 0.084402
#
#
# Mechanical properties :
#
#
# Convention : Reuss Voigt Hill
#
# Bulk Modulus (GPa) = 16.26883 53.93946 35.10415
# Shear Modulus (GPa) = 15.76750 31.96738 23.86744
#
# Velocity S-wave (km/s) = 2.76490 3.93687 3.40174
# Velocity P-wave (km/s) = 4.25213 6.84231 5.69639
#
# Compressibility (1/GPa) = 0.06146722
#
# Stress axis : x y z
#
# Youngs Moduli (GPa) = 25.78626 117.26056 45.30385
#
# Poissons Ratio (x) = -0.01037 0.16941
# Poissons Ratio (y) = -0.00228 0.01387
# Poissons Ratio (z) = 0.09643 0.03590
#
# Static dielectric constant tensor:
#      x y z
#    x 4.005240 0.000000 0.925410 
#    y 0.000000 3.802870 0.000000 
#    z 0.925410 0.000000 3.860490 
# 
# 
# High freq. dielectric constant tensor:
#      x y z
#    x 1.787930 0.000000 0.064080 
#    y 0.000000 1.816570 0.000000 
#    z 0.064080 0.000000 1.779170 
# 
# From -- ./inp_files/110651.got.cif
#   From: 2010.06.25/outbox.cif.g09.slc.cpg/sg15_56_cif.got.tgz:110651.got - 2010.06.28 07:06:18.
