data_PCOD8134200
_publ_section_title
;
Structure prediction by ZEFSAII (Michael W. Deem and Ramdas Pophale) SiO2 
 PCOD8134200
Probable space group: C 2/C
;
_chemical_formula_sum "Si O2"
_cell_formula_units_Z 48
_cell_length_a 16.600255
_cell_length_b 8.806231
_cell_length_c 24.724504
_cell_angle_alpha 90.000000
_cell_angle_beta 47.616585
_cell_angle_gamma 90.000000
_cell_volume 2669.755034
_symmetry_space_group_name_H-M "C 2/C"
_symmetry_group_IT_number 15
_symmetry_cell_setting 'monoclinic'
loop_
_space_group_symop_operation_xyz
x,y,z
-x,y,1/2-z
-x,-y,-z
x,-y,1/2+z
1/2+x,1/2+y,z
1/2-x,1/2+y,1/2-z
1/2-x,1/2-y,-z
1/2+x,1/2-y,1/2+z
loop_
_atom_site_type_symbol
_atom_site_label
_atom_site_fract_x
_atom_site_fract_y
_atom_site_fract_z
Si Si1 0.017555 0.592958 0.572251
Si Si2 0.241595 0.840865 0.948412
Si Si3 0.674597 0.058060 0.920255
Si Si4 0.647306 0.636857 0.034310
Si Si5 0.930540 0.538956 0.831792
Si Si6 0.611958 0.623150 0.167990
O O1 0.119192 0.500323 0.500886
O O2 0.050564 0.769382 0.549012
O O3 0.001854 0.566409 0.643474
O O4 0.906109 0.545936 0.593959
O O5 0.197480 0.734915 0.920437
O O6 0.358516 0.893384 0.875784
O O7 0.250000 0.750000 0.000000
O O8 0.171818 0.994814 0.985121
O O9 0.782260 0.961709 0.854809
O O10 0.602827 0.565837 0.110507
O O11 0.750000 0.750000 0.000000
O O12 0.868311 0.694406 0.842263
O O13 0.000000 0.484284 0.750000
O O14 0.500000 0.582005 0.250000
#
# Coordination Sequence:
#
# PCOD8134200 Si02
#       6
#     8   8   8   8   8   8
#     4  10  20  37  58  83 116 151 182 237 293 339
#     4  12  19  33  58  86 114 147 197 241 274 339
#     4  11  21  34  57  89 116 143 188 243 290 330
#     4  11  17  36  59  79 112 152 197 229 272 351
#     4  10  20  37  59  80 109 158 198 227 284 355
#     4  10  19  35  58  82 107 157 194 226 281 355
#
# _framework density 17.979178000000001
#
# number of rings (size 3 to 8) (size 9 to 14) (size 15 to 20)
#    0.000    1.333    8.333    0.000    0.000    1.333 
#    0.000    5.000    0.000    4.000    0.000    0.000 
#    0.000    0.000    0.000    0.000    0.000    0.000 
#
# Total GULP energy -297386.045079 kJ/mol
# GULP energy per Si atom -12391.085212 kJ/mol
# Density = 1.793826 g / cm^3
# Si number density = 17.979178 Si / 1000 Ang^3
#
#
#
# Elastic Constant Matrix: (Units=GPa)
#
#
# Indices 1 2 3 4 5 6 
#
# 1 84.3135 47.9544 52.6585 0.0000 -9.9841 0.0001
# 2 47.9544 101.1685 50.7735 0.0000 -6.1766 0.0004
# 3 52.6585 50.7735 135.7859 0.0000 -3.2519 0.0000
# 4 0.0000 0.0000 0.0000 31.6593 0.0000 -1.9575
# 5 -9.9841 -6.1766 -3.2519 0.0000 23.8384 0.0000
# 6 0.0001 0.0004 0.0000 -1.9575 0.0000 29.0641
#
#
#
# Elastic Compliance Matrix: (Units=1/GPa)
#
#
# Indices 1 2 3 4 5 6 
#
# 1 0.019204 -0.006258 -0.004970 0.000000 0.005744 0.000000
# 2 -0.006258 0.014362 -0.002927 0.000000 0.000701 0.000000
# 3 -0.004970 -0.002927 0.010352 0.000000 -0.001428 0.000000
# 4 0.000000 0.000000 0.000000 0.031718 0.000000 0.002136
# 5 0.005744 0.000701 -0.001428 0.000000 0.044342 0.000000
# 6 0.000000 0.000000 0.000000 0.002136 0.000000 0.034551
#
#
# Mechanical properties :
#
#
# Convention : Reuss Voigt Hill
#
# Bulk Modulus (GPa) = 64.06428 69.33785 66.70107
# Shear Modulus (GPa) = 26.58994 28.23779 27.41387
#
# Velocity S-wave (km/s) = 3.84986 3.96736 3.90905
# Velocity P-wave (km/s) = 7.44793 7.72243 7.58642
#
# Compressibility (1/GPa) = 0.01560932
#
# Stress axis : x y z
#
# Youngs Moduli (GPa) = 52.07306 69.62596 96.59889
#
# Poissons Ratio (x) = 0.43571 0.48008
# Poissons Ratio (y) = 0.32586 0.28273
# Poissons Ratio (z) = 0.25879 0.20378
#
# Static dielectric constant tensor:
#      x y z
#    x 2.950710 0.000000 -0.357070 
#    y 0.000000 3.551220 0.000000 
#    z -0.357070 0.000000 2.239110 
# 
# 
# High freq. dielectric constant tensor:
#      x y z
#    x 1.664120 0.000000 0.001200 
#    y 0.000000 1.703010 0.000000 
#    z 0.001200 0.000000 1.697410 
# 
# From -- ./inp_files/276196.got.cif
#   From: 2010.06.25/outbox.cif.g09.slc.cpg/sg15_139_cif.got.tgz:276196.got - 2010.06.28 07:06:18.
