data_PCOD8134886
_publ_section_title
;
Structure prediction by ZEFSAII (Michael W. Deem and Ramdas Pophale) SiO2 
 PCOD8134886
Probable space group: C 2/C
;
_chemical_formula_sum "Si O2"
_cell_formula_units_Z 32
_cell_length_a 5.525709
_cell_length_b 18.024297
_cell_length_c 12.378880
_cell_angle_alpha 90.000000
_cell_angle_beta 80.061705
_cell_angle_gamma 90.000000
_cell_volume 1214.398908
_symmetry_space_group_name_H-M "C 2/C"
_symmetry_group_IT_number 15
_symmetry_cell_setting 'monoclinic'
loop_
_space_group_symop_operation_xyz
x,y,z
-x,y,1/2-z
-x,-y,-z
x,-y,1/2+z
1/2+x,1/2+y,z
1/2-x,1/2+y,1/2-z
1/2-x,1/2-y,-z
1/2+x,1/2-y,1/2+z
loop_
_atom_site_type_symbol
_atom_site_label
_atom_site_fract_x
_atom_site_fract_y
_atom_site_fract_z
Si Si1 0.616859 0.077951 0.355374
Si Si2 0.822777 0.228097 0.374155
Si Si3 0.172101 0.785405 0.119366
Si Si4 0.314263 0.446963 0.447876
O O1 0.500000 0.093927 0.250000
O O2 0.831053 0.138341 0.364749
O O3 0.409534 0.082055 0.462652
O O4 0.731222 0.996065 0.351680
O O5 0.750000 0.250000 0.500000
O O6 0.590163 0.253597 0.317618
O O7 0.092127 0.263105 0.321481
O O8 0.092095 0.871503 0.113400
O O9 0.250000 0.750000 0.000000
O O10 0.500000 0.500000 0.500000
#
# Coordination Sequence:
#
# PCOD8134886 Si02
#       4
#     8   8   8   8
#     4  11  25  42  65 100 135 181 235 289 346 416
#     4  10  19  39  65  95 124 169 221 276 342 407
#     4  10  19  36  68  93 122 168 222 269 340 408
#     4  11  23  41  69  94 138 186 226 285 351 418
#
# _framework density 26.350484000000002
#
# number of rings (size 3 to 8) (size 9 to 14) (size 15 to 20)
#    0.000    1.500    5.000    3.000    3.500    1.000 
#    0.000    2.500    0.000    0.000    0.000    0.000 
#    0.000    0.000    0.000    0.000    0.000    0.000 
#
# Total GULP energy -198261.935496 kJ/mol
# GULP energy per Si atom -12391.370968 kJ/mol
# Density = 2.629051 g / cm^3
# Si number density = 26.350484 Si / 1000 Ang^3
#
#
#
# Elastic Constant Matrix: (Units=GPa)
#
#
# Indices 1 2 3 4 5 6 
#
# 1 209.8048 66.2447 57.9592 0.0000 -6.2136 0.0000
# 2 66.2447 204.0277 42.3912 0.0000 1.2401 0.0000
# 3 57.9592 42.3912 81.5907 0.0000 15.7958 0.0000
# 4 0.0000 0.0000 0.0000 2.6857 0.0000 0.2880
# 5 -6.2136 1.2401 15.7958 0.0000 49.5138 0.0000
# 6 0.0000 0.0000 0.0000 0.2880 0.0000 -159.5474
#
#
#
# Elastic Compliance Matrix: (Units=1/GPa)
#
#
# Indices 1 2 3 4 5 6 
#
# 1 0.006415 -0.001188 -0.004371 0.000000 0.002229 0.000000
# 2 -0.001188 0.005746 -0.002222 0.000000 0.000416 0.000000
# 3 -0.004371 -0.002222 0.017705 0.000000 -0.006141 0.000000
# 4 0.000000 0.000000 0.000000 0.372272 0.000000 0.000672
# 5 0.002229 0.000416 -0.006141 0.000000 0.022425 0.000000
# 6 0.000000 0.000000 0.000000 0.000672 0.000000 -0.006267
#
#
# Mechanical properties :
#
#
# Convention : Reuss Voigt Hill
#
# Bulk Modulus (GPa) = 69.91413 92.06816 80.99114
# Shear Modulus (GPa) = 11.39919 0.45228 5.92574
#
# Velocity S-wave (km/s) = 2.08216 0.41474 1.50123
# Velocity P-wave (km/s) = 5.68951 5.93675 5.81444
#
# Compressibility (1/GPa) = 0.01430326
#
# Stress axis : x y z
#
# Youngs Moduli (GPa) = 155.88169 174.02753 56.48159
#
# Poissons Ratio (x) = 0.20678 0.24690
# Poissons Ratio (y) = 0.18522 0.12550
# Poissons Ratio (z) = 0.68141 0.38668
#
# Static dielectric constant tensor:
#      x y z
#    x 9.344150 0.000000 0.443250 
#    y 0.000000 5.140430 0.000000 
#    z 0.443250 0.000000 4.760470 
# 
# 
# High freq. dielectric constant tensor:
#      x y z
#    x 2.080520 0.000000 0.008170 
#    y 0.000000 2.061270 0.000000 
#    z 0.008170 0.000000 2.086820 
# 
# From -- ./inp_files/128154.got.cif
#   From: 2010.06.25/outbox.cif.g09.slc.cpg/sg15_65_cif.got.tgz:128154.got - 2010.06.28 07:06:18.
