data_PCOD8134495
_publ_section_title
;
Structure prediction by ZEFSAII (Michael W. Deem and Ramdas Pophale) SiO2 
 PCOD8134495
Probable space group: C 2/C
;
_chemical_formula_sum "Si O2"
_cell_formula_units_Z 56
_cell_length_a 17.675399
_cell_length_b 25.233212
_cell_length_c 9.517769
_cell_angle_alpha 90.000000
_cell_angle_beta 138.541732
_cell_angle_gamma 90.000000
_cell_volume 2810.500674
_symmetry_space_group_name_H-M "C 2/C"
_symmetry_group_IT_number 15
_symmetry_cell_setting 'monoclinic'
loop_
_space_group_symop_operation_xyz
x,y,z
-x,y,1/2-z
-x,-y,-z
x,-y,1/2+z
1/2+x,1/2+y,z
1/2-x,1/2+y,1/2-z
1/2-x,1/2-y,-z
1/2+x,1/2-y,1/2+z
loop_
_atom_site_type_symbol
_atom_site_label
_atom_site_fract_x
_atom_site_fract_y
_atom_site_fract_z
Si Si1 0.329033 0.111942 0.241737
Si Si2 0.908530 0.399515 0.356031
Si Si3 0.379812 0.472377 0.359467
Si Si4 0.127054 0.207107 0.455025
Si Si5 0.220689 0.133960 0.812279
Si Si6 0.738260 0.004941 0.915173
Si Si7 0.185497 0.674542 0.999368
O O1 0.464352 0.106013 0.409960
O O2 0.284001 0.052660 0.177448
O O3 0.288723 0.139529 0.328567
O O4 0.272613 0.146940 0.037849
O O5 0.824961 0.389482 0.368466
O O6 0.874335 0.457632 0.247747
O O7 0.901363 0.356271 0.222504
O O8 0.500000 0.500000 0.500000
O O9 0.379792 0.410359 0.313354
O O10 0.345468 0.472821 0.475156
O O11 0.280296 0.502788 0.134258
O O12 0.171285 0.185979 0.667422
O O13 0.129888 0.270331 0.468257
O O14 0.197831 0.184271 0.422772
O O15 0.000000 0.186923 0.250000
#
# Coordination Sequence:
#
# PCOD8134495 Si02
#       7
#     8   8   8   8   8   8   8
#     4  11  20  35  55  83 116 141 178 235 279 329
#     4  10  19  36  56  79 112 150 181 224 281 334
#     4  10  20  35  51  73 108 147 184 230 276 328
#     4  10  21  41  60  80 111 147 187 235 279 326
#     4   9  22  35  53  82 110 145 186 226 284 340
#     4  10  21  33  52  81 108 142 188 220 272 342
#     4  10  22  37  61  87 106 143 196 228 269 336
#
# _framework density 19.925276
#
# number of rings (size 3 to 8) (size 9 to 14) (size 15 to 20)
#    0.000    2.000    0.000    3.429    0.000    5.143 
#    0.000    6.429    0.000    0.000    0.000    0.000 
#    0.000    0.000    0.000    0.000    0.000    0.000 
#
# Total GULP energy -347157.867594 kJ/mol
# GULP energy per Si atom -12398.495271 kJ/mol
# Density = 1.987993 g / cm^3
# Si number density = 19.925276 Si / 1000 Ang^3
#
#
#
# Elastic Constant Matrix: (Units=GPa)
#
#
# Indices 1 2 3 4 5 6 
#
# 1 53.1884 26.3616 34.3091 0.0000 1.9569 0.0000
# 2 26.3616 98.2223 49.4150 0.0000 -2.1078 0.0000
# 3 34.3091 49.4150 107.1709 0.0000 -3.0392 0.0000
# 4 0.0000 0.0000 0.0000 25.7608 0.0000 -7.6253
# 5 1.9569 -2.1078 -3.0392 0.0000 33.2522 0.0000
# 6 0.0000 0.0000 0.0000 -7.6253 0.0000 30.0079
#
#
#
# Elastic Compliance Matrix: (Units=1/GPa)
#
#
# Indices 1 2 3 4 5 6 
#
# 1 0.024719 -0.003476 -0.006375 0.000000 -0.002258 0.000000
# 2 -0.003476 0.013747 -0.005209 0.000000 0.000600 0.000000
# 3 -0.006375 -0.005209 0.013811 0.000000 0.001307 0.000000
# 4 0.000000 0.000000 0.000000 0.041976 0.000000 0.010667
# 5 -0.002258 0.000600 0.001307 0.000000 0.030364 0.000000
# 6 0.000000 0.000000 0.000000 0.010667 0.000000 0.036035
#
#
# Mechanical properties :
#
#
# Convention : Reuss Voigt Hill
#
# Bulk Modulus (GPa) = 45.13071 53.19478 49.16275
# Shear Modulus (GPa) = 25.23265 27.70392 26.46829
#
# Velocity S-wave (km/s) = 3.56246 3.73284 3.64865
# Velocity P-wave (km/s) = 6.29449 6.73304 6.51746
#
# Compressibility (1/GPa) = 0.02215786
#
# Stress axis : x y z
#
# Youngs Moduli (GPa) = 40.45503 72.74168 72.40828
#
# Poissons Ratio (x) = 0.25282 0.46159
# Poissons Ratio (y) = 0.14060 0.37718
# Poissons Ratio (z) = 0.25789 0.37891
#
# Static dielectric constant tensor:
#      x y z
#    x 3.503980 0.000000 -0.132150 
#    y 0.000000 3.668950 0.000000 
#    z -0.132150 0.000000 3.686540 
# 
# 
# High freq. dielectric constant tensor:
#      x y z
#    x 1.773680 0.000000 -0.007690 
#    y 0.000000 1.775090 0.000000 
#    z -0.007690 0.000000 1.779870 
# 
# From -- ./inp_files/34164.got.cif
#   From: 2010.06.25/outbox.cif.g09.slc.cpg/sg15_18_cif.got.tgz:34164.got - 2010.06.28 07:06:18.
