data_PCOD8134189
_publ_section_title
;
Structure prediction by ZEFSAII (Michael W. Deem and Ramdas Pophale) SiO2 
 PCOD8134189
Probable space group: C 2/C
;
_chemical_formula_sum "Si O2"
_cell_formula_units_Z 48
_cell_length_a 14.957930
_cell_length_b 10.620663
_cell_length_c 16.715558
_cell_angle_alpha 90.000000
_cell_angle_beta 111.272530
_cell_angle_gamma 90.000000
_cell_volume 2474.555131
_symmetry_space_group_name_H-M "C 2/C"
_symmetry_group_IT_number 15
_symmetry_cell_setting 'monoclinic'
loop_
_space_group_symop_operation_xyz
x,y,z
-x,y,1/2-z
-x,-y,-z
x,-y,1/2+z
1/2+x,1/2+y,z
1/2-x,1/2+y,1/2-z
1/2-x,1/2-y,-z
1/2+x,1/2-y,1/2+z
loop_
_atom_site_type_symbol
_atom_site_label
_atom_site_fract_x
_atom_site_fract_y
_atom_site_fract_z
Si Si1 0.891421 0.719679 0.400201
Si Si2 0.089288 0.572865 0.618654
Si Si3 0.212887 0.367702 0.306735
Si Si4 0.761275 0.423213 0.570316
Si Si5 0.604666 0.752256 0.971237
Si Si6 0.374440 0.142581 0.563457
O O1 0.882572 0.572142 0.380601
O O2 0.813438 0.796787 0.324712
O O3 0.873103 0.742229 0.490067
O O4 0.995498 0.774288 0.409430
O O5 0.153891 0.639593 0.706388
O O6 0.105887 0.644754 0.541743
O O7 0.978371 0.578537 0.607124
O O8 0.231830 0.514538 0.338533
O O9 0.154017 0.296493 0.359571
O O10 0.652920 0.378213 0.516744
O O11 0.833774 0.304205 0.584274
O O12 0.796314 0.531956 0.519774
#
# Coordination Sequence:
#
# PCOD8134189 Si02
#       6
#     8   8   8   8   8   8
#     4  11  19  35  55  75 104 139 174 208 258 308
#     4  11  19  34  54  79 103 132 179 213 254 297
#     4  10  22  30  54  79 108 131 169 218 259 297
#     4   9  19  35  53  79 100 134 175 207 259 302
#     4  10  19  35  58  75 103 138 174 211 250 313
#     4   9  18  36  53  76  99 139 176 207 245 314
#
# _framework density 19.397425999999999
#
# number of rings (size 3 to 8) (size 9 to 14) (size 15 to 20)
#    1.000    1.000    3.333    2.000    2.333    0.667 
#    0.000    0.000    0.000    0.000    0.000    0.000 
#    0.000    0.000    0.000    0.000    0.000    0.000 
#
# Total GULP energy -297355.913617 kJ/mol
# GULP energy per Si atom -12389.829734 kJ/mol
# Density = 1.935328 g / cm^3
# Si number density = 19.397426 Si / 1000 Ang^3
#
#
#
# Elastic Constant Matrix: (Units=GPa)
#
#
# Indices 1 2 3 4 5 6 
#
# 1 100.5738 34.4946 34.9334 0.0000 24.9445 0.0000
# 2 34.4946 45.5688 20.4329 0.0000 21.6663 0.0000
# 3 34.9334 20.4329 74.3935 0.0000 19.3118 0.0000
# 4 0.0000 0.0000 0.0000 22.0267 0.0000 12.5533
# 5 24.9445 21.6663 19.3118 0.0000 18.8766 0.0000
# 6 0.0000 0.0000 0.0000 12.5533 0.0000 24.0589
#
#
#
# Elastic Compliance Matrix: (Units=1/GPa)
#
#
# Indices 1 2 3 4 5 6 
#
# 1 0.015589 -0.004653 -0.002833 0.000000 -0.012360 0.000000
# 2 -0.004653 0.049826 0.002382 0.000000 -0.053478 0.000000
# 3 -0.002833 0.002382 0.018867 0.000000 -0.018291 0.000000
# 4 0.000000 0.000000 0.000000 0.064613 0.000000 -0.033713
# 5 -0.012360 -0.053478 -0.018291 0.000000 0.149403 0.000000
# 6 0.000000 0.000000 0.000000 -0.033713 0.000000 0.059156
#
#
# Mechanical properties :
#
#
# Convention : Reuss Voigt Hill
#
# Bulk Modulus (GPa) = 13.50036 44.47310 28.98673
# Shear Modulus (GPa) = 12.74366 21.70411 17.22388
#
# Velocity S-wave (km/s) = 2.56594 3.34865 2.98308
# Velocity P-wave (km/s) = 3.96909 6.15860 5.18083
#
# Compressibility (1/GPa) = 0.07407208
#
# Stress axis : x y z
#
# Youngs Moduli (GPa) = 64.14960 20.06998 53.00398
#
# Poissons Ratio (x) = 0.09338 0.15018
# Poissons Ratio (y) = 0.29848 -0.12625
# Poissons Ratio (z) = 0.18177 -0.04781
#
# Static dielectric constant tensor:
#      x y z
#    x 3.757720 0.000000 0.055020 
#    y 0.000000 3.182750 0.000000 
#    z 0.055020 0.000000 3.314000 
# 
# 
# High freq. dielectric constant tensor:
#      x y z
#    x 1.767150 0.000000 0.007450 
#    y 0.000000 1.724140 0.000000 
#    z 0.007450 0.000000 1.727680 
# 
# From -- ./inp_files/243141.got.cif
#   From: 2010.06.25/outbox.cif.g09.slc.cpg/sg15_122_cif.got.tgz:243141.got - 2010.06.28 07:06:18.
