data_PCOD8134794
_publ_section_title
;
Structure prediction by ZEFSAII (Michael W. Deem and Ramdas Pophale) SiO2 
 PCOD8134794
Probable space group: C 2/C
;
_chemical_formula_sum "Si O2"
_cell_formula_units_Z 48
_cell_length_a 11.466187
_cell_length_b 13.682458
_cell_length_c 19.144653
_cell_angle_alpha 90.000000
_cell_angle_beta 128.640870
_cell_angle_gamma 90.000000
_cell_volume 2345.975757
_symmetry_space_group_name_H-M "C 2/C"
_symmetry_group_IT_number 15
_symmetry_cell_setting 'monoclinic'
loop_
_space_group_symop_operation_xyz
x,y,z
-x,y,1/2-z
-x,-y,-z
x,-y,1/2+z
1/2+x,1/2+y,z
1/2-x,1/2+y,1/2-z
1/2-x,1/2-y,-z
1/2+x,1/2-y,1/2+z
loop_
_atom_site_type_symbol
_atom_site_label
_atom_site_fract_x
_atom_site_fract_y
_atom_site_fract_z
Si Si1 0.442773 0.377764 0.395625
Si Si2 0.181727 0.380381 0.533787
Si Si3 0.456883 0.311407 0.555193
Si Si4 0.918489 0.662852 0.356820
Si Si5 0.781312 0.573424 0.032033
Si Si6 0.266307 0.432950 0.825977
O O1 0.416415 0.370639 0.469215
O O2 0.385034 0.278707 0.336888
O O3 0.617781 0.395550 0.444618
O O4 0.347698 0.468177 0.329416
O O5 0.344919 0.341745 0.574455
O O6 0.053183 0.304787 0.460223
O O7 0.174412 0.385455 0.614652
O O8 0.152787 0.484011 0.488041
O O9 0.622973 0.340281 0.639496
O O10 0.875089 0.598768 0.273044
O O11 0.097451 0.658321 0.435979
O O12 0.784106 0.546614 0.114406
#
# Coordination Sequence:
#
# PCOD8134794 Si02
#       6
#     8   8   8   8   8   8
#     4  10  20  41  63  81 115 163 200 226 289 365
#     4  10  19  36  62  90 116 149 199 239 289 346
#     4   9  18  36  64  89 109 155 200 234 282 363
#     4  11  25  35  57  95 124 142 194 259 294 324
#     4  11  20  41  64  84 113 165 198 229 285 369
#     4  11  21  40  61  85 117 159 197 240 292 344
#
# _framework density 20.460569
#
# number of rings (size 3 to 8) (size 9 to 14) (size 15 to 20)
#    0.000    1.667    3.333    2.500    0.000    2.000 
#    0.000    5.000    0.000    0.000    0.000    0.000 
#    0.000    0.000    0.000    0.000    0.000    0.000 
#
# Total GULP energy -297579.273800 kJ/mol
# GULP energy per Si atom -12399.136408 kJ/mol
# Density = 2.041400 g / cm^3
# Si number density = 20.460569 Si / 1000 Ang^3
#
#
#
# Elastic Constant Matrix: (Units=GPa)
#
#
# Indices 1 2 3 4 5 6 
#
# 1 56.4352 31.9644 16.1872 0.0000 8.8633 0.0000
# 2 31.9644 117.0696 41.8530 0.0000 -1.1365 0.0000
# 3 16.1872 41.8530 62.6791 0.0000 3.5574 0.0000
# 4 0.0000 0.0000 0.0000 23.3798 0.0000 -0.0518
# 5 8.8633 -1.1365 3.5574 0.0000 22.4313 0.0000
# 6 0.0000 0.0000 0.0000 -0.0518 0.0000 33.2112
#
#
#
# Elastic Compliance Matrix: (Units=1/GPa)
#
#
# Indices 1 2 3 4 5 6 
#
# 1 0.022860 -0.005784 -0.001526 0.000000 -0.009084 0.000000
# 2 -0.005784 0.012754 -0.007254 0.000000 0.004082 0.000000
# 3 -0.001526 -0.007254 0.021371 0.000000 -0.003154 0.000000
# 4 0.000000 0.000000 0.000000 0.042772 0.000000 0.000067
# 5 -0.009084 0.004082 -0.003154 0.000000 0.048877 0.000000
# 6 0.000000 0.000000 0.000000 0.000067 0.000000 0.030110
#
#
# Mechanical properties :
#
#
# Convention : Reuss Voigt Hill
#
# Bulk Modulus (GPa) = 35.89800 46.24367 41.07084
# Shear Modulus (GPa) = 23.02455 25.54975 24.28715
#
# Velocity S-wave (km/s) = 3.35821 3.53757 3.44906
# Velocity P-wave (km/s) = 5.71138 6.27187 5.99817
#
# Compressibility (1/GPa) = 0.02785670
#
# Stress axis : x y z
#
# Youngs Moduli (GPa) = 43.74472 78.40434 46.79163
#
# Poissons Ratio (x) = 0.45352 0.07139
# Poissons Ratio (y) = 0.25303 0.33945
# Poissons Ratio (z) = 0.06674 0.56878
#
# Static dielectric constant tensor:
#      x y z
#    x 3.820450 0.000000 0.029340 
#    y 0.000000 3.793610 0.000000 
#    z 0.029340 0.000000 3.265390 
# 
# 
# High freq. dielectric constant tensor:
#      x y z
#    x 1.813720 0.000000 0.003660 
#    y 0.000000 1.807820 0.000000 
#    z 0.003660 0.000000 1.757600 
# 
# From -- ./inp_files/143612.got.cif
#   From: 2010.06.25/outbox.cif.g09.slc.cpg/sg15_72_cif.got.tgz:143612.got - 2010.06.28 07:06:18.
