data_PCOD8134542
_publ_section_title
;
Structure prediction by ZEFSAII (Michael W. Deem and Ramdas Pophale) SiO2 
 PCOD8134542
Probable space group: C 2/C
;
_chemical_formula_sum "Si O2"
_cell_formula_units_Z 56
_cell_length_a 19.013966
_cell_length_b 13.219982
_cell_length_c 14.094658
_cell_angle_alpha 90.000000
_cell_angle_beta 42.287781
_cell_angle_gamma 90.000000
_cell_volume 2383.852886
_symmetry_space_group_name_H-M "C 2/C"
_symmetry_group_IT_number 15
_symmetry_cell_setting 'monoclinic'
loop_
_space_group_symop_operation_xyz
x,y,z
-x,y,1/2-z
-x,-y,-z
x,-y,1/2+z
1/2+x,1/2+y,z
1/2-x,1/2+y,1/2-z
1/2-x,1/2-y,-z
1/2+x,1/2-y,1/2+z
loop_
_atom_site_type_symbol
_atom_site_label
_atom_site_fract_x
_atom_site_fract_y
_atom_site_fract_z
Si Si1 0.265516 0.401026 0.912457
Si Si2 0.943774 0.811747 0.066256
Si Si3 0.166458 0.131510 0.352190
Si Si4 0.596129 0.265055 0.599710
Si Si5 0.282446 0.858727 0.204367
Si Si6 0.505923 0.909381 0.567308
Si Si7 0.309252 0.016752 0.343750
O O1 0.300604 0.438980 0.771730
O O2 0.359933 0.347933 0.872023
O O3 0.171819 0.323203 0.992426
O O4 0.225496 0.495647 0.014255
O O5 0.836608 0.859616 0.216900
O O6 0.955756 0.693552 0.077738
O O7 0.938979 0.825660 0.958140
O O8 0.043507 0.877265 0.002206
O O9 0.189755 0.244574 0.293677
O O10 0.233902 0.103348 0.376544
O O11 0.500000 0.212314 0.750000
O O12 0.296123 0.917963 0.290115
O O13 0.368772 0.894493 0.038597
O O14 0.500000 0.000000 0.500000
O O15 0.430005 0.943463 0.729280
#
# Coordination Sequence:
#
# PCOD8134542 Si02
#       7
#     8   8   8   8   8   8   8
#     4  11  21  35  56  88 127 160 203 256 317 385
#     4  11  19  35  59  85 127 163 198 261 327 383
#     4  11  22  37  58  92 127 165 206 260 323 380
#     4  11  20  32  55  86 125 158 194 257 332 385
#     4  10  19  36  57  86 124 163 205 259 321 382
#     4   9  20  32  54  82 121 162 208 252 301 377
#     4  11  21  37  58  88 128 163 214 259 315 385
#
# _framework density 23.491381000000001
#
# number of rings (size 3 to 8) (size 9 to 14) (size 15 to 20)
#    0.000    1.429    5.714    0.857    4.000    0.571 
#    0.000    0.000    0.000    0.857    0.000    0.000 
#    8.571    0.000    0.000    1.143    0.000    0.000 
#
# Total GULP energy -346982.222222 kJ/mol
# GULP energy per Si atom -12392.222222 kJ/mol
# Density = 2.343791 g / cm^3
# Si number density = 23.491381 Si / 1000 Ang^3
#
#
#
# Elastic Constant Matrix: (Units=GPa)
#
#
# Indices 1 2 3 4 5 6 
#
# 1 45.2861 4.3857 47.7566 0.0000 -20.8227 0.0000
# 2 4.3857 57.5522 43.6270 0.0000 -10.0061 0.0000
# 3 47.7566 43.6270 154.6464 0.0000 -47.6524 0.0000
# 4 0.0000 0.0000 0.0000 20.3802 0.0000 26.7505
# 5 -20.8227 -10.0061 -47.6524 0.0000 45.3017 0.0000
# 6 0.0000 0.0000 0.0000 26.7505 0.0000 -36.3906
#
#
#
# Elastic Compliance Matrix: (Units=1/GPa)
#
#
# Indices 1 2 3 4 5 6 
#
# 1 0.036040 0.006750 -0.011052 0.000000 0.006431 0.000000
# 2 0.006750 0.023556 -0.009130 0.000000 -0.001298 0.000000
# 3 -0.011052 -0.009130 0.015193 0.000000 0.008884 0.000000
# 4 0.000000 0.000000 0.000000 0.024972 0.000000 0.018357
# 5 0.006431 -0.001298 0.008884 0.000000 0.034089 0.000000
# 6 0.000000 0.000000 0.000000 0.018357 0.000000 -0.013986
#
#
# Mechanical properties :
#
#
# Convention : Reuss Voigt Hill
#
# Bulk Modulus (GPa) = 20.86610 49.89148 35.37879
# Shear Modulus (GPa) = 30.73063 16.63929 23.68496
#
# Velocity S-wave (km/s) = 3.62078 2.66431 3.17873
# Velocity P-wave (km/s) = 5.13632 5.54518 5.34466
#
# Compressibility (1/GPa) = 0.04792462
#
# Stress axis : x y z
#
# Youngs Moduli (GPa) = 27.74675 42.45152 65.82152
#
# Poissons Ratio (x) = -0.28654 0.72747
# Poissons Ratio (y) = -0.18728 0.60094
# Poissons Ratio (z) = 0.30666 0.38757
#
# Static dielectric constant tensor:
#      x y z
#    x 3.985190 0.000000 -0.649610 
#    y 0.000000 4.145250 0.000000 
#    z -0.649610 0.000000 4.759400 
# 
# 
# High freq. dielectric constant tensor:
#      x y z
#    x 1.903310 0.000000 -0.038550 
#    y 0.000000 1.921510 0.000000 
#    z -0.038550 0.000000 1.936380 
# 
# From -- ./inp_files/168437.got.cif
#   From: 2010.06.25/outbox.cif.g09.slc.cpg/sg15_85_cif.got.tgz:168437.got - 2010.06.28 07:06:18.
