data_PCOD8134309
_publ_section_title
;
Structure prediction by ZEFSAII (Michael W. Deem and Ramdas Pophale) SiO2 
 PCOD8134309
Probable space group: C 2/C
;
_chemical_formula_sum "Si O2"
_cell_formula_units_Z 56
_cell_length_a 31.502661
_cell_length_b 12.557984
_cell_length_c 9.478650
_cell_angle_alpha 90.000000
_cell_angle_beta 49.549161
_cell_angle_gamma 90.000000
_cell_volume 2853.495230
_symmetry_space_group_name_H-M "C 2/C"
_symmetry_group_IT_number 15
_symmetry_cell_setting 'monoclinic'
loop_
_space_group_symop_operation_xyz
x,y,z
-x,y,1/2-z
-x,-y,-z
x,-y,1/2+z
1/2+x,1/2+y,z
1/2-x,1/2+y,1/2-z
1/2-x,1/2-y,-z
1/2+x,1/2-y,1/2+z
loop_
_atom_site_type_symbol
_atom_site_label
_atom_site_fract_x
_atom_site_fract_y
_atom_site_fract_z
Si Si1 0.513352 0.148901 0.570132
Si Si2 0.839421 0.884553 0.506644
Si Si3 0.422393 0.933991 0.061995
Si Si4 0.758499 0.233432 0.698760
Si Si5 0.203326 0.407260 0.084649
Si Si6 0.055228 0.745052 0.205779
Si Si7 0.701304 0.441607 0.198879
O O1 0.500000 0.205443 0.750000
O O2 0.455339 0.118519 0.620490
O O3 0.546879 0.225207 0.391032
O O4 0.551704 0.048230 0.527260
O O5 0.792770 0.794871 0.622810
O O6 0.898796 0.834377 0.412408
O O7 0.836218 0.932528 0.358375
O O8 0.832918 0.979499 0.629538
O O9 0.358113 0.945074 0.243429
O O10 0.427663 0.865446 0.907399
O O11 0.798946 0.316483 0.531346
O O12 0.736239 0.140540 0.645836
O O13 0.793614 0.175696 0.744746
O O14 0.236785 0.511931 0.963557
O O15 0.000000 0.790613 0.250000
#
# Coordination Sequence:
#
# PCOD8134309 Si02
#       7
#     8   8   8   8   8   8   8
#     4  10  21  36  55  90 120 152 201 244 298 357
#     4  11  23  41  64  87 120 159 201 253 302 353
#     4  10  19  35  60  82 121 161 193 241 298 359
#     4  10  21  39  59  90 124 160 204 239 295 363
#     4  10  21  36  61  90 123 163 198 242 301 355
#     4  10  22  40  61  85 116 159 201 248 302 356
#     4  11  23  40  60  90 126 159 202 249 296 358
#
# _framework density 19.625055
#
# number of rings (size 3 to 8) (size 9 to 14) (size 15 to 20)
#    0.000    1.714    2.857    2.571    2.000    2.286 
#    0.000    2.143    0.000    0.000    0.000    0.000 
#    0.000    0.000    0.000    0.000    0.000    0.000 
#
# Total GULP energy -347273.068496 kJ/mol
# GULP energy per Si atom -12402.609589 kJ/mol
# Density = 1.958039 g / cm^3
# Si number density = 19.625055 Si / 1000 Ang^3
#
#
#
# Elastic Constant Matrix: (Units=GPa)
#
#
# Indices 1 2 3 4 5 6 
#
# 1 74.6195 35.8319 65.8452 0.0000 -5.8251 0.0000
# 2 35.8319 65.9206 31.1934 0.0000 8.0555 0.0000
# 3 65.8452 31.1934 108.6153 0.0000 21.8483 0.0000
# 4 0.0000 0.0000 0.0000 17.3498 0.0000 9.8467
# 5 -5.8251 8.0555 21.8483 0.0000 35.7020 0.0000
# 6 0.0000 0.0000 0.0000 9.8467 0.0000 24.3863
#
#
#
# Elastic Compliance Matrix: (Units=1/GPa)
#
#
# Indices 1 2 3 4 5 6 
#
# 1 0.057524 -0.018216 -0.036897 0.000000 0.036076 0.000000
# 2 -0.018216 0.023356 0.006835 0.000000 -0.012425 0.000000
# 3 -0.036897 0.006835 0.035504 0.000000 -0.029289 0.000000
# 4 0.000000 0.000000 0.000000 0.074772 0.000000 -0.030192
# 5 0.036076 -0.012425 -0.029289 0.000000 0.054623 0.000000
# 6 0.000000 0.000000 0.000000 -0.030192 0.000000 0.053197
#
#
# Mechanical properties :
#
#
# Convention : Reuss Voigt Hill
#
# Bulk Modulus (GPa) = 50.44088 57.21070 53.82579
# Shear Modulus (GPa) = 12.43343 23.23993 17.83668
#
# Velocity S-wave (km/s) = 2.51977 3.44495 3.01802
# Velocity P-wave (km/s) = 5.85011 6.71109 6.29533
#
# Compressibility (1/GPa) = 0.01982519
#
# Stress axis : x y z
#
# Youngs Moduli (GPa) = 17.38414 42.81640 28.16620
#
# Poissons Ratio (x) = 0.77996 1.03926
# Poissons Ratio (y) = 0.31668 -0.19252
# Poissons Ratio (z) = 0.64143 -0.29265
#
# Static dielectric constant tensor:
#      x y z
#    x 3.435590 0.000000 0.123380 
#    y 0.000000 3.420710 0.000000 
#    z 0.123380 0.000000 3.776130 
# 
# 
# High freq. dielectric constant tensor:
#      x y z
#    x 1.757000 0.000000 0.010750 
#    y 0.000000 1.745590 0.000000 
#    z 0.010750 0.000000 1.779070 
# 
# From -- ./inp_files/69284.got.cif
#   From: 2010.06.25/outbox.cif.g09.slc.cpg/sg15_35_cif.got.tgz:69284.got - 2010.06.28 07:06:18.
