data_PCOD8134611
_publ_section_title
;
Structure prediction by ZEFSAII (Michael W. Deem and Ramdas Pophale) SiO2 
 PCOD8134611
Probable space group: C 2/C
;
_chemical_formula_sum "Si O2"
_cell_formula_units_Z 56
_cell_length_a 10.240535
_cell_length_b 20.866327
_cell_length_c 17.560113
_cell_angle_alpha 90.000000
_cell_angle_beta 51.616094
_cell_angle_gamma 90.000000
_cell_volume 2941.296750
_symmetry_space_group_name_H-M "C 2/C"
_symmetry_group_IT_number 15
_symmetry_cell_setting 'monoclinic'
loop_
_space_group_symop_operation_xyz
x,y,z
-x,y,1/2-z
-x,-y,-z
x,-y,1/2+z
1/2+x,1/2+y,z
1/2-x,1/2+y,1/2-z
1/2-x,1/2-y,-z
1/2+x,1/2-y,1/2+z
loop_
_atom_site_type_symbol
_atom_site_label
_atom_site_fract_x
_atom_site_fract_y
_atom_site_fract_z
Si Si1 0.697001 0.999145 0.923201
Si Si2 0.627339 0.781895 0.316850
Si Si3 0.653969 0.595131 0.744742
Si Si4 0.937963 0.052485 0.961315
Si Si5 0.458108 0.665271 0.055784
Si Si6 0.627813 0.630650 0.136467
Si Si7 0.724263 0.234650 0.616293
O O1 0.750122 0.926617 0.889755
O O2 0.757195 0.034816 0.825970
O O3 0.782933 0.026654 0.968306
O O4 0.500000 0.000000 0.000000
O O5 0.713760 0.847869 0.307538
O O6 0.648800 0.726164 0.374078
O O7 0.434818 0.797699 0.367408
O O8 0.711633 0.755075 0.210826
O O9 0.500000 0.618758 0.750000
O O10 0.593332 0.572961 0.850512
O O11 0.868025 0.116930 0.029200
O O12 0.000000 0.000000 0.000000
O O13 0.515393 0.617999 0.102934
O O14 0.616519 0.692472 0.954830
O O15 0.500000 0.645656 0.250000
O O16 0.739707 0.693430 0.077262
#
# Coordination Sequence:
#
# PCOD8134611 Si02
#       7
#     8   8   8   8   8   8   8
#     4  11  26  41  61  90 123 163 206 253 309 371
#     4  10  19  36  58  91 123 152 202 253 305 363
#     4  10  23  42  61  85 124 166 202 245 317 377
#     4  11  22  42  67  90 120 165 212 251 307 364
#     4  11  21  35  65  91 124 155 204 259 303 359
#     4  11  19  37  62  88 123 160 202 254 307 363
#     4  10  20  34  61  96 117 154 203 255 307 357
#
# _framework density 19.039221000000001
#
# number of rings (size 3 to 8) (size 9 to 14) (size 15 to 20)
#    0.000    1.429    5.714    3.000    4.000    0.000 
#    0.000    4.286    0.000    0.000    0.000    0.000 
#    0.000    0.000    0.000    0.000    0.000    0.000 
#
# Total GULP energy -346996.469649 kJ/mol
# GULP energy per Si atom -12392.731059 kJ/mol
# Density = 1.899589 g / cm^3
# Si number density = 19.039221 Si / 1000 Ang^3
#
#
#
# Elastic Constant Matrix: (Units=GPa)
#
#
# Indices 1 2 3 4 5 6 
#
# 1 75.4258 61.6916 42.1125 0.0000 0.5047 0.0000
# 2 61.6916 115.9143 37.1940 0.0000 -8.2437 0.0000
# 3 42.1125 37.1940 93.8908 0.0000 6.6654 0.0000
# 4 0.0000 0.0000 0.0000 -1.8969 0.0000 8.4481
# 5 0.5047 -8.2437 6.6654 0.0000 25.3953 0.0000
# 6 0.0000 0.0000 0.0000 8.4481 0.0000 37.4218
#
#
#
# Elastic Compliance Matrix: (Units=1/GPa)
#
#
# Indices 1 2 3 4 5 6 
#
# 1 0.027562 -0.012555 -0.007195 0.000000 -0.002735 0.000000
# 2 -0.012555 0.016090 -0.001152 0.000000 0.005775 0.000000
# 3 -0.007195 -0.001152 0.014623 0.000000 -0.004069 0.000000
# 4 0.000000 0.000000 0.000000 -0.262874 0.000000 0.059345
# 5 -0.002735 0.005775 -0.004069 0.000000 0.042374 0.000000
# 6 0.000000 0.000000 0.000000 0.059345 0.000000 0.013325
#
#
# Mechanical properties :
#
#
# Convention : Reuss Voigt Hill
#
# Bulk Modulus (GPa) = 60.71424 63.02523 61.86974
# Shear Modulus (GPa) = -49.21027 21.79955 -13.70536
#
# Velocity S-wave (km/s) = -5.08949 3.38743 -2.68591
# Velocity P-wave (km/s) = 1.60591 6.96235 4.79037
#
# Compressibility (1/GPa) = 0.01647060
#
# Stress axis : x y z
#
# Youngs Moduli (GPa) = 36.28149 62.15211 68.38502
#
# Poissons Ratio (x) = 0.78032 0.49201
# Poissons Ratio (y) = 0.45551 0.07881
# Poissons Ratio (z) = 0.26103 0.07163
#
# Static dielectric constant tensor:
#      x y z
#    x 3.888500 0.000000 0.116120 
#    y 0.000000 3.712560 0.000000 
#    z 0.116120 0.000000 3.732720 
# 
# 
# High freq. dielectric constant tensor:
#      x y z
#    x 1.709640 0.000000 0.020210 
#    y 0.000000 1.753200 0.000000 
#    z 0.020210 0.000000 1.754970 
# 
# From -- ./inp_files/192014.got.cif
#   From: 2010.06.25/outbox.cif.g09.slc.cpg/sg15_97_cif.got.tgz:192014.got - 2010.06.28 07:06:18.
