data_PCOD8134830
_publ_section_title
;
Structure prediction by ZEFSAII (Michael W. Deem and Ramdas Pophale) SiO2 
 PCOD8134830
Probable space group: C 2/C
;
_chemical_formula_sum "Si O2"
_cell_formula_units_Z 48
_cell_length_a 14.676006
_cell_length_b 15.953851
_cell_length_c 9.496658
_cell_angle_alpha 90.000000
_cell_angle_beta 80.745688
_cell_angle_gamma 90.000000
_cell_volume 2194.595277
_symmetry_space_group_name_H-M "C 2/C"
_symmetry_group_IT_number 15
_symmetry_cell_setting 'monoclinic'
loop_
_space_group_symop_operation_xyz
x,y,z
-x,y,1/2-z
-x,-y,-z
x,-y,1/2+z
1/2+x,1/2+y,z
1/2-x,1/2+y,1/2-z
1/2-x,1/2-y,-z
1/2+x,1/2-y,1/2+z
loop_
_atom_site_type_symbol
_atom_site_label
_atom_site_fract_x
_atom_site_fract_y
_atom_site_fract_z
Si Si1 0.795618 0.920986 0.608250
Si Si2 0.802696 0.631582 0.099874
Si Si3 0.139775 0.443053 0.425093
Si Si4 0.772186 0.107655 0.672539
Si Si5 0.913330 0.835243 0.354730
Si Si6 0.502478 0.161263 0.400866
O O1 0.771285 0.866484 0.753944
O O2 0.706670 0.912445 0.532555
O O3 0.884558 0.886825 0.501387
O O4 0.820450 0.016618 0.642769
O O5 0.856601 0.542900 0.080393
O O6 0.892211 0.692058 0.090712
O O7 0.744369 0.652145 0.973720
O O8 0.172345 0.406741 0.267314
O O9 0.038434 0.404642 0.476440
O O10 0.831265 0.167372 0.759705
O O11 0.938083 0.743153 0.403789
O O12 0.000000 0.876576 0.250000
O O13 0.500000 0.114897 0.250000
#
# Coordination Sequence:
#
# PCOD8134830 Si02
#       6
#     8   8   8   8   8   8
#     4   9  18  37  63  88 117 158 203 245 297 351
#     4  10  19  36  63  92 119 155 202 249 294 350
#     4   9  18  35  61  91 122 161 193 239 301 364
#     4   9  20  37  62  91 114 152 210 252 288 344
#     4  10  23  41  60  87 119 164 201 239 308 362
#     4  11  21  36  58  90 129 161 192 235 306 378
#
# _framework density 21.871914
#
# number of rings (size 3 to 8) (size 9 to 14) (size 15 to 20)
#    0.000    2.333    1.667    1.500    0.000    4.000 
#    0.000    4.167    7.333    0.000    0.000    0.000 
#    0.000    0.000    0.000    0.000    0.000    0.000 
#
# Total GULP energy -297421.753695 kJ/mol
# GULP energy per Si atom -12392.573071 kJ/mol
# Density = 2.182213 g / cm^3
# Si number density = 21.871914 Si / 1000 Ang^3
#
#
#
# Elastic Constant Matrix: (Units=GPa)
#
#
# Indices 1 2 3 4 5 6 
#
# 1 84.2941 28.1893 39.9214 0.0000 -18.3648 0.0000
# 2 28.1893 58.2564 23.4986 0.0000 -13.5004 0.0000
# 3 39.9214 23.4986 137.0507 0.0000 -19.8202 0.0000
# 4 0.0000 0.0000 0.0000 18.8453 0.0000 -5.2957
# 5 -18.3648 -13.5004 -19.8202 0.0000 48.7593 0.0000
# 6 0.0000 0.0000 0.0000 -5.2957 0.0000 29.9610
#
#
#
# Elastic Compliance Matrix: (Units=1/GPa)
#
#
# Indices 1 2 3 4 5 6 
#
# 1 0.015980 -0.005707 -0.003224 0.000000 0.003128 0.000000
# 2 -0.005707 0.021268 -0.001534 0.000000 0.003116 0.000000
# 3 -0.003224 -0.001534 0.008778 0.000000 0.001929 0.000000
# 4 0.000000 0.000000 0.000000 0.055837 0.000000 0.009869
# 5 0.003128 0.003116 0.001929 0.000000 0.023334 0.000000
# 6 0.000000 0.000000 0.000000 0.009869 0.000000 0.035121
#
#
# Mechanical properties :
#
#
# Convention : Reuss Voigt Hill
#
# Bulk Modulus (GPa) = 39.84673 51.42444 45.63558
# Shear Modulus (GPa) = 26.36961 32.04592 29.20776
#
# Velocity S-wave (km/s) = 3.47600 3.83190 3.65828
# Velocity P-wave (km/s) = 5.86241 6.56815 6.22529
#
# Compressibility (1/GPa) = 0.02509616
#
# Stress axis : x y z
#
# Youngs Moduli (GPa) = 62.57762 47.01971 113.92645
#
# Poissons Ratio (x) = 0.26835 0.36729
# Poissons Ratio (y) = 0.35714 0.17471
# Poissons Ratio (z) = 0.20174 0.07211
#
# Static dielectric constant tensor:
#      x y z
#    x 3.766540 0.000000 -0.217220 
#    y 0.000000 3.617890 0.000000 
#    z -0.217220 0.000000 4.251170 
# 
# 
# High freq. dielectric constant tensor:
#      x y z
#    x 1.841720 0.000000 -0.015430 
#    y 0.000000 1.838360 0.000000 
#    z -0.015430 0.000000 1.871920 
# 
# From -- ./inp_files/39623.got.cif
#   From: 2010.06.25/outbox.cif.g09.slc.cpg/sg15_20_cif.got.tgz:39623.got - 2010.06.28 07:06:18.
