data_PCOD8134006
_publ_section_title
;
Structure prediction by ZEFSAII (Michael W. Deem and Ramdas Pophale) SiO2 
 PCOD8134006
Probable space group: C 2/C
;
_chemical_formula_sum "Si O2"
_cell_formula_units_Z 52
_cell_length_a 31.097824
_cell_length_b 8.995658
_cell_length_c 22.136610
_cell_angle_alpha 90.000000
_cell_angle_beta 25.559435
_cell_angle_gamma 90.000000
_cell_volume 2671.785910
_symmetry_space_group_name_H-M "C 2/C"
_symmetry_group_IT_number 15
_symmetry_cell_setting 'monoclinic'
loop_
_space_group_symop_operation_xyz
x,y,z
-x,y,1/2-z
-x,-y,-z
x,-y,1/2+z
1/2+x,1/2+y,z
1/2-x,1/2+y,1/2-z
1/2-x,1/2-y,-z
1/2+x,1/2-y,1/2+z
loop_
_atom_site_type_symbol
_atom_site_label
_atom_site_fract_x
_atom_site_fract_y
_atom_site_fract_z
Si Si1 0.036801 0.053875 0.325934
Si Si2 0.325041 0.576382 0.628709
Si Si3 0.637615 0.864591 0.992254
Si Si4 0.500000 0.319364 0.750000
Si Si5 0.651613 0.091404 0.289199
Si Si6 0.516788 0.129051 0.904118
Si Si7 0.692823 0.596180 0.709179
O O1 0.922631 0.997831 0.477169
O O2 0.053053 0.078375 0.233727
O O3 0.053131 0.207381 0.340882
O O4 0.112092 0.937855 0.259783
O O5 0.311716 0.742603 0.617376
O O6 0.226640 0.481844 0.741779
O O7 0.345152 0.577459 0.674511
O O8 0.589478 0.780995 0.110296
O O9 0.548911 0.942579 0.066653
O O10 0.710999 0.992535 0.923426
O O11 0.550122 0.143895 0.450736
O O12 0.709417 0.225802 0.181796
O O13 0.616473 0.968427 0.285358
#
# Coordination Sequence:
#
# PCOD8134006 Si02
#       7
#     8   8   8   4   8   8   8
#     4  10  21  37  59  77 111 147 200 230 272 326
#     4  10  19  35  51  83 118 151 178 230 277 347
#     4  10  20  38  61  79 114 148 198 226 272 329
#     4   8  20  42  60  78 100 158 206 234 256 328
#     4  11  20  31  52  83 125 141 175 218 298 340
#     4   9  19  34  51  79 112 159 172 226 267 344
#     4  12  20  32  54  91 114 146 180 236 287 339
#
# _framework density 19.462637000000001
#
# number of rings (size 3 to 8) (size 9 to 14) (size 15 to 20)
#    0.000    2.154    4.615    1.385    0.000    1.846 
#    0.000    1.538    0.000   22.154    0.000    0.000 
#    0.000    0.000    0.000    0.000    0.000    0.000 
#
# Total GULP energy -322178.476608 kJ/mol
# GULP energy per Si atom -12391.479870 kJ/mol
# Density = 1.941834 g / cm^3
# Si number density = 19.462637 Si / 1000 Ang^3
#
#
#
# Elastic Constant Matrix: (Units=GPa)
#
#
# Indices 1 2 3 4 5 6 
#
# 1 111.1286 46.0125 30.2344 0.0026 -3.9006 -0.0010
# 2 46.0125 75.4710 19.8251 0.0096 -5.5853 -0.0043
# 3 30.2344 19.8251 49.6928 0.0070 6.2960 -0.0037
# 4 0.0026 0.0096 0.0070 23.6481 -0.0053 -2.9965
# 5 -3.9006 -5.5853 6.2960 -0.0053 34.3903 0.0022
# 6 -0.0010 -0.0043 -0.0037 -2.9965 0.0022 29.4234
#
#
#
# Elastic Compliance Matrix: (Units=1/GPa)
#
#
# Indices 1 2 3 4 5 6 
#
# 1 0.013287 -0.006498 -0.005681 0.000003 0.001492 -0.000001
# 2 -0.006498 0.018419 -0.003768 -0.000005 0.002944 0.000001
# 3 -0.005681 -0.003768 0.025842 -0.000007 -0.005987 0.000002
# 4 0.000003 -0.000005 -0.000007 0.042840 0.000007 0.004363
# 5 0.001492 0.002944 -0.005987 0.000007 0.030821 -0.000002
# 6 -0.000001 0.000001 0.000002 0.004363 -0.000002 0.034431
#
#
# Mechanical properties :
#
#
# Convention : Reuss Voigt Hill
#
# Bulk Modulus (GPa) = 38.97917 47.60406 43.29161
# Shear Modulus (GPa) = 24.26182 26.84038 25.55110
#
# Velocity S-wave (km/s) = 3.53453 3.71761 3.62723
# Velocity P-wave (km/s) = 6.06039 6.55285 6.31143
#
# Compressibility (1/GPa) = 0.02565473
#
# Stress axis : x y z
#
# Youngs Moduli (GPa) = 75.26162 54.29031 38.69705
#
# Poissons Ratio (x) = 0.35278 0.21983
# Poissons Ratio (y) = 0.48905 0.14581
# Poissons Ratio (z) = 0.42754 0.20456
#
# Static dielectric constant tensor:
#      x y z
#    x 3.655230 -0.000010 -0.102360 
#    y -0.000010 3.578360 0.000010 
#    z -0.102360 0.000010 3.329850 
# 
# 
# High freq. dielectric constant tensor:
#      x y z
#    x 1.763260 0.000000 -0.013510 
#    y 0.000000 1.743350 0.000000 
#    z -0.013510 0.000000 1.727620 
# 
# From -- ./inp_files/258842.got.cif
#   From: 2010.06.25/outbox.cif.g09.slc.cpg/sg15_130_cif.got.tgz:258842.got - 2010.06.28 07:06:18.
