data_PCOD8134954
_publ_section_title
;
Structure prediction by ZEFSAII (Michael W. Deem and Ramdas Pophale) SiO2 
 PCOD8134954
Probable space group: C 2/C
;
_chemical_formula_sum "Si O2"
_cell_formula_units_Z 40
_cell_length_a 14.825414
_cell_length_b 22.415203
_cell_length_c 6.735482
_cell_angle_alpha 90.000000
_cell_angle_beta 43.277682
_cell_angle_gamma 90.000000
_cell_volume 1534.432197
_symmetry_space_group_name_H-M "C 2/C"
_symmetry_group_IT_number 15
_symmetry_cell_setting 'monoclinic'
loop_
_space_group_symop_operation_xyz
x,y,z
-x,y,1/2-z
-x,-y,-z
x,-y,1/2+z
1/2+x,1/2+y,z
1/2-x,1/2+y,1/2-z
1/2-x,1/2-y,-z
1/2+x,1/2-y,1/2+z
loop_
_atom_site_type_symbol
_atom_site_label
_atom_site_fract_x
_atom_site_fract_y
_atom_site_fract_z
Si Si1 0.265446 0.078752 0.965964
Si Si2 0.993907 0.875872 0.544408
Si Si3 0.531684 0.122771 0.434190
Si Si4 0.727874 0.441292 0.075204
Si Si5 0.593948 0.748219 0.788364
O O1 0.416076 0.098743 0.766052
O O2 0.254873 0.087548 0.746461
O O3 0.162865 0.121111 0.253667
O O4 0.232634 0.011971 0.086971
O O5 0.000000 0.908222 0.750000
O O6 0.083436 0.914856 0.247053
O O7 0.054243 0.809789 0.477578
O O8 0.500000 0.119024 0.250000
O O9 0.558208 0.190689 0.457474
O O10 0.662120 0.081446 0.259380
O O11 0.500000 0.741350 0.750000
O O12 0.750000 0.750000 0.500000
#
# Coordination Sequence:
#
# PCOD8134954 Si02
#       5
#     8   8   8   8   8
#     4  10  21  35  58  88 120 163 202 262 308 371
#     4  10  22  39  60  89 126 161 208 260 318 367
#     4   9  19  37  60  84 121 161 202 251 318 365
#     4  10  19  37  58  83 123 162 206 252 315 371
#     4  11  23  43  69  92 126 170 211 256 318 381
#
# _framework density 26.068273000000001
#
# number of rings (size 3 to 8) (size 9 to 14) (size 15 to 20)
#    0.000    2.000    2.000    1.200    2.800    2.400 
#    0.000    0.000    0.000    0.000    0.000    0.000 
#    0.000    0.000    0.000    0.000    0.000    0.000 
#
# Total GULP energy -247841.969938 kJ/mol
# GULP energy per Si atom -12392.098497 kJ/mol
# Density = 2.600894 g / cm^3
# Si number density = 26.068273 Si / 1000 Ang^3
#
#
#
# Elastic Constant Matrix: (Units=GPa)
#
#
# Indices 1 2 3 4 5 6 
#
# 1 50.3505 -7.1470 42.3879 0.0000 -30.0363 0.0000
# 2 -7.1470 187.3340 99.8707 0.0000 -33.5057 0.0000
# 3 42.3879 99.8707 273.8201 0.0000 -51.6113 0.0000
# 4 0.0000 0.0000 0.0000 44.5813 0.0000 -1.9943
# 5 -30.0363 -33.5057 -51.6113 0.0000 45.4230 0.0000
# 6 0.0000 0.0000 0.0000 -1.9943 0.0000 22.6507
#
#
#
# Elastic Compliance Matrix: (Units=1/GPa)
#
#
# Indices 1 2 3 4 5 6 
#
# 1 0.043018 0.009406 -0.004353 0.000000 0.030438 0.000000
# 2 0.009406 0.008959 -0.002934 0.000000 0.009494 0.000000
# 3 -0.004353 -0.002934 0.005657 0.000000 0.001385 0.000000
# 4 0.000000 0.000000 0.000000 0.022520 0.000000 0.001983
# 5 0.030438 0.009494 0.001385 0.000000 0.050720 0.000000
# 6 0.000000 0.000000 0.000000 0.001983 0.000000 0.044323
#
#
# Mechanical properties :
#
#
# Convention : Reuss Voigt Hill
#
# Bulk Modulus (GPa) = 16.16233 86.85864 51.51049
# Shear Modulus (GPa) = 26.09820 47.62385 36.86103
#
# Velocity S-wave (km/s) = 3.16753 4.27885 3.76442
# Velocity P-wave (km/s) = 4.42618 7.60286 6.22071
#
# Compressibility (1/GPa) = 0.06187227
#
# Stress axis : x y z
#
# Youngs Moduli (GPa) = 23.24607 111.61607 176.76838
#
# Poissons Ratio (x) = -1.04983 0.76940
# Poissons Ratio (y) = -0.21865 0.51867
# Poissons Ratio (z) = 0.10118 0.32750
#
# Static dielectric constant tensor:
#      x y z
#    x 4.477550 0.000000 -0.404320 
#    y 0.000000 4.567000 0.000000 
#    z -0.404320 0.000000 5.372820 
# 
# 
# High freq. dielectric constant tensor:
#      x y z
#    x 2.054780 0.000000 -0.008160 
#    y 0.000000 2.028450 0.000000 
#    z -0.008160 0.000000 2.076980 
# 
# From -- ./inp_files/23458.got.cif
#   From: 2010.06.25/outbox.cif.g09.slc.cpg/sg15_12_cif.got.tgz:23458.got - 2010.06.28 07:06:18.
