data_PCOD8134974
_publ_section_title
;
Structure prediction by ZEFSAII (Michael W. Deem and Ramdas Pophale) SiO2 
 PCOD8134974
Probable space group: C 2/C
;
_chemical_formula_sum "Si O2"
_cell_formula_units_Z 48
_cell_length_a 15.978609
_cell_length_b 8.767016
_cell_length_c 26.724980
_cell_angle_alpha 90.000000
_cell_angle_beta 137.770805
_cell_angle_gamma 90.000000
_cell_volume 2516.174442
_symmetry_space_group_name_H-M "C 2/C"
_symmetry_group_IT_number 15
_symmetry_cell_setting 'monoclinic'
loop_
_space_group_symop_operation_xyz
x,y,z
-x,y,1/2-z
-x,-y,-z
x,-y,1/2+z
1/2+x,1/2+y,z
1/2-x,1/2+y,1/2-z
1/2-x,1/2-y,-z
1/2+x,1/2-y,1/2+z
loop_
_atom_site_type_symbol
_atom_site_label
_atom_site_fract_x
_atom_site_fract_y
_atom_site_fract_z
Si Si1 0.825906 0.139289 0.430127
Si Si2 0.898561 0.563534 0.916297
Si Si3 0.882158 0.587752 0.665473
Si Si4 0.472713 0.251010 0.855060
Si Si5 0.763214 0.269672 0.818145
Si Si6 0.971213 0.956541 0.409506
O O1 0.811785 0.315142 0.407407
O O2 0.897262 0.048650 0.418767
O O3 0.690541 0.067051 0.380802
O O4 0.906410 0.127996 0.516216
O O5 0.970479 0.646204 0.903076
O O6 0.808610 0.437702 0.852673
O O7 0.000000 0.500000 0.000000
O O8 0.791752 0.699477 0.655574
O O9 0.000000 0.536153 0.750000
O O10 0.924419 0.678363 0.635247
O O11 0.337292 0.267749 0.770250
O O12 0.514386 0.423704 0.886331
O O13 0.879138 0.173257 0.847714
#
# Coordination Sequence:
#
# PCOD8134974 Si02
#       6
#     8   8   8   8   8   8
#     4   9  18  34  55  79 110 148 183 231 286 339
#     4  11  21  37  59  88 115 147 195 246 291 340
#     4   9  20  38  57  81 115 153 189 236 295 352
#     4  10  21  35  57  86 112 153 196 235 290 352
#     4  10  19  37  59  81 115 146 195 244 290 345
#     4   9  17  32  55  80 106 146 192 228 277 339
#
# _framework density 19.076578000000001
#
# number of rings (size 3 to 8) (size 9 to 14) (size 15 to 20)
#    0.000    2.333    1.667    1.000    2.333    2.000 
#    0.000    5.000    0.000    0.000    0.000    0.000 
#    0.000    0.000    0.000    0.000    0.000    0.000 
#
# Total GULP energy -297563.209829 kJ/mol
# GULP energy per Si atom -12398.467076 kJ/mol
# Density = 1.903316 g / cm^3
# Si number density = 19.076578 Si / 1000 Ang^3
#
#
#
# Elastic Constant Matrix: (Units=GPa)
#
#
# Indices 1 2 3 4 5 6 
#
# 1 77.6246 45.9850 36.2033 0.0000 -2.1370 0.0000
# 2 45.9850 133.6225 47.0792 0.0000 1.2707 0.0000
# 3 36.2033 47.0792 75.9612 0.0000 -7.7027 0.0000
# 4 0.0000 0.0000 0.0000 37.8999 0.0000 -1.3382
# 5 -2.1370 1.2707 -7.7027 0.0000 27.2567 0.0000
# 6 0.0000 0.0000 0.0000 -1.3382 0.0000 31.9373
#
#
#
# Elastic Compliance Matrix: (Units=1/GPa)
#
#
# Indices 1 2 3 4 5 6 
#
# 1 0.018162 -0.004088 -0.006135 0.000000 -0.000119 0.000000
# 2 -0.004088 0.010623 -0.004857 0.000000 -0.002188 0.000000
# 3 -0.006135 -0.004857 0.019636 0.000000 0.005295 0.000000
# 4 0.000000 0.000000 0.000000 0.026424 0.000000 0.001107
# 5 -0.000119 -0.002188 0.005295 0.000000 0.038277 0.000000
# 6 0.000000 0.000000 0.000000 0.001107 0.000000 0.031358
#
#
# Mechanical properties :
#
#
# Convention : Reuss Voigt Hill
#
# Bulk Modulus (GPa) = 54.76175 60.63813 57.69994
# Shear Modulus (GPa) = 27.66615 29.94818 28.80717
#
# Velocity S-wave (km/s) = 3.81237 3.96649 3.89019
# Velocity P-wave (km/s) = 6.93884 7.26863 7.10565
#
# Compressibility (1/GPa) = 0.01826092
#
# Stress axis : x y z
#
# Youngs Moduli (GPa) = 55.06022 94.13754 50.92737
#
# Poissons Ratio (x) = 0.38481 0.31242
# Poissons Ratio (y) = 0.22507 0.24738
# Poissons Ratio (z) = 0.33777 0.45727
#
# Static dielectric constant tensor:
#      x y z
#    x 3.268480 0.000000 -0.046450 
#    y 0.000000 3.703950 0.000000 
#    z -0.046450 0.000000 3.600400 
# 
# 
# High freq. dielectric constant tensor:
#      x y z
#    x 1.712200 0.000000 -0.005090 
#    y 0.000000 1.748720 0.000000 
#    z -0.005090 0.000000 1.752200 
# 
# From -- ./inp_files/208572.got.cif
#   From: 2010.06.25/outbox.cif.g09.slc.cpg/sg15_105_cif.got.tgz:208572.got - 2010.06.28 07:06:18.
