data_PCOD8134211
_publ_section_title
;
Structure prediction by ZEFSAII (Michael W. Deem and Ramdas Pophale) SiO2 
 PCOD8134211
Probable space group: C 2/C
;
_chemical_formula_sum "Si O2"
_cell_formula_units_Z 52
_cell_length_a 24.171406
_cell_length_b 19.464765
_cell_length_c 9.312802
_cell_angle_alpha 90.000000
_cell_angle_beta 142.488748
_cell_angle_gamma 90.000000
_cell_volume 2668.023823
_symmetry_space_group_name_H-M "C 2/C"
_symmetry_group_IT_number 15
_symmetry_cell_setting 'monoclinic'
loop_
_space_group_symop_operation_xyz
x,y,z
-x,y,1/2-z
-x,-y,-z
x,-y,1/2+z
1/2+x,1/2+y,z
1/2-x,1/2+y,1/2-z
1/2-x,1/2-y,-z
1/2+x,1/2-y,1/2+z
loop_
_atom_site_type_symbol
_atom_site_label
_atom_site_fract_x
_atom_site_fract_y
_atom_site_fract_z
Si Si1 0.977501 0.592463 0.456436
Si Si2 0.356266 0.198376 0.321832
Si Si3 0.856171 0.321855 0.146186
Si Si4 0.657808 0.670770 0.891623
Si Si5 0.002494 0.929107 0.088162
Si Si6 0.354849 0.683522 0.309251
Si Si7 0.000000 0.502843 0.250000
O O1 0.085929 0.611060 0.682540
O O2 0.945151 0.553127 0.245315
O O3 0.927981 0.664541 0.362481
O O4 0.944850 0.546272 0.526566
O O5 0.387936 0.197682 0.551279
O O6 0.350729 0.275898 0.256271
O O7 0.264280 0.153658 0.119056
O O8 0.880377 0.255193 0.288984
O O9 0.749113 0.338995 0.936875
O O10 0.597544 0.604498 0.732920
O O11 0.627106 0.698249 0.985117
O O12 0.000000 0.947058 0.250000
O O13 0.919319 0.877160 0.881163
O O14 0.000000 0.000000 0.000000
#
# Coordination Sequence:
#
# PCOD8134211 Si02
#       7
#     8   8   8   8   8   8   4
#     4  11  21  39  54  80 108 149 174 226 268 327
#     4  10  19  35  58  83 111 139 180 226 272 315
#     4  10  19  35  58  83 111 139 180 226 272 315
#     4   9  20  36  56  83 109 141 183 225 267 323
#     4  10  21  39  54  77 110 146 182 223 267 320
#     4   9  20  36  56  83 109 141 183 225 267 323
#     4  10  24  38  52  76 114 140 190 210 268 340
#
# _framework density 19.490082000000001
#
# number of rings (size 3 to 8) (size 9 to 14) (size 15 to 20)
#    0.000    2.154    1.538    0.923    2.154    1.231 
#    5.538    0.000    0.000    0.000    0.000    0.000 
#    0.000    0.000    0.000    0.000    0.000    0.000 
#
# Total GULP energy -322159.239615 kJ/mol
# GULP energy per Si atom -12390.739985 kJ/mol
# Density = 1.944572 g / cm^3
# Si number density = 19.490082 Si / 1000 Ang^3
#
#
#
# Elastic Constant Matrix: (Units=GPa)
#
#
# Indices 1 2 3 4 5 6 
#
# 1 79.0609 42.5544 37.5297 0.0000 -3.6067 0.0000
# 2 42.5544 102.8162 48.4763 0.0000 -3.0689 0.0000
# 3 37.5297 48.4763 67.6634 0.0000 -3.3723 0.0000
# 4 0.0000 0.0000 0.0000 26.0222 0.0000 -9.0754
# 5 -3.6067 -3.0689 -3.3723 0.0000 27.5574 0.0000
# 6 0.0000 0.0000 0.0000 -9.0754 0.0000 33.5830
#
#
#
# Elastic Compliance Matrix: (Units=1/GPa)
#
#
# Indices 1 2 3 4 5 6 
#
# 1 0.018332 -0.004208 -0.007100 0.000000 0.001062 0.000000
# 2 -0.004208 0.015657 -0.008878 0.000000 0.000106 0.000000
# 3 -0.007100 -0.008878 0.025135 0.000000 0.001158 0.000000
# 4 0.000000 0.000000 0.000000 0.042427 0.000000 0.011466
# 5 0.001062 0.000106 0.001158 0.000000 0.036580 0.000000
# 6 0.000000 0.000000 0.000000 0.011466 0.000000 0.032875
#
#
# Mechanical properties :
#
#
# Convention : Reuss Voigt Hill
#
# Bulk Modulus (GPa) = 53.32742 56.29570 54.81156
# Shear Modulus (GPa) = 22.97475 25.49786 24.23630
#
# Velocity S-wave (km/s) = 3.43708 3.62089 3.53018
# Velocity P-wave (km/s) = 6.57054 6.81382 6.69329
#
# Compressibility (1/GPa) = 0.01875208
#
# Stress axis : x y z
#
# Youngs Moduli (GPa) = 54.54804 63.87083 39.78494
#
# Poissons Ratio (x) = 0.26878 0.28249
# Poissons Ratio (y) = 0.22955 0.35319
# Poissons Ratio (z) = 0.38731 0.56701
#
# Static dielectric constant tensor:
#      x y z
#    x 3.675540 0.000000 0.028880 
#    y 0.000000 3.439570 0.000000 
#    z 0.028880 0.000000 3.645040 
# 
# 
# High freq. dielectric constant tensor:
#      x y z
#    x 1.761760 0.000000 -0.006370 
#    y 0.000000 1.750480 0.000000 
#    z -0.006370 0.000000 1.753350 
# 
# From -- ./inp_files/63444.got.cif
#   From: 2010.06.25/outbox.cif.g09.slc.cpg/sg15_32_cif.got.tgz:63444.got - 2010.06.28 07:06:18.
