data_PCOD8134793
_publ_section_title
;
Structure prediction by ZEFSAII (Michael W. Deem and Ramdas Pophale) SiO2 
 PCOD8134793
Probable space group: C 2/C
;
_chemical_formula_sum "Si O2"
_cell_formula_units_Z 44
_cell_length_a 6.681594
_cell_length_b 14.174715
_cell_length_c 29.155176
_cell_angle_alpha 90.000000
_cell_angle_beta 49.534530
_cell_angle_gamma 90.000000
_cell_volume 2100.772413
_symmetry_space_group_name_H-M "C 2/C"
_symmetry_group_IT_number 15
_symmetry_cell_setting 'monoclinic'
loop_
_space_group_symop_operation_xyz
x,y,z
-x,y,1/2-z
-x,-y,-z
x,-y,1/2+z
1/2+x,1/2+y,z
1/2-x,1/2+y,1/2-z
1/2-x,1/2-y,-z
1/2+x,1/2-y,1/2+z
loop_
_atom_site_type_symbol
_atom_site_label
_atom_site_fract_x
_atom_site_fract_y
_atom_site_fract_z
Si Si1 0.472427 0.798610 0.653541
Si Si2 0.904532 0.265630 0.022890
Si Si3 0.203644 0.491499 0.601795
Si Si4 0.500000 0.268963 0.250000
Si Si5 0.041037 0.652210 0.692836
Si Si6 0.769884 0.093723 0.501054
O O1 0.721432 0.745462 0.594668
O O2 0.483566 0.910290 0.641214
O O3 0.486458 0.793555 0.706383
O O4 0.208598 0.749843 0.672367
O O5 0.131889 0.187474 0.987459
O O6 0.750000 0.250000 0.000000
O O7 0.029038 0.371378 0.004605
O O8 0.189588 0.574612 0.640743
O O9 0.162571 0.523145 0.555519
O O10 0.499648 0.451459 0.563834
O O11 0.762328 0.332209 0.209399
O O12 0.000000 0.610711 0.750000
#
# Coordination Sequence:
#
# PCOD8134793 Si02
#       6
#     8   8   8   4   8   8
#     4  10  22  38  62  91 122 164 210 254 314 382
#     4  10  19  36  62  89 127 171 202 252 319 375
#     4  10  20  39  64  93 124 161 206 259 319 382
#     4  10  22  44  62  82 122 162 204 266 318 360
#     4  10  22  42  61  87 120 160 210 260 316 376
#     4   9  20  37  58  92 130 158 203 255 310 385
#
# _framework density 20.944676999999999
#
# number of rings (size 3 to 8) (size 9 to 14) (size 15 to 20)
#    0.000    2.182    0.000    2.182    1.273    2.909 
#    4.909   25.455    0.000    0.000    0.000    0.000 
#    0.000    0.000    0.000    0.000    0.000    0.000 
#
# Total GULP energy -272752.159953 kJ/mol
# GULP energy per Si atom -12397.825452 kJ/mol
# Density = 2.089701 g / cm^3
# Si number density = 20.944677 Si / 1000 Ang^3
#
#
#
# Elastic Constant Matrix: (Units=GPa)
#
#
# Indices 1 2 3 4 5 6 
#
# 1 128.5385 59.6100 40.8969 0.0003 -2.8626 0.0011
# 2 59.6100 113.9924 61.9201 -0.0012 0.1303 0.0006
# 3 40.8969 61.9201 112.3118 -0.0030 1.9956 0.0005
# 4 0.0003 -0.0012 -0.0030 45.0945 0.0007 -7.0011
# 5 -2.8626 0.1303 1.9956 0.0007 21.6381 -0.0008
# 6 0.0011 0.0006 0.0005 -7.0011 -0.0008 31.9927
#
#
#
# Elastic Compliance Matrix: (Units=1/GPa)
#
#
# Indices 1 2 3 4 5 6 
#
# 1 0.010418 -0.004817 -0.001165 0.000000 0.001515 0.000000
# 2 -0.004817 0.014757 -0.006379 0.000000 -0.000138 0.000000
# 3 -0.001165 -0.006379 0.012868 0.000001 -0.001302 0.000000
# 4 0.000000 0.000000 0.000001 0.022956 -0.000001 0.005023
# 5 0.001515 -0.000138 -0.001302 -0.000001 0.046536 0.000001
# 6 0.000000 0.000000 0.000000 0.005023 0.000001 0.032356
#
#
# Mechanical properties :
#
#
# Convention : Reuss Voigt Hill
#
# Bulk Modulus (GPa) = 75.07013 75.52183 75.29598
# Shear Modulus (GPa) = 29.57647 32.57277 31.07462
#
# Velocity S-wave (km/s) = 3.76190 3.94786 3.85600
# Velocity P-wave (km/s) = 7.40197 7.54432 7.47348
#
# Compressibility (1/GPa) = 0.01332088
#
# Stress axis : x y z
#
# Youngs Moduli (GPa) = 95.98827 67.76561 77.71132
#
# Poissons Ratio (x) = 0.32642 0.09052
# Poissons Ratio (y) = 0.46236 0.49574
# Poissons Ratio (z) = 0.11181 0.43230
#
# Static dielectric constant tensor:
#      x y z
#    x 4.247560 -0.000170 -0.525590 
#    y -0.000170 3.925190 0.000140 
#    z -0.525590 0.000140 4.256040 
# 
# 
# High freq. dielectric constant tensor:
#      x y z
#    x 1.811610 0.000000 -0.003020 
#    y 0.000000 1.815170 0.000000 
#    z -0.003020 0.000000 1.831130 
# 
# From -- ./inp_files/260352.got.cif
#   From: 2010.06.25/outbox.cif.g09.slc.cpg/sg15_131_cif.got.tgz:260352.got - 2010.06.28 07:06:18.
