data_PCOD8134413
_publ_section_title
;
Structure prediction by ZEFSAII (Michael W. Deem and Ramdas Pophale) SiO2 
 PCOD8134413
Probable space group: C 2/C
;
_chemical_formula_sum "Si O2"
_cell_formula_units_Z 44
_cell_length_a 12.436954
_cell_length_b 13.733690
_cell_length_c 12.542442
_cell_angle_alpha 90.000000
_cell_angle_beta 72.639161
_cell_angle_gamma 90.000000
_cell_volume 2044.720954
_symmetry_space_group_name_H-M "C 2/C"
_symmetry_group_IT_number 15
_symmetry_cell_setting 'monoclinic'
loop_
_space_group_symop_operation_xyz
x,y,z
-x,y,1/2-z
-x,-y,-z
x,-y,1/2+z
1/2+x,1/2+y,z
1/2-x,1/2+y,1/2-z
1/2-x,1/2-y,-z
1/2+x,1/2-y,1/2+z
loop_
_atom_site_type_symbol
_atom_site_label
_atom_site_fract_x
_atom_site_fract_y
_atom_site_fract_z
Si Si1 0.981240 0.689404 0.381733
Si Si2 0.500000 0.548261 0.250000
Si Si3 0.184717 0.124332 0.324654
Si Si4 0.204031 0.662758 0.899113
Si Si5 0.098199 0.486528 0.804431
Si Si6 0.433005 0.606936 0.927133
O O1 0.055700 0.597864 0.402180
O O2 0.000000 0.676445 0.250000
O O3 0.853152 0.679752 0.466693
O O4 0.018226 0.798779 0.404463
O O5 0.611835 0.612873 0.236777
O O6 0.505753 0.485149 0.140455
O O7 0.207949 0.238728 0.329422
O O8 0.296865 0.059856 0.289900
O O9 0.110394 0.082297 0.443481
O O10 0.132895 0.582471 0.857162
O O11 0.331380 0.630130 0.875767
O O12 0.000000 0.516109 0.750000
#
# Coordination Sequence:
#
# PCOD8134413 Si02
#       6
#     8   4   8   8   8   8
#     4  10  19  35  63  93 119 151 206 252 296 364
#     4  12  24  42  62  88 130 164 206 264 314 358
#     4  11  25  41  63  92 126 165 211 255 311 369
#     4  11  22  39  65  93 126 163 202 261 313 365
#     4  11  22  39  63  94 126 158 206 256 313 372
#     4  11  21  41  67  90 117 168 217 254 299 371
#
# _framework density 21.518830000000001
#
# number of rings (size 3 to 8) (size 9 to 14) (size 15 to 20)
#    0.000    1.091    2.727    7.636    1.273    0.000 
#    0.000    0.000    0.000    3.273    0.000    0.000 
#    0.000    0.000    0.000    0.000    0.000    0.000 
#
# Total GULP energy -272591.455007 kJ/mol
# GULP energy per Si atom -12390.520682 kJ/mol
# Density = 2.146985 g / cm^3
# Si number density = 21.518830 Si / 1000 Ang^3
#
#
#
# Elastic Constant Matrix: (Units=GPa)
#
#
# Indices 1 2 3 4 5 6 
#
# 1 84.5364 43.1485 13.6155 0.0000 16.5167 0.0000
# 2 43.1485 103.2456 33.8675 0.0000 14.7117 0.0000
# 3 13.6155 33.8675 55.0397 0.0000 -7.6846 0.0000
# 4 0.0000 0.0000 0.0000 13.6024 0.0000 -3.1703
# 5 16.5167 14.7117 -7.6846 0.0000 28.1593 0.0000
# 6 0.0000 0.0000 0.0000 -3.1703 0.0000 31.9662
#
#
#
# Elastic Compliance Matrix: (Units=1/GPa)
#
#
# Indices 1 2 3 4 5 6 
#
# 1 0.016166 -0.005090 -0.001892 0.000000 -0.007339 0.000000
# 2 -0.005090 0.016211 -0.009857 0.000000 -0.008174 0.000000
# 3 -0.001892 -0.009857 0.026589 0.000000 0.013516 0.000000
# 4 0.000000 0.000000 0.000000 0.075256 0.000000 0.007464
# 5 -0.007339 -0.008174 0.013516 0.000000 0.047776 0.000000
# 6 0.000000 0.000000 0.000000 0.007464 0.000000 0.032023
#
#
# Mechanical properties :
#
#
# Convention : Reuss Voigt Hill
#
# Bulk Modulus (GPa) = 39.54400 47.12052 43.33226
# Shear Modulus (GPa) = 19.52148 24.89159 22.20654
#
# Velocity S-wave (km/s) = 3.01521 3.40477 3.21590
# Velocity P-wave (km/s) = 5.52615 6.11568 5.82837
#
# Compressibility (1/GPa) = 0.02528829
#
# Stress axis : x y z
#
# Youngs Moduli (GPa) = 61.85951 61.68689 37.60920
#
# Poissons Ratio (x) = 0.31396 0.07115
# Poissons Ratio (y) = 0.31484 0.37072
# Poissons Ratio (z) = 0.11703 0.60806
#
# Static dielectric constant tensor:
#      x y z
#    x 3.827240 0.000000 -0.195770 
#    y 0.000000 4.265730 0.000000 
#    z -0.195770 0.000000 3.723580 
# 
# 
# High freq. dielectric constant tensor:
#      x y z
#    x 1.833940 0.000000 -0.018740 
#    y 0.000000 1.863020 0.000000 
#    z -0.018740 0.000000 1.831230 
# 
# From -- ./inp_files/86100.got.cif
#   From: 2010.06.25/outbox.cif.g09.slc.cpg/sg15_44_cif.got.tgz:86100.got - 2010.06.28 07:06:18.
