data_PCOD8134331
_publ_section_title
;
Structure prediction by ZEFSAII (Michael W. Deem and Ramdas Pophale) SiO2 
 PCOD8134331
Probable space group: C 2/C
;
_chemical_formula_sum "Si O2"
_cell_formula_units_Z 56
_cell_length_a 9.562879
_cell_length_b 24.469729
_cell_length_c 16.991203
_cell_angle_alpha 90.000000
_cell_angle_beta 135.898948
_cell_angle_gamma 90.000000
_cell_volume 2766.973499
_symmetry_space_group_name_H-M "C 2/C"
_symmetry_group_IT_number 15
_symmetry_cell_setting 'monoclinic'
loop_
_space_group_symop_operation_xyz
x,y,z
-x,y,1/2-z
-x,-y,-z
x,-y,1/2+z
1/2+x,1/2+y,z
1/2-x,1/2+y,1/2-z
1/2-x,1/2-y,-z
1/2+x,1/2-y,1/2+z
loop_
_atom_site_type_symbol
_atom_site_label
_atom_site_fract_x
_atom_site_fract_y
_atom_site_fract_z
Si Si1 0.899647 0.998920 0.327481
Si Si2 0.559648 0.683365 0.185226
Si Si3 0.642148 0.802606 0.232600
Si Si4 0.708349 0.969733 0.585766
Si Si5 0.314077 0.133627 0.524636
Si Si6 0.905946 0.113032 0.910532
Si Si7 0.238735 0.599151 0.340504
O O1 0.792135 0.022407 0.206786
O O2 0.816225 0.036932 0.363562
O O3 0.139453 0.003725 0.415398
O O4 0.858126 0.936077 0.330793
O O5 0.500000 0.671137 0.250000
O O6 0.675475 0.740609 0.216434
O O7 0.701914 0.634973 0.211489
O O8 0.348282 0.682146 0.053169
O O9 0.500000 0.798226 0.250000
O O10 0.533027 0.839242 0.122055
O O11 0.851230 0.831115 0.341648
O O12 0.679281 0.906641 0.547965
O O13 0.500000 0.000000 0.500000
O O14 0.243283 0.102690 0.575702
O O15 0.139418 0.119277 0.032273
O O16 0.000000 0.602138 0.250000
#
# Coordination Sequence:
#
# PCOD8134331 Si02
#       7
#     8   8   8   8   8   8   8
#     4  11  23  40  57  87 126 159 200 253 301 375
#     4  10  19  38  61  88 122 152 205 259 305 357
#     4   9  19  34  61  89 113 156 196 256 309 357
#     4  11  23  36  59  88 124 160 200 247 310 364
#     4  10  19  35  60  91 118 153 205 251 301 367
#     4  10  21  39  59  87 122 151 204 250 302 368
#     4  11  24  38  63  87 118 165 209 250 307 368
#
# _framework density 20.238719
#
# number of rings (size 3 to 8) (size 9 to 14) (size 15 to 20)
#    0.000    1.714    2.857    2.571    2.000    2.857 
#    0.000    0.714    6.286    0.000    0.000    0.000 
#    0.000    0.000    0.000    0.000    0.000    0.000 
#
# Total GULP energy -347040.058153 kJ/mol
# GULP energy per Si atom -12394.287791 kJ/mol
# Density = 2.019265 g / cm^3
# Si number density = 20.238719 Si / 1000 Ang^3
#
#
#
# Elastic Constant Matrix: (Units=GPa)
#
#
# Indices 1 2 3 4 5 6 
#
# 1 64.2260 32.9148 43.8316 -0.0001 14.2636 0.0000
# 2 32.9148 136.3858 49.4131 -0.0001 1.4113 0.0000
# 3 43.8316 49.4131 108.5826 -0.0007 17.0810 0.0002
# 4 -0.0001 -0.0001 -0.0007 35.3788 -0.0003 -1.8134
# 5 14.2636 1.4113 17.0810 -0.0003 37.5342 0.0001
# 6 0.0000 0.0000 0.0002 -1.8134 0.0001 19.8311
#
#
#
# Elastic Compliance Matrix: (Units=1/GPa)
#
#
# Indices 1 2 3 4 5 6 
#
# 1 0.023171 -0.002942 -0.007160 0.000000 -0.005437 0.000000
# 2 -0.002942 0.009244 -0.003382 0.000000 0.002310 0.000000
# 3 -0.007160 -0.003382 0.014208 0.000000 -0.003618 0.000000
# 4 0.000000 0.000000 0.000000 0.028399 0.000000 0.002597
# 5 -0.005437 0.002310 -0.003618 0.000000 0.030268 0.000000
# 6 0.000000 0.000000 0.000000 0.002597 0.000000 0.050663
#
#
# Mechanical properties :
#
#
# Convention : Reuss Voigt Hill
#
# Bulk Modulus (GPa) = 50.87658 62.39036 56.63347
# Shear Modulus (GPa) = 26.38913 30.75113 28.57013
#
# Velocity S-wave (km/s) = 3.61486 3.90220 3.76128
# Velocity P-wave (km/s) = 6.52808 7.15521 6.84883
#
# Compressibility (1/GPa) = 0.01965541
#
# Stress axis : x y z
#
# Youngs Moduli (GPa) = 43.15712 108.18246 70.38305
#
# Poissons Ratio (x) = 0.31826 0.50391
# Poissons Ratio (y) = 0.12696 0.23806
# Poissons Ratio (z) = 0.30898 0.36591
#
# Static dielectric constant tensor:
#      x y z
#    x 3.459680 0.000000 0.021160 
#    y 0.000000 3.900150 0.000000 
#    z 0.021160 0.000000 4.099060 
# 
# 
# High freq. dielectric constant tensor:
#      x y z
#    x 1.749720 0.000000 -0.004530 
#    y 0.000000 1.790200 0.000000 
#    z -0.004530 0.000000 1.805920 
# 
# From -- ./inp_files/193320.got.cif
#   From: 2010.06.25/outbox.cif.g09.slc.cpg/sg15_97_cif.got.tgz:193320.got - 2010.06.28 07:06:18.
