data_PCOD8134330
_publ_section_title
;
Structure prediction by ZEFSAII (Michael W. Deem and Ramdas Pophale) SiO2 
 PCOD8134330
Probable space group: C 2/C
;
_chemical_formula_sum "Si O2"
_cell_formula_units_Z 44
_cell_length_a 11.048306
_cell_length_b 22.404108
_cell_length_c 11.869145
_cell_angle_alpha 90.000000
_cell_angle_beta 49.553853
_cell_angle_gamma 90.000000
_cell_volume 2235.818810
_symmetry_space_group_name_H-M "C 2/C"
_symmetry_group_IT_number 15
_symmetry_cell_setting 'monoclinic'
loop_
_space_group_symop_operation_xyz
x,y,z
-x,y,1/2-z
-x,-y,-z
x,-y,1/2+z
1/2+x,1/2+y,z
1/2-x,1/2+y,1/2-z
1/2-x,1/2-y,-z
1/2+x,1/2-y,1/2+z
loop_
_atom_site_type_symbol
_atom_site_label
_atom_site_fract_x
_atom_site_fract_y
_atom_site_fract_z
Si Si1 0.528803 0.287154 0.445299
Si Si2 0.000000 0.295252 0.750000
Si Si3 0.628899 0.086018 0.923356
Si Si4 0.211558 0.116949 0.453097
Si Si5 0.879762 0.521007 0.224088
Si Si6 0.897010 0.701822 0.702432
O O1 0.481367 0.245799 0.369883
O O2 0.459832 0.353599 0.464591
O O3 0.715588 0.292283 0.349451
O O4 0.452205 0.261516 0.605458
O O5 0.845689 0.336105 0.834366
O O6 0.575939 0.146259 0.895471
O O7 0.689606 0.037257 0.796252
O O8 0.770053 0.099623 0.926448
O O9 0.471629 0.063047 0.080925
O O10 0.231323 0.057584 0.365204
O O11 0.000000 0.500639 0.250000
O O12 0.000000 0.691435 0.750000
#
# Coordination Sequence:
#
# PCOD8134330 Si02
#       6
#     8   4   8   8   8   8
#     4  12  24  39  63  92 124 162 202 254 314 362
#     4  12  18  38  62  94 126 154 202 260 294 364
#     4  10  19  35  60  90 118 162 205 249 297 362
#     4  11  19  36  62  92 124 153 206 259 294 357
#     4   9  18  34  60  88 122 161 206 248 297 360
#     4  12  25  41  60  88 126 162 205 250 308 377
#
# _framework density 19.679590999999999
#
# number of rings (size 3 to 8) (size 9 to 14) (size 15 to 20)
#    0.000    1.091    6.364    2.727    0.000    0.000 
#    0.000    0.909    0.000    4.364    0.000    0.000 
#    0.000    0.000    0.000    0.000    0.000    0.000 
#
# Total GULP energy -272889.073057 kJ/mol
# GULP energy per Si atom -12404.048775 kJ/mol
# Density = 1.963480 g / cm^3
# Si number density = 19.679591 Si / 1000 Ang^3
#
#
#
# Elastic Constant Matrix: (Units=GPa)
#
#
# Indices 1 2 3 4 5 6 
#
# 1 99.5681 55.3488 61.2888 0.0000 2.6742 0.0000
# 2 55.3488 104.8770 42.2996 0.0000 13.3086 0.0000
# 3 61.2888 42.2996 82.7972 0.0000 2.8349 0.0000
# 4 0.0000 0.0000 0.0000 -65.0123 0.0000 56.3486
# 5 2.6742 13.3086 2.8349 0.0000 36.8233 0.0000
# 6 0.0000 0.0000 0.0000 56.3486 0.0000 13.1895
#
#
#
# Elastic Compliance Matrix: (Units=1/GPa)
#
#
# Indices 1 2 3 4 5 6 
#
# 1 0.021263 -0.006384 -0.012537 0.000000 0.001728 0.000000
# 2 -0.006384 0.014506 -0.002528 0.000000 -0.004584 0.000000
# 3 -0.012537 -0.002528 0.022647 0.000000 0.000081 0.000000
# 4 0.000000 0.000000 0.000000 -0.003271 0.000000 0.013973
# 5 0.001728 -0.004584 0.000081 0.000000 0.028682 0.000000
# 6 0.000000 0.000000 0.000000 0.013973 0.000000 0.016122
#
#
# Mechanical properties :
#
#
# Convention : Reuss Voigt Hill
#
# Bulk Modulus (GPa) = 64.44602 67.23519 65.84060
# Shear Modulus (GPa) = 33.77951 5.55376 19.66664
#
# Velocity S-wave (km/s) = 4.14753 1.68173 3.16467
# Velocity P-wave (km/s) = 7.46691 6.16523 6.84707
#
# Compressibility (1/GPa) = 0.01551686
#
# Stress axis : x y z
#
# Youngs Moduli (GPa) = 47.02984 68.93884 44.15677
#
# Poissons Ratio (x) = 0.44013 0.55359
# Poissons Ratio (y) = 0.30026 0.11162
# Poissons Ratio (z) = 0.58961 0.17426
#
# Static dielectric constant tensor:
#      x y z
#    x 3.498670 0.000000 0.236830 
#    y 0.000000 3.794180 0.000000 
#    z 0.236830 0.000000 3.698880 
# 
# 
# High freq. dielectric constant tensor:
#      x y z
#    x 1.749400 0.000000 0.018910 
#    y 0.000000 1.772870 0.000000 
#    z 0.018910 0.000000 1.767830 
# 
# From -- ./inp_files/52086.got.cif
#   From: 2010.06.25/outbox.cif.g09.slc.cpg/sg15_27_cif.got.tgz:52086.got - 2010.06.28 07:06:18.
