data_PCOD8134636
_publ_section_title
;
Structure prediction by ZEFSAII (Michael W. Deem and Ramdas Pophale) SiO2 
 PCOD8134636
Probable space group: C 2/C
;
_chemical_formula_sum "Si O2"
_cell_formula_units_Z 40
_cell_length_a 14.438388
_cell_length_b 9.448970
_cell_length_c 28.577181
_cell_angle_alpha 90.000000
_cell_angle_beta 28.658846
_cell_angle_gamma 90.000000
_cell_volume 1869.802390
_symmetry_space_group_name_H-M "C 2/C"
_symmetry_group_IT_number 15
_symmetry_cell_setting 'monoclinic'
loop_
_space_group_symop_operation_xyz
x,y,z
-x,y,1/2-z
-x,-y,-z
x,-y,1/2+z
1/2+x,1/2+y,z
1/2-x,1/2+y,1/2-z
1/2-x,1/2-y,-z
1/2+x,1/2-y,1/2+z
loop_
_atom_site_type_symbol
_atom_site_label
_atom_site_fract_x
_atom_site_fract_y
_atom_site_fract_z
Si Si1 0.671500 0.585247 0.324100
Si Si2 0.202643 0.417238 0.147551
Si Si3 0.181850 0.953678 0.064552
Si Si4 0.603049 0.147635 0.121745
Si Si5 0.627561 0.223679 0.507223
O O1 0.679279 0.454854 0.357919
O O2 0.524738 0.531897 0.349169
O O3 0.591098 0.730764 0.383477
O O4 0.877121 0.622079 0.209862
O O5 0.154473 0.569883 0.146667
O O6 0.317225 0.317225 0.061995
O O7 0.000000 0.340791 0.250000
O O8 0.151884 0.812648 0.108089
O O9 0.336573 0.058522 0.021570
O O10 0.265599 0.917545 0.976721
O O11 0.750000 0.250000 0.500000
#
# Coordination Sequence:
#
# PCOD8134636 Si02
#       5
#     8   8   8   8   8
#     4  10  21  34  65  81 119 156 198 230 295 351
#     4  10  20  37  60  86 119 156 194 234 291 350
#     4  10  22  37  60  84 122 146 201 244 284 346
#     4  10  21  37  57  88 118 154 189 243 293 342
#     4  10  19  36  59  86 113 152 197 239 277 348
#
# _framework density 21.392634999999999
#
# number of rings (size 3 to 8) (size 9 to 14) (size 15 to 20)
#    0.000    2.000    4.000    0.600    2.800    1.600 
#    0.000    4.000    0.000    0.000    0.000    0.000 
#    0.000    0.000    0.000    0.000    0.000    0.000 
#
# Total GULP energy -247864.246149 kJ/mol
# GULP energy per Si atom -12393.212307 kJ/mol
# Density = 2.134394 g / cm^3
# Si number density = 21.392635 Si / 1000 Ang^3
#
#
#
# Elastic Constant Matrix: (Units=GPa)
#
#
# Indices 1 2 3 4 5 6 
#
# 1 18.6984 -4.9238 -11.2454 -0.0004 -1.2533 0.0012
# 2 -4.9238 108.1695 6.4283 -0.0011 -3.7357 0.0006
# 3 -11.2454 6.4283 69.4215 -0.0022 -7.9350 -0.0014
# 4 -0.0004 -0.0011 -0.0022 24.6678 0.0000 -3.0995
# 5 -1.2533 -3.7357 -7.9350 0.0000 25.4525 -0.0006
# 6 0.0012 0.0006 -0.0014 -3.0995 -0.0006 17.2483
#
#
#
# Elastic Compliance Matrix: (Units=1/GPa)
#
#
# Indices 1 2 3 4 5 6 
#
# 1 0.060789 0.002378 0.010379 0.000002 0.006578 -0.000003
# 2 0.002378 0.009421 -0.000327 0.000000 0.001398 0.000000
# 3 0.010379 -0.000327 0.016767 0.000002 0.005690 0.000001
# 4 0.000002 0.000000 0.000002 0.041475 0.000001 0.007453
# 5 0.006578 0.001398 0.005690 0.000001 0.041592 0.000002
# 6 -0.000003 0.000000 0.000001 0.007453 0.000002 0.059316
#
#
# Mechanical properties :
#
#
# Convention : Reuss Voigt Hill
#
# Bulk Modulus (GPa) = 8.94177 19.64527 14.29352
# Shear Modulus (GPa) = 20.67994 27.20908 23.94451
#
# Velocity S-wave (km/s) = 3.11253 3.57023 3.34920
# Velocity P-wave (km/s) = 4.13594 5.11844 4.65320
#
# Compressibility (1/GPa) = 0.11183464
#
# Stress axis : x y z
#
# Youngs Moduli (GPa) = 16.45023 106.14916 59.64194
#
# Poissons Ratio (x) = -0.25237 -0.61901
# Poissons Ratio (y) = -0.03911 0.01953
# Poissons Ratio (z) = -0.17073 0.03476
#
# Static dielectric constant tensor:
#      x y z
#    x 3.482320 0.000000 -0.183300 
#    y 0.000000 4.252410 0.000000 
#    z -0.183300 0.000000 4.137840 
# 
# 
# High freq. dielectric constant tensor:
#      x y z
#    x 1.803620 0.000000 -0.007710 
#    y 0.000000 1.834030 0.000000 
#    z -0.007710 0.000000 1.851610 
# 
# From -- ./inp_files/313051.got.cif
#   From: 2010.06.25/outbox.cif.g09.slc.cpg/sg15_157_cif.got.tgz:313051.got - 2010.06.28 07:06:18.
