data_PCOD8134078
_publ_section_title
;
Structure prediction by ZEFSAII (Michael W. Deem and Ramdas Pophale) SiO2 
 PCOD8134078
Probable space group: C 2/C
;
_chemical_formula_sum "Si O2"
_cell_formula_units_Z 64
_cell_length_a 27.629581
_cell_length_b 5.819540
_cell_length_c 22.117797
_cell_angle_alpha 90.000000
_cell_angle_beta 100.705061
_cell_angle_gamma 90.000000
_cell_volume 3494.459324
_symmetry_space_group_name_H-M "C 2/C"
_symmetry_group_IT_number 15
_symmetry_cell_setting 'monoclinic'
loop_
_space_group_symop_operation_xyz
x,y,z
-x,y,1/2-z
-x,-y,-z
x,-y,1/2+z
1/2+x,1/2+y,z
1/2-x,1/2+y,1/2-z
1/2-x,1/2-y,-z
1/2+x,1/2-y,1/2+z
loop_
_atom_site_type_symbol
_atom_site_label
_atom_site_fract_x
_atom_site_fract_y
_atom_site_fract_z
Si Si1 0.572249 0.456246 0.340166
Si Si2 0.858607 0.982799 0.825401
Si Si3 0.753231 0.153433 0.284281
Si Si4 0.001868 0.411527 0.650851
Si Si5 0.967712 0.205546 0.059868
Si Si6 0.850274 0.292204 0.709377
Si Si7 0.577055 0.820508 0.244654
Si Si8 0.940649 0.893789 0.424896
O O1 0.536488 0.240664 0.319907
O O2 0.566092 0.531509 0.408508
O O3 0.628383 0.388450 0.335038
O O4 0.555120 0.658183 0.291749
O O5 0.806124 0.866289 0.829254
O O6 0.895800 0.807694 0.802928
O O7 0.851588 0.197835 0.778597
O O8 0.884073 0.045707 0.895365
O O9 0.753233 0.410492 0.254002
O O10 0.706861 0.154582 0.319947
O O11 0.970761 0.551592 0.593759
O O12 0.029108 0.563681 0.706102
O O13 0.042397 0.262194 0.626506
O O14 0.941270 0.238414 0.989120
O O15 0.023351 0.113752 0.062940
O O16 0.883446 0.517167 0.713607
#
# Coordination Sequence:
#
# PCOD8134078 Si02
#       8
#     8   8   8   8   8   8   8   8
#     4  10  24  35  50  79 111 153 188 225 282 346
#     4  10  19  35  55  83 111 140 185 232 292 343
#     4  10  20  35  59  86 116 148 188 238 303 361
#     4  11  21  36  53  79 112 150 191 229 282 338
#     4  10  21  36  53  75 112 153 193 231 269 331
#     4  10  20  35  53  80 112 144 180 230 290 356
#     4  11  20  35  53  77 116 145 176 233 283 346
#     4  10  20  36  55  79 108 148 194 234 276 326
#
# _framework density 18.314706999999999
#
# number of rings (size 3 to 8) (size 9 to 14) (size 15 to 20)
#    0.000    1.750    3.750    1.125    0.000    3.000 
#    0.000    0.000    0.000    0.750    0.000    3.500 
#    0.000    0.000    0.000    0.000    0.000    0.000 
#
# Total GULP energy -396551.761836 kJ/mol
# GULP energy per Si atom -12392.242557 kJ/mol
# Density = 1.827302 g / cm^3
# Si number density = 18.314707 Si / 1000 Ang^3
#
#
#
# Elastic Constant Matrix: (Units=GPa)
#
#
# Indices 1 2 3 4 5 6 
#
# 1 114.0975 26.9459 52.6073 0.0000 5.7163 0.0000
# 2 26.9459 77.2899 6.2283 0.0000 1.0254 0.0000
# 3 52.6073 6.2283 56.0908 0.0000 6.5171 0.0000
# 4 0.0000 0.0000 0.0000 18.3371 0.0000 -0.7343
# 5 5.7163 1.0254 6.5171 0.0000 17.7741 0.0000
# 6 0.0000 0.0000 0.0000 -0.7343 0.0000 28.0260
#
#
#
# Elastic Compliance Matrix: (Units=1/GPa)
#
#
# Indices 1 2 3 4 5 6 
#
# 1 0.016970 -0.004677 -0.015452 0.000000 0.000478 0.000000
# 2 -0.004677 0.014345 0.002836 0.000000 -0.000363 0.000000
# 3 -0.015452 0.002836 0.032846 0.000000 -0.007238 0.000000
# 4 0.000000 0.000000 0.000000 0.054592 0.000000 0.001430
# 5 0.000478 -0.000363 -0.007238 0.000000 0.058783 0.000000
# 6 0.000000 0.000000 0.000000 0.001430 0.000000 0.035719
#
#
# Mechanical properties :
#
#
# Convention : Reuss Voigt Hill
#
# Bulk Modulus (GPa) = 33.81204 46.56014 40.18609
# Shear Modulus (GPa) = 19.40252 23.60722 21.50487
#
# Velocity S-wave (km/s) = 3.25837 3.59413 3.43036
# Velocity P-wave (km/s) = 5.71469 6.53461 6.13836
#
# Compressibility (1/GPa) = 0.02957526
#
# Stress axis : x y z
#
# Youngs Moduli (GPa) = 58.92917 69.70947 30.44472
#
# Poissons Ratio (x) = 0.32605 0.47043
# Poissons Ratio (y) = 0.27563 -0.08635
# Poissons Ratio (z) = 0.91056 -0.19771
#
# Static dielectric constant tensor:
#      x y z
#    x 3.593340 0.000000 -0.036690 
#    y 0.000000 3.691450 0.000000 
#    z -0.036690 0.000000 3.133020 
# 
# 
# High freq. dielectric constant tensor:
#      x y z
#    x 1.707860 0.000000 -0.006080 
#    y 0.000000 1.728050 0.000000 
#    z -0.006080 0.000000 1.668510 
# 
# From -- ./inp_files/256568.got.cif
#   From: 2010.06.25/outbox.cif.g09.slc.cpg/sg15_129_cif.got.tgz:256568.got - 2010.06.28 07:06:18.
