data_PCOD8134181
_publ_section_title
;
Structure prediction by ZEFSAII (Michael W. Deem and Ramdas Pophale) SiO2 
 PCOD8134181
Probable space group: C 2/C
;
_chemical_formula_sum "Si O2"
_cell_formula_units_Z 60
_cell_length_a 21.690598
_cell_length_b 14.915686
_cell_length_c 10.963205
_cell_angle_alpha 90.000000
_cell_angle_beta 116.428419
_cell_angle_gamma 90.000000
_cell_volume 3176.241902
_symmetry_space_group_name_H-M "C 2/C"
_symmetry_group_IT_number 15
_symmetry_cell_setting 'monoclinic'
loop_
_space_group_symop_operation_xyz
x,y,z
-x,y,1/2-z
-x,-y,-z
x,-y,1/2+z
1/2+x,1/2+y,z
1/2-x,1/2+y,1/2-z
1/2-x,1/2-y,-z
1/2+x,1/2-y,1/2+z
loop_
_atom_site_type_symbol
_atom_site_label
_atom_site_fract_x
_atom_site_fract_y
_atom_site_fract_z
Si Si1 0.678413 0.253061 0.869025
Si Si2 0.232620 0.456260 0.936086
Si Si3 0.078771 0.978334 0.586464
Si Si4 0.834943 0.817365 0.904162
Si Si5 0.119049 0.361488 0.983701
Si Si6 0.000000 0.539945 0.250000
Si Si7 0.619394 0.077071 0.749960
Si Si8 0.637998 0.442702 0.895059
O O1 0.695724 0.267753 0.741266
O O2 0.637313 0.159645 0.858041
O O3 0.632026 0.335749 0.875746
O O4 0.750000 0.250000 0.000000
O O5 0.274099 0.376776 0.907288
O O6 0.183160 0.419607 0.996837
O O7 0.183938 0.508726 0.797650
O O8 0.283197 0.525653 0.047637
O O9 0.098566 0.876250 0.573534
O O10 0.098794 0.994489 0.747881
O O11 0.115329 0.037845 0.514204
O O12 0.000000 0.000000 0.500000
O O13 0.862834 0.743324 0.025024
O O14 0.046968 0.391351 0.864914
O O15 0.107104 0.374349 0.114058
O O16 0.049094 0.474556 0.216960
#
# Coordination Sequence:
#
# PCOD8134181 Si02
#       8
#     8   8   8   8   8   4   8   8
#     4  10  19  35  57  87 117 143 189 242 296 336
#     4  10  20  34  61  85 112 149 193 238 299 347
#     4  10  21  39  58  83 118 159 194 237 291 350
#     4   9  21  36  56  84 118 145 191 244 287 343
#     4  10  21  38  58  81 115 151 190 242 288 347
#     4  10  22  40  56  82 112 156 202 222 294 356
#     4  10  21  36  60  83 116 152 189 247 292 348
#     4  10  21  36  60  87 117 152 197 240 291 356
#
# _framework density 18.890250000000002
#
# number of rings (size 3 to 8) (size 9 to 14) (size 15 to 20)
#    0.000    2.133    1.333    1.200    5.600    0.000 
#   12.000    0.000    0.000    0.000    0.000    0.000 
#    0.000    0.000    0.000    0.000    0.000    0.000 
#
# Total GULP energy -371683.213273 kJ/mol
# GULP energy per Si atom -12389.440442 kJ/mol
# Density = 1.884725 g / cm^3
# Si number density = 18.890250 Si / 1000 Ang^3
#
#
#
# Elastic Constant Matrix: (Units=GPa)
#
#
# Indices 1 2 3 4 5 6 
#
# 1 88.9355 45.7165 51.7040 0.0000 26.4841 0.0000
# 2 45.7165 123.6874 39.5205 0.0000 11.6007 0.0000
# 3 51.7040 39.5205 74.9765 0.0000 7.9572 0.0000
# 4 0.0000 0.0000 0.0000 31.5994 0.0000 3.1944
# 5 26.4841 11.6007 7.9572 0.0000 31.4939 0.0000
# 6 0.0000 0.0000 0.0000 3.1944 0.0000 25.1134
#
#
#
# Elastic Compliance Matrix: (Units=1/GPa)
#
#
# Indices 1 2 3 4 5 6 
#
# 1 0.026938 -0.003569 -0.014828 0.000000 -0.017592 0.000000
# 2 -0.003569 0.010367 -0.002997 0.000000 -0.000060 0.000000
# 3 -0.014828 -0.002997 0.024356 0.000000 0.007420 0.000000
# 4 0.000000 0.000000 0.000000 0.032058 0.000000 -0.004078
# 5 -0.017592 -0.000060 0.007420 0.000000 0.044693 0.000000
# 6 0.000000 0.000000 0.000000 -0.004078 0.000000 0.040338
#
#
# Mechanical properties :
#
#
# Convention : Reuss Voigt Hill
#
# Bulk Modulus (GPa) = 52.98812 62.38682 57.68747
# Shear Modulus (GPa) = 21.94619 27.68524 24.81572
#
# Velocity S-wave (km/s) = 3.41218 3.83245 3.62840
# Velocity P-wave (km/s) = 6.60571 7.25818 6.93962
#
# Compressibility (1/GPa) = 0.01887216
#
# Stress axis : x y z
#
# Youngs Moduli (GPa) = 37.12233 96.45732 41.05829
#
# Poissons Ratio (x) = 0.34423 0.60883
# Poissons Ratio (y) = 0.13248 0.12306
# Poissons Ratio (z) = 0.55047 0.28911
#
# Static dielectric constant tensor:
#      x y z
#    x 3.448420 0.000000 0.081940 
#    y 0.000000 3.859690 0.000000 
#    z 0.081940 0.000000 3.627580 
# 
# 
# High freq. dielectric constant tensor:
#      x y z
#    x 1.722690 0.000000 0.006250 
#    y 0.000000 1.745420 0.000000 
#    z 0.006250 0.000000 1.736410 
# 
# From -- ./inp_files/112760.got.cif
#   From: 2010.06.25/outbox.cif.g09.slc.cpg/sg15_57_cif.got.tgz:112760.got - 2010.06.28 07:06:18.
