data_PCOD8134859
_publ_section_title
;
Structure prediction by ZEFSAII (Michael W. Deem and Ramdas Pophale) SiO2 
 PCOD8134859
Probable space group: C 2/C
;
_chemical_formula_sum "Si O2"
_cell_formula_units_Z 64
_cell_length_a 14.737960
_cell_length_b 17.178170
_cell_length_c 16.042547
_cell_angle_alpha 90.000000
_cell_angle_beta 126.948594
_cell_angle_gamma 90.000000
_cell_volume 3245.858293
_symmetry_space_group_name_H-M "C 2/C"
_symmetry_group_IT_number 15
_symmetry_cell_setting 'monoclinic'
loop_
_space_group_symop_operation_xyz
x,y,z
-x,y,1/2-z
-x,-y,-z
x,-y,1/2+z
1/2+x,1/2+y,z
1/2-x,1/2+y,1/2-z
1/2-x,1/2-y,-z
1/2+x,1/2-y,1/2+z
loop_
_atom_site_type_symbol
_atom_site_label
_atom_site_fract_x
_atom_site_fract_y
_atom_site_fract_z
Si Si1 0.975051 0.427980 0.327841
Si Si2 0.785775 0.961412 0.314111
Si Si3 0.734414 0.053316 0.135295
Si Si4 0.660056 0.571642 0.007107
Si Si5 0.963976 0.153629 0.979314
Si Si6 0.883250 0.567353 0.033803
Si Si7 0.453058 0.835051 0.973113
Si Si8 0.571065 0.434541 0.871305
O O1 0.840983 0.431452 0.268729
O O2 0.000000 0.393496 0.250000
O O3 0.033591 0.513685 0.364316
O O4 0.027317 0.367961 0.423223
O O5 0.817769 0.018908 0.253808
O O6 0.792492 0.010362 0.401139
O O7 0.872309 0.889319 0.369659
O O8 0.662037 0.126644 0.127851
O O9 0.799315 0.079738 0.087278
O O10 0.648064 0.983737 0.064419
O O11 0.590722 0.641695 0.011636
O O12 0.770752 0.600309 0.018116
O O13 0.568002 0.524651 0.899625
O O14 0.934959 0.243609 0.965088
O O15 0.962893 0.123084 0.073410
O O16 0.946424 0.643995 0.035380
O O17 0.500000 0.417610 0.750000
#
# Coordination Sequence:
#
# PCOD8134859 Si02
#       8
#     8   8   8   8   8   8   8   8
#     4  11  20  38  66  91 114 156 211 255 288 347
#     4  11  19  39  64  87 115 159 213 247 293 348
#     4  10  19  36  65  84 111 156 210 254 279 355
#     4  10  21  37  63  87 116 158 209 254 286 351
#     4  11  25  39  55  91 134 159 186 250 314 369
#     4  10  19  37  64  89 109 157 210 253 288 339
#     4  11  23  40  56  91 132 154 193 248 315 361
#     4  10  20  38  61  86 114 160 209 241 291 355
#
# _framework density 19.717434999999998
#
# number of rings (size 3 to 8) (size 9 to 14) (size 15 to 20)
#    0.000    1.500    3.750    3.750    1.750    1.500 
#    4.500    0.000    0.000    5.250    0.000    0.000 
#    0.000    0.000    0.000    0.000    0.000    0.000 
#
# Total GULP energy -396690.026610 kJ/mol
# GULP energy per Si atom -12396.563332 kJ/mol
# Density = 1.967256 g / cm^3
# Si number density = 19.717435 Si / 1000 Ang^3
#
#
#
# Elastic Constant Matrix: (Units=GPa)
#
#
# Indices 1 2 3 4 5 6 
#
# 1 108.7783 57.5343 37.5328 0.0000 -16.1225 0.0000
# 2 57.5343 95.7244 45.4914 0.0000 -10.0389 0.0000
# 3 37.5328 45.4914 99.3547 0.0000 -1.8250 0.0000
# 4 0.0000 0.0000 0.0000 19.0126 0.0000 4.0792
# 5 -16.1225 -10.0389 -1.8250 0.0000 27.9677 0.0000
# 6 0.0000 0.0000 0.0000 4.0792 0.0000 17.5328
#
#
#
# Elastic Compliance Matrix: (Units=1/GPa)
#
#
# Indices 1 2 3 4 5 6 
#
# 1 0.014542 -0.007136 -0.002122 0.000000 0.005683 0.000000
# 2 -0.007136 0.017417 -0.005246 0.000000 0.001796 0.000000
# 3 -0.002122 -0.005246 0.013227 0.000000 -0.002243 0.000000
# 4 0.000000 0.000000 0.000000 0.055360 0.000000 -0.012880
# 5 0.005683 0.001796 -0.002243 0.000000 0.039530 0.000000
# 6 0.000000 0.000000 0.000000 -0.012880 0.000000 0.060033
#
#
# Mechanical properties :
#
#
# Convention : Reuss Voigt Hill
#
# Bulk Modulus (GPa) = 61.80931 64.99715 63.40323
# Shear Modulus (GPa) = 21.32118 23.78920 22.55519
#
# Velocity S-wave (km/s) = 3.29194 3.47725 3.38586
# Velocity P-wave (km/s) = 6.77235 7.01124 6.89283
#
# Compressibility (1/GPa) = 0.01617879
#
# Stress axis : x y z
#
# Youngs Moduli (GPa) = 68.76825 57.41508 75.60151
#
# Poissons Ratio (x) = 0.40970 0.16040
# Poissons Ratio (y) = 0.49072 0.39661
# Poissons Ratio (z) = 0.14590 0.30120
#
# Static dielectric constant tensor:
#      x y z
#    x 3.850560 0.000000 -0.013140 
#    y 0.000000 3.143570 0.000000 
#    z -0.013140 0.000000 3.831660 
# 
# 
# High freq. dielectric constant tensor:
#      x y z
#    x 1.791790 0.000000 -0.000670 
#    y 0.000000 1.719620 0.000000 
#    z -0.000670 0.000000 1.774790 
# 
# From -- ./inp_files/155223.got.cif
#   From: 2010.06.25/outbox.cif.g09.slc.cpg/sg15_78_cif.got.tgz:155223.got - 2010.06.28 07:06:18.
