data_PCOD8134893
_publ_section_title
;
Structure prediction by ZEFSAII (Michael W. Deem and Ramdas Pophale) SiO2 
 PCOD8134893
Probable space group: C 2/C
;
_chemical_formula_sum "Si O2"
_cell_formula_units_Z 44
_cell_length_a 7.941115
_cell_length_b 16.524867
_cell_length_c 14.189524
_cell_angle_alpha 90.000000
_cell_angle_beta 87.242264
_cell_angle_gamma 90.000000
_cell_volume 1859.876200
_symmetry_space_group_name_H-M "C 2/C"
_symmetry_group_IT_number 15
_symmetry_cell_setting 'monoclinic'
loop_
_space_group_symop_operation_xyz
x,y,z
-x,y,1/2-z
-x,-y,-z
x,-y,1/2+z
1/2+x,1/2+y,z
1/2-x,1/2+y,1/2-z
1/2-x,1/2-y,-z
1/2+x,1/2-y,1/2+z
loop_
_atom_site_type_symbol
_atom_site_label
_atom_site_fract_x
_atom_site_fract_y
_atom_site_fract_z
Si Si1 0.561434 0.674580 0.546732
Si Si2 0.813412 0.053832 0.257085
Si Si3 0.500000 0.817040 0.250000
Si Si4 0.236360 0.414448 0.123850
Si Si5 0.187276 0.990943 0.042498
Si Si6 0.227521 0.203093 0.353315
O O1 0.372285 0.650822 0.581885
O O2 0.698718 0.603877 0.568376
O O3 0.611241 0.756444 0.600194
O O4 0.577921 0.686761 0.433413
O O5 0.765446 0.044067 0.367531
O O6 0.707045 0.121108 0.201352
O O7 0.000000 0.090332 0.250000
O O8 0.812313 0.965953 0.208276
O O9 0.565123 0.871979 0.161568
O O10 0.658495 0.764237 0.277124
O O11 0.185372 0.476745 0.041270
O O12 0.000000 0.000000 0.000000
#
# Coordination Sequence:
#
# PCOD8134893 Si02
#       6
#     8   8   4   8   8   8
#     4  10  21  44  71  95 133 179 220 274 343 406
#     4  12  19  39  72  98 126 175 225 269 328 414
#     4  12  28  40  62 100 142 168 220 292 326 392
#     4  11  24  44  68  97 130 181 227 267 334 400
#     4  10  19  36  72  99 120 174 231 266 319 405
#     4  11  24  40  66 103 137 168 221 282 342 398
#
# _framework density 23.657487
#
# number of rings (size 3 to 8) (size 9 to 14) (size 15 to 20)
#    0.000    1.091    6.364    2.182    0.000    0.727 
#    0.000    5.455    0.000    0.000    0.000    0.000 
#    0.000    0.000    0.000    0.000    0.000    0.000 
#
# Total GULP energy -272669.395039 kJ/mol
# GULP energy per Si atom -12394.063411 kJ/mol
# Density = 2.360364 g / cm^3
# Si number density = 23.657487 Si / 1000 Ang^3
#
#
#
# Elastic Constant Matrix: (Units=GPa)
#
#
# Indices 1 2 3 4 5 6 
#
# 1 35.0743 17.4046 13.1331 0.0000 -16.5749 0.0000
# 2 17.4046 102.3310 38.7762 0.0000 -4.2568 0.0000
# 3 13.1331 38.7762 150.0440 0.0000 -7.9993 0.0000
# 4 0.0000 0.0000 0.0000 50.6813 0.0000 -0.0705
# 5 -16.5749 -4.2568 -7.9993 0.0000 34.5222 0.0000
# 6 0.0000 0.0000 0.0000 -0.0705 0.0000 26.6058
#
#
#
# Elastic Compliance Matrix: (Units=1/GPa)
#
#
# Indices 1 2 3 4 5 6 
#
# 1 0.040482 -0.005706 -0.001083 0.000000 0.018482 0.000000
# 2 -0.005706 0.011654 -0.002614 0.000000 -0.001908 0.000000
# 3 -0.001083 -0.002614 0.007483 0.000000 0.000891 0.000000
# 4 0.000000 0.000000 0.000000 0.019731 0.000000 0.000052
# 5 0.018482 -0.001908 0.000891 0.000000 0.037811 0.000000
# 6 0.000000 0.000000 0.000000 0.000052 0.000000 0.037586
#
#
# Mechanical properties :
#
#
# Convention : Reuss Voigt Hill
#
# Bulk Modulus (GPa) = 24.50288 47.34189 35.92238
# Shear Modulus (GPa) = 26.71550 36.90422 31.80986
#
# Velocity S-wave (km/s) = 3.36410 3.95389 3.67086
# Velocity P-wave (km/s) = 5.04672 6.39524 5.76058
#
# Compressibility (1/GPa) = 0.04081153
#
# Stress axis : x y z
#
# Youngs Moduli (GPa) = 24.70252 85.80869 133.64321
#
# Poissons Ratio (x) = 0.48961 0.14479
# Poissons Ratio (y) = 0.14095 0.34935
# Poissons Ratio (z) = 0.02676 0.22431
#
# Static dielectric constant tensor:
#      x y z
#    x 3.519580 0.000000 -0.105440 
#    y 0.000000 4.662430 0.000000 
#    z -0.105440 0.000000 4.522750 
# 
# 
# High freq. dielectric constant tensor:
#      x y z
#    x 1.873520 0.000000 -0.003310 
#    y 0.000000 1.948400 0.000000 
#    z -0.003310 0.000000 1.958310 
# 
# From -- ./inp_files/134431.got.cif
#   From: 2010.06.25/outbox.cif.g09.slc.cpg/sg15_68_cif.got.tgz:134431.got - 2010.06.28 07:06:18.
