data_PCOD8134730
_publ_section_title
;
Structure prediction by ZEFSAII (Michael W. Deem and Ramdas Pophale) SiO2 
 PCOD8134730
Probable space group: C 2/C
;
_chemical_formula_sum "Si O2"
_cell_formula_units_Z 52
_cell_length_a 29.607173
_cell_length_b 15.567817
_cell_length_c 5.258461
_cell_angle_alpha 90.000000
_cell_angle_beta 110.612807
_cell_angle_gamma 90.000000
_cell_volume 2268.560091
_symmetry_space_group_name_H-M "C 2/C"
_symmetry_group_IT_number 15
_symmetry_cell_setting 'monoclinic'
loop_
_space_group_symop_operation_xyz
x,y,z
-x,y,1/2-z
-x,-y,-z
x,-y,1/2+z
1/2+x,1/2+y,z
1/2-x,1/2+y,1/2-z
1/2-x,1/2-y,-z
1/2+x,1/2-y,1/2+z
loop_
_atom_site_type_symbol
_atom_site_label
_atom_site_fract_x
_atom_site_fract_y
_atom_site_fract_z
Si Si1 0.385322 0.108823 0.510876
Si Si2 0.717749 0.919561 0.677478
Si Si3 0.585151 0.680184 0.964153
Si Si4 0.000000 0.945570 0.250000
Si Si5 0.640895 0.304478 0.069458
Si Si6 0.256800 0.392925 0.254719
Si Si7 0.944285 0.372523 0.622402
O O1 0.338055 0.047504 0.417808
O O2 0.359487 0.202132 0.475269
O O3 0.416907 0.095059 0.320651
O O4 0.419018 0.087376 0.821110
O O5 0.727061 0.862229 0.444137
O O6 0.753291 0.002437 0.738979
O O7 0.730859 0.859662 0.946004
O O8 0.547370 0.609498 0.817999
O O9 0.625854 0.675564 0.828031
O O10 0.557726 0.770619 0.904956
O O11 0.605168 0.658176 0.283602
O O12 0.000000 0.000000 0.500000
O O13 0.690573 0.353260 0.121467
O O14 0.000000 0.402068 0.750000
#
# Coordination Sequence:
#
# PCOD8134730 Si02
#       7
#     8   8   8   4   8   8   8
#     4  10  21  34  59  90 116 147 193 241 281 338
#     4  10  21  38  55  84 114 150 195 236 288 341
#     4  10  21  39  56  79 119 148 192 244 280 337
#     4  12  24  40  52  82 108 164 200 232 288 340
#     4  10  21  37  58  86 111 153 195 240 288 332
#     4  10  21  38  57  78 113 154 191 231 290 345
#     4  10  19  36  61  86 117 150 182 234 296 343
#
# _framework density 22.922028000000001
#
# number of rings (size 3 to 8) (size 9 to 14) (size 15 to 20)
#    0.000    1.846    0.769    3.231    0.000    1.231 
#   16.615    0.000    0.000    0.000    0.000   43.077 
#    0.000    0.000    0.000    0.000    0.000    0.000 
#
# Total GULP energy -322240.535069 kJ/mol
# GULP energy per Si atom -12393.866733 kJ/mol
# Density = 2.286986 g / cm^3
# Si number density = 22.922028 Si / 1000 Ang^3
#
#
#
# Elastic Constant Matrix: (Units=GPa)
#
#
# Indices 1 2 3 4 5 6 
#
# 1 125.2687 16.5939 42.1531 0.0000 3.4192 0.0000
# 2 16.5939 41.8854 6.9799 0.0000 9.4702 0.0000
# 3 42.1531 6.9799 162.4041 0.0000 -22.9362 0.0000
# 4 0.0000 0.0000 0.0000 -32.3648 0.0000 23.8696
# 5 3.4192 9.4702 -22.9362 0.0000 51.9427 0.0000
# 6 0.0000 0.0000 0.0000 23.8696 0.0000 12.7426
#
#
#
# Elastic Compliance Matrix: (Units=1/GPa)
#
#
# Indices 1 2 3 4 5 6 
#
# 1 0.009227 -0.002995 -0.002426 0.000000 -0.001133 0.000000
# 2 -0.002995 0.026391 -0.001076 0.000000 -0.005089 0.000000
# 3 -0.002426 -0.001076 0.007342 0.000000 0.003598 0.000000
# 4 0.000000 0.000000 0.000000 -0.012974 0.000000 0.024303
# 5 -0.001133 -0.005089 0.003598 0.000000 0.021843 0.000000
# 6 0.000000 0.000000 0.000000 0.024303 0.000000 0.032952
#
#
# Mechanical properties :
#
#
# Convention : Reuss Voigt Hill
#
# Bulk Modulus (GPa) = 33.37125 51.22355 42.29740
# Shear Modulus (GPa) = 46.39793 24.05286 35.22539
#
# Velocity S-wave (km/s) = 4.50395 3.24286 3.92439
# Velocity P-wave (km/s) = 6.45272 6.03464 6.24718
#
# Compressibility (1/GPa) = 0.02996591
#
# Stress axis : x y z
#
# Youngs Moduli (GPa) = 108.37877 37.89140 136.21170
#
# Poissons Ratio (x) = 0.11349 0.33047
# Poissons Ratio (y) = 0.32460 0.14651
# Poissons Ratio (z) = 0.26294 0.04076
#
# Static dielectric constant tensor:
#      x y z
#    x 4.169380 0.000000 -0.387880 
#    y 0.000000 3.848050 0.000000 
#    z -0.387880 0.000000 4.991990 
# 
# 
# High freq. dielectric constant tensor:
#      x y z
#    x 1.910540 0.000000 -0.012700 
#    y 0.000000 1.883460 0.000000 
#    z -0.012700 0.000000 1.934310 
# 
# From -- ./inp_files/18402.got.cif
#   From: 2010.06.25/outbox.cif.g09.slc.cpg/sg15_10_cif.got.tgz:18402.got - 2010.06.28 07:06:18.
