data_PCOD8134080
_publ_section_title
;
Structure prediction by ZEFSAII (Michael W. Deem and Ramdas Pophale) SiO2 
 PCOD8134080
Probable space group: C 2/C
;
_chemical_formula_sum "Si O2"
_cell_formula_units_Z 52
_cell_length_a 14.398530
_cell_length_b 15.217614
_cell_length_c 16.472857
_cell_angle_alpha 90.000000
_cell_angle_beta 136.386801
_cell_angle_gamma 90.000000
_cell_volume 2489.707020
_symmetry_space_group_name_H-M "C 2/C"
_symmetry_group_IT_number 15
_symmetry_cell_setting 'monoclinic'
loop_
_space_group_symop_operation_xyz
x,y,z
-x,y,1/2-z
-x,-y,-z
x,-y,1/2+z
1/2+x,1/2+y,z
1/2-x,1/2+y,1/2-z
1/2-x,1/2-y,-z
1/2+x,1/2-y,1/2+z
loop_
_atom_site_type_symbol
_atom_site_label
_atom_site_fract_x
_atom_site_fract_y
_atom_site_fract_z
Si Si1 0.725272 0.050792 0.404877
Si Si2 0.014811 0.511560 0.137329
Si Si3 0.747541 0.262331 0.158924
Si Si4 0.500000 0.311923 0.750000
Si Si5 0.837826 0.199567 0.378554
Si Si6 0.973963 0.358702 0.998820
Si Si7 0.918274 0.101389 0.038735
O O1 0.629551 0.009579 0.276529
O O2 0.635176 0.041747 0.429267
O O3 0.757296 0.152701 0.401527
O O4 0.868670 0.999988 0.505450
O O5 0.022520 0.412591 0.107650
O O6 0.059081 0.578242 0.096174
O O7 0.734632 0.242909 0.247781
O O8 0.903701 0.254329 0.236900
O O9 0.664327 0.186343 0.060163
O O10 0.690041 0.353734 0.090115
O O11 0.583944 0.369457 0.868206
O O12 0.925645 0.281028 0.466641
O O13 0.931098 0.121251 0.398777
#
# Coordination Sequence:
#
# PCOD8134080 Si02
#       7
#     8   8   8   4   8   8   8
#     4  11  21  38  57  89 118 153 192 246 294 363
#     4  10  22  36  62  84 114 153 200 247 293 341
#     4  10  19  35  55  83 116 151 192 244 293 360
#     4  10  20  32  54  88 116 156 190 256 300 356
#     4  10  21  36  59  83 119 155 194 236 305 352
#     4  10  20  39  58  85 112 156 200 245 289 354
#     4  10  21  34  57  82 120 154 193 240 300 357
#
# _framework density 20.885992000000002
#
# number of rings (size 3 to 8) (size 9 to 14) (size 15 to 20)
#    0.000    1.846    1.538    2.769    0.000    4.308 
#    0.000    0.000    0.000    0.000    0.000    0.000 
#    0.000    0.000    0.000    0.000    0.000    0.000 
#
# Total GULP energy -322178.904378 kJ/mol
# GULP energy per Si atom -12391.496322 kJ/mol
# Density = 2.083845 g / cm^3
# Si number density = 20.885992 Si / 1000 Ang^3
#
#
#
# Elastic Constant Matrix: (Units=GPa)
#
#
# Indices 1 2 3 4 5 6 
#
# 1 58.4945 24.8771 -2.2752 0.0000 2.3066 0.0000
# 2 24.8771 79.9328 12.7483 0.0000 1.8996 0.0000
# 3 -2.2752 12.7483 67.6696 0.0000 3.5196 0.0000
# 4 0.0000 0.0000 0.0000 22.5002 0.0000 3.3036
# 5 2.3066 1.8996 3.5196 0.0000 24.5101 0.0000
# 6 0.0000 0.0000 0.0000 3.3036 0.0000 24.7058
#
#
#
# Elastic Compliance Matrix: (Units=1/GPa)
#
#
# Indices 1 2 3 4 5 6 
#
# 1 0.020004 -0.006503 0.001984 0.000000 -0.001664 0.000000
# 2 -0.006503 0.015022 -0.003043 0.000000 -0.000115 0.000000
# 3 0.001984 -0.003043 0.015531 0.000000 -0.002181 0.000000
# 4 0.000000 0.000000 0.000000 0.045334 0.000000 -0.006062
# 5 -0.001664 -0.000115 -0.002181 0.000000 0.041278 0.000000
# 6 0.000000 0.000000 0.000000 -0.006062 0.000000 0.041287
#
#
# Mechanical properties :
#
#
# Convention : Reuss Voigt Hill
#
# Bulk Modulus (GPa) = 28.22080 30.75527 29.48804
# Shear Modulus (GPa) = 24.34388 25.72634 25.03511
#
# Velocity S-wave (km/s) = 3.41773 3.51344 3.46592
# Velocity P-wave (km/s) = 5.39590 5.58715 5.49236
#
# Compressibility (1/GPa) = 0.03543486
#
# Stress axis : x y z
#
# Youngs Moduli (GPa) = 49.99031 66.56775 64.38717
#
# Poissons Ratio (x) = 0.43286 -0.12775
# Poissons Ratio (y) = 0.32507 0.19591
# Poissons Ratio (z) = -0.09919 0.20254
#
# Static dielectric constant tensor:
#      x y z
#    x 3.690750 0.000000 -0.006240 
#    y 0.000000 3.619060 0.000000 
#    z -0.006240 0.000000 3.866140 
# 
# 
# High freq. dielectric constant tensor:
#      x y z
#    x 1.796490 0.000000 0.001710 
#    y 0.000000 1.807620 0.000000 
#    z 0.001710 0.000000 1.826270 
# 
# From -- ./inp_files/97040.got.cif
#   From: 2010.06.25/outbox.cif.g09.slc.cpg/sg15_49_cif.got.tgz:97040.got - 2010.06.28 07:06:18.
