data_PCOD8134487
_publ_section_title
;
Structure prediction by ZEFSAII (Michael W. Deem and Ramdas Pophale) SiO2 
 PCOD8134487
Probable space group: C 2/C
;
_chemical_formula_sum "Si O2"
_cell_formula_units_Z 48
_cell_length_a 30.859727
_cell_length_b 9.578996
_cell_length_c 8.642151
_cell_angle_alpha 90.000000
_cell_angle_beta 74.562973
_cell_angle_gamma 90.000000
_cell_volume 2462.501651
_symmetry_space_group_name_H-M "C 2/C"
_symmetry_group_IT_number 15
_symmetry_cell_setting 'monoclinic'
loop_
_space_group_symop_operation_xyz
x,y,z
-x,y,1/2-z
-x,-y,-z
x,-y,1/2+z
1/2+x,1/2+y,z
1/2-x,1/2+y,1/2-z
1/2-x,1/2-y,-z
1/2+x,1/2-y,1/2+z
loop_
_atom_site_type_symbol
_atom_site_label
_atom_site_fract_x
_atom_site_fract_y
_atom_site_fract_z
Si Si1 0.665982 0.327432 0.500832
Si Si2 0.833580 0.385104 0.010190
Si Si3 0.683134 0.395166 0.829981
Si Si4 0.032614 0.553471 0.339034
Si Si5 0.590544 0.889577 0.053466
Si Si6 0.214623 0.603948 0.262837
O O1 0.684188 0.382737 0.645477
O O2 0.658904 0.460414 0.396912
O O3 0.618790 0.247496 0.570093
O O4 0.703785 0.225179 0.396148
O O5 0.843742 0.230932 0.064397
O O6 0.793642 0.453992 0.149297
O O7 0.878675 0.473219 0.988464
O O8 0.819604 0.377311 0.845610
O O9 0.734350 0.390888 0.843753
O O10 0.054279 0.423515 0.221825
O O11 0.069925 0.640061 0.400235
O O12 0.000000 0.640093 0.250000
O O13 0.000000 0.500000 0.500000
#
# Coordination Sequence:
#
# PCOD8134487 Si02
#       6
#     8   8   8   8   8   8
#     4  11  23  35  53  77 111 151 187 237 282 316
#     4  11  21  34  56  78 109 151 186 234 280 315
#     4  12  22  36  51  77 109 153 200 231 271 325
#     4   9  18  33  59  89 109 130 163 215 272 332
#     4  10  19  36  55  85 114 133 173 223 276 335
#     4  11  21  36  52  76 108 150 199 244 274 307
#
# _framework density 19.492370999999999
#
# number of rings (size 3 to 8) (size 9 to 14) (size 15 to 20)
#    0.000    1.333    0.000    9.000    0.000    0.000 
#    0.000    0.000    0.000    0.000    0.000   73.500 
#    0.000    0.000    0.000    0.000    0.000    0.000 
#
# Total GULP energy -297540.711616 kJ/mol
# GULP energy per Si atom -12397.529651 kJ/mol
# Density = 1.944801 g / cm^3
# Si number density = 19.492371 Si / 1000 Ang^3
#
#
#
# Elastic Constant Matrix: (Units=GPa)
#
#
# Indices 1 2 3 4 5 6 
#
# 1 95.6355 25.3749 32.6010 0.0000 4.3386 0.0000
# 2 25.3749 101.9481 21.1370 0.0000 -13.4872 0.0000
# 3 32.6010 21.1370 97.8037 0.0000 7.5133 0.0000
# 4 0.0000 0.0000 0.0000 33.0098 0.0000 -0.6299
# 5 4.3386 -13.4872 7.5133 0.0000 37.9772 0.0000
# 6 0.0000 0.0000 0.0000 -0.6299 0.0000 11.0697
#
#
#
# Elastic Compliance Matrix: (Units=1/GPa)
#
#
# Indices 1 2 3 4 5 6 
#
# 1 0.012392 -0.002589 -0.003444 0.000000 -0.001654 0.000000
# 2 -0.002589 0.011497 -0.001988 0.000000 0.004772 0.000000
# 3 -0.003444 -0.001988 0.012009 0.000000 -0.002688 0.000000
# 4 0.000000 0.000000 0.000000 0.030327 0.000000 0.001726
# 5 -0.001654 0.004772 -0.002688 0.000000 0.028747 0.000000
# 6 0.000000 0.000000 0.000000 0.001726 0.000000 0.090435
#
#
# Mechanical properties :
#
#
# Convention : Reuss Voigt Hill
#
# Bulk Modulus (GPa) = 50.36509 50.40148 50.38328
# Shear Modulus (GPa) = 24.03053 30.82963 27.43008
#
# Velocity S-wave (km/s) = 3.51496 3.98128 3.75536
# Velocity P-wave (km/s) = 6.50905 6.85910 6.68637
#
# Compressibility (1/GPa) = 0.01985502
#
# Stress axis : x y z
#
# Youngs Moduli (GPa) = 80.69411 86.97980 83.27209
#
# Poissons Ratio (x) = 0.22521 0.28680
# Poissons Ratio (y) = 0.20893 0.16556
# Poissons Ratio (z) = 0.27792 0.17293
#
# Static dielectric constant tensor:
#      x y z
#    x 4.232330 0.000000 0.522080 
#    y 0.000000 3.455430 0.000000 
#    z 0.522080 0.000000 4.124410 
# 
# 
# High freq. dielectric constant tensor:
#      x y z
#    x 1.751660 0.000000 0.008170 
#    y 0.000000 1.728390 0.000000 
#    z 0.008170 0.000000 1.785660 
# 
# From -- ./inp_files/68592.got.cif
#   From: 2010.06.25/outbox.cif.g09.slc.cpg/sg15_35_cif.got.tgz:68592.got - 2010.06.28 07:06:18.
