data_PCOD8134343
_publ_section_title
;
Structure prediction by ZEFSAII (Michael W. Deem and Ramdas Pophale) SiO2 
 PCOD8134343
Probable space group: C 2/C
;
_chemical_formula_sum "Si O2"
_cell_formula_units_Z 60
_cell_length_a 11.080867
_cell_length_b 16.170144
_cell_length_c 24.306980
_cell_angle_alpha 90.000000
_cell_angle_beta 137.178074
_cell_angle_gamma 90.000000
_cell_volume 2960.397200
_symmetry_space_group_name_H-M "C 2/C"
_symmetry_group_IT_number 15
_symmetry_cell_setting 'monoclinic'
loop_
_space_group_symop_operation_xyz
x,y,z
-x,y,1/2-z
-x,-y,-z
x,-y,1/2+z
1/2+x,1/2+y,z
1/2-x,1/2+y,1/2-z
1/2-x,1/2-y,-z
1/2+x,1/2-y,1/2+z
loop_
_atom_site_type_symbol
_atom_site_label
_atom_site_fract_x
_atom_site_fract_y
_atom_site_fract_z
Si Si1 0.000000 0.185856 0.250000
Si Si2 0.636939 0.918908 0.344870
Si Si3 0.950526 0.709689 0.841101
Si Si4 0.497566 0.455872 0.414510
Si Si5 0.707359 0.088006 0.200935
Si Si6 0.130261 0.863663 0.628541
Si Si7 0.363927 0.587123 0.753997
Si Si8 0.672188 0.907753 0.905942
O O1 0.988347 0.241880 0.298442
O O2 0.826893 0.126991 0.192531
O O3 0.500000 0.896306 0.250000
O O4 0.598753 0.862649 0.386570
O O5 0.839339 0.907841 0.392991
O O6 0.605452 0.012649 0.350365
O O7 0.977267 0.776945 0.899062
O O8 0.753011 0.670134 0.778171
O O9 0.491012 0.555211 0.423485
O O10 0.488003 0.432064 0.347738
O O11 0.683428 0.424071 0.499183
O O12 0.759901 0.118456 0.279475
O O13 0.507364 0.122249 0.124011
O O14 0.726758 0.988989 0.201208
O O15 0.253828 0.846486 0.616527
O O16 0.500000 0.598911 0.750000
#
# Coordination Sequence:
#
# PCOD8134343 Si02
#       8
#     4   8   8   8   8   8   8   8
#     4  10  20  34  58  90 114 150 202 254 284 338
#     4  11  17  34  63  89 116 161 208 242 286 356
#     4  11  20  35  62  90 115 149 205 251 299 336
#     4  10  21  38  59  91 121 159 199 244 297 362
#     4  10  19  35  61  84 118 156 204 239 288 349
#     4   9  20  34  58  94 116 153 205 251 283 341
#     4  11  21  38  63  87 115 153 201 252 291 356
#     4  11  20  36  61  88 124 159 198 244 298 358
#
# _framework density 20.267551000000001
#
# number of rings (size 3 to 8) (size 9 to 14) (size 15 to 20)
#    0.000    1.600    4.000    3.600    0.000    2.133 
#    0.000    3.333    0.000   11.200    0.000    0.000 
#    0.000    0.000    0.000    0.000    0.000    0.000 
#
# Total GULP energy -371721.959623 kJ/mol
# GULP energy per Si atom -12390.731987 kJ/mol
# Density = 2.022142 g / cm^3
# Si number density = 20.267551 Si / 1000 Ang^3
#
#
#
# Elastic Constant Matrix: (Units=GPa)
#
#
# Indices 1 2 3 4 5 6 
#
# 1 156.4749 37.2351 39.3982 0.0000 5.6061 0.0000
# 2 37.2351 63.1943 9.0450 0.0000 -9.7262 0.0000
# 3 39.3982 9.0450 58.4308 0.0000 14.2721 0.0000
# 4 0.0000 0.0000 0.0000 11.3032 0.0000 3.4344
# 5 5.6061 -9.7262 14.2721 0.0000 21.0700 0.0000
# 6 0.0000 0.0000 0.0000 3.4344 0.0000 74.9072
#
#
#
# Elastic Compliance Matrix: (Units=1/GPa)
#
#
# Indices 1 2 3 4 5 6 
#
# 1 0.008775 -0.004643 -0.004918 0.000000 -0.001147 0.000000
# 2 -0.004643 0.021081 -0.003369 0.000000 0.013249 0.000000
# 3 -0.004918 -0.003369 0.025178 0.000000 -0.017301 0.000000
# 4 0.000000 0.000000 0.000000 0.089720 0.000000 -0.004114
# 5 -0.001147 0.013249 -0.017301 0.000000 0.065601 0.000000
# 6 0.000000 0.000000 0.000000 -0.004114 0.000000 0.013538
#
#
# Mechanical properties :
#
#
# Convention : Reuss Voigt Hill
#
# Bulk Modulus (GPa) = 34.27648 49.93964 42.10806
# Shear Modulus (GPa) = 19.26948 34.28419 26.77683
#
# Velocity S-wave (km/s) = 3.08678 4.11734 3.63873
# Velocity P-wave (km/s) = 5.44545 6.87729 6.20282
#
# Compressibility (1/GPa) = 0.02917452
#
# Stress axis : x y z
#
# Youngs Moduli (GPa) = 113.96012 47.43566 39.71779
#
# Poissons Ratio (x) = 0.22024 0.19533
# Poissons Ratio (y) = 0.52911 0.13380
# Poissons Ratio (z) = 0.56044 0.15980
#
# Static dielectric constant tensor:
#      x y z
#    x 7.908110 0.000000 2.381230 
#    y 0.000000 4.214090 0.000000 
#    z 2.381230 0.000000 4.780130 
# 
# 
# High freq. dielectric constant tensor:
#      x y z
#    x 1.808110 0.000000 0.008190 
#    y 0.000000 1.788750 0.000000 
#    z 0.008190 0.000000 1.747000 
# 
# From -- ./inp_files/293372.got.cif
#   From: 2010.06.25/outbox.cif.g09.slc.cpg/sg15_147_cif.got.tgz:293372.got - 2010.06.28 07:06:18.
