data_PCOD8134831
_publ_section_title
;
Structure prediction by ZEFSAII (Michael W. Deem and Ramdas Pophale) SiO2 
 PCOD8134831
Probable space group: C 2/C
;
_chemical_formula_sum "Si O2"
_cell_formula_units_Z 64
_cell_length_a 16.703234
_cell_length_b 30.613680
_cell_length_c 11.455538
_cell_angle_alpha 90.000000
_cell_angle_beta 30.831732
_cell_angle_gamma 90.000000
_cell_volume 3002.210518
_symmetry_space_group_name_H-M "C 2/C"
_symmetry_group_IT_number 15
_symmetry_cell_setting 'monoclinic'
loop_
_space_group_symop_operation_xyz
x,y,z
-x,y,1/2-z
-x,-y,-z
x,-y,1/2+z
1/2+x,1/2+y,z
1/2-x,1/2+y,1/2-z
1/2-x,1/2-y,-z
1/2+x,1/2-y,1/2+z
loop_
_atom_site_type_symbol
_atom_site_label
_atom_site_fract_x
_atom_site_fract_y
_atom_site_fract_z
Si Si1 0.079452 0.568444 0.893434
Si Si2 0.844041 0.938185 0.880149
Si Si3 0.863483 0.357698 0.743490
Si Si4 0.639502 0.638446 0.314740
Si Si5 0.437789 0.758775 0.598506
Si Si6 0.371650 0.992461 0.503043
Si Si7 0.248848 0.771161 0.625525
Si Si8 0.616938 0.325221 0.211518
O O1 0.211187 0.580806 0.633691
O O2 0.165378 0.534790 0.872982
O O3 0.013840 0.610073 0.049849
O O4 0.933479 0.546425 0.008838
O O5 0.892430 0.899638 0.734890
O O6 0.780411 0.977790 0.879594
O O7 0.000000 0.954939 0.750000
O O8 0.751148 0.374759 0.781666
O O9 0.914324 0.307624 0.671118
O O10 0.764981 0.355804 0.988470
O O11 0.725658 0.677242 0.136992
O O12 0.467885 0.650669 0.575528
O O13 0.404663 0.758448 0.500269
O O14 0.618021 0.745505 0.380790
O O15 0.336913 0.723584 0.800253
O O16 0.500000 0.007333 0.250000
O O17 0.250000 0.750000 0.500000
O O18 0.500000 0.318949 0.250000
#
# Coordination Sequence:
#
# PCOD8134831 Si02
#       8
#     8   8   8   8   8   8   8   8
#     4  10  21  40  69  95 122 163 208 263 322 390
#     4  11  23  40  67  94 129 165 206 267 324 396
#     4  10  19  36  63  92 119 167 221 261 318 380
#     4   9  20  37  58  87 127 167 213 256 319 380
#     4  10  21  36  57  87 124 169 221 262 317 373
#     4   9  20  43  68  93 128 159 200 260 332 387
#     4  10  21  36  55  83 125 172 210 266 317 373
#     4   9  19  38  61  87 133 176 210 269 321 373
#
# _framework density 21.317625
#
# number of rings (size 3 to 8) (size 9 to 14) (size 15 to 20)
#    0.000    2.250    1.250    1.500    1.750    2.500 
#    2.250    0.625    2.750    0.000    0.000    0.000 
#    0.000    0.000    0.000    0.000    0.000    0.000 
#
# Total GULP energy -396588.055728 kJ/mol
# GULP energy per Si atom -12393.376742 kJ/mol
# Density = 2.126911 g / cm^3
# Si number density = 21.317625 Si / 1000 Ang^3
#
#
#
# Elastic Constant Matrix: (Units=GPa)
#
#
# Indices 1 2 3 4 5 6 
#
# 1 88.4047 54.0911 29.9848 -0.0002 0.4002 0.0000
# 2 54.0911 102.2990 61.7429 0.0000 9.4555 0.0000
# 3 29.9848 61.7429 94.0693 -0.0002 11.9875 0.0000
# 4 -0.0002 0.0000 -0.0002 25.6940 0.0002 4.4692
# 5 0.4002 9.4555 11.9875 0.0002 34.7032 0.0000
# 6 0.0000 0.0000 0.0000 4.4692 0.0000 30.7319
#
#
#
# Elastic Compliance Matrix: (Units=1/GPa)
#
#
# Indices 1 2 3 4 5 6 
#
# 1 0.016915 -0.009479 0.000550 0.000000 0.002198 0.000000
# 2 -0.009479 0.021520 -0.010847 0.000000 -0.002007 0.000000
# 3 0.000550 -0.010847 0.017991 0.000000 -0.003265 0.000000
# 4 0.000000 0.000000 0.000000 0.039930 0.000000 -0.005807
# 5 0.002198 -0.002007 -0.003265 0.000000 0.030465 0.000000
# 6 0.000000 0.000000 0.000000 -0.005807 0.000000 0.033384
#
#
# Mechanical properties :
#
#
# Convention : Reuss Voigt Hill
#
# Bulk Modulus (GPa) = 59.26707 64.04563 61.65635
# Shear Modulus (GPa) = 24.34491 27.48944 25.91717
#
# Velocity S-wave (km/s) = 3.38303 3.59488 3.49056
# Velocity P-wave (km/s) = 6.56674 6.88038 6.72539
#
# Compressibility (1/GPa) = 0.01687277
#
# Stress axis : x y z
#
# Youngs Moduli (GPa) = 59.11962 46.46898 55.58288
#
# Poissons Ratio (x) = 0.44047 -0.03055
# Poissons Ratio (y) = 0.56038 0.60293
# Poissons Ratio (z) = -0.03250 0.50407
#
# Static dielectric constant tensor:
#      x y z
#    x 3.897650 0.000000 0.074480 
#    y 0.000000 3.669770 0.000000 
#    z 0.074480 0.000000 3.943040 
# 
# 
# High freq. dielectric constant tensor:
#      x y z
#    x 1.831750 0.000000 0.011240 
#    y 0.000000 1.821810 0.000000 
#    z 0.011240 0.000000 1.835990 
# 
# From -- ./inp_files/108633.got.cif
#   From: 2010.06.25/outbox.cif.g09.slc.cpg/sg15_55_cif.got.tgz:108633.got - 2010.06.28 07:06:18.
