data_PCOD8134915
_publ_section_title
;
Structure prediction by ZEFSAII (Michael W. Deem and Ramdas Pophale) SiO2 
 PCOD8134915
Probable space group: C 2/C
;
_chemical_formula_sum "Si O2"
_cell_formula_units_Z 56
_cell_length_a 13.327405
_cell_length_b 20.821259
_cell_length_c 11.139919
_cell_angle_alpha 90.000000
_cell_angle_beta 72.913584
_cell_angle_gamma 90.000000
_cell_volume 2954.813877
_symmetry_space_group_name_H-M "C 2/C"
_symmetry_group_IT_number 15
_symmetry_cell_setting 'monoclinic'
loop_
_space_group_symop_operation_xyz
x,y,z
-x,y,1/2-z
-x,-y,-z
x,-y,1/2+z
1/2+x,1/2+y,z
1/2-x,1/2+y,1/2-z
1/2-x,1/2-y,-z
1/2+x,1/2-y,1/2+z
loop_
_atom_site_type_symbol
_atom_site_label
_atom_site_fract_x
_atom_site_fract_y
_atom_site_fract_z
Si Si1 0.617575 0.734574 0.217310
Si Si2 0.796616 0.045709 0.318279
Si Si3 0.243174 0.921712 0.047788
Si Si4 0.399117 0.630773 0.099116
Si Si5 0.144571 0.145275 0.008969
Si Si6 0.811675 0.372083 0.262368
Si Si7 0.877385 0.513016 0.297448
O O1 0.500000 0.708736 0.250000
O O2 0.657087 0.692909 0.318335
O O3 0.669877 0.711297 0.073374
O O4 0.616889 0.810475 0.234970
O O5 0.882763 0.068666 0.190929
O O6 0.800317 0.089047 0.434719
O O7 0.680963 0.045499 0.296181
O O8 0.822559 0.973384 0.350550
O O9 0.302517 0.876139 0.121797
O O10 0.161844 0.878634 0.003472
O O11 0.329163 0.958185 0.936389
O O12 0.521671 0.635874 0.028113
O O13 0.198862 0.144978 0.860281
O O14 0.862850 0.435839 0.301018
O O15 0.000000 0.530512 0.250000
#
# Coordination Sequence:
#
# PCOD8134915 Si02
#       7
#     8   8   8   8   8   8   8
#     4   9  19  37  58  78 103 145 190 225 271 320
#     4   9  18  35  54  81 106 143 183 214 267 327
#     4  10  21  37  53  84 112 141 184 220 278 329
#     4   9  20  37  57  77 113 149 175 227 274 319
#     4  10  19  37  56  82 112 142 183 224 272 317
#     4  11  21  34  56  84 109 144 185 228 267 324
#     4  10  21  38  55  76 115 144 177 226 276 322
#
# _framework density 18.952124000000001
#
# number of rings (size 3 to 8) (size 9 to 14) (size 15 to 20)
#    0.000    2.286    1.429    2.143    0.000    4.000 
#    7.714    0.000    3.143    0.000    0.000    0.000 
#    0.000    0.000    0.000    0.000    0.000    0.000 
#
# Total GULP energy -346988.399647 kJ/mol
# GULP energy per Si atom -12392.442845 kJ/mol
# Density = 1.890899 g / cm^3
# Si number density = 18.952124 Si / 1000 Ang^3
#
#
#
# Elastic Constant Matrix: (Units=GPa)
#
#
# Indices 1 2 3 4 5 6 
#
# 1 81.8976 32.0758 39.4891 0.0000 5.1164 0.0000
# 2 32.0758 82.4447 22.9647 0.0000 8.3525 0.0000
# 3 39.4891 22.9647 88.2921 0.0000 10.7795 0.0000
# 4 0.0000 0.0000 0.0000 25.2992 0.0000 1.7358
# 5 5.1164 8.3525 10.7795 0.0000 29.3773 0.0000
# 6 0.0000 0.0000 0.0000 1.7358 0.0000 23.7372
#
#
#
# Elastic Compliance Matrix: (Units=1/GPa)
#
#
# Indices 1 2 3 4 5 6 
#
# 1 0.017254 -0.004978 -0.006520 0.000000 0.000803 0.000000
# 2 -0.004978 0.014703 -0.001249 0.000000 -0.002855 0.000000
# 3 -0.006520 -0.001249 0.015060 0.000000 -0.004035 0.000000
# 4 0.000000 0.000000 0.000000 0.039726 0.000000 -0.002905
# 5 0.000803 -0.002855 -0.004035 0.000000 0.036192 0.000000
# 6 0.000000 0.000000 0.000000 -0.002905 0.000000 0.042340
#
#
# Mechanical properties :
#
#
# Convention : Reuss Voigt Hill
#
# Bulk Modulus (GPa) = 46.46382 49.07708 47.77045
# Shear Modulus (GPa) = 25.25961 26.22306 25.74133
#
# Velocity S-wave (km/s) = 3.65473 3.72378 3.68941
# Velocity P-wave (km/s) = 6.50992 6.66635 6.58860
#
# Compressibility (1/GPa) = 0.02152212
#
# Stress axis : x y z
#
# Youngs Moduli (GPa) = 57.95872 68.01204 66.40200
#
# Poissons Ratio (x) = 0.33856 0.43295
# Poissons Ratio (y) = 0.28851 0.08296
# Poissons Ratio (z) = 0.37789 0.08497
#
# Static dielectric constant tensor:
#      x y z
#    x 3.241440 0.000000 0.118310 
#    y 0.000000 3.408390 0.000000 
#    z 0.118310 0.000000 3.556170 
# 
# 
# High freq. dielectric constant tensor:
#      x y z
#    x 1.719590 0.000000 0.007510 
#    y 0.000000 1.731190 0.000000 
#    z 0.007510 0.000000 1.740150 
# 
# From -- ./inp_files/89057.got.cif
#   From: 2010.06.25/outbox.cif.g09.slc.cpg/sg15_45_cif.got.tgz:89057.got - 2010.06.28 07:06:18.
