data_PCOD8134667
_publ_section_title
;
Structure prediction by ZEFSAII (Michael W. Deem and Ramdas Pophale) SiO2 
 PCOD8134667
Probable space group: C 2/C
;
_chemical_formula_sum "Si O2"
_cell_formula_units_Z 56
_cell_length_a 9.433388
_cell_length_b 9.147131
_cell_length_c 29.337801
_cell_angle_alpha 90.000000
_cell_angle_beta 103.630492
_cell_angle_gamma 90.000000
_cell_volume 2460.214728
_symmetry_space_group_name_H-M "C 2/C"
_symmetry_group_IT_number 15
_symmetry_cell_setting 'monoclinic'
loop_
_space_group_symop_operation_xyz
x,y,z
-x,y,1/2-z
-x,-y,-z
x,-y,1/2+z
1/2+x,1/2+y,z
1/2-x,1/2+y,1/2-z
1/2-x,1/2-y,-z
1/2+x,1/2-y,1/2+z
loop_
_atom_site_type_symbol
_atom_site_label
_atom_site_fract_x
_atom_site_fract_y
_atom_site_fract_z
Si Si1 0.859174 0.933860 0.712970
Si Si2 0.167956 0.165936 0.075961
Si Si3 0.170847 0.597616 0.761792
Si Si4 0.812142 0.022507 0.007068
Si Si5 0.544271 0.709400 0.919771
Si Si6 0.544444 0.181099 0.994082
Si Si7 0.576715 0.507663 0.154553
O O1 0.814403 0.769425 0.725278
O O2 0.000000 0.990607 0.750000
O O3 0.728990 0.049437 0.715439
O O4 0.920616 0.947767 0.665972
O O5 0.341037 0.181338 0.095313
O O6 0.106939 0.312487 0.045781
O O7 0.100968 0.137306 0.120240
O O8 0.130304 0.031946 0.038040
O O9 0.277790 0.504279 0.803177
O O10 0.000000 0.551131 0.750000
O O11 0.867198 0.184067 0.022254
O O12 0.862425 0.919999 0.051119
O O13 0.632403 0.029219 0.992035
O O14 0.437638 0.647617 0.872588
O O15 0.458924 0.797315 0.951846
#
# Coordination Sequence:
#
# PCOD8134667 Si02
#       7
#     8   8   8   8   8   8   8
#     4   9  22  43  68  92 122 156 195 248 312 376
#     4  11  22  37  58  87 124 161 205 252 299 353
#     4  10  23  44  71  94 120 157 203 248 309 383
#     4  10  19  36  60  81 116 174 212 251 296 349
#     4  11  22  36  57  87 122 164 205 252 303 351
#     4  10  19  36  60  79 121 168 214 251 298 344
#     4  11  23  41  61  94 129 158 198 253 314 366
#
# _framework density 22.762241
#
# number of rings (size 3 to 8) (size 9 to 14) (size 15 to 20)
#    0.000    1.714    2.857    2.571    0.000   10.857 
#    0.000    0.000    0.000    0.000    0.000    0.000 
#    0.000    0.000    0.000    0.000    0.000    0.000 
#
# Total GULP energy -346879.813418 kJ/mol
# GULP energy per Si atom -12388.564765 kJ/mol
# Density = 2.271043 g / cm^3
# Si number density = 22.762241 Si / 1000 Ang^3
#
#
#
# Elastic Constant Matrix: (Units=GPa)
#
#
# Indices 1 2 3 4 5 6 
#
# 1 124.2471 28.3561 43.9483 0.0000 -16.8836 0.0000
# 2 28.3561 72.9090 20.7880 0.0000 -8.7170 0.0000
# 3 43.9483 20.7880 93.9336 0.0000 -16.4508 0.0000
# 4 0.0000 0.0000 0.0000 12.5325 0.0000 7.0446
# 5 -16.8836 -8.7170 -16.4508 0.0000 44.3496 0.0000
# 6 0.0000 0.0000 0.0000 7.0446 0.0000 43.4451
#
#
#
# Elastic Compliance Matrix: (Units=1/GPa)
#
#
# Indices 1 2 3 4 5 6 
#
# 1 0.010296 -0.002663 -0.003886 0.000000 0.001955 0.000000
# 2 -0.002663 0.015463 -0.001948 0.000000 0.001303 0.000000
# 3 -0.003886 -0.001948 0.013442 0.000000 0.003124 0.000000
# 4 0.000000 0.000000 0.000000 0.087795 0.000000 -0.014236
# 5 0.001955 0.001303 0.003124 0.000000 0.024707 0.000000
# 6 0.000000 0.000000 0.000000 -0.014236 0.000000 0.025326
#
#
# Mechanical properties :
#
#
# Convention : Reuss Voigt Hill
#
# Bulk Modulus (GPa) = 45.02865 53.03049 49.02957
# Shear Modulus (GPa) = 24.82326 33.26526 29.04426
#
# Velocity S-wave (km/s) = 3.30592 3.82700 3.57597
# Velocity P-wave (km/s) = 5.86492 6.54798 6.21584
#
# Compressibility (1/GPa) = 0.02220808
#
# Stress axis : x y z
#
# Youngs Moduli (GPa) = 97.12264 64.67238 74.39400
#
# Poissons Ratio (x) = 0.17221 0.28906
# Poissons Ratio (y) = 0.25862 0.14491
# Poissons Ratio (z) = 0.37738 0.12598
#
# Static dielectric constant tensor:
#      x y z
#    x 4.737450 0.000000 -0.027510 
#    y 0.000000 3.984560 0.000000 
#    z -0.027510 0.000000 4.042260 
# 
# 
# High freq. dielectric constant tensor:
#      x y z
#    x 1.925490 0.000000 -0.005080 
#    y 0.000000 1.889090 0.000000 
#    z -0.005080 0.000000 1.869710 
# 
# From -- ./inp_files/307250.got.cif
#   From: 2010.06.25/outbox.cif.g09.slc.cpg/sg15_154_cif.got.tgz:307250.got - 2010.06.28 07:06:18.
