data_PCOD8134951
_publ_section_title
;
Structure prediction by ZEFSAII (Michael W. Deem and Ramdas Pophale) SiO2 
 PCOD8134951
Probable space group: C 2/C
;
_chemical_formula_sum "Si O2"
_cell_formula_units_Z 40
_cell_length_a 19.136110
_cell_length_b 15.001465
_cell_length_c 16.771547
_cell_angle_alpha 90.000000
_cell_angle_beta 23.269289
_cell_angle_gamma 90.000000
_cell_volume 1902.023970
_symmetry_space_group_name_H-M "C 2/C"
_symmetry_group_IT_number 15
_symmetry_cell_setting 'monoclinic'
loop_
_space_group_symop_operation_xyz
x,y,z
-x,y,1/2-z
-x,-y,-z
x,-y,1/2+z
1/2+x,1/2+y,z
1/2-x,1/2+y,1/2-z
1/2-x,1/2-y,-z
1/2+x,1/2-y,1/2+z
loop_
_atom_site_type_symbol
_atom_site_label
_atom_site_fract_x
_atom_site_fract_y
_atom_site_fract_z
Si Si1 0.205750 0.654895 0.191528
Si Si2 0.669535 0.520753 0.174215
Si Si3 0.957185 0.584728 0.992351
Si Si4 0.425937 0.669575 0.739229
Si Si5 0.765123 0.963425 0.072986
O O1 0.093420 0.662759 0.391483
O O2 0.165752 0.735040 0.172055
O O3 0.175047 0.560709 0.179191
O O4 0.413899 0.664520 0.992289
O O5 0.704420 0.413625 0.142484
O O6 0.460707 0.541104 0.406469
O O7 0.783463 0.569618 0.121174
O O8 0.729594 0.559026 0.025793
O O9 0.131707 0.607092 0.756327
O O10 0.000000 0.500000 0.000000
O O11 0.500000 0.652643 0.750000
#
# Coordination Sequence:
#
# PCOD8134951 Si02
#       5
#     8   8   8   8   8
#     4  10  22  34  49  84 117 152 185 223 289 346
#     4  10  19  37  58  83 112 146 198 238 280 337
#     4  10  22  34  52  82 119 153 189 231 283 344
#     4  11  21  35  56  82 119 155 188 227 285 352
#     4   9  19  36  57  83 106 148 194 236 283 322
#
# _framework density 21.030228999999999
#
# number of rings (size 3 to 8) (size 9 to 14) (size 15 to 20)
#    0.000    2.000    4.000    1.200    5.600    7.200 
#    0.000    0.000    0.000    0.000    0.000    5.600 
#    0.000    0.000    0.000    0.000    0.000    0.000 
#
# Total GULP energy -247831.697173 kJ/mol
# GULP energy per Si atom -12391.584859 kJ/mol
# Density = 2.098236 g / cm^3
# Si number density = 21.030229 Si / 1000 Ang^3
#
#
#
# Elastic Constant Matrix: (Units=GPa)
#
#
# Indices 1 2 3 4 5 6 
#
# 1 91.3837 11.0393 26.2470 0.0206 -1.9376 -0.0200
# 2 11.0393 19.7239 11.7957 0.1503 3.3043 -0.1676
# 3 26.2470 11.7957 139.6558 0.0198 12.3073 -0.0327
# 4 0.0206 0.1503 0.0198 21.3706 -0.0016 9.9692
# 5 -1.9376 3.3043 12.3073 -0.0016 24.2885 0.0037
# 6 -0.0200 -0.1676 -0.0327 9.9692 0.0037 13.7463
#
#
#
# Elastic Compliance Matrix: (Units=1/GPa)
#
#
# Indices 1 2 3 4 5 6 
#
# 1 0.012336 -0.006160 -0.002050 0.000095 0.002861 -0.000132
# 2 -0.006160 0.057131 -0.003076 -0.001076 -0.006705 0.001462
# 3 -0.002050 -0.003076 0.008147 0.000038 -0.003873 -0.000048
# 4 0.000095 -0.001076 0.000038 0.070739 0.000147 -0.051315
# 5 0.002861 -0.006705 -0.003873 0.000147 0.044275 -0.000205
# 6 -0.000132 0.001462 -0.000048 -0.051315 -0.000205 0.109979
#
#
# Mechanical properties :
#
#
# Convention : Reuss Voigt Hill
#
# Bulk Modulus (GPa) = 18.16800 38.76970 28.46885
# Shear Modulus (GPa) = 14.55486 25.32650 19.94068
#
# Velocity S-wave (km/s) = 2.63362 3.47405 3.08261
# Velocity P-wave (km/s) = 4.23151 5.87940 5.12216
#
# Compressibility (1/GPa) = 0.05504184
#
# Stress axis : x y z
#
# Youngs Moduli (GPa) = 81.06033 17.50358 122.74479
#
# Poissons Ratio (x) = 0.10781 0.25168
# Poissons Ratio (y) = 0.49929 0.37761
# Poissons Ratio (z) = 0.16621 0.05385
#
# Static dielectric constant tensor:
#      x y z
#    x 3.612750 0.000040 0.291330 
#    y 0.000040 3.440310 0.000190 
#    z 0.291330 0.000190 4.880950 
# 
# 
# High freq. dielectric constant tensor:
#      x y z
#    x 1.807010 0.000000 0.004840 
#    y 0.000000 1.764130 0.000000 
#    z 0.004840 0.000000 1.852220 
# 
# From -- ./inp_files/162430.got.cif
#   From: 2010.06.25/outbox.cif.g09.slc.cpg/sg15_82_cif.got.tgz:162430.got - 2010.06.28 07:06:18.
