data_PCOD8134981
_publ_section_title
;
Structure prediction by ZEFSAII (Michael W. Deem and Ramdas Pophale) SiO2 
 PCOD8134981
Probable space group: C 2/C
;
_chemical_formula_sum "Si O2"
_cell_formula_units_Z 60
_cell_length_a 12.842979
_cell_length_b 12.092047
_cell_length_c 20.210417
_cell_angle_alpha 90.000000
_cell_angle_beta 93.164439
_cell_angle_gamma 90.000000
_cell_volume 3133.849698
_symmetry_space_group_name_H-M "C 2/C"
_symmetry_group_IT_number 15
_symmetry_cell_setting 'monoclinic'
loop_
_space_group_symop_operation_xyz
x,y,z
-x,y,1/2-z
-x,-y,-z
x,-y,1/2+z
1/2+x,1/2+y,z
1/2-x,1/2+y,1/2-z
1/2-x,1/2-y,-z
1/2+x,1/2-y,1/2+z
loop_
_atom_site_type_symbol
_atom_site_label
_atom_site_fract_x
_atom_site_fract_y
_atom_site_fract_z
Si Si1 0.144780 0.287235 0.722221
Si Si2 0.522879 0.372983 0.433113
Si Si3 0.848143 0.212013 0.146355
Si Si4 0.617704 0.455933 0.180706
Si Si5 0.844585 0.067313 0.018626
Si Si6 0.812255 0.546478 0.597426
Si Si7 0.560940 0.157148 0.356860
Si Si8 0.000000 0.127486 0.250000
O O1 0.256745 0.310710 0.695503
O O2 0.126284 0.156449 0.722033
O O3 0.139719 0.324541 0.798196
O O4 0.057104 0.349827 0.674996
O O5 0.482639 0.445903 0.370297
O O6 0.612598 0.442348 0.472620
O O7 0.424084 0.356161 0.478758
O O8 0.568361 0.255277 0.411262
O O9 0.828545 0.124010 0.088231
O O10 0.855235 0.334173 0.117782
O O11 0.958709 0.199865 0.187398
O O12 0.720370 0.487263 0.143936
O O13 0.597938 0.553582 0.231216
O O14 0.733211 0.055136 0.978476
O O15 0.904981 0.456284 0.605498
#
# Coordination Sequence:
#
# PCOD8134981 Si02
#       8
#     8   8   8   8   8   8   8   4
#     4   9  20  36  60  81 117 153 193 229 292 352
#     4   9  18  35  62  87 108 148 194 247 281 325
#     4  11  23  38  56  88 113 154 187 241 290 344
#     4   9  17  34  56  87 106 148 194 242 282 334
#     4  10  20  38  60  83 117 148 197 240 284 340
#     4  10  22  36  56  79 122 154 187 229 291 345
#     4  10  19  37  59  84 115 157 194 235 283 342
#     4  12  20  32  62  86 112 138 200 248 286 328
#
# _framework density 19.145780999999999
#
# number of rings (size 3 to 8) (size 9 to 14) (size 15 to 20)
#    0.000    2.133    1.333    3.600    0.000    1.600 
#    0.000    2.667    2.933    0.000    0.000    0.000 
#    0.000    0.000    0.000    0.000    0.000    0.000 
#
# Total GULP energy -371982.946750 kJ/mol
# GULP energy per Si atom -12399.431558 kJ/mol
# Density = 1.910220 g / cm^3
# Si number density = 19.145781 Si / 1000 Ang^3
#
#
#
# Elastic Constant Matrix: (Units=GPa)
#
#
# Indices 1 2 3 4 5 6 
#
# 1 61.2127 48.4904 27.2228 0.0000 11.7003 0.0000
# 2 48.4904 85.4075 35.3479 0.0000 19.3512 0.0000
# 3 27.2228 35.3479 87.3778 0.0000 16.2937 0.0000
# 4 0.0000 0.0000 0.0000 24.7808 0.0000 -3.7750
# 5 11.7003 19.3512 16.2937 0.0000 29.2728 0.0000
# 6 0.0000 0.0000 0.0000 -3.7750 0.0000 17.7725
#
#
#
# Elastic Compliance Matrix: (Units=1/GPa)
#
#
# Indices 1 2 3 4 5 6 
#
# 1 0.030323 -0.016005 -0.002996 0.000000 0.000128 0.000000
# 2 -0.016005 0.023855 -0.003254 0.000000 -0.007562 0.000000
# 3 -0.002996 -0.003254 0.014584 0.000000 -0.004769 0.000000
# 4 0.000000 0.000000 0.000000 0.041703 0.000000 0.008858
# 5 0.000128 -0.007562 -0.004769 0.000000 0.041763 0.000000
# 6 0.000000 0.000000 0.000000 0.008858 0.000000 0.058148
#
#
# Mechanical properties :
#
#
# Convention : Reuss Voigt Hill
#
# Bulk Modulus (GPa) = 41.23484 50.68004 45.95744
# Shear Modulus (GPa) = 19.01344 22.56101 20.78722
#
# Velocity S-wave (km/s) = 3.15475 3.43648 3.29862
# Velocity P-wave (km/s) = 5.90372 6.50184 6.20999
#
# Compressibility (1/GPa) = 0.02425134
#
# Stress axis : x y z
#
# Youngs Moduli (GPa) = 32.97810 41.91909 68.56933
#
# Poissons Ratio (x) = 0.67091 0.20547
# Poissons Ratio (y) = 0.52781 0.22313
# Poissons Ratio (z) = 0.09882 0.13641
#
# Static dielectric constant tensor:
#      x y z
#    x 3.369020 0.000000 -0.016160 
#    y 0.000000 3.308380 0.000000 
#    z -0.016160 0.000000 3.553500 
# 
# 
# High freq. dielectric constant tensor:
#      x y z
#    x 1.730700 0.000000 -0.000120 
#    y 0.000000 1.733270 0.000000 
#    z -0.000120 0.000000 1.750650 
# 
# From -- ./inp_files/204084.got.cif
#   From: 2010.06.25/outbox.cif.g09.slc.cpg/sg15_103_cif.got.tgz:204084.got - 2010.06.28 07:06:18.
