data_PCOD8134472
_publ_section_title
;
Structure prediction by ZEFSAII (Michael W. Deem and Ramdas Pophale) SiO2 
 PCOD8134472
Probable space group: C 2/C
;
_chemical_formula_sum "Si O2"
_cell_formula_units_Z 64
_cell_length_a 12.302790
_cell_length_b 28.412858
_cell_length_c 9.616666
_cell_angle_alpha 90.000000
_cell_angle_beta 87.776778
_cell_angle_gamma 90.000000
_cell_volume 3359.046666
_symmetry_space_group_name_H-M "C 2/C"
_symmetry_group_IT_number 15
_symmetry_cell_setting 'monoclinic'
loop_
_space_group_symop_operation_xyz
x,y,z
-x,y,1/2-z
-x,-y,-z
x,-y,1/2+z
1/2+x,1/2+y,z
1/2-x,1/2+y,1/2-z
1/2-x,1/2-y,-z
1/2+x,1/2-y,1/2+z
loop_
_atom_site_type_symbol
_atom_site_label
_atom_site_fract_x
_atom_site_fract_y
_atom_site_fract_z
Si Si1 0.101987 0.675853 0.656529
Si Si2 0.686319 0.638419 0.733443
Si Si3 0.104626 0.848556 0.529182
Si Si4 0.567391 0.555373 0.110530
Si Si5 0.049290 0.717809 0.386629
Si Si6 0.213446 0.772212 0.705979
Si Si7 0.606046 0.700164 0.489904
Si Si8 0.411466 0.546208 0.870274
O O1 0.197598 0.640562 0.695093
O O2 0.071515 0.675286 0.494041
O O3 0.132354 0.729475 0.687373
O O4 0.000000 0.659282 0.750000
O O5 0.674024 0.677414 0.613537
O O6 0.675537 0.585494 0.672162
O O7 0.600539 0.649635 0.860138
O O8 0.144169 0.899089 0.587717
O O9 0.187029 0.811269 0.590847
O O10 0.979670 0.836181 0.574974
O O11 0.500000 0.559927 0.250000
O O12 0.637559 0.506636 0.097937
O O13 0.473873 0.562682 0.001590
O O14 0.162510 0.742985 0.332787
O O15 0.000000 0.694448 0.250000
O O16 0.964642 0.755354 0.454603
O O17 0.195651 0.788123 0.867037
O O18 0.500000 0.537598 0.750000
#
# Coordination Sequence:
#
# PCOD8134472 Si02
#       8
#     8   8   8   8   8   8   8   8
#     4  12  24  42  57  80 117 158 204 253 286 338
#     4  12  24  38  60  84 115 160 202 233 298 355
#     4  12  20  37  56  86 120 158 191 238 294 351
#     4  10  20  32  56  84 121 153 181 230 292 350
#     4  12  25  40  57  81 114 158 203 252 293 341
#     4  12  24  39  58  82 120 160 203 246 297 342
#     4  12  23  37  58  84 118 160 203 244 285 354
#     4  10  19  36  54  85 120 149 188 231 285 363
#
# _framework density 19.053024000000001
#
# number of rings (size 3 to 8) (size 9 to 14) (size 15 to 20)
#    0.000    0.500    6.250    4.125    1.750    1.000 
#    0.000    0.000    0.000    0.000    0.000    1.750 
#    0.000    0.000    0.000    0.000    0.000    0.000 
#
# Total GULP energy -396579.577404 kJ/mol
# GULP energy per Si atom -12393.111794 kJ/mol
# Density = 1.900966 g / cm^3
# Si number density = 19.053024 Si / 1000 Ang^3
#
#
#
# Elastic Constant Matrix: (Units=GPa)
#
#
# Indices 1 2 3 4 5 6 
#
# 1 58.8396 16.6320 28.7556 0.0000 4.8102 0.0000
# 2 16.6320 102.0887 30.3866 0.0000 14.2529 0.0000
# 3 28.7556 30.3866 117.5209 0.0000 9.1617 0.0000
# 4 0.0000 0.0000 0.0000 24.1214 0.0000 5.4323
# 5 4.8102 14.2529 9.1617 0.0000 35.3942 0.0000
# 6 0.0000 0.0000 0.0000 5.4323 0.0000 19.7814
#
#
#
# Elastic Compliance Matrix: (Units=1/GPa)
#
#
# Indices 1 2 3 4 5 6 
#
# 1 0.019667 -0.001814 -0.004278 0.000000 -0.000835 0.000000
# 2 -0.001814 0.011259 -0.002177 0.000000 -0.003724 0.000000
# 3 -0.004278 -0.002177 0.010211 0.000000 -0.001185 0.000000
# 4 0.000000 0.000000 0.000000 0.044190 0.000000 -0.012135
# 5 -0.000835 -0.003724 -0.001185 0.000000 0.030173 0.000000
# 6 0.000000 0.000000 0.000000 -0.012135 0.000000 0.053885
#
#
# Mechanical properties :
#
#
# Convention : Reuss Voigt Hill
#
# Bulk Modulus (GPa) = 40.65243 47.77749 44.21496
# Shear Modulus (GPa) = 25.75688 29.37108 27.56398
#
# Velocity S-wave (km/s) = 3.68074 3.93051 3.80768
# Velocity P-wave (km/s) = 6.28065 6.76233 6.52594
#
# Compressibility (1/GPa) = 0.02459877
#
# Stress axis : x y z
#
# Youngs Moduli (GPa) = 50.84619 88.81935 97.93198
#
# Poissons Ratio (x) = 0.16113 0.41896
# Poissons Ratio (y) = 0.09224 0.21319
# Poissons Ratio (z) = 0.21752 0.19335
#
# Static dielectric constant tensor:
#      x y z
#    x 3.249200 0.000000 0.090440 
#    y 0.000000 3.706570 0.000000 
#    z 0.090440 0.000000 3.871670 
# 
# 
# High freq. dielectric constant tensor:
#      x y z
#    x 1.702880 0.000000 0.004640 
#    y 0.000000 1.717890 0.000000 
#    z 0.004640 0.000000 1.772500 
# 
# From -- ./inp_files/35662.got.cif
#   From: 2010.06.25/outbox.cif.g09.slc.cpg/sg15_18_cif.got.tgz:35662.got - 2010.06.28 07:06:18.
