data_PCOD8134317
_publ_section_title
;
Structure prediction by ZEFSAII (Michael W. Deem and Ramdas Pophale) SiO2 
 PCOD8134317
Probable space group: C 2/C
;
_chemical_formula_sum "Si O2"
_cell_formula_units_Z 44
_cell_length_a 15.794315
_cell_length_b 15.906857
_cell_length_c 9.260749
_cell_angle_alpha 90.000000
_cell_angle_beta 115.849501
_cell_angle_gamma 90.000000
_cell_volume 2093.852123
_symmetry_space_group_name_H-M "C 2/C"
_symmetry_group_IT_number 15
_symmetry_cell_setting 'monoclinic'
loop_
_space_group_symop_operation_xyz
x,y,z
-x,y,1/2-z
-x,-y,-z
x,-y,1/2+z
1/2+x,1/2+y,z
1/2-x,1/2+y,1/2-z
1/2-x,1/2-y,-z
1/2+x,1/2-y,1/2+z
loop_
_atom_site_type_symbol
_atom_site_label
_atom_site_fract_x
_atom_site_fract_y
_atom_site_fract_z
Si Si1 0.500000 0.993765 0.250000
Si Si2 0.055594 0.384024 0.548946
Si Si3 0.381552 0.237213 0.976675
Si Si4 0.398420 0.576542 0.503613
Si Si5 0.172050 0.758865 0.236915
Si Si6 0.611527 0.567457 0.690940
O O1 0.437157 0.052292 0.309102
O O2 0.562128 0.934869 0.402836
O O3 0.958061 0.330567 0.481987
O O4 0.145867 0.321656 0.618900
O O5 0.405436 0.331178 0.939388
O O6 0.281259 0.218472 0.830634
O O7 0.377375 0.237852 0.146949
O O8 0.502221 0.544021 0.615979
O O9 0.342782 0.576146 0.615172
O O10 0.341838 0.510701 0.359856
O O11 0.126446 0.841449 0.128298
#
# Coordination Sequence:
#
# PCOD8134317 Si02
#       6
#     4   8   8   8   8   8
#     4  10  24  38  68  82 114 162 196 250 310 326
#     4  11  20  44  59  88 117 152 204 251 288 368
#     4  10  19  35  60  85 114 155 191 233 295 350
#     4   9  17  32  52  76 104 140 177 220 270 326
#     4  10  19  35  60  85 114 155 191 233 295 350
#     4   9  17  32  52  76 104 140 177 220 270 326
#
# _framework density 21.013902000000002
#
# number of rings (size 3 to 8) (size 9 to 14) (size 15 to 20)
#    0.000    2.182    3.636    0.000    0.000    0.000 
#    9.818    0.909    0.000    0.000    0.000    0.000 
#    0.000    0.000    0.000    0.000    0.000    0.000 
#
# Total GULP energy -272550.184867 kJ/mol
# GULP energy per Si atom -12388.644767 kJ/mol
# Density = 2.096607 g / cm^3
# Si number density = 21.013902 Si / 1000 Ang^3
#
#
#
# Elastic Constant Matrix: (Units=GPa)
#
#
# Indices 1 2 3 4 5 6 
#
# 1 35.7587 22.9770 24.3273 0.0000 6.2424 0.0000
# 2 22.9770 168.5851 63.8091 0.0000 -11.6409 0.0000
# 3 24.3273 63.8091 74.7343 0.0000 -7.7102 0.0000
# 4 0.0000 0.0000 0.0000 36.9474 0.0000 -8.4536
# 5 6.2424 -11.6409 -7.7102 0.0000 24.8614 0.0000
# 6 0.0000 0.0000 0.0000 -8.4536 0.0000 14.2516
#
#
#
# Elastic Compliance Matrix: (Units=1/GPa)
#
#
# Indices 1 2 3 4 5 6 
#
# 1 0.040796 -0.001460 -0.013596 0.000000 -0.015143 0.000000
# 2 -0.001460 0.008899 -0.006875 0.000000 0.002401 0.000000
# 3 -0.013596 -0.006875 0.024479 0.000000 0.007786 0.000000
# 4 0.000000 0.000000 0.000000 0.031316 0.000000 0.018576
# 5 -0.015143 0.002401 0.007786 0.000000 0.047564 0.000000
# 6 0.000000 0.000000 0.000000 0.018576 0.000000 0.081186
#
#
# Mechanical properties :
#
#
# Convention : Reuss Voigt Hill
#
# Bulk Modulus (GPa) = 32.98856 55.70052 44.34454
# Shear Modulus (GPa) = 17.34872 26.40972 21.87922
#
# Velocity S-wave (km/s) = 2.87641 3.54895 3.23023
# Velocity P-wave (km/s) = 5.17341 6.58463 5.92122
#
# Compressibility (1/GPa) = 0.03031354
#
# Stress axis : x y z
#
# Youngs Moduli (GPa) = 24.51204 112.37733 40.85066
#
# Poissons Ratio (x) = 0.16407 0.55539
# Poissons Ratio (y) = 0.03579 0.28084
# Poissons Ratio (z) = 0.33326 0.77257
#
# Static dielectric constant tensor:
#      x y z
#    x 3.439190 0.000000 -0.214670 
#    y 0.000000 4.104450 0.000000 
#    z -0.214670 0.000000 3.864420 
# 
# 
# High freq. dielectric constant tensor:
#      x y z
#    x 1.769180 0.000000 0.004840 
#    y 0.000000 1.848480 0.000000 
#    z 0.004840 0.000000 1.804070 
# 
# From -- ./inp_files/47208.got.cif
#   From: 2010.06.25/outbox.cif.g09.slc.cpg/sg15_24_cif.got.tgz:47208.got - 2010.06.28 07:06:18.
