data_PCOD8134447
_publ_section_title
;
Structure prediction by ZEFSAII (Michael W. Deem and Ramdas Pophale) SiO2 
 PCOD8134447
Probable space group: C 2/C
;
_chemical_formula_sum "Si O2"
_cell_formula_units_Z 56
_cell_length_a 8.480402
_cell_length_b 23.509447
_cell_length_c 14.087168
_cell_angle_alpha 90.000000
_cell_angle_beta 69.011462
_cell_angle_gamma 90.000000
_cell_volume 2622.210942
_symmetry_space_group_name_H-M "C 2/C"
_symmetry_group_IT_number 15
_symmetry_cell_setting 'monoclinic'
loop_
_space_group_symop_operation_xyz
x,y,z
-x,y,1/2-z
-x,-y,-z
x,-y,1/2+z
1/2+x,1/2+y,z
1/2-x,1/2+y,1/2-z
1/2-x,1/2-y,-z
1/2+x,1/2-y,1/2+z
loop_
_atom_site_type_symbol
_atom_site_label
_atom_site_fract_x
_atom_site_fract_y
_atom_site_fract_z
Si Si1 0.526156 0.974055 0.135636
Si Si2 0.497893 0.364054 0.637643
Si Si3 0.647174 0.453995 0.968870
Si Si4 0.675370 0.546739 0.669570
Si Si5 0.051262 0.736089 0.847286
Si Si6 0.301628 0.144455 0.941618
Si Si7 0.323967 0.343532 0.235949
O O1 0.500000 0.984043 0.250000
O O2 0.344393 0.992853 0.125644
O O3 0.579383 0.909349 0.101294
O O4 0.669867 0.017987 0.073958
O O5 0.500000 0.375437 0.750000
O O6 0.376563 0.408868 0.610843
O O7 0.432828 0.301141 0.624116
O O8 0.687939 0.369288 0.557623
O O9 0.500000 0.500000 0.000000
O O10 0.630873 0.425733 0.076710
O O11 0.500000 0.518476 0.750000
O O12 0.751580 0.594354 0.724213
O O13 0.233431 0.707127 0.812226
O O14 0.000000 0.730659 0.750000
O O15 0.917403 0.699947 0.938899
O O16 0.181947 0.160492 0.877058
O O17 0.500000 0.345480 0.250000
#
# Coordination Sequence:
#
# PCOD8134447 Si02
#       7
#     8   8   8   8   8   8   8
#     4  12  22  42  67  96 126 166 222 276 322 391
#     4  11  24  43  65  94 134 179 217 260 328 398
#     4  12  26  43  61  92 134 176 216 266 327 391
#     4  11  22  41  68  96 124 164 221 276 326 379
#     4   9  19  38  68  97 129 167 212 267 324 393
#     4  11  19  41  66  97 126 166 222 268 323 387
#     4  10  19  35  67 100 127 158 213 274 325 377
#
# _framework density 21.356024000000001
#
# number of rings (size 3 to 8) (size 9 to 14) (size 15 to 20)
#    0.000    1.143    4.286    3.857    0.000    1.714 
#    2.571    3.571    3.143    0.000    0.000    0.000 
#    0.000    0.000    0.000    0.000    0.000    0.000 
#
# Total GULP energy -346873.716604 kJ/mol
# GULP energy per Si atom -12388.347022 kJ/mol
# Density = 2.130742 g / cm^3
# Si number density = 21.356024 Si / 1000 Ang^3
#
#
#
# Elastic Constant Matrix: (Units=GPa)
#
#
# Indices 1 2 3 4 5 6 
#
# 1 79.1293 38.5269 68.0540 0.0000 -10.2260 0.0000
# 2 38.5269 90.2326 24.0469 0.0000 -3.3509 0.0000
# 3 68.0540 24.0469 132.0840 0.0000 -0.6689 0.0000
# 4 0.0000 0.0000 0.0000 31.2248 0.0000 3.2372
# 5 -10.2260 -3.3509 -0.6689 0.0000 38.0393 0.0000
# 6 0.0000 0.0000 0.0000 3.2372 0.0000 29.5256
#
#
#
# Elastic Compliance Matrix: (Units=1/GPa)
#
#
# Indices 1 2 3 4 5 6 
#
# 1 0.029394 -0.008689 -0.013528 0.000000 0.006899 0.000000
# 2 -0.008689 0.014253 0.001877 0.000000 -0.001047 0.000000
# 3 -0.013528 0.001877 0.014183 0.000000 -0.003222 0.000000
# 4 0.000000 0.000000 0.000000 0.032394 0.000000 -0.003552
# 5 0.006899 -0.001047 -0.003222 0.000000 0.027994 0.000000
# 6 0.000000 0.000000 0.000000 -0.003552 0.000000 0.034258
#
#
# Mechanical properties :
#
#
# Convention : Reuss Voigt Hill
#
# Bulk Modulus (GPa) = 58.30978 62.52239 60.41609
# Shear Modulus (GPa) = 25.14141 31.14580 28.14360
#
# Velocity S-wave (km/s) = 3.43483 3.82305 3.63413
# Velocity P-wave (km/s) = 6.56458 6.98766 6.77942
#
# Compressibility (1/GPa) = 0.01714978
#
# Stress axis : x y z
#
# Youngs Moduli (GPa) = 34.02026 70.15831 70.50678
#
# Poissons Ratio (x) = 0.60962 0.95382
# Poissons Ratio (y) = 0.29561 -0.13232
# Poissons Ratio (z) = 0.46023 -0.13166
#
# Static dielectric constant tensor:
#      x y z
#    x 4.029990 0.000000 -0.178610 
#    y 0.000000 4.693520 0.000000 
#    z -0.178610 0.000000 4.095850 
# 
# 
# High freq. dielectric constant tensor:
#      x y z
#    x 1.840360 0.000000 -0.010790 
#    y 0.000000 1.820850 0.000000 
#    z -0.010790 0.000000 1.847160 
# 
# From -- ./inp_files/137736.got.cif
#   From: 2010.06.25/outbox.cif.g09.slc.cpg/sg15_69_cif.got.tgz:137736.got - 2010.06.28 07:06:18.
