data_PCOD8134156
_publ_section_title
;
Structure prediction by ZEFSAII (Michael W. Deem and Ramdas Pophale) SiO2 
 PCOD8134156
Probable space group: C 2/C
;
_chemical_formula_sum "Si O2"
_cell_formula_units_Z 52
_cell_length_a 17.908868
_cell_length_b 20.480131
_cell_length_c 7.929103
_cell_angle_alpha 90.000000
_cell_angle_beta 58.728539
_cell_angle_gamma 90.000000
_cell_volume 2485.693172
_symmetry_space_group_name_H-M "C 2/C"
_symmetry_group_IT_number 15
_symmetry_cell_setting 'monoclinic'
loop_
_space_group_symop_operation_xyz
x,y,z
-x,y,1/2-z
-x,-y,-z
x,-y,1/2+z
1/2+x,1/2+y,z
1/2-x,1/2+y,1/2-z
1/2-x,1/2-y,-z
1/2+x,1/2-y,1/2+z
loop_
_atom_site_type_symbol
_atom_site_label
_atom_site_fract_x
_atom_site_fract_y
_atom_site_fract_z
Si Si1 0.000000 0.184431 0.750000
Si Si2 0.807590 0.454481 0.869679
Si Si3 0.167032 0.587699 0.785886
Si Si4 0.055356 0.746542 0.520320
Si Si5 0.310238 0.341804 0.536491
Si Si6 0.476688 0.112662 0.087324
Si Si7 0.754194 0.214655 0.752650
O O1 0.088021 0.141876 0.621191
O O2 0.991269 0.227104 0.592510
O O3 0.790232 0.532378 0.884090
O O4 0.735688 0.409935 0.854955
O O5 0.903733 0.443579 0.677367
O O6 0.801942 0.433446 0.067378
O O7 0.202175 0.660623 0.701721
O O8 0.062394 0.586986 0.891573
O O9 0.065284 0.669753 0.475757
O O10 0.150466 0.776962 0.439119
O O11 0.000000 0.763821 0.750000
O O12 0.298869 0.283584 0.688273
O O13 0.259350 0.313274 0.434938
O O14 0.500000 0.136682 0.250000
#
# Coordination Sequence:
#
# PCOD8134156 Si02
#       7
#     4   8   8   8   8   8   8
#     4  10  20  36  58  84 116 150 198 246 290 346
#     4  10  20  36  56  82 116 156 190 237 293 354
#     4  10  21  35  57  82 116 156 192 235 294 351
#     4  11  21  35  59  89 120 151 193 246 297 343
#     4   9  17  34  62  79 107 156 197 236 295 345
#     4  10  19  35  57  82 116 158 191 231 294 354
#     4   9  18  35  56  84 114 148 195 246 288 345
#
# _framework density 20.919720000000002
#
# number of rings (size 3 to 8) (size 9 to 14) (size 15 to 20)
#    0.000    2.154    2.308    1.385    4.308    1.231 
#    2.769    1.538    1.692    2.769    0.000    0.000 
#    0.000    0.000    0.000    0.000    0.000    0.000 
#
# Total GULP energy -322257.215162 kJ/mol
# GULP energy per Si atom -12394.508275 kJ/mol
# Density = 2.087211 g / cm^3
# Si number density = 20.919720 Si / 1000 Ang^3
#
#
#
# Elastic Constant Matrix: (Units=GPa)
#
#
# Indices 1 2 3 4 5 6 
#
# 1 62.5443 27.5864 23.3228 0.0000 -21.4083 0.0000
# 2 27.5864 106.5752 28.8806 0.0000 -14.1721 0.0000
# 3 23.3228 28.8806 79.1629 0.0000 -12.7715 0.0000
# 4 0.0000 0.0000 0.0000 28.2728 0.0000 -2.3928
# 5 -21.4083 -14.1721 -12.7715 0.0000 23.2951 0.0000
# 6 0.0000 0.0000 0.0000 -2.3928 0.0000 17.3556
#
#
#
# Elastic Compliance Matrix: (Units=1/GPa)
#
#
# Indices 1 2 3 4 5 6 
#
# 1 0.025221 -0.003070 -0.003151 0.000000 0.019583 0.000000
# 2 -0.003070 0.011270 -0.002804 0.000000 0.002497 0.000000
# 3 -0.003151 -0.002804 0.015184 0.000000 0.003723 0.000000
# 4 0.000000 0.000000 0.000000 0.035787 0.000000 0.004934
# 5 0.019583 0.002497 0.003723 0.000000 0.064484 0.000000
# 6 0.000000 0.000000 0.000000 0.004934 0.000000 0.058298
#
#
# Mechanical properties :
#
#
# Convention : Reuss Voigt Hill
#
# Bulk Modulus (GPa) = 29.74077 45.31801 37.52939
# Shear Modulus (GPa) = 20.87651 25.01755 22.94703
#
# Velocity S-wave (km/s) = 3.16244 3.46191 3.31555
# Velocity P-wave (km/s) = 5.25187 6.13918 5.71278
#
# Compressibility (1/GPa) = 0.03362388
#
# Stress axis : x y z
#
# Youngs Moduli (GPa) = 39.64971 88.73342 65.85821
#
# Poissons Ratio (x) = 0.27244 0.20753
# Poissons Ratio (y) = 0.12174 0.18467
# Poissons Ratio (z) = 0.12494 0.24881
#
# Static dielectric constant tensor:
#      x y z
#    x 3.692670 0.000000 -0.120230 
#    y 0.000000 4.034360 0.000000 
#    z -0.120230 0.000000 3.563500 
# 
# 
# High freq. dielectric constant tensor:
#      x y z
#    x 1.805410 0.000000 -0.010910 
#    y 0.000000 1.804110 0.000000 
#    z -0.010910 0.000000 1.804460 
# 
# From -- ./inp_files/50595.got.cif
#   From: 2010.06.25/outbox.cif.g09.slc.cpg/sg15_26_cif.got.tgz:50595.got - 2010.06.28 07:06:18.
