data_PCOD8134401
_publ_section_title
;
Structure prediction by ZEFSAII (Michael W. Deem and Ramdas Pophale) SiO2 
 PCOD8134401
Probable space group: C 2/C
;
_chemical_formula_sum "Si O2"
_cell_formula_units_Z 64
_cell_length_a 28.420435
_cell_length_b 11.859737
_cell_length_c 16.297987
_cell_angle_alpha 90.000000
_cell_angle_beta 146.161638
_cell_angle_gamma 90.000000
_cell_volume 3058.999664
_symmetry_space_group_name_H-M "C 2/C"
_symmetry_group_IT_number 15
_symmetry_cell_setting 'monoclinic'
loop_
_space_group_symop_operation_xyz
x,y,z
-x,y,1/2-z
-x,-y,-z
x,-y,1/2+z
1/2+x,1/2+y,z
1/2-x,1/2+y,1/2-z
1/2-x,1/2-y,-z
1/2+x,1/2-y,1/2+z
loop_
_atom_site_type_symbol
_atom_site_label
_atom_site_fract_x
_atom_site_fract_y
_atom_site_fract_z
Si Si1 0.145254 0.377146 0.886494
Si Si2 0.047579 0.028155 0.239953
Si Si3 0.446773 0.700324 0.834550
Si Si4 0.235688 0.071552 0.482036
Si Si5 0.383268 0.177468 0.970870
Si Si6 0.491946 0.987267 0.086139
Si Si7 0.683914 0.245999 0.787884
Si Si8 0.501746 0.736756 0.419707
O O1 0.136615 0.261599 0.822457
O O2 0.149855 0.328221 0.985069
O O3 0.066725 0.458391 0.749033
O O4 0.230496 0.446937 0.990611
O O5 0.144139 0.066405 0.392854
O O6 0.989205 0.135492 0.131771
O O7 0.000000 0.976738 0.250000
O O8 0.050947 0.933373 0.175106
O O9 0.529876 0.752547 0.911962
O O10 0.433776 0.721271 0.912218
O O11 0.294287 0.129600 0.634993
O O12 0.237985 0.148720 0.401953
O O13 0.403686 0.047737 0.977854
O O14 0.311233 0.227882 0.804223
O O15 0.484718 0.857261 0.103675
O O16 0.500000 0.000000 0.000000
O O17 0.588019 0.274572 0.667223
#
# Coordination Sequence:
#
# PCOD8134401 Si02
#       8
#     8   8   8   8   8   8   8   8
#     4  11  20  34  60  92 117 149 201 242 300 359
#     4  11  24  40  58  84 116 159 205 245 293 355
#     4  10  20  38  60  85 120 160 193 236 299 359
#     4  10  21  38  63  81 116 162 195 244 296 365
#     4  10  20  33  60  90 120 154 192 244 297 352
#     4  11  16  32  59  91 119 153 189 250 299 344
#     4   9  18  38  58  82 118 157 192 234 310 350
#     4  10  19  35  63  86 113 156 198 241 291 356
#
# _framework density 20.921873000000001
#
# number of rings (size 3 to 8) (size 9 to 14) (size 15 to 20)
#    0.000    1.750    5.000    2.625    0.000    1.500 
#    0.000    6.250    0.000    1.500    0.000    0.000 
#    0.000    0.000    0.000    0.000    0.000    0.000 
#
# Total GULP energy -396532.634348 kJ/mol
# GULP energy per Si atom -12391.644823 kJ/mol
# Density = 2.087425 g / cm^3
# Si number density = 20.921873 Si / 1000 Ang^3
#
#
#
# Elastic Constant Matrix: (Units=GPa)
#
#
# Indices 1 2 3 4 5 6 
#
# 1 43.7024 -4.5827 30.0001 0.0000 -7.2178 0.0000
# 2 -4.5827 118.8798 24.7502 0.0000 -1.9914 0.0000
# 3 30.0001 24.7502 96.6716 0.0000 -29.9450 0.0000
# 4 0.0000 0.0000 0.0000 29.4430 0.0000 -7.3102
# 5 -7.2178 -1.9914 -29.9450 0.0000 21.0876 0.0000
# 6 0.0000 0.0000 0.0000 -7.3102 0.0000 23.8483
#
#
#
# Elastic Compliance Matrix: (Units=1/GPa)
#
#
# Indices 1 2 3 4 5 6 
#
# 1 0.030839 0.003724 -0.012756 0.000000 -0.007207 0.000000
# 2 0.003724 0.009556 -0.005227 0.000000 -0.005245 0.000000
# 3 -0.012756 -0.005227 0.025236 0.000000 0.030977 0.000000
# 4 0.000000 0.000000 0.000000 0.036762 0.000000 0.011269
# 5 -0.007207 -0.005245 0.030977 0.000000 0.088447 0.000000
# 6 0.000000 0.000000 0.000000 0.011269 0.000000 0.045386
#
#
# Mechanical properties :
#
#
# Convention : Reuss Voigt Hill
#
# Bulk Modulus (GPa) = 26.94486 39.95432 33.44959
# Shear Modulus (GPa) = 18.04311 28.81488 23.42899
#
# Velocity S-wave (km/s) = 2.93986 3.71517 3.35002
# Velocity P-wave (km/s) = 4.94272 6.12713 5.56651
#
# Compressibility (1/GPa) = 0.03711283
#
# Stress axis : x y z
#
# Youngs Moduli (GPa) = 32.42669 104.64892 39.62536
#
# Poissons Ratio (x) = -0.38969 0.50546
# Poissons Ratio (y) = -0.12075 0.20712
# Poissons Ratio (z) = 0.41363 0.54699
#
# Static dielectric constant tensor:
#      x y z
#    x 3.342770 0.000000 -0.269970 
#    y 0.000000 4.123900 0.000000 
#    z -0.269970 0.000000 4.014600 
# 
# 
# High freq. dielectric constant tensor:
#      x y z
#    x 1.772150 0.000000 -0.021430 
#    y 0.000000 1.832370 0.000000 
#    z -0.021430 0.000000 1.821590 
# 
# From -- ./inp_files/177834.got.cif
#   From: 2010.06.25/outbox.cif.g09.slc.cpg/sg15_89_cif.got.tgz:177834.got - 2010.06.28 07:06:18.
