data_PCOD8134408
_publ_section_title
;
Structure prediction by ZEFSAII (Michael W. Deem and Ramdas Pophale) SiO2 
 PCOD8134408
Probable space group: C 2/C
;
_chemical_formula_sum "Si O2"
_cell_formula_units_Z 64
_cell_length_a 8.072684
_cell_length_b 25.610828
_cell_length_c 15.004070
_cell_angle_alpha 90.000000
_cell_angle_beta 73.963637
_cell_angle_gamma 90.000000
_cell_volume 2981.351357
_symmetry_space_group_name_H-M "C 2/C"
_symmetry_group_IT_number 15
_symmetry_cell_setting 'monoclinic'
loop_
_space_group_symop_operation_xyz
x,y,z
-x,y,1/2-z
-x,-y,-z
x,-y,1/2+z
1/2+x,1/2+y,z
1/2-x,1/2+y,1/2-z
1/2-x,1/2-y,-z
1/2+x,1/2-y,1/2+z
loop_
_atom_site_type_symbol
_atom_site_label
_atom_site_fract_x
_atom_site_fract_y
_atom_site_fract_z
Si Si1 0.106060 0.651141 0.650653
Si Si2 0.876794 0.236092 0.402457
Si Si3 0.660308 0.947838 0.920480
Si Si4 0.624969 0.115333 0.969600
Si Si5 0.122494 0.044177 0.647538
Si Si6 0.397011 0.584535 0.537776
Si Si7 0.305161 0.357898 0.786255
Si Si8 0.161557 0.161104 0.412675
O O1 0.106633 0.713356 0.662636
O O2 0.295605 0.624845 0.619013
O O3 0.000000 0.626934 0.750000
O O4 0.021198 0.642611 0.566371
O O5 0.750000 0.250000 0.500000
O O6 0.795762 0.193107 0.349272
O O7 0.057784 0.216005 0.419173
O O8 0.690063 0.901765 0.846716
O O9 0.725038 0.001230 0.865391
O O10 0.456260 0.938612 0.973656
O O11 0.761786 0.945793 0.997914
O O12 0.780915 0.099537 0.880414
O O13 0.693968 0.157918 0.031250
O O14 0.000000 0.043555 0.750000
O O15 0.997588 0.040348 0.579807
O O16 0.523034 0.615603 0.452792
O O17 0.500000 0.378448 0.750000
O O18 0.239058 0.347646 0.695596
#
# Coordination Sequence:
#
# PCOD8134408 Si02
#       8
#     8   8   8   8   8   8   8   8
#     4  11  21  37  62  86 120 165 209 245 310 369
#     4  11  19  36  62  93 117 161 207 251 298 371
#     4  11  20  39  62  88 115 159 200 254 317 366
#     4  10  24  40  58  88 131 161 192 268 316 370
#     4  11  23  38  61  87 120 157 210 252 306 375
#     4  10  20  37  59  85 115 159 201 256 299 367
#     4  10  19  35  63  91 118 151 211 260 296 373
#     4  10  20  38  60  87 125 157 201 253 319 358
#
# _framework density 21.466774000000001
#
# number of rings (size 3 to 8) (size 9 to 14) (size 15 to 20)
#    0.000    1.500    3.750    3.750    0.000    1.000 
#    0.000    0.000    8.250    1.500    0.000    0.000 
#    0.000    0.000    0.000    0.000    0.000    0.000 
#
# Total GULP energy -396525.072335 kJ/mol
# GULP energy per Si atom -12391.408510 kJ/mol
# Density = 2.141792 g / cm^3
# Si number density = 21.466774 Si / 1000 Ang^3
#
#
#
# Elastic Constant Matrix: (Units=GPa)
#
#
# Indices 1 2 3 4 5 6 
#
# 1 62.6327 17.1729 28.8426 0.0000 -1.2633 0.0000
# 2 17.1729 67.9253 31.3879 0.0000 -0.5245 0.0000
# 3 28.8426 31.3879 131.1283 0.0000 -13.9024 0.0000
# 4 0.0000 0.0000 0.0000 8.5762 0.0000 -6.1876
# 5 -1.2633 -0.5245 -13.9024 0.0000 32.0542 0.0000
# 6 0.0000 0.0000 0.0000 -6.1876 0.0000 29.5092
#
#
#
# Elastic Compliance Matrix: (Units=1/GPa)
#
#
# Indices 1 2 3 4 5 6 
#
# 1 0.018353 -0.003083 -0.003383 0.000000 -0.000794 0.000000
# 2 -0.003083 0.017142 -0.003572 0.000000 -0.001390 0.000000
# 3 -0.003383 -0.003572 0.009649 0.000000 0.003993 0.000000
# 4 0.000000 0.000000 0.000000 0.137386 0.000000 0.028808
# 5 -0.000794 -0.001390 0.003993 0.000000 0.032875 0.000000
# 6 0.000000 0.000000 0.000000 0.028808 0.000000 0.039928
#
#
# Mechanical properties :
#
#
# Convention : Reuss Voigt Hill
#
# Bulk Modulus (GPa) = 39.89380 46.27699 43.08539
# Shear Modulus (GPa) = 17.62017 26.31344 21.96681
#
# Velocity S-wave (km/s) = 2.86809 3.50491 3.20237
# Velocity P-wave (km/s) = 5.43987 6.16307 5.81273
#
# Compressibility (1/GPa) = 0.02506655
#
# Stress axis : x y z
#
# Youngs Moduli (GPa) = 54.48596 58.33787 103.64017
#
# Poissons Ratio (x) = 0.17985 0.35064
# Poissons Ratio (y) = 0.16797 0.37025
# Poissons Ratio (z) = 0.18434 0.20841
#
# Static dielectric constant tensor:
#      x y z
#    x 3.921650 0.000000 -0.069480 
#    y 0.000000 3.781880 0.000000 
#    z -0.069480 0.000000 4.114280 
# 
# 
# High freq. dielectric constant tensor:
#      x y z
#    x 1.827770 0.000000 -0.013100 
#    y 0.000000 1.823990 0.000000 
#    z -0.013100 0.000000 1.859490 
# 
# From -- ./inp_files/138591.got.cif
#   From: 2010.06.25/outbox.cif.g09.slc.cpg/sg15_70_cif.got.tgz:138591.got - 2010.06.28 07:06:18.
