data_PCOD8134406
_publ_section_title
;
Structure prediction by ZEFSAII (Michael W. Deem and Ramdas Pophale) SiO2 
 PCOD8134406
Probable space group: C 2/C
;
_chemical_formula_sum "Si O2"
_cell_formula_units_Z 40
_cell_length_a 19.321404
_cell_length_b 6.918959
_cell_length_c 14.126346
_cell_angle_alpha 90.000000
_cell_angle_beta 55.985401
_cell_angle_gamma 90.000000
_cell_volume 1565.340532
_symmetry_space_group_name_H-M "C 2/C"
_symmetry_group_IT_number 15
_symmetry_cell_setting 'monoclinic'
loop_
_space_group_symop_operation_xyz
x,y,z
-x,y,1/2-z
-x,-y,-z
x,-y,1/2+z
1/2+x,1/2+y,z
1/2-x,1/2+y,1/2-z
1/2-x,1/2-y,-z
1/2+x,1/2-y,1/2+z
loop_
_atom_site_type_symbol
_atom_site_label
_atom_site_fract_x
_atom_site_fract_y
_atom_site_fract_z
Si Si1 0.953651 0.971907 0.885424
Si Si2 0.657822 0.887655 0.903551
Si Si3 0.456730 0.773724 0.041271
Si Si4 0.286237 0.556850 0.929874
Si Si5 0.680678 0.494159 0.297975
O O1 0.852829 0.966101 0.951493
O O2 0.000000 0.977913 0.750000
O O3 0.982843 0.160140 0.924734
O O4 0.977312 0.772623 0.923971
O O5 0.567088 0.996076 0.958995
O O6 0.703886 0.925779 0.969417
O O7 0.720612 0.956391 0.770332
O O8 0.645917 0.658977 0.900313
O O9 0.367678 0.691975 0.144360
O O10 0.338244 0.588132 0.792853
O O11 0.250000 0.750000 0.000000
#
# Coordination Sequence:
#
# PCOD8134406 Si02
#       5
#     8   8   8   8   8
#     4  11  21  39  64  86 127 169 204 256 329 372
#     4  10  19  36  62  91 121 161 212 256 306 373
#     4  11  22  38  64  90 124 170 205 262 322 374
#     4  10  19  35  63  90 120 163 211 253 311 376
#     4  10  19  36  61  89 123 163 209 257 309 367
#
# _framework density 25.553545
#
# number of rings (size 3 to 8) (size 9 to 14) (size 15 to 20)
#    1.200    0.400    6.000    0.000    0.000    0.000 
#    0.000    7.000    4.400    0.000    0.000    0.000 
#    0.000    0.000    0.000    0.000    0.000    0.000 
#
# Total GULP energy -247805.677909 kJ/mol
# GULP energy per Si atom -12390.283895 kJ/mol
# Density = 2.549538 g / cm^3
# Si number density = 25.553545 Si / 1000 Ang^3
#
#
#
# Elastic Constant Matrix: (Units=GPa)
#
#
# Indices 1 2 3 4 5 6 
#
# 1 193.2640 -10.7912 1.6409 0.0005 -15.9033 -0.0002
# 2 -10.7912 54.0520 -2.3358 0.0024 0.2006 -0.0013
# 3 1.6409 -2.3358 107.5961 0.0010 10.0122 -0.0006
# 4 0.0005 0.0024 0.0010 35.2801 -0.0003 7.6750
# 5 -15.9033 0.2006 10.0122 -0.0003 44.0065 0.0001
# 6 -0.0002 -0.0013 -0.0006 7.6750 0.0001 18.8949
#
#
#
# Elastic Compliance Matrix: (Units=1/GPa)
#
#
# Indices 1 2 3 4 5 6 
#
# 1 0.005400 0.001060 -0.000246 0.000000 0.002003 0.000000
# 2 0.001060 0.018728 0.000371 -0.000002 0.000213 0.000002
# 3 -0.000246 0.000371 0.009516 0.000000 -0.002255 0.000001
# 4 0.000000 -0.000002 0.000000 0.031092 0.000000 -0.012629
# 5 0.002003 0.000213 -0.002255 0.000000 0.023960 0.000000
# 6 0.000000 0.000002 0.000001 -0.012629 0.000000 0.058054
#
#
# Mechanical properties :
#
#
# Convention : Reuss Voigt Hill
#
# Bulk Modulus (GPa) = 27.76739 36.88221 32.32480
# Shear Modulus (GPa) = 31.97246 44.06282 38.01764
#
# Velocity S-wave (km/s) = 3.54106 4.15701 3.86134
# Velocity P-wave (km/s) = 5.25440 6.12419 5.70589
#
# Compressibility (1/GPa) = 0.03601347
#
# Stress axis : x y z
#
# Youngs Moduli (GPa) = 185.17337 53.39719 105.08964
#
# Poissons Ratio (x) = -0.05661 0.02582
# Poissons Ratio (y) = -0.19630 -0.03894
# Poissons Ratio (z) = 0.04550 -0.01979
#
# Static dielectric constant tensor:
#      x y z
#    x 5.185100 0.000000 -0.002160 
#    y 0.000000 4.368500 0.000000 
#    z -0.002160 0.000000 4.696720 
# 
# 
# High freq. dielectric constant tensor:
#      x y z
#    x 2.043610 0.000000 -0.025940 
#    y 0.000000 2.013940 0.000000 
#    z -0.025940 0.000000 2.032500 
# 
# From -- ./inp_files/165632.got.cif
#   From: 2010.06.25/outbox.cif.g09.slc.cpg/sg15_83_cif.got.tgz:165632.got - 2010.06.28 07:06:18.
