data_PCOD8134755
_publ_section_title
;
Structure prediction by ZEFSAII (Michael W. Deem and Ramdas Pophale) SiO2 
 PCOD8134755
Probable space group: C 2/C
;
_chemical_formula_sum "Si O2"
_cell_formula_units_Z 48
_cell_length_a 10.905716
_cell_length_b 21.480169
_cell_length_c 9.627084
_cell_angle_alpha 90.000000
_cell_angle_beta 92.577471
_cell_angle_gamma 90.000000
_cell_volume 2252.926657
_symmetry_space_group_name_H-M "C 2/C"
_symmetry_group_IT_number 15
_symmetry_cell_setting 'monoclinic'
loop_
_space_group_symop_operation_xyz
x,y,z
-x,y,1/2-z
-x,-y,-z
x,-y,1/2+z
1/2+x,1/2+y,z
1/2-x,1/2+y,1/2-z
1/2-x,1/2-y,-z
1/2+x,1/2-y,1/2+z
loop_
_atom_site_type_symbol
_atom_site_label
_atom_site_fract_x
_atom_site_fract_y
_atom_site_fract_z
Si Si1 0.910635 0.707044 0.031633
Si Si2 0.095904 0.435386 0.940415
Si Si3 0.211550 0.748018 0.725288
Si Si4 0.832402 0.532242 0.357868
Si Si5 0.580710 0.693201 0.625470
Si Si6 0.112285 0.873440 0.852223
O O1 0.880854 0.637239 0.073401
O O2 0.815679 0.747864 0.113243
O O3 0.042229 0.735381 0.082241
O O4 0.902376 0.717317 0.863558
O O5 0.141512 0.470867 0.804464
O O6 0.948488 0.440036 0.949483
O O7 0.173913 0.462643 0.075331
O O8 0.272457 0.700000 0.838582
O O9 0.176481 0.813646 0.788593
O O10 0.708700 0.570761 0.378312
O O11 0.500000 0.667447 0.750000
O O12 0.558523 0.644826 0.499733
O O13 0.000000 0.896735 0.750000
#
# Coordination Sequence:
#
# PCOD8134755 Si02
#       6
#     8   8   8   8   8   8
#     4  10  19  36  61  90 123 163 203 258 316 372
#     4  10  21  42  65  89 122 159 227 263 315 360
#     4  10  20  34  59  91 122 165 203 251 318 377
#     4  10  23  40  66  91 118 172 211 275 308 365
#     4  10  22  36  59  95 132 168 204 253 328 385
#     4  12  22  40  60  95 136 163 212 256 324 401
#
# _framework density 21.305620000000001
#
# number of rings (size 3 to 8) (size 9 to 14) (size 15 to 20)
#    0.000    1.667    3.333    1.500    4.667    1.333 
#    0.000    5.833    0.000    3.000    0.000    0.000 
#    0.000    0.000    0.000    0.000    0.000    0.000 
#
# Total GULP energy -297409.112369 kJ/mol
# GULP energy per Si atom -12392.046349 kJ/mol
# Density = 2.125713 g / cm^3
# Si number density = 21.305620 Si / 1000 Ang^3
#
#
#
# Elastic Constant Matrix: (Units=GPa)
#
#
# Indices 1 2 3 4 5 6 
#
# 1 77.4537 19.9802 45.5228 0.0000 8.2819 0.0000
# 2 19.9802 60.8399 42.3409 0.0000 -2.4326 0.0000
# 3 45.5228 42.3409 123.2602 0.0000 10.8064 0.0000
# 4 0.0000 0.0000 0.0000 23.5940 0.0000 6.4959
# 5 8.2819 -2.4326 10.8064 0.0000 28.0486 0.0000
# 6 0.0000 0.0000 0.0000 6.4959 0.0000 29.0814
#
#
#
# Elastic Compliance Matrix: (Units=1/GPa)
#
#
# Indices 1 2 3 4 5 6 
#
# 1 0.016854 -0.001995 -0.005266 0.000000 -0.003121 0.000000
# 2 -0.001995 0.022507 -0.007469 0.000000 0.005419 0.000000
# 3 -0.005266 -0.007469 0.012982 0.000000 -0.004095 0.000000
# 4 0.000000 0.000000 0.000000 0.045161 0.000000 -0.010088
# 5 -0.003121 0.005419 -0.004095 0.000000 0.038622 0.000000
# 6 0.000000 0.000000 0.000000 -0.010088 0.000000 0.036639
#
#
# Mechanical properties :
#
#
# Convention : Reuss Voigt Hill
#
# Bulk Modulus (GPa) = 43.70103 53.02684 48.36394
# Shear Modulus (GPa) = 23.82612 26.39213 25.10913
#
# Velocity S-wave (km/s) = 3.34773 3.52339 3.43668
# Velocity P-wave (km/s) = 5.95811 6.44167 6.20460
#
# Compressibility (1/GPa) = 0.02288275
#
# Stress axis : x y z
#
# Youngs Moduli (GPa) = 59.33243 44.43104 77.02698
#
# Poissons Ratio (x) = 0.08865 0.40560
# Poissons Ratio (y) = 0.11838 0.57535
# Poissons Ratio (z) = 0.31242 0.33188
#
# Static dielectric constant tensor:
#      x y z
#    x 3.921480 0.000000 0.343170 
#    y 0.000000 3.482150 0.000000 
#    z 0.343170 0.000000 4.280480 
# 
# 
# High freq. dielectric constant tensor:
#      x y z
#    x 1.829040 0.000000 0.009970 
#    y 0.000000 1.795790 0.000000 
#    z 0.009970 0.000000 1.853670 
# 
# From -- ./inp_files/32139.got.cif
#   From: 2010.06.25/outbox.cif.g09.slc.cpg/sg15_17_cif.got.tgz:32139.got - 2010.06.28 07:06:18.
