data_PCOD8134255
_publ_section_title
;
Structure prediction by ZEFSAII (Michael W. Deem and Ramdas Pophale) SiO2 
 PCOD8134255
Probable space group: C 2/C
;
_chemical_formula_sum "Si O2"
_cell_formula_units_Z 52
_cell_length_a 17.039335
_cell_length_b 18.421842
_cell_length_c 17.514605
_cell_angle_alpha 90.000000
_cell_angle_beta 149.504489
_cell_angle_gamma 90.000000
_cell_volume 2789.954666
_symmetry_space_group_name_H-M "C 2/C"
_symmetry_group_IT_number 15
_symmetry_cell_setting 'monoclinic'
loop_
_space_group_symop_operation_xyz
x,y,z
-x,y,1/2-z
-x,-y,-z
x,-y,1/2+z
1/2+x,1/2+y,z
1/2-x,1/2+y,1/2-z
1/2-x,1/2-y,-z
1/2+x,1/2-y,1/2+z
loop_
_atom_site_type_symbol
_atom_site_label
_atom_site_fract_x
_atom_site_fract_y
_atom_site_fract_z
Si Si1 0.842934 0.329088 0.389973
Si Si2 0.500000 0.522719 0.250000
Si Si3 0.200360 0.422896 0.003630
Si Si4 0.303228 0.551054 0.828010
Si Si5 0.572758 0.581124 0.155004
Si Si6 0.693841 0.184359 0.207562
Si Si7 0.144386 0.436341 0.786512
O O1 0.788693 0.353600 0.430000
O O2 0.818923 0.393837 0.309889
O O3 0.740702 0.261780 0.279186
O O4 0.021345 0.307531 0.531415
O O5 0.653207 0.474934 0.364542
O O6 0.486841 0.573810 0.164554
O O7 0.186781 0.401373 0.903592
O O8 0.033338 0.459718 0.879304
O O9 0.340867 0.494744 0.791463
O O10 0.237273 0.509796 0.847138
O O11 0.451807 0.594642 0.984198
O O12 0.688375 0.650709 0.256880
O O13 0.702214 0.126775 0.281415
#
# Coordination Sequence:
#
# PCOD8134255 Si02
#       7
#     8   4   8   8   8   8   8
#     4  11  22  38  60  84 118 157 199 243 289 350
#     4  12  20  34  58  90 116 150 186 252 280 352
#     4  10  21  34  56  87 117 149 193 238 300 343
#     4  10  19  35  59  83 114 154 194 248 288 341
#     4  10  21  35  57  87 118 149 197 241 293 347
#     4  10  23  37  58  83 118 160 200 238 290 351
#     4   9  20  38  55  83 121 151 194 243 292 353
#
# _framework density 18.638296
#
# number of rings (size 3 to 8) (size 9 to 14) (size 15 to 20)
#    0.000    1.846    3.077    0.923    2.154    3.692 
#    0.000    1.538    0.000    5.538    0.000    0.000 
#    0.000    0.000    0.000    0.000    0.000    0.000 
#
# Total GULP energy -322199.906924 kJ/mol
# GULP energy per Si atom -12392.304112 kJ/mol
# Density = 1.859587 g / cm^3
# Si number density = 18.638296 Si / 1000 Ang^3
#
#
#
# Elastic Constant Matrix: (Units=GPa)
#
#
# Indices 1 2 3 4 5 6 
#
# 1 94.9927 41.3752 33.1554 -0.0033 -2.7072 -0.0063
# 2 41.3752 78.8415 57.5619 -0.0123 -4.5810 -0.0097
# 3 33.1554 57.5619 108.2913 -0.0109 0.6458 -0.0102
# 4 -0.0033 -0.0123 -0.0109 35.8221 -0.0135 1.0213
# 5 -2.7072 -4.5810 0.6458 -0.0135 21.5381 -0.0085
# 6 -0.0063 -0.0097 -0.0102 1.0213 -0.0085 16.3526
#
#
#
# Elastic Compliance Matrix: (Units=1/GPa)
#
#
# Indices 1 2 3 4 5 6 
#
# 1 0.013673 -0.006699 -0.000627 -0.000001 0.000312 0.000001
# 2 -0.006699 0.024506 -0.011003 0.000006 0.004700 0.000007
# 3 -0.000627 -0.011003 0.015292 0.000000 -0.002878 0.000001
# 4 -0.000001 0.000006 0.000000 0.027966 0.000018 -0.001747
# 5 0.000312 0.004700 -0.002878 0.000018 0.047555 0.000025
# 6 0.000001 0.000007 0.000001 -0.001747 0.000025 0.061261
#
#
# Mechanical properties :
#
#
# Convention : Reuss Voigt Hill
#
# Bulk Modulus (GPa) = 59.48112 60.70117 60.09115
# Shear Modulus (GPa) = 21.50402 24.74476 23.12439
#
# Velocity S-wave (km/s) = 3.40038 3.64762 3.52617
# Velocity P-wave (km/s) = 6.88473 7.09781 6.99208
#
# Compressibility (1/GPa) = 0.01681206
#
# Stress axis : x y z
#
# Youngs Moduli (GPa) = 73.13733 40.80688 65.39377
#
# Poissons Ratio (x) = 0.27339 0.04100
# Poissons Ratio (y) = 0.48998 0.71951
# Poissons Ratio (z) = 0.04586 0.44899
#
# Static dielectric constant tensor:
#      x y z
#    x 3.656080 -0.000010 0.101650 
#    y -0.000010 3.191670 -0.000020 
#    z 0.101650 -0.000020 3.565940 
# 
# 
# High freq. dielectric constant tensor:
#      x y z
#    x 1.721010 0.000000 0.005280 
#    y 0.000000 1.691390 0.000000 
#    z 0.005280 0.000000 1.741920 
# 
# From -- ./inp_files/62666.got.cif
#   From: 2010.06.25/outbox.cif.g09.slc.cpg/sg15_32_cif.got.tgz:62666.got - 2010.06.28 07:06:18.
