data_PCOD8134177
_publ_section_title
;
Structure prediction by ZEFSAII (Michael W. Deem and Ramdas Pophale) SiO2 
 PCOD8134177
Probable space group: C 2/C
;
_chemical_formula_sum "Si O2"
_cell_formula_units_Z 56
_cell_length_a 14.619649
_cell_length_b 17.725079
_cell_length_c 14.926652
_cell_angle_alpha 90.000000
_cell_angle_beta 131.245739
_cell_angle_gamma 90.000000
_cell_volume 2908.313183
_symmetry_space_group_name_H-M "C 2/C"
_symmetry_group_IT_number 15
_symmetry_cell_setting 'monoclinic'
loop_
_space_group_symop_operation_xyz
x,y,z
-x,y,1/2-z
-x,-y,-z
x,-y,1/2+z
1/2+x,1/2+y,z
1/2-x,1/2+y,1/2-z
1/2-x,1/2-y,-z
1/2+x,1/2-y,1/2+z
loop_
_atom_site_type_symbol
_atom_site_label
_atom_site_fract_x
_atom_site_fract_y
_atom_site_fract_z
Si Si1 0.606642 0.321651 0.248599
Si Si2 0.901130 0.609919 0.756553
Si Si3 0.960093 0.437691 0.819239
Si Si4 0.530191 0.296520 0.507281
Si Si5 0.787895 0.223361 0.927710
Si Si6 0.772481 0.321181 0.745734
Si Si7 0.372883 0.863417 0.441006
O O1 0.500000 0.331207 0.250000
O O2 0.542949 0.345005 0.114022
O O3 0.656294 0.236628 0.272916
O O4 0.725594 0.372604 0.347985
O O5 0.908742 0.519877 0.763871
O O6 0.772925 0.643166 0.638815
O O7 0.924016 0.635979 0.872837
O O8 0.000000 0.642162 0.750000
O O9 0.849802 0.396805 0.798697
O O10 0.000000 0.400856 0.750000
O O11 0.073762 0.430782 0.962245
O O12 0.433783 0.283492 0.524767
O O13 0.642915 0.342772 0.619210
O O14 0.578136 0.217909 0.492668
O O15 0.750670 0.286048 0.829619
O O16 0.750000 0.250000 0.000000
#
# Coordination Sequence:
#
# PCOD8134177 Si02
#       7
#     8   8   8   8   8   8   8
#     4  10  20  32  57  87 116 157 199 254 304 361
#     4  11  23  40  61  91 123 164 208 264 320 367
#     4  11  24  39  59  92 126 164 205 255 322 385
#     4  10  19  35  57  86 119 150 207 255 307 362
#     4  11  21  37  63  89 123 160 215 264 312 367
#     4  10  21  36  57  87 122 157 208 253 315 375
#     4  11  20  39  60  88 123 159 209 258 313 380
#
# _framework density 19.255147999999998
#
# number of rings (size 3 to 8) (size 9 to 14) (size 15 to 20)
#    0.000    1.429    7.143    1.714    2.000    1.143 
#    0.000    0.714    0.000    0.000    0.000    0.000 
#    0.000    0.000    0.000    0.000    0.000    0.000 
#
# Total GULP energy -346933.989581 kJ/mol
# GULP energy per Si atom -12390.499628 kJ/mol
# Density = 1.921132 g / cm^3
# Si number density = 19.255148 Si / 1000 Ang^3
#
#
#
# Elastic Constant Matrix: (Units=GPa)
#
#
# Indices 1 2 3 4 5 6 
#
# 1 144.9765 27.1980 74.8907 0.0000 2.5954 0.0000
# 2 27.1980 59.8918 43.0264 0.0000 2.6268 0.0000
# 3 74.8907 43.0264 143.6711 0.0000 17.2978 0.0000
# 4 0.0000 0.0000 0.0000 15.4557 0.0000 3.6183
# 5 2.5954 2.6268 17.2978 0.0000 38.2620 0.0000
# 6 0.0000 0.0000 0.0000 3.6183 0.0000 22.5809
#
#
#
# Elastic Compliance Matrix: (Units=1/GPa)
#
#
# Indices 1 2 3 4 5 6 
#
# 1 0.009578 -0.000883 -0.004926 0.000000 0.001638 0.000000
# 2 -0.000883 0.021437 -0.006123 0.000000 0.001356 0.000000
# 3 -0.004926 -0.006123 0.011920 0.000000 -0.004634 0.000000
# 4 0.000000 0.000000 0.000000 0.067223 0.000000 -0.010772
# 5 0.001638 0.001356 -0.004634 0.000000 0.028026 0.000000
# 6 0.000000 0.000000 0.000000 -0.010772 0.000000 0.046011
#
#
# Mechanical properties :
#
#
# Convention : Reuss Voigt Hill
#
# Bulk Modulus (GPa) = 52.43334 70.97442 61.70388
# Shear Modulus (GPa) = 23.31917 28.82135 26.07026
#
# Velocity S-wave (km/s) = 3.48381 3.87306 3.68358
# Velocity P-wave (km/s) = 6.59337 7.54591 7.08566
#
# Compressibility (1/GPa) = 0.01907183
#
# Stress axis : x y z
#
# Youngs Moduli (GPa) = 104.40101 46.64831 83.89570
#
# Poissons Ratio (x) = 0.04119 0.41324
# Poissons Ratio (y) = 0.09218 0.51369
# Poissons Ratio (z) = 0.51424 0.28563
#
# Static dielectric constant tensor:
#      x y z
#    x 3.871290 0.000000 0.123300 
#    y 0.000000 3.155250 0.000000 
#    z 0.123300 0.000000 3.753060 
# 
# 
# High freq. dielectric constant tensor:
#      x y z
#    x 1.761180 0.000000 0.003540 
#    y 0.000000 1.698440 0.000000 
#    z 0.003540 0.000000 1.761470 
# 
# From -- ./inp_files/155231.got.cif
#   From: 2010.06.25/outbox.cif.g09.slc.cpg/sg15_78_cif.got.tgz:155231.got - 2010.06.28 07:06:18.
