data_PCOD8134236
_publ_section_title
;
Structure prediction by ZEFSAII (Michael W. Deem and Ramdas Pophale) SiO2 
 PCOD8134236
Probable space group: C 2/C
;
_chemical_formula_sum "Si O2"
_cell_formula_units_Z 52
_cell_length_a 5.114722
_cell_length_b 16.518202
_cell_length_c 28.120249
_cell_angle_alpha 90.000000
_cell_angle_beta 100.591556
_cell_angle_gamma 90.000000
_cell_volume 2335.290407
_symmetry_space_group_name_H-M "C 2/C"
_symmetry_group_IT_number 15
_symmetry_cell_setting 'monoclinic'
loop_
_space_group_symop_operation_xyz
x,y,z
-x,y,1/2-z
-x,-y,-z
x,-y,1/2+z
1/2+x,1/2+y,z
1/2-x,1/2+y,1/2-z
1/2-x,1/2-y,-z
1/2+x,1/2-y,1/2+z
loop_
_atom_site_type_symbol
_atom_site_label
_atom_site_fract_x
_atom_site_fract_y
_atom_site_fract_z
Si Si1 0.659275 0.886293 0.414260
Si Si2 0.500000 0.888082 0.250000
Si Si3 0.135158 0.991756 0.390603
Si Si4 0.977599 0.679164 0.196908
Si Si5 0.543188 0.236930 0.835467
Si Si6 0.761228 0.948046 0.511612
Si Si7 0.651592 0.532503 0.210805
O O1 0.388266 0.934089 0.395482
O O2 0.650596 0.799517 0.388523
O O3 0.717024 0.872891 0.473321
O O4 0.889265 0.938178 0.398466
O O5 0.527199 0.833515 0.204182
O O6 0.242515 0.944288 0.232115
O O7 0.070773 0.028762 0.337490
O O8 0.183602 0.066701 0.430144
O O9 0.728298 0.717395 0.160995
O O10 0.910315 0.583354 0.201574
O O11 0.000000 0.719666 0.250000
O O12 0.245519 0.697275 0.176911
O O13 0.500000 0.000000 0.500000
O O14 0.000000 0.000000 0.500000
O O15 0.500000 0.577217 0.250000
#
# Coordination Sequence:
#
# PCOD8134236 Si02
#       7
#     8   4   8   8   8   8   8
#     4  10  19  35  58  91 116 149 198 252 299 347
#     4  12  24  36  64  88 116 150 202 262 292 332
#     4  10  20  35  59  88 120 150 196 251 299 351
#     4  12  25  43  55  79 124 167 196 229 302 369
#     4  12  24  39  61  85 117 159 197 248 293 355
#     4   8  16  31  54  84 119 148 182 245 311 347
#     4  12  26  40  60  89 124 162 201 246 302 359
#
# _framework density 22.267036999999998
#
# number of rings (size 3 to 8) (size 9 to 14) (size 15 to 20)
#    0.000    1.231    3.846    2.769    2.154    0.000 
#    0.000    0.000    0.000    1.846    0.000    0.000 
#    0.000    0.000    0.000    0.000    0.000    0.000 
#
# Total GULP energy -322155.169142 kJ/mol
# GULP energy per Si atom -12390.583429 kJ/mol
# Density = 2.221636 g / cm^3
# Si number density = 22.267037 Si / 1000 Ang^3
#
#
#
# Elastic Constant Matrix: (Units=GPa)
#
#
# Indices 1 2 3 4 5 6 
#
# 1 120.0656 19.3416 25.5055 0.0000 8.6347 0.0000
# 2 19.3416 62.3626 10.4182 0.0000 2.1847 0.0000
# 3 25.5055 10.4182 126.4814 0.0000 12.6561 0.0000
# 4 0.0000 0.0000 0.0000 13.3209 0.0000 -2.0582
# 5 8.6347 2.1847 12.6561 0.0000 28.5303 0.0000
# 6 0.0000 0.0000 0.0000 -2.0582 0.0000 27.1354
#
#
#
# Elastic Compliance Matrix: (Units=1/GPa)
#
#
# Indices 1 2 3 4 5 6 
#
# 1 0.009185 -0.002539 -0.001449 0.000000 -0.001943 0.000000
# 2 -0.002539 0.016973 -0.000872 0.000000 -0.000145 0.000000
# 3 -0.001449 -0.000872 0.008601 0.000000 -0.003310 0.000000
# 4 0.000000 0.000000 0.000000 0.075960 0.000000 0.005762
# 5 -0.001943 -0.000145 -0.003310 0.000000 0.037118 0.000000
# 6 0.000000 0.000000 0.000000 0.005762 0.000000 0.037289
#
#
# Mechanical properties :
#
#
# Convention : Reuss Voigt Hill
#
# Bulk Modulus (GPa) = 39.93311 46.60446 43.26878
# Shear Modulus (GPa) = 24.60717 30.70694 27.65705
#
# Velocity S-wave (km/s) = 3.32790 3.71756 3.52811
# Velocity P-wave (km/s) = 5.72182 6.27712 6.00589
#
# Compressibility (1/GPa) = 0.02504188
#
# Stress axis : x y z
#
# Youngs Moduli (GPa) = 108.87062 58.91602 116.25887
#
# Poissons Ratio (x) = 0.14957 0.16843
# Poissons Ratio (y) = 0.27639 0.10134
# Poissons Ratio (z) = 0.15772 0.05136
#
# Static dielectric constant tensor:
#      x y z
#    x 4.059190 0.000000 0.220800 
#    y 0.000000 3.611020 0.000000 
#    z 0.220800 0.000000 4.869340 
# 
# 
# High freq. dielectric constant tensor:
#      x y z
#    x 1.900770 0.000000 0.011930 
#    y 0.000000 1.830540 0.000000 
#    z 0.011930 0.000000 1.884660 
# 
# From -- ./inp_files/285871.got.cif
#   From: 2010.06.25/outbox.cif.g09.slc.cpg/sg15_143_cif.got.tgz:285871.got - 2010.06.28 07:06:18.
