data_PCOD8134832
_publ_section_title
;
Structure prediction by ZEFSAII (Michael W. Deem and Ramdas Pophale) SiO2 
 PCOD8134832
Probable space group: C 2/C
;
_chemical_formula_sum "Si O2"
_cell_formula_units_Z 60
_cell_length_a 24.641644
_cell_length_b 8.890047
_cell_length_c 23.541532
_cell_angle_alpha 90.000000
_cell_angle_beta 34.469456
_cell_angle_gamma 90.000000
_cell_volume 2918.767012
_symmetry_space_group_name_H-M "C 2/C"
_symmetry_group_IT_number 15
_symmetry_cell_setting 'monoclinic'
loop_
_space_group_symop_operation_xyz
x,y,z
-x,y,1/2-z
-x,-y,-z
x,-y,1/2+z
1/2+x,1/2+y,z
1/2-x,1/2+y,1/2-z
1/2-x,1/2-y,-z
1/2+x,1/2-y,1/2+z
loop_
_atom_site_type_symbol
_atom_site_label
_atom_site_fract_x
_atom_site_fract_y
_atom_site_fract_z
Si Si1 0.782588 0.824297 0.756694
Si Si2 0.654167 0.472087 0.127277
Si Si3 0.000000 0.277242 0.750000
Si Si4 0.178680 0.558131 0.447045
Si Si5 0.546163 0.335630 0.809215
Si Si6 0.522250 0.995123 0.835439
Si Si7 0.727591 0.992338 0.699437
Si Si8 0.167041 0.108776 0.996607
O O1 0.702458 0.920621 0.860059
O O2 0.885281 0.857938 0.696035
O O3 0.759305 0.649072 0.779484
O O4 0.780846 0.868997 0.692132
O O5 0.598039 0.318379 0.162585
O O6 0.747767 0.441815 0.085913
O O7 0.580480 0.580135 0.223498
O O8 0.692324 0.551765 0.037466
O O9 0.001038 0.380050 0.804115
O O10 0.198877 0.718248 0.461009
O O11 0.070378 0.498656 0.543589
O O12 0.539610 0.161896 0.795829
O O13 0.446387 0.405347 0.915984
O O14 0.616122 0.944692 0.789348
O O15 0.777478 0.000035 0.594902
#
# Coordination Sequence:
#
# PCOD8134832 Si02
#       8
#     8   8   4   8   8   8   8   8
#     4   9  20  40  60  89 114 156 201 255 293 346
#     4  11  21  39  59  93 123 152 197 250 290 351
#     4  12  26  36  56  90 136 150 184 248 308 348
#     4   9  21  38  66  84 114 164 208 233 286 356
#     4   9  19  39  66  84 118 158 209 237 289 355
#     4  10  24  40  57  90 121 166 195 237 297 365
#     4  10  22  40  61  86 119 152 206 248 296 351
#     4  10  19  36  63  93 115 155 203 246 287 349
#
# _framework density 20.556625
#
# number of rings (size 3 to 8) (size 9 to 14) (size 15 to 20)
#    0.000    2.133    1.333    1.200    5.600    3.733 
#    2.400    0.000    0.000    0.000    0.000    0.000 
#    0.000    0.000    0.000    0.000    0.000    0.000 
#
# Total GULP energy -372026.809284 kJ/mol
# GULP energy per Si atom -12400.893643 kJ/mol
# Density = 2.050984 g / cm^3
# Si number density = 20.556625 Si / 1000 Ang^3
#
#
#
# Elastic Constant Matrix: (Units=GPa)
#
#
# Indices 1 2 3 4 5 6 
#
# 1 86.8162 36.2648 42.3016 0.0033 -4.1142 -0.0028
# 2 36.2648 50.1189 21.9463 0.0062 -3.7518 -0.0060
# 3 42.3016 21.9463 95.1613 0.0005 -12.4371 -0.0009
# 4 0.0033 0.0062 0.0005 21.0077 -0.0011 5.8047
# 5 -4.1142 -3.7518 -12.4371 -0.0011 23.5965 0.0008
# 6 -0.0028 -0.0060 -0.0009 5.8047 0.0008 37.6910
#
#
#
# Elastic Compliance Matrix: (Units=1/GPa)
#
#
# Indices 1 2 3 4 5 6 
#
# 1 0.019140 -0.011294 -0.006124 0.000001 -0.001686 -0.000001
# 2 -0.011294 0.028876 -0.001392 -0.000008 0.001888 0.000005
# 3 -0.006124 -0.001392 0.014373 0.000002 0.006287 -0.000001
# 4 0.000001 -0.000008 0.000002 0.049717 0.000002 -0.007657
# 5 -0.001686 0.001888 0.006287 0.000002 0.045699 -0.000001
# 6 -0.000001 0.000005 -0.000001 -0.007657 -0.000001 0.027711
#
#
# Mechanical properties :
#
#
# Convention : Reuss Voigt Hill
#
# Bulk Modulus (GPa) = 40.37313 48.12464 44.24889
# Shear Modulus (GPa) = 21.60821 25.23129 23.41975
#
# Velocity S-wave (km/s) = 3.24567 3.50723 3.37898
# Velocity P-wave (km/s) = 5.80762 6.31368 6.06593
#
# Compressibility (1/GPa) = 0.02476895
#
# Stress axis : x y z
#
# Youngs Moduli (GPa) = 52.24533 34.63131 69.57249
#
# Poissons Ratio (x) = 0.39113 0.42607
# Poissons Ratio (y) = 0.59007 0.09685
# Poissons Ratio (z) = 0.31996 0.04821
#
# Static dielectric constant tensor:
#      x y z
#    x 3.612240 0.000000 -0.202050 
#    y 0.000000 3.594860 0.000000 
#    z -0.202050 0.000000 3.881190 
# 
# 
# High freq. dielectric constant tensor:
#      x y z
#    x 1.801150 0.000000 -0.011230 
#    y 0.000000 1.787550 0.000000 
#    z -0.011230 0.000000 1.807260 
# 
# From -- ./inp_files/255171.got.cif
#   From: 2010.06.25/outbox.cif.g09.slc.cpg/sg15_128_cif.got.tgz:255171.got - 2010.06.28 07:06:18.
