data_PCOD8134816
_publ_section_title
;
Structure prediction by ZEFSAII (Michael W. Deem and Ramdas Pophale) SiO2 
 PCOD8134816
Probable space group: C 2/C
;
_chemical_formula_sum "Si O2"
_cell_formula_units_Z 44
_cell_length_a 11.706400
_cell_length_b 15.025155
_cell_length_c 19.484177
_cell_angle_alpha 90.000000
_cell_angle_beta 137.108549
_cell_angle_gamma 90.000000
_cell_volume 2332.511039
_symmetry_space_group_name_H-M "C 2/C"
_symmetry_group_IT_number 15
_symmetry_cell_setting 'monoclinic'
loop_
_space_group_symop_operation_xyz
x,y,z
-x,y,1/2-z
-x,-y,-z
x,-y,1/2+z
1/2+x,1/2+y,z
1/2-x,1/2+y,1/2-z
1/2-x,1/2-y,-z
1/2+x,1/2-y,1/2+z
loop_
_atom_site_type_symbol
_atom_site_label
_atom_site_fract_x
_atom_site_fract_y
_atom_site_fract_z
Si Si1 0.391252 0.336537 0.132609
Si Si2 0.790176 0.116836 0.192463
Si Si3 0.022208 0.717996 0.455513
Si Si4 0.796351 0.178955 0.962644
Si Si5 0.000000 0.722463 0.750000
Si Si6 0.571310 0.535255 0.384490
O O1 0.500000 0.337395 0.250000
O O2 0.462445 0.265289 0.111010
O O3 0.395863 0.431008 0.095975
O O4 0.198803 0.312941 0.065143
O O5 0.590422 0.129993 0.110052
O O6 0.879055 0.213333 0.241916
O O7 0.828754 0.077754 0.134732
O O8 0.869922 0.051492 0.285015
O O9 0.935073 0.780876 0.472942
O O10 0.619453 0.158775 0.847312
O O11 0.750000 0.250000 0.000000
O O12 0.865480 0.084728 0.019549
#
# Coordination Sequence:
#
# PCOD8134816 Si02
#       6
#     8   8   8   8   4   8
#     4  11  24  43  57  82 122 161 195 237 286 356
#     4   9  16  35  57  91 110 143 202 236 284 347
#     4  10  24  38  60  86 116 160 199 226 299 359
#     4  11  18  35  62  91 118 149 193 253 290 342
#     4   8  16  28  52  88 116 140 184 230 296 334
#     4  10  19  36  63  89 119 143 193 256 289 330
#
# _framework density 18.863792
#
# number of rings (size 3 to 8) (size 9 to 14) (size 15 to 20)
#    0.000    2.182    7.273    0.000    2.545    1.455 
#    0.000    0.000    8.000    0.000    0.000    0.000 
#    0.000    0.000    0.000    0.000    0.000    0.000 
#
# Total GULP energy -272639.148593 kJ/mol
# GULP energy per Si atom -12392.688572 kJ/mol
# Density = 1.882086 g / cm^3
# Si number density = 18.863792 Si / 1000 Ang^3
#
#
#
# Elastic Constant Matrix: (Units=GPa)
#
#
# Indices 1 2 3 4 5 6 
#
# 1 62.8965 12.9778 45.5897 0.0000 18.6743 0.0000
# 2 12.9778 65.8480 44.8128 0.0000 6.1815 0.0000
# 3 45.5897 44.8128 141.9887 0.0000 14.7393 0.0000
# 4 0.0000 0.0000 0.0000 24.8237 0.0000 -5.1813
# 5 18.6743 6.1815 14.7393 0.0000 26.4489 0.0000
# 6 0.0000 0.0000 0.0000 -5.1813 0.0000 15.6531
#
#
#
# Elastic Compliance Matrix: (Units=1/GPa)
#
#
# Indices 1 2 3 4 5 6 
#
# 1 0.024778 0.001088 -0.006853 0.000000 -0.013930 0.000000
# 2 0.001088 0.019424 -0.006293 0.000000 -0.001801 0.000000
# 3 -0.006853 -0.006293 0.011224 0.000000 0.000055 0.000000
# 4 0.000000 0.000000 0.000000 0.043274 0.000000 0.014324
# 5 -0.013930 -0.001801 0.000055 0.000000 0.048034 0.000000
# 6 0.000000 0.000000 0.000000 0.014324 0.000000 0.068626
#
#
# Mechanical properties :
#
#
# Convention : Reuss Voigt Hill
#
# Bulk Modulus (GPa) = 31.93904 53.05487 42.49695
# Shear Modulus (GPa) = 20.00710 24.54199 22.27455
#
# Velocity S-wave (km/s) = 3.26023 3.61087 3.44002
# Velocity P-wave (km/s) = 5.58035 6.75061 6.19318
#
# Compressibility (1/GPa) = 0.03130965
#
# Stress axis : x y z
#
# Youngs Moduli (GPa) = 40.35873 51.48386 89.09854
#
# Poissons Ratio (x) = -0.05602 0.61060
# Poissons Ratio (y) = -0.04391 0.56067
# Poissons Ratio (z) = 0.27658 0.32397
#
# Static dielectric constant tensor:
#      x y z
#    x 3.468430 0.000000 0.170480 
#    y 0.000000 3.328870 0.000000 
#    z 0.170480 0.000000 3.877510 
# 
# 
# High freq. dielectric constant tensor:
#      x y z
#    x 1.708070 0.000000 0.009280 
#    y 0.000000 1.710720 0.000000 
#    z 0.009280 0.000000 1.750240 
# 
# From -- ./inp_files/238890.got.cif
#   From: 2010.06.25/outbox.cif.g09.slc.cpg/sg15_120_cif.got.tgz:238890.got - 2010.06.28 07:06:18.
