data_PCOD8134812
_publ_section_title
;
Structure prediction by ZEFSAII (Michael W. Deem and Ramdas Pophale) SiO2 
 PCOD8134812
Probable space group: C 2/C
;
_chemical_formula_sum "Si O2"
_cell_formula_units_Z 64
_cell_length_a 15.598457
_cell_length_b 12.114361
_cell_length_c 18.661973
_cell_angle_alpha 90.000000
_cell_angle_beta 72.233098
_cell_angle_gamma 90.000000
_cell_volume 3358.274166
_symmetry_space_group_name_H-M "C 2/C"
_symmetry_group_IT_number 15
_symmetry_cell_setting 'monoclinic'
loop_
_space_group_symop_operation_xyz
x,y,z
-x,y,1/2-z
-x,-y,-z
x,-y,1/2+z
1/2+x,1/2+y,z
1/2-x,1/2+y,1/2-z
1/2-x,1/2-y,-z
1/2+x,1/2-y,1/2+z
loop_
_atom_site_type_symbol
_atom_site_label
_atom_site_fract_x
_atom_site_fract_y
_atom_site_fract_z
Si Si1 0.388973 0.901512 0.431340
Si Si2 0.547450 0.345494 0.162000
Si Si3 0.314937 0.365244 0.058986
Si Si4 0.016113 0.603789 0.162104
Si Si5 0.664363 0.527525 0.179564
Si Si6 0.095218 0.993858 0.854235
Si Si7 0.445206 0.669076 0.394249
Si Si8 0.645812 0.125945 0.401020
O O1 0.286707 0.868564 0.441740
O O2 0.452211 0.801526 0.387393
O O3 0.400548 0.915059 0.513753
O O4 0.416549 0.011736 0.384026
O O5 0.500000 0.341213 0.250000
O O6 0.564296 0.220707 0.131651
O O7 0.641397 0.411333 0.145870
O O8 0.480998 0.410631 0.125805
O O9 0.335311 0.474030 0.100886
O O10 0.329652 0.255338 0.102533
O O11 0.378147 0.366606 0.974190
O O12 0.000000 0.584828 0.250000
O O13 0.920281 0.600450 0.147517
O O14 0.652080 0.516436 0.267425
O O15 0.593742 0.619976 0.170067
O O16 0.765974 0.554649 0.135642
O O17 0.045299 0.878012 0.883577
#
# Coordination Sequence:
#
# PCOD8134812 Si02
#       8
#     8   8   8   8   8   8   8   8
#     4  11  23  40  59  88 121 155 196 240 297 349
#     4   8  17  36  56  82 112 152 191 227 287 345
#     4  11  20  38  62  89 114 157 201 237 283 360
#     4  11  24  40  60  85 118 157 195 241 295 355
#     4  10  19  36  63  88 114 153 199 242 291 343
#     4  10  20  33  62  90 115 147 198 246 286 337
#     4  10  19  38  60  88 118 153 196 242 293 342
#     4  11  21  42  62  82 118 165 194 232 297 360
#
# _framework density 19.057407999999999
#
# number of rings (size 3 to 8) (size 9 to 14) (size 15 to 20)
#    0.000    1.750    3.750    2.625    1.750    1.000 
#    0.000    1.875    0.000    0.000    0.000    0.000 
#    0.000    0.000    0.000    0.000    0.000    0.000 
#
# Total GULP energy -396834.989777 kJ/mol
# GULP energy per Si atom -12401.093431 kJ/mol
# Density = 1.901403 g / cm^3
# Si number density = 19.057408 Si / 1000 Ang^3
#
#
#
# Elastic Constant Matrix: (Units=GPa)
#
#
# Indices 1 2 3 4 5 6 
#
# 1 61.1885 25.5469 28.3429 0.0000 10.0895 0.0000
# 2 25.5469 109.5079 34.6193 0.0000 -11.2998 0.0000
# 3 28.3429 34.6193 53.4650 0.0000 10.9592 0.0000
# 4 0.0000 0.0000 0.0000 31.9080 0.0000 -5.2682
# 5 10.0895 -11.2998 10.9592 0.0000 27.4256 0.0000
# 6 0.0000 0.0000 0.0000 -5.2682 0.0000 29.6081
#
#
#
# Elastic Compliance Matrix: (Units=1/GPa)
#
#
# Indices 1 2 3 4 5 6 
#
# 1 0.022733 -0.003186 -0.008719 0.000000 -0.006191 0.000000
# 2 -0.003186 0.014024 -0.009603 0.000000 0.010787 0.000000
# 3 -0.008719 -0.009603 0.032347 0.000000 -0.013675 0.000000
# 4 0.000000 0.000000 0.000000 0.032289 0.000000 0.005745
# 5 -0.006191 0.010787 -0.013675 0.000000 0.048649 0.000000
# 6 0.000000 0.000000 0.000000 0.005745 0.000000 0.034797
#
#
# Mechanical properties :
#
#
# Convention : Reuss Voigt Hill
#
# Bulk Modulus (GPa) = 38.33188 44.57553 41.45371
# Shear Modulus (GPa) = 21.13712 26.83181 23.98447
#
# Velocity S-wave (km/s) = 3.33397 3.75633 3.55144
# Velocity P-wave (km/s) = 5.91423 6.50033 6.21419
#
# Compressibility (1/GPa) = 0.02608794
#
# Stress axis : x y z
#
# Youngs Moduli (GPa) = 43.98944 71.30652 30.91453
#
# Poissons Ratio (x) = 0.22716 0.26955
# Poissons Ratio (y) = 0.14014 0.29688
# Poissons Ratio (z) = 0.38355 0.68476
#
# Static dielectric constant tensor:
#      x y z
#    x 3.394050 0.000000 0.168610 
#    y 0.000000 3.799960 0.000000 
#    z 0.168610 0.000000 3.385860 
# 
# 
# High freq. dielectric constant tensor:
#      x y z
#    x 1.732230 0.000000 0.014490 
#    y 0.000000 1.740380 0.000000 
#    z 0.014490 0.000000 1.735140 
# 
# From -- ./inp_files/243722.got.cif
#   From: 2010.06.25/outbox.cif.g09.slc.cpg/sg15_122_cif.got.tgz:243722.got - 2010.06.28 07:06:18.
