data_PCOD8134769
_publ_section_title
;
Structure prediction by ZEFSAII (Michael W. Deem and Ramdas Pophale) SiO2 
 PCOD8134769
Probable space group: C 2/C
;
_chemical_formula_sum "Si O2"
_cell_formula_units_Z 56
_cell_length_a 9.009932
_cell_length_b 26.403868
_cell_length_c 15.308011
_cell_angle_alpha 90.000000
_cell_angle_beta 55.247716
_cell_angle_gamma 90.000000
_cell_volume 2992.134160
_symmetry_space_group_name_H-M "C 2/C"
_symmetry_group_IT_number 15
_symmetry_cell_setting 'monoclinic'
loop_
_space_group_symop_operation_xyz
x,y,z
-x,y,1/2-z
-x,-y,-z
x,-y,1/2+z
1/2+x,1/2+y,z
1/2-x,1/2+y,1/2-z
1/2-x,1/2-y,-z
1/2+x,1/2-y,1/2+z
loop_
_atom_site_type_symbol
_atom_site_label
_atom_site_fract_x
_atom_site_fract_y
_atom_site_fract_z
Si Si1 0.811184 0.404704 0.262416
Si Si2 0.977064 0.549767 0.950836
Si Si3 0.611831 0.549325 0.978329
Si Si4 0.882702 0.338271 0.531588
Si Si5 0.886156 0.296802 0.201602
Si Si6 0.004456 0.871757 0.847458
Si Si7 0.342035 0.198055 0.233579
O O1 0.640918 0.423029 0.375716
O O2 0.765604 0.347285 0.251297
O O3 0.000000 0.401383 0.250000
O O4 0.843150 0.441437 0.168264
O O5 0.808769 0.535924 0.946848
O O6 0.939739 0.602096 0.015854
O O7 0.000000 0.500000 0.000000
O O8 0.500000 0.500000 0.000000
O O9 0.498317 0.582523 0.083828
O O10 0.668778 0.335165 0.581832
O O11 0.925480 0.312382 0.609845
O O12 0.978968 0.305604 0.424761
O O13 0.742422 0.253490 0.230163
O O14 0.000000 0.282670 0.250000
O O15 0.186040 0.841933 0.806987
O O16 0.000000 0.893345 0.750000
O O17 0.500000 0.191341 0.250000
#
# Coordination Sequence:
#
# PCOD8134769 Si02
#       7
#     8   8   8   8   8   8   8
#     4   8  17  34  54  77 103 134 176 218 257 313
#     4   9  18  35  57  78 104 138 175 219 266 312
#     4  10  20  33  53  81 108 137 175 217 264 316
#     4   9  20  38  58  81 106 140 188 226 260 323
#     4  10  19  36  62  81 100 140 187 226 267 318
#     4   9  19  37  56  76 106 143 185 224 259 318
#     4  11  24  37  53  81 114 144 175 222 280 327
#
# _framework density 18.715738000000002
#
# number of rings (size 3 to 8) (size 9 to 14) (size 15 to 20)
#    0.000    2.571    0.000    3.857    0.000    8.571 
#    0.000    4.286    0.000    0.000    0.000    0.000 
#    0.000    0.000    0.000    0.000    0.000    0.000 
#
# Total GULP energy -347097.163850 kJ/mol
# GULP energy per Si atom -12396.327280 kJ/mol
# Density = 1.867314 g / cm^3
# Si number density = 18.715738 Si / 1000 Ang^3
#
#
#
# Elastic Constant Matrix: (Units=GPa)
#
#
# Indices 1 2 3 4 5 6 
#
# 1 92.1225 59.1475 58.7002 0.0000 6.7975 0.0000
# 2 59.1475 119.5821 84.3361 0.0000 3.5477 0.0000
# 3 58.7002 84.3361 169.5683 0.0000 3.0160 0.0000
# 4 0.0000 0.0000 0.0000 26.7289 0.0000 3.7379
# 5 6.7975 3.5477 3.0160 0.0000 20.5571 0.0000
# 6 0.0000 0.0000 0.0000 3.7379 0.0000 29.6015
#
#
#
# Elastic Compliance Matrix: (Units=1/GPa)
#
#
# Indices 1 2 3 4 5 6 
#
# 1 0.016937 -0.006426 -0.002594 0.000000 -0.004111 0.000000
# 2 -0.006426 0.015353 -0.005416 0.000000 0.000270 0.000000
# 3 -0.002594 -0.005416 0.009482 0.000000 0.000401 0.000000
# 4 0.000000 0.000000 0.000000 0.038085 0.000000 -0.004809
# 5 -0.004111 0.000270 0.000401 0.000000 0.049899 0.000000
# 6 0.000000 0.000000 0.000000 -0.004809 0.000000 0.034389
#
#
# Mechanical properties :
#
#
# Convention : Reuss Voigt Hill
#
# Bulk Modulus (GPa) = 77.52246 87.29337 82.40792
# Shear Modulus (GPa) = 25.33993 27.31678 26.32836
#
# Velocity S-wave (km/s) = 3.68358 3.82457 3.75474
# Velocity P-wave (km/s) = 7.72027 8.13917 7.93248
#
# Compressibility (1/GPa) = 0.01289949
#
# Stress axis : x y z
#
# Youngs Moduli (GPa) = 59.04149 65.13587 105.46437
#
# Poissons Ratio (x) = 0.41856 0.27358
# Poissons Ratio (y) = 0.37940 0.57119
# Poissons Ratio (z) = 0.15316 0.35277
#
# Static dielectric constant tensor:
#      x y z
#    x 3.108670 0.000000 0.025170 
#    y 0.000000 3.429260 0.000000 
#    z 0.025170 0.000000 4.047890 
# 
# 
# High freq. dielectric constant tensor:
#      x y z
#    x 1.692850 0.000000 0.000510 
#    y 0.000000 1.728420 0.000000 
#    z 0.000510 0.000000 1.746750 
# 
# From -- ./inp_files/137705.got.cif
#   From: 2010.06.25/outbox.cif.g09.slc.cpg/sg15_69_cif.got.tgz:137705.got - 2010.06.28 07:06:18.
