data_PCOD8134742
_publ_section_title
;
Structure prediction by ZEFSAII (Michael W. Deem and Ramdas Pophale) SiO2 
 PCOD8134742
Probable space group: C 2/C
;
_chemical_formula_sum "Si O2"
_cell_formula_units_Z 56
_cell_length_a 9.053229
_cell_length_b 22.889316
_cell_length_c 29.148816
_cell_angle_alpha 90.000000
_cell_angle_beta 150.930839
_cell_angle_gamma 90.000000
_cell_volume 2934.761836
_symmetry_space_group_name_H-M "C 2/C"
_symmetry_group_IT_number 15
_symmetry_cell_setting 'monoclinic'
loop_
_space_group_symop_operation_xyz
x,y,z
-x,y,1/2-z
-x,-y,-z
x,-y,1/2+z
1/2+x,1/2+y,z
1/2-x,1/2+y,1/2-z
1/2-x,1/2-y,-z
1/2+x,1/2-y,1/2+z
loop_
_atom_site_type_symbol
_atom_site_label
_atom_site_fract_x
_atom_site_fract_y
_atom_site_fract_z
Si Si1 0.127675 0.561943 0.394761
Si Si2 0.222782 0.887940 0.708846
Si Si3 0.305505 0.071138 0.568858
Si Si4 0.597814 0.062911 0.007944
Si Si5 0.338951 0.138677 0.011098
Si Si6 0.097397 0.788758 0.826960
Si Si7 0.359115 0.844202 0.163840
O O1 0.450845 0.588157 0.465629
O O2 0.155237 0.492687 0.399701
O O3 0.059019 0.586843 0.426667
O O4 0.847249 0.579413 0.287168
O O5 0.500000 0.877993 0.750000
O O6 0.956601 0.927857 0.615296
O O7 0.093820 0.824646 0.687472
O O8 0.469853 0.072331 0.564339
O O9 0.453873 0.115096 0.646569
O O10 0.387573 0.111902 0.974016
O O11 0.500000 0.000000 0.000000
O O12 0.545915 0.196165 0.072344
O O13 0.999290 0.158406 0.926504
O O14 0.028487 0.720865 0.817333
O O15 0.000000 0.807594 0.750000
O O16 0.500000 0.867546 0.250000
#
# Coordination Sequence:
#
# PCOD8134742 Si02
#       7
#     8   8   8   8   8   8   8
#     4  10  19  36  61  88 117 163 193 252 296 367
#     4  11  22  37  62  92 117 153 206 255 309 351
#     4  10  21  38  58  87 127 157 198 240 313 369
#     4  11  22  37  58  93 127 155 197 254 301 371
#     4  10  20  37  62  87 122 152 206 249 307 351
#     4  10  20  38  63  89 116 154 211 255 294 362
#     4  10  23  41  60  85 120 168 204 243 301 375
#
# _framework density 19.081616
#
# number of rings (size 3 to 8) (size 9 to 14) (size 15 to 20)
#    0.000    1.714    4.286    0.429    0.000    1.714 
#    0.000    7.857    0.000    0.000    0.000    0.000 
#    0.000    0.000    0.000    0.000    0.000    0.000 
#
# Total GULP energy -347175.854287 kJ/mol
# GULP energy per Si atom -12399.137653 kJ/mol
# Density = 1.903819 g / cm^3
# Si number density = 19.081616 Si / 1000 Ang^3
#
#
#
# Elastic Constant Matrix: (Units=GPa)
#
#
# Indices 1 2 3 4 5 6 
#
# 1 125.2728 43.5363 39.6112 -0.0073 -13.1156 -0.0006
# 2 43.5363 91.2181 36.9402 -0.0029 -13.2202 -0.0026
# 3 39.6112 36.9402 82.9265 0.0141 -12.7444 -0.0079
# 4 -0.0073 -0.0029 0.0141 26.8961 -0.0019 -0.6235
# 5 -13.1156 -13.2202 -12.7444 -0.0019 31.1100 0.0006
# 6 -0.0006 -0.0026 -0.0079 -0.6235 0.0006 14.8632
#
#
#
# Elastic Compliance Matrix: (Units=1/GPa)
#
#
# Indices 1 2 3 4 5 6 
#
# 1 0.010341 -0.003419 -0.003170 0.000004 0.001608 -0.000002
# 2 -0.003419 0.014865 -0.004524 0.000003 0.003022 0.000000
# 3 -0.003170 -0.004524 0.016101 -0.000009 0.003337 0.000007
# 4 0.000004 0.000003 -0.000009 0.037216 0.000002 0.001561
# 5 0.001608 0.003022 0.003337 0.000002 0.035473 0.000001
# 6 -0.000002 0.000000 0.000007 0.001561 0.000001 0.067346
#
#
# Mechanical properties :
#
#
# Convention : Reuss Voigt Hill
#
# Bulk Modulus (GPa) = 52.40561 59.95477 56.18019
# Shear Modulus (GPa) = 23.81769 26.52917 25.17343
#
# Velocity S-wave (km/s) = 3.53682 3.73272 3.63609
# Velocity P-wave (km/s) = 6.64849 7.07573 6.86543
#
# Compressibility (1/GPa) = 0.01908193
#
# Stress axis : x y z
#
# Youngs Moduli (GPa) = 96.69858 67.27393 62.10825
#
# Poissons Ratio (x) = 0.23001 0.19685
# Poissons Ratio (y) = 0.33062 0.28097
# Poissons Ratio (z) = 0.30649 0.30434
#
# Static dielectric constant tensor:
#      x y z
#    x 3.556260 -0.000020 -0.056170 
#    y -0.000020 3.359810 -0.000040 
#    z -0.056170 -0.000040 3.534450 
# 
# 
# High freq. dielectric constant tensor:
#      x y z
#    x 1.745310 0.000000 -0.004390 
#    y 0.000000 1.735800 0.000000 
#    z -0.004390 0.000000 1.739400 
# 
# From -- ./inp_files/137445.got.cif
#   From: 2010.06.25/outbox.cif.g09.slc.cpg/sg15_69_cif.got.tgz:137445.got - 2010.06.28 07:06:18.
