data_PCOD8134754
_publ_section_title
;
Structure prediction by ZEFSAII (Michael W. Deem and Ramdas Pophale) SiO2 
 PCOD8134754
Probable space group: C 2/C
;
_chemical_formula_sum "Si O2"
_cell_formula_units_Z 52
_cell_length_a 20.776867
_cell_length_b 15.162645
_cell_length_c 10.713947
_cell_angle_alpha 90.000000
_cell_angle_beta 48.230956
_cell_angle_gamma 90.000000
_cell_volume 2517.374722
_symmetry_space_group_name_H-M "C 2/C"
_symmetry_group_IT_number 15
_symmetry_cell_setting 'monoclinic'
loop_
_space_group_symop_operation_xyz
x,y,z
-x,y,1/2-z
-x,-y,-z
x,-y,1/2+z
1/2+x,1/2+y,z
1/2-x,1/2+y,1/2-z
1/2-x,1/2-y,-z
1/2+x,1/2-y,1/2+z
loop_
_atom_site_type_symbol
_atom_site_label
_atom_site_fract_x
_atom_site_fract_y
_atom_site_fract_z
Si Si1 0.753804 0.362510 0.673295
Si Si2 0.411734 0.792642 0.313450
Si Si3 0.000000 0.798289 0.250000
Si Si4 0.741619 0.445823 0.246856
Si Si5 0.433547 0.453150 0.178224
Si Si6 0.864181 0.895391 0.893442
Si Si7 0.357058 0.788663 0.098356
O O1 0.831786 0.339829 0.481685
O O2 0.775298 0.453232 0.718328
O O3 0.668417 0.381560 0.704542
O O4 0.723522 0.281151 0.799620
O O5 0.500000 0.837525 0.250000
O O6 0.415913 0.692541 0.362045
O O7 0.402246 0.798091 0.176102
O O8 0.033883 0.858312 0.319731
O O9 0.925755 0.737364 0.403981
O O10 0.658635 0.436640 0.266253
O O11 0.717839 0.410084 0.413589
O O12 0.819478 0.382930 0.101031
O O13 0.423236 0.516596 0.313546
O O14 0.500000 0.500000 0.000000
#
# Coordination Sequence:
#
# PCOD8134754 Si02
#       7
#     8   8   4   8   8   8   8
#     4  10  20  40  62  91 120 164 217 256 311 393
#     4  11  22  38  67  93 123 163 219 268 313 376
#     4  12  26  40  58 100 138 158 214 270 322 386
#     4  11  22  38  67  86 125 175 208 255 333 376
#     4  11  23  37  61  99 131 163 208 265 328 384
#     4  10  19  36  61  90 120 160 206 258 318 382
#     4  11  23  44  63  91 135 168 211 270 319 388
#
# _framework density 20.65644
#
# number of rings (size 3 to 8) (size 9 to 14) (size 15 to 20)
#    0.000    1.231    3.077    5.538    5.385    0.615 
#    1.385    3.846    0.000    0.000    0.000    0.000 
#    0.000    0.000    0.000    0.000    0.000    0.000 
#
# Total GULP energy -322274.367109 kJ/mol
# GULP energy per Si atom -12395.167966 kJ/mol
# Density = 2.060942 g / cm^3
# Si number density = 20.656440 Si / 1000 Ang^3
#
#
#
# Elastic Constant Matrix: (Units=GPa)
#
#
# Indices 1 2 3 4 5 6 
#
# 1 69.7893 37.9074 29.4880 0.0000 -11.9786 0.0000
# 2 37.9074 111.5502 37.3231 0.0000 -9.5134 0.0000
# 3 29.4880 37.3231 130.2621 0.0000 -11.2252 0.0000
# 4 0.0000 0.0000 0.0000 40.5536 0.0000 1.0422
# 5 -11.9786 -9.5134 -11.2252 0.0000 24.4893 0.0000
# 6 0.0000 0.0000 0.0000 1.0422 0.0000 19.5037
#
#
#
# Elastic Compliance Matrix: (Units=1/GPa)
#
#
# Indices 1 2 3 4 5 6 
#
# 1 0.019226 -0.005221 -0.002312 0.000000 0.006316 0.000000
# 2 -0.005221 0.011502 -0.002029 0.000000 0.000984 0.000000
# 3 -0.002312 -0.002029 0.008970 0.000000 0.002193 0.000000
# 4 0.000000 0.000000 0.000000 0.024693 0.000000 -0.001319
# 5 0.006316 0.000984 0.002193 0.000000 0.045311 0.000000
# 6 0.000000 0.000000 0.000000 -0.001319 0.000000 0.051343
#
#
# Mechanical properties :
#
#
# Convention : Reuss Voigt Hill
#
# Bulk Modulus (GPa) = 48.60479 57.89316 53.24898
# Shear Modulus (GPa) = 26.73425 30.70152 28.71788
#
# Velocity S-wave (km/s) = 3.60145 3.85943 3.73267
# Velocity P-wave (km/s) = 6.39336 6.92443 6.66419
#
# Compressibility (1/GPa) = 0.02057410
#
# Stress axis : x y z
#
# Youngs Moduli (GPa) = 52.01349 86.94461 111.47733
#
# Poissons Ratio (x) = 0.45395 0.25773
# Poissons Ratio (y) = 0.27157 0.22615
# Poissons Ratio (z) = 0.12025 0.17639
#
# Static dielectric constant tensor:
#      x y z
#    x 3.514960 0.000000 -0.018610 
#    y 0.000000 4.092560 0.000000 
#    z -0.018610 0.000000 3.650110 
# 
# 
# High freq. dielectric constant tensor:
#      x y z
#    x 1.789150 0.000000 -0.006970 
#    y 0.000000 1.811080 0.000000 
#    z -0.006970 0.000000 1.807770 
# 
# From -- ./inp_files/112641.got.cif
#   From: 2010.06.25/outbox.cif.g09.slc.cpg/sg15_57_cif.got.tgz:112641.got - 2010.06.28 07:06:18.
