data_PCOD8134582
_publ_section_title
;
Structure prediction by ZEFSAII (Michael W. Deem and Ramdas Pophale) SiO2 
 PCOD8134582
Probable space group: C 2/C
;
_chemical_formula_sum "Si O2"
_cell_formula_units_Z 64
_cell_length_a 19.004688
_cell_length_b 10.178241
_cell_length_c 23.022543
_cell_angle_alpha 90.000000
_cell_angle_beta 129.843073
_cell_angle_gamma 90.000000
_cell_volume 3419.290968
_symmetry_space_group_name_H-M "C 2/C"
_symmetry_group_IT_number 15
_symmetry_cell_setting 'monoclinic'
loop_
_space_group_symop_operation_xyz
x,y,z
-x,y,1/2-z
-x,-y,-z
x,-y,1/2+z
1/2+x,1/2+y,z
1/2-x,1/2+y,1/2-z
1/2-x,1/2-y,-z
1/2+x,1/2-y,1/2+z
loop_
_atom_site_type_symbol
_atom_site_label
_atom_site_fract_x
_atom_site_fract_y
_atom_site_fract_z
Si Si1 0.775150 0.156781 0.187709
Si Si2 0.918452 0.852651 0.669524
Si Si3 0.865844 0.842004 0.854598
Si Si4 0.132727 0.561693 0.603384
Si Si5 0.777584 0.934616 0.377839
Si Si6 0.582610 0.046893 0.831669
Si Si7 0.075828 0.149091 0.456618
Si Si8 0.565760 0.951853 0.451620
O O1 0.823024 0.122882 0.151806
O O2 0.852223 0.171620 0.278139
O O3 0.722703 0.294700 0.154467
O O4 0.705313 0.041637 0.167025
O O5 0.940477 0.699529 0.673155
O O6 0.912612 0.911508 0.601856
O O7 0.000000 0.919374 0.750000
O O8 0.831992 0.709707 0.868917
O O9 0.972222 0.870747 0.924009
O O10 0.802595 0.958555 0.843346
O O11 0.117646 0.538994 0.526851
O O12 0.042132 0.542602 0.593645
O O13 0.679631 0.974798 0.352257
O O14 0.855035 0.935250 0.468195
O O15 0.500000 0.982284 0.750000
O O16 0.584384 0.986385 0.897743
O O17 0.103384 0.302659 0.475318
#
# Coordination Sequence:
#
# PCOD8134582 Si02
#       8
#     8   8   8   8   8   8   8   8
#     4  11  21  35  60  84 110 143 189 234 274 333
#     4   9  17  32  56  85 107 139 178 234 288 310
#     4  11  23  37  55  81 120 150 180 225 283 330
#     4  10  21  36  58  82 112 149 185 228 272 336
#     4  11  23  36  58  87 109 147 188 228 282 330
#     4   9  20  33  57  83 112 141 185 239 275 321
#     4  10  19  36  58  83 114 142 186 236 273 331
#     4   9  19  36  57  82 109 147 190 228 274 321
#
# _framework density 18.717331000000001
#
# number of rings (size 3 to 8) (size 9 to 14) (size 15 to 20)
#    0.000    2.000    2.500    1.125    8.750    1.500 
#    0.000    0.625    0.000    0.750    0.000    0.000 
#    0.000    0.000    0.000    0.000    0.000    0.000 
#
# Total GULP energy -396853.370471 kJ/mol
# GULP energy per Si atom -12401.667827 kJ/mol
# Density = 1.867473 g / cm^3
# Si number density = 18.717331 Si / 1000 Ang^3
#
#
#
# Elastic Constant Matrix: (Units=GPa)
#
#
# Indices 1 2 3 4 5 6 
#
# 1 88.8514 41.1897 41.6294 0.0000 -5.3598 0.0000
# 2 41.1897 64.7388 24.9086 0.0000 3.4175 0.0000
# 3 41.6294 24.9086 107.5621 0.0000 -1.9361 0.0000
# 4 0.0000 0.0000 0.0000 19.3889 0.0000 3.4105
# 5 -5.3598 3.4175 -1.9361 0.0000 33.5397 0.0000
# 6 0.0000 0.0000 0.0000 3.4105 0.0000 19.6952
#
#
#
# Elastic Compliance Matrix: (Units=1/GPa)
#
#
# Indices 1 2 3 4 5 6 
#
# 1 0.018342 -0.010055 -0.004704 0.000000 0.003684 0.000000
# 2 -0.010055 0.022598 -0.001414 0.000000 -0.003991 0.000000
# 3 -0.004704 -0.001414 0.011446 0.000000 0.000053 0.000000
# 4 0.000000 0.000000 0.000000 0.053196 0.000000 -0.009212
# 5 0.003684 -0.003991 0.000053 0.000000 0.030814 0.000000
# 6 0.000000 0.000000 0.000000 -0.009212 0.000000 0.052369
#
#
# Mechanical properties :
#
#
# Convention : Reuss Voigt Hill
#
# Bulk Modulus (GPa) = 49.89616 52.95640 51.42628
# Shear Modulus (GPa) = 21.94993 24.75306 23.35150
#
# Velocity S-wave (km/s) = 3.42820 3.64052 3.53595
# Velocity P-wave (km/s) = 6.51042 6.78420 6.64872
#
# Compressibility (1/GPa) = 0.02004162
#
# Stress axis : x y z
#
# Youngs Moduli (GPa) = 54.51927 44.25078 87.36731
#
# Poissons Ratio (x) = 0.44492 0.41099
# Poissons Ratio (y) = 0.54817 0.12351
# Poissons Ratio (z) = 0.25647 0.06256
#
# Static dielectric constant tensor:
#      x y z
#    x 3.347880 0.000000 -0.092260 
#    y 0.000000 3.052920 0.000000 
#    z -0.092260 0.000000 3.617240 
# 
# 
# High freq. dielectric constant tensor:
#      x y z
#    x 1.728220 0.000000 -0.001770 
#    y 0.000000 1.675990 0.000000 
#    z -0.001770 0.000000 1.746200 
# 
# From -- ./inp_files/248396.got.cif
#   From: 2010.06.25/outbox.cif.g09.slc.cpg/sg15_125_cif.got.tgz:248396.got - 2010.06.28 07:06:18.
