data_PCOD8134697
_publ_section_title
;
Structure prediction by ZEFSAII (Michael W. Deem and Ramdas Pophale) SiO2 
 PCOD8134697
Probable space group: C 2/C
;
_chemical_formula_sum "Si O2"
_cell_formula_units_Z 56
_cell_length_a 16.666074
_cell_length_b 12.249453
_cell_length_c 19.094942
_cell_angle_alpha 90.000000
_cell_angle_beta 132.112249
_cell_angle_gamma 90.000000
_cell_volume 2891.839591
_symmetry_space_group_name_H-M "C 2/C"
_symmetry_group_IT_number 15
_symmetry_cell_setting 'monoclinic'
loop_
_space_group_symop_operation_xyz
x,y,z
-x,y,1/2-z
-x,-y,-z
x,-y,1/2+z
1/2+x,1/2+y,z
1/2-x,1/2+y,1/2-z
1/2-x,1/2-y,-z
1/2+x,1/2-y,1/2+z
loop_
_atom_site_type_symbol
_atom_site_label
_atom_site_fract_x
_atom_site_fract_y
_atom_site_fract_z
Si Si1 0.758049 0.022017 0.344235
Si Si2 0.882507 0.752958 0.532123
Si Si3 0.416383 0.090992 0.363116
Si Si4 0.872271 0.763932 0.869935
Si Si5 0.754177 0.562454 0.509580
Si Si6 0.702507 0.713357 0.662095
Si Si7 0.147186 0.440392 0.048202
O O1 0.642252 0.044464 0.240064
O O2 0.843862 0.119001 0.385314
O O3 0.734915 0.003806 0.412188
O O4 0.813960 0.916794 0.340600
O O5 0.858137 0.644534 0.562780
O O6 0.856724 0.865277 0.559360
O O7 0.794580 0.754336 0.417656
O O8 0.000700 0.751058 0.567884
O O9 0.393466 0.221362 0.354362
O O10 0.543690 0.069661 0.435837
O O11 0.367452 0.036059 0.404156
O O12 0.816726 0.748714 0.762242
O O13 0.829093 0.673229 0.899161
O O14 0.754744 0.475130 0.445946
#
# Coordination Sequence:
#
# PCOD8134697 Si02
#       7
#     8   8   8   8   8   8   8
#     4  10  23  37  58  93 123 155 203 258 296 364
#     4  10  20  41  59  91 121 158 198 262 298 354
#     4  10  19  36  60  88 117 158 210 245 288 369
#     4  11  22  38  66  88 116 169 211 235 306 370
#     4  10  22  36  60  89 128 148 192 260 314 338
#     4  10  19  36  61  90 117 152 212 257 281 358
#     4  11  19  36  63  84 117 166 198 243 309 363
#
# _framework density 19.364836
#
# number of rings (size 3 to 8) (size 9 to 14) (size 15 to 20)
#    0.000    1.714    4.286    0.857    0.000    3.429 
#    2.571    2.143    0.000    0.000    0.000    0.000 
#    0.000    0.000    0.000    0.000    0.000    0.000 
#
# Total GULP energy -347056.161556 kJ/mol
# GULP energy per Si atom -12394.862913 kJ/mol
# Density = 1.932076 g / cm^3
# Si number density = 19.364836 Si / 1000 Ang^3
#
#
#
# Elastic Constant Matrix: (Units=GPa)
#
#
# Indices 1 2 3 4 5 6 
#
# 1 82.8019 50.3570 35.5378 0.0000 -14.3972 0.0000
# 2 50.3570 140.0065 31.1566 0.0000 -9.2251 0.0000
# 3 35.5378 31.1566 72.7749 0.0000 -3.8696 0.0000
# 4 0.0000 0.0000 0.0000 26.4298 0.0000 -9.3395
# 5 -14.3972 -9.2251 -3.8696 0.0000 16.7719 0.0000
# 6 0.0000 0.0000 0.0000 -9.3395 0.0000 38.3095
#
#
#
# Elastic Compliance Matrix: (Units=1/GPa)
#
#
# Indices 1 2 3 4 5 6 
#
# 1 0.020418 -0.004877 -0.007182 0.000000 0.013188 0.000000
# 2 -0.004877 0.009281 -0.001562 0.000000 0.000558 0.000000
# 3 -0.007182 -0.001562 0.017761 0.000000 -0.002926 0.000000
# 4 0.000000 0.000000 0.000000 0.041403 0.000000 0.010094
# 5 0.013188 0.000558 -0.002926 0.000000 0.070576 0.000000
# 6 0.000000 0.000000 0.000000 0.010094 0.000000 0.028564
#
#
# Mechanical properties :
#
#
# Convention : Reuss Voigt Hill
#
# Bulk Modulus (GPa) = 49.45829 58.85401 54.15615
# Shear Modulus (GPa) = 22.52411 28.20437 25.36424
#
# Velocity S-wave (km/s) = 3.41419 3.82052 3.62305
# Velocity P-wave (km/s) = 6.41389 7.06541 6.74752
#
# Compressibility (1/GPa) = 0.02021906
#
# Stress axis : x y z
#
# Youngs Moduli (GPa) = 48.97579 107.74646 56.30251
#
# Poissons Ratio (x) = 0.52546 0.40434
# Poissons Ratio (y) = 0.23885 0.08796
# Poissons Ratio (z) = 0.35173 0.16833
#
# Static dielectric constant tensor:
#      x y z
#    x 3.224900 0.000000 -0.091820 
#    y 0.000000 3.828690 0.000000 
#    z -0.091820 0.000000 3.605460 
# 
# 
# High freq. dielectric constant tensor:
#      x y z
#    x 1.720200 0.000000 -0.012530 
#    y 0.000000 1.769660 0.000000 
#    z -0.012530 0.000000 1.747690 
# 
# From -- ./inp_files/210701.got.cif
#   From: 2010.06.25/outbox.cif.g09.slc.cpg/sg15_106_cif.got.tgz:210701.got - 2010.06.28 07:06:18.
