data_PCOD8134168
_publ_section_title
;
Structure prediction by ZEFSAII (Michael W. Deem and Ramdas Pophale) SiO2 
 PCOD8134168
Probable space group: C 2/C
;
_chemical_formula_sum "Si O2"
_cell_formula_units_Z 40
_cell_length_a 17.611623
_cell_length_b 12.323452
_cell_length_c 29.966304
_cell_angle_alpha 90.000000
_cell_angle_beta 19.499891
_cell_angle_gamma 90.000000
_cell_volume 2170.990197
_symmetry_space_group_name_H-M "C 2/C"
_symmetry_group_IT_number 15
_symmetry_cell_setting 'monoclinic'
loop_
_space_group_symop_operation_xyz
x,y,z
-x,y,1/2-z
-x,-y,-z
x,-y,1/2+z
1/2+x,1/2+y,z
1/2-x,1/2+y,1/2-z
1/2-x,1/2-y,-z
1/2+x,1/2-y,1/2+z
loop_
_atom_site_type_symbol
_atom_site_label
_atom_site_fract_x
_atom_site_fract_y
_atom_site_fract_z
Si Si1 0.792806 0.356933 0.448623
Si Si2 0.510232 0.244700 0.191139
Si Si3 0.352655 0.589809 0.954621
Si Si4 0.810965 0.092649 0.655571
Si Si5 0.555992 0.645705 0.436702
O O1 0.750000 0.250000 0.500000
O O2 0.707211 0.464446 0.522084
O O3 0.657883 0.346924 0.477307
O O4 0.058405 0.362782 0.292308
O O5 0.500000 0.254094 0.250000
O O6 0.622003 0.351662 0.107228
O O7 0.249902 0.233943 0.318051
O O8 0.653769 0.140618 0.095403
O O9 0.590954 0.601788 0.848797
O O10 0.964469 0.165750 0.537452
O O11 0.817238 0.969544 0.635357
#
# Coordination Sequence:
#
# PCOD8134168 Si02
#       5
#     8   8   8   8   8
#     4  11  22  37  56  83 120 152 186 231 284 343
#     4  11  20  38  60  84 115 144 195 239 283 335
#     4  10  22  36  59  85 112 154 187 235 286 337
#     4  10  19  35  57  85 114 141 197 236 283 328
#     4  10  20  33  60  86 110 148 190 244 279 327
#
# _framework density 18.424772000000001
#
# number of rings (size 3 to 8) (size 9 to 14) (size 15 to 20)
#    0.000    1.600    4.000    1.800    0.000    0.000 
#    0.000    2.000    0.000    3.600    0.000    0.000 
#    0.000    0.000    0.000    0.000    0.000    0.000 
#
# Total GULP energy -247985.834931 kJ/mol
# GULP energy per Si atom -12399.291747 kJ/mol
# Density = 1.838284 g / cm^3
# Si number density = 18.424772 Si / 1000 Ang^3
#
#
#
# Elastic Constant Matrix: (Units=GPa)
#
#
# Indices 1 2 3 4 5 6 
#
# 1 73.8026 47.0824 57.5976 -0.0242 7.4855 -0.0056
# 2 47.0824 109.5075 48.6653 -0.1745 11.2182 -0.0171
# 3 57.5976 48.6653 128.6570 -0.4154 -7.7840 -0.0490
# 4 -0.0242 -0.1745 -0.4154 22.1251 -0.1411 -2.9063
# 5 7.4855 11.2182 -7.7840 -0.1411 37.7408 -0.0126
# 6 -0.0056 -0.0171 -0.0490 -2.9063 -0.0126 21.6336
#
#
#
# Elastic Compliance Matrix: (Units=1/GPa)
#
#
# Indices 1 2 3 4 5 6 
#
# 1 0.025266 -0.006227 -0.009263 -0.000235 -0.005072 -0.000054
# 2 -0.006227 0.013201 -0.002398 0.000033 -0.003183 0.000006
# 3 -0.009263 -0.002398 0.013146 0.000260 0.005262 0.000063
# 4 -0.000235 0.000033 0.000260 0.046016 0.000264 0.006183
# 5 -0.005072 -0.003183 0.005262 0.000264 0.029535 0.000061
# 6 -0.000054 0.000006 0.000063 0.006183 0.000061 0.047055
#
#
# Mechanical properties :
#
#
# Convention : Reuss Voigt Hill
#
# Bulk Modulus (GPa) = 63.14793 68.73976 65.94385
# Shear Modulus (GPa) = 23.22610 26.87470 25.05040
#
# Velocity S-wave (km/s) = 3.55433 3.82333 3.69128
# Velocity P-wave (km/s) = 7.15487 7.54187 7.35092
#
# Compressibility (1/GPa) = 0.01583583
#
# Stress axis : x y z
#
# Youngs Moduli (GPa) = 39.57893 75.75180 76.06900
#
# Poissons Ratio (x) = 0.47172 0.70465
# Poissons Ratio (y) = 0.24647 0.18242
# Poissons Ratio (z) = 0.36663 0.18166
#
# Static dielectric constant tensor:
#      x y z
#    x 3.179950 -0.000230 0.023310 
#    y -0.000230 3.273870 0.000180 
#    z 0.023310 0.000180 3.327140 
# 
# 
# High freq. dielectric constant tensor:
#      x y z
#    x 1.711530 0.000000 -0.013340 
#    y 0.000000 1.691930 0.000030 
#    z -0.013340 0.000030 1.727690 
# 
# From -- ./inp_files/95533.got.cif
#   From: 2010.06.25/outbox.cif.g09.slc.cpg/sg15_48_cif.got.tgz:95533.got - 2010.06.28 07:06:18.
