data_PCOD8134333
_publ_section_title
;
Structure prediction by ZEFSAII (Michael W. Deem and Ramdas Pophale) SiO2 
 PCOD8134333
Probable space group: C 2/C
;
_chemical_formula_sum "Si O2"
_cell_formula_units_Z 52
_cell_length_a 16.847018
_cell_length_b 20.023236
_cell_length_c 13.644958
_cell_angle_alpha 90.000000
_cell_angle_beta 35.054577
_cell_angle_gamma 90.000000
_cell_volume 2643.692980
_symmetry_space_group_name_H-M "C 2/C"
_symmetry_group_IT_number 15
_symmetry_cell_setting 'monoclinic'
loop_
_space_group_symop_operation_xyz
x,y,z
-x,y,1/2-z
-x,-y,-z
x,-y,1/2+z
1/2+x,1/2+y,z
1/2-x,1/2+y,1/2-z
1/2-x,1/2-y,-z
1/2+x,1/2-y,1/2+z
loop_
_atom_site_type_symbol
_atom_site_label
_atom_site_fract_x
_atom_site_fract_y
_atom_site_fract_z
Si Si1 0.500000 0.904253 0.750000
Si Si2 0.856934 0.691996 0.239037
Si Si3 0.187048 0.460333 0.241777
Si Si4 0.764032 0.494346 0.523272
Si Si5 0.392070 0.086132 0.053822
Si Si6 0.424308 0.444238 0.138940
Si Si7 0.956769 0.186921 0.905257
O O1 0.570000 0.858248 0.760067
O O2 0.613230 0.951852 0.585321
O O3 0.852691 0.658754 0.135637
O O4 0.945327 0.759140 0.142147
O O5 0.702370 0.709612 0.430230
O O6 0.142585 0.532142 0.327622
O O7 0.290625 0.422291 0.210501
O O8 0.053793 0.413937 0.362493
O O9 0.261510 0.473721 0.062635
O O10 0.803291 0.428513 0.546217
O O11 0.624053 0.526728 0.707130
O O12 0.525970 0.382406 0.053743
O O13 0.500000 0.500000 0.000000
O O14 0.000000 0.177620 0.750000
#
# Coordination Sequence:
#
# PCOD8134333 Si02
#       7
#     4   8   8   8   8   8   8
#     4  12  20  36  64  92 128 162 206 256 306 376
#     4  12  25  40  61  89 129 165 209 258 314 384
#     4  10  19  36  60  93 121 162 204 255 313 366
#     4  11  20  36  66  95 125 165 210 253 320 375
#     4  10  19  35  60  93 125 156 206 260 307 369
#     4  11  26  38  59  91 131 163 208 262 316 372
#     4  12  27  42  62  91 125 173 211 253 324 388
#
# _framework density 19.669454999999999
#
# number of rings (size 3 to 8) (size 9 to 14) (size 15 to 20)
#    0.000    0.923    3.846    5.077    6.462    0.000 
#    0.000    0.000    0.000    0.923    4.000    0.000 
#    0.000    0.000    0.000    0.000    0.000    0.000 
#
# Total GULP energy -322499.505443 kJ/mol
# GULP energy per Si atom -12403.827132 kJ/mol
# Density = 1.962469 g / cm^3
# Si number density = 19.669455 Si / 1000 Ang^3
#
#
#
# Elastic Constant Matrix: (Units=GPa)
#
#
# Indices 1 2 3 4 5 6 
#
# 1 62.6077 19.0747 9.5098 0.0075 13.3197 -0.0019
# 2 19.0747 87.3318 24.6877 0.0070 3.4346 -0.0024
# 3 9.5098 24.6877 97.3517 0.0108 8.4290 -0.0055
# 4 0.0075 0.0070 0.0108 22.0260 -0.0064 -8.2171
# 5 13.3197 3.4346 8.4290 -0.0064 38.4526 0.0023
# 6 -0.0019 -0.0024 -0.0055 -8.2171 0.0023 29.5075
#
#
#
# Elastic Compliance Matrix: (Units=1/GPa)
#
#
# Indices 1 2 3 4 5 6 
#
# 1 0.018421 -0.003691 -0.000346 -0.000007 -0.005975 -0.000001
# 2 -0.003691 0.013081 -0.003024 -0.000001 0.000773 0.000000
# 3 -0.000346 -0.003024 0.011252 -0.000005 -0.002077 0.000001
# 4 -0.000007 -0.000001 -0.000005 0.050664 0.000011 0.014109
# 5 -0.005975 0.000773 -0.002077 0.000011 0.028462 0.000000
# 6 -0.000001 0.000000 0.000001 0.014109 0.000000 0.037819
#
#
# Mechanical properties :
#
#
# Convention : Reuss Voigt Hill
#
# Bulk Modulus (GPa) = 34.92424 39.31508 37.11966
# Shear Modulus (GPa) = 27.26813 30.93182 29.09998
#
# Velocity S-wave (km/s) = 3.72737 3.96988 3.85053
# Velocity P-wave (km/s) = 6.02648 6.40660 6.21945
#
# Compressibility (1/GPa) = 0.02863340
#
# Stress axis : x y z
#
# Youngs Moduli (GPa) = 54.28683 76.44672 88.86977
#
# Poissons Ratio (x) = 0.28213 0.03076
# Poissons Ratio (y) = 0.20035 0.26871
# Poissons Ratio (z) = 0.01879 0.23115
#
# Static dielectric constant tensor:
#      x y z
#    x 3.804380 0.000000 -0.121280 
#    y 0.000000 3.409470 0.000000 
#    z -0.121280 0.000000 3.808170 
# 
# 
# High freq. dielectric constant tensor:
#      x y z
#    x 1.767090 0.000000 -0.005890 
#    y 0.000000 1.732350 0.000000 
#    z -0.005890 0.000000 1.780240 
# 
# From -- ./inp_files/163607.got.cif
#   From: 2010.06.25/outbox.cif.g09.slc.cpg/sg15_82_cif.got.tgz:163607.got - 2010.06.28 07:06:18.
