data_PCOD8134715
_publ_section_title
;
Structure prediction by ZEFSAII (Michael W. Deem and Ramdas Pophale) SiO2 
 PCOD8134715
Probable space group: C 2/C
;
_chemical_formula_sum "Si O2"
_cell_formula_units_Z 56
_cell_length_a 12.525593
_cell_length_b 20.601637
_cell_length_c 10.671921
_cell_angle_alpha 90.000000
_cell_angle_beta 109.742775
_cell_angle_gamma 90.000000
_cell_volume 2591.988903
_symmetry_space_group_name_H-M "C 2/C"
_symmetry_group_IT_number 15
_symmetry_cell_setting 'monoclinic'
loop_
_space_group_symop_operation_xyz
x,y,z
-x,y,1/2-z
-x,-y,-z
x,-y,1/2+z
1/2+x,1/2+y,z
1/2-x,1/2+y,1/2-z
1/2-x,1/2-y,-z
1/2+x,1/2-y,1/2+z
loop_
_atom_site_type_symbol
_atom_site_label
_atom_site_fract_x
_atom_site_fract_y
_atom_site_fract_z
Si Si1 0.758660 0.064594 0.895104
Si Si2 0.781672 0.847917 0.985490
Si Si3 0.503068 0.397140 0.559005
Si Si4 0.778680 0.288662 0.134952
Si Si5 0.000000 0.002307 0.750000
Si Si6 0.741935 0.534216 0.882035
Si Si7 0.367069 0.756760 0.704614
Si Si8 0.500000 0.286454 0.750000
O O1 0.698917 0.135034 0.881246
O O2 0.719568 0.027425 0.749939
O O3 0.893913 0.077705 0.938458
O O4 0.724385 0.024941 0.009215
O O5 0.709885 0.897309 0.046202
O O6 0.831585 0.786590 0.074865
O O7 0.888831 0.887570 0.982231
O O8 0.699036 0.825270 0.839765
O O9 0.547863 0.454811 0.662734
O O10 0.468859 0.331570 0.619252
O O11 0.670658 0.278324 0.182832
O O12 0.892635 0.258690 0.241382
O O13 0.750000 0.250000 0.000000
O O14 0.894005 0.044772 0.664864
O O15 0.500000 0.769925 0.750000
#
# Coordination Sequence:
#
# PCOD8134715 Si02
#       8
#     8   8   8   8   4   8   8   4
#     4  11  23  40  63  96 135 175 218 273 336 399
#     4  11  22  37  63  91 129 173 215 273 324 404
#     4  10  19  36  60  94 131 169 214 266 340 390
#     4  12  24  42  67  98 131 177 220 276 334 396
#     4   9  20  32  56  96 130 167 206 270 330 395
#     4  11  22  37  61  93 134 174 221 266 334 404
#     4  11  25  41  63  95 133 172 220 272 337 397
#     4  11  22  38  66  94 136 167 222 280 328 393
#
# _framework density 21.605029999999999
#
# number of rings (size 3 to 8) (size 9 to 14) (size 15 to 20)
#    0.000    1.143    4.286    2.571    1.000    3.429 
#    0.000    0.000    1.571    0.857    0.000    0.000 
#    0.000    0.000    0.000    0.000    0.000    0.000 
#
# Total GULP energy -346997.404167 kJ/mol
# GULP energy per Si atom -12392.764435 kJ/mol
# Density = 2.155586 g / cm^3
# Si number density = 21.605030 Si / 1000 Ang^3
#
#
#
# Elastic Constant Matrix: (Units=GPa)
#
#
# Indices 1 2 3 4 5 6 
#
# 1 64.2793 14.6681 24.7413 0.0000 -2.5963 0.0000
# 2 14.6681 107.0243 56.9474 0.0000 3.1233 0.0000
# 3 24.7413 56.9474 115.1334 0.0000 -23.5030 0.0000
# 4 0.0000 0.0000 0.0000 37.8160 0.0000 0.2047
# 5 -2.5963 3.1233 -23.5030 0.0000 24.7565 0.0000
# 6 0.0000 0.0000 0.0000 0.2047 0.0000 24.1089
#
#
#
# Elastic Compliance Matrix: (Units=1/GPa)
#
#
# Indices 1 2 3 4 5 6 
#
# 1 0.017049 -0.000155 -0.003992 0.000000 -0.001982 0.000000
# 2 -0.000155 0.014716 -0.009462 0.000000 -0.010856 0.000000
# 3 -0.003992 -0.009462 0.017839 0.000000 0.017711 0.000000
# 4 0.000000 0.000000 0.000000 0.026445 0.000000 -0.000225
# 5 -0.001982 -0.010856 0.017711 0.000000 0.058369 0.000000
# 6 0.000000 0.000000 0.000000 -0.000225 0.000000 0.041480
#
#
# Mechanical properties :
#
#
# Convention : Reuss Voigt Hill
#
# Bulk Modulus (GPa) = 44.66816 53.23898 48.95357
# Shear Modulus (GPa) = 23.74427 30.00828 26.87628
#
# Velocity S-wave (km/s) = 3.31874 3.73090 3.53084
# Velocity P-wave (km/s) = 5.95022 6.57685 6.27137
#
# Compressibility (1/GPa) = 0.02238731
#
# Stress axis : x y z
#
# Youngs Moduli (GPa) = 58.65517 67.95212 56.05782
#
# Poissons Ratio (x) = 0.01052 0.22377
# Poissons Ratio (y) = 0.00908 0.53040
# Poissons Ratio (z) = 0.23414 0.64294
#
# Static dielectric constant tensor:
#      x y z
#    x 3.403570 0.000000 0.021340 
#    y 0.000000 4.781520 0.000000 
#    z 0.021340 0.000000 4.073370 
# 
# 
# High freq. dielectric constant tensor:
#      x y z
#    x 1.801380 0.000000 -0.017940 
#    y 0.000000 1.861310 0.000000 
#    z -0.017940 0.000000 1.860400 
# 
# From -- ./inp_files/89692.got.cif
#   From: 2010.06.25/outbox.cif.g09.slc.cpg/sg15_45_cif.got.tgz:89692.got - 2010.06.28 07:06:18.
