data_PCOD8134349
_publ_section_title
;
Structure prediction by ZEFSAII (Michael W. Deem and Ramdas Pophale) SiO2 
 PCOD8134349
Probable space group: C 2/C
;
_chemical_formula_sum "Si O2"
_cell_formula_units_Z 48
_cell_length_a 22.395925
_cell_length_b 11.920654
_cell_length_c 10.199504
_cell_angle_alpha 90.000000
_cell_angle_beta 124.179075
_cell_angle_gamma 90.000000
_cell_volume 2252.701812
_symmetry_space_group_name_H-M "C 2/C"
_symmetry_group_IT_number 15
_symmetry_cell_setting 'monoclinic'
loop_
_space_group_symop_operation_xyz
x,y,z
-x,y,1/2-z
-x,-y,-z
x,-y,1/2+z
1/2+x,1/2+y,z
1/2-x,1/2+y,1/2-z
1/2-x,1/2-y,-z
1/2+x,1/2-y,1/2+z
loop_
_atom_site_type_symbol
_atom_site_label
_atom_site_fract_x
_atom_site_fract_y
_atom_site_fract_z
Si Si1 0.407354 0.504606 0.600732
Si Si2 0.451496 0.385894 0.414261
Si Si3 0.745678 0.576149 0.069523
Si Si4 0.702033 0.707005 0.760879
Si Si5 0.795848 0.339154 0.136951
Si Si6 0.058376 0.222361 0.218294
O O1 0.456957 0.493563 0.527616
O O2 0.442475 0.592352 0.747483
O O3 0.328493 0.537463 0.450550
O O4 0.403921 0.387339 0.673553
O O5 0.378883 0.325260 0.381804
O O6 0.518766 0.304770 0.530308
O O7 0.792509 0.656800 0.221873
O O8 0.789661 0.466763 0.076747
O O9 0.719285 0.647631 0.916377
O O10 0.764530 0.662094 0.743777
O O11 0.880546 0.312655 0.237849
O O12 0.750000 0.250000 0.000000
O O13 0.000000 0.270690 0.250000
#
# Coordination Sequence:
#
# PCOD8134349 Si02
#       6
#     8   8   8   8   8   8
#     4  10  19  35  61  87 122 155 201 254 314 357
#     4  10  20  38  57  91 124 162 197 257 312 369
#     4  10  22  40  62  94 123 158 200 264 309 358
#     4  10  23  40  63  91 127 154 205 258 310 361
#     4  12  22  37  67  92 117 164 209 247 302 379
#     4  10  21  37  54  90 123 154 205 249 302 362
#
# _framework density 21.307746999999999
#
# number of rings (size 3 to 8) (size 9 to 14) (size 15 to 20)
#    0.000    1.667    3.333    1.500    4.667    0.000 
#    0.000    0.833    0.000    0.000    0.000    0.000 
#    0.000    0.000    0.000    0.000    0.000    0.000 
#
# Total GULP energy -297490.289332 kJ/mol
# GULP energy per Si atom -12395.428722 kJ/mol
# Density = 2.125925 g / cm^3
# Si number density = 21.307747 Si / 1000 Ang^3
#
#
#
# Elastic Constant Matrix: (Units=GPa)
#
#
# Indices 1 2 3 4 5 6 
#
# 1 118.7123 29.8832 32.1854 0.0000 18.3858 0.0000
# 2 29.8832 101.6546 29.8105 0.0000 18.6149 0.0000
# 3 32.1854 29.8105 83.1186 0.0000 19.9782 0.0000
# 4 0.0000 0.0000 0.0000 13.9955 0.0000 5.0837
# 5 18.3858 18.6149 19.9782 0.0000 36.3840 0.0000
# 6 0.0000 0.0000 0.0000 5.0837 0.0000 28.1884
#
#
#
# Elastic Compliance Matrix: (Units=1/GPa)
#
#
# Indices 1 2 3 4 5 6 
#
# 1 0.009976 -0.001664 -0.002603 0.000000 -0.002761 0.000000
# 2 -0.001664 0.011797 -0.002694 0.000000 -0.003716 0.000000
# 3 -0.002603 -0.002694 0.015388 0.000000 -0.005756 0.000000
# 4 0.000000 0.000000 0.000000 0.076460 0.000000 -0.013789
# 5 -0.002761 -0.003716 -0.005756 0.000000 0.033942 0.000000
# 6 0.000000 0.000000 0.000000 -0.013789 0.000000 0.037962
#
#
# Mechanical properties :
#
#
# Convention : Reuss Voigt Hill
#
# Bulk Modulus (GPa) = 43.02732 54.13818 48.58275
# Shear Modulus (GPa) = 24.13226 29.82069 26.97647
#
# Velocity S-wave (km/s) = 3.36900 3.74508 3.56201
# Velocity P-wave (km/s) = 5.94732 6.64558 6.30612
#
# Compressibility (1/GPa) = 0.02324105
#
# Stress axis : x y z
#
# Youngs Moduli (GPa) = 100.24329 84.76997 64.98398
#
# Poissons Ratio (x) = 0.14104 0.16912
# Poissons Ratio (y) = 0.16678 0.17504
# Poissons Ratio (z) = 0.26089 0.22833
#
# Static dielectric constant tensor:
#      x y z
#    x 4.586020 0.000000 0.345380 
#    y 0.000000 4.100110 0.000000 
#    z 0.345380 0.000000 4.138490 
# 
# 
# High freq. dielectric constant tensor:
#      x y z
#    x 1.849850 0.000000 0.004500 
#    y 0.000000 1.803390 0.000000 
#    z 0.004500 0.000000 1.846600 
# 
# From -- ./inp_files/117724.got.cif
#   From: 2010.06.25/outbox.cif.g09.slc.cpg/sg15_59_cif.got.tgz:117724.got - 2010.06.28 07:06:18.
