data_PCOD8134365
_publ_section_title
;
Structure prediction by ZEFSAII (Michael W. Deem and Ramdas Pophale) SiO2 
 PCOD8134365
Probable space group: C 2/C
;
_chemical_formula_sum "Si O2"
_cell_formula_units_Z 48
_cell_length_a 8.828739
_cell_length_b 17.354304
_cell_length_c 14.207215
_cell_angle_alpha 90.000000
_cell_angle_beta 85.522941
_cell_angle_gamma 90.000000
_cell_volume 2170.139388
_symmetry_space_group_name_H-M "C 2/C"
_symmetry_group_IT_number 15
_symmetry_cell_setting 'monoclinic'
loop_
_space_group_symop_operation_xyz
x,y,z
-x,y,1/2-z
-x,-y,-z
x,-y,1/2+z
1/2+x,1/2+y,z
1/2-x,1/2+y,1/2-z
1/2-x,1/2-y,-z
1/2+x,1/2-y,1/2+z
loop_
_atom_site_type_symbol
_atom_site_label
_atom_site_fract_x
_atom_site_fract_y
_atom_site_fract_z
Si Si1 0.312441 0.959965 0.973185
Si Si2 0.921432 0.487693 0.162173
Si Si3 0.493809 0.759572 0.521681
Si Si4 0.223493 0.867899 0.502121
Si Si5 0.837074 0.103274 0.287771
Si Si6 0.767716 0.812020 0.615493
O O1 0.462624 0.957131 0.900506
O O2 0.202183 0.893901 0.939976
O O3 0.232971 0.043904 0.966588
O O4 0.349756 0.936465 0.081041
O O5 0.789518 0.537786 0.216183
O O6 0.000000 0.445326 0.250000
O O7 0.391597 0.831942 0.494882
O O8 0.389874 0.685267 0.554320
O O9 0.596342 0.781284 0.606889
O O10 0.607773 0.747104 0.428847
O O11 0.150690 0.863392 0.608788
O O12 0.791485 0.175888 0.224991
O O13 0.000000 0.068448 0.250000
#
# Coordination Sequence:
#
# PCOD8134365 Si02
#       6
#     8   8   8   8   8   8
#     4  10  21  37  68  96 115 163 211 263 307 373
#     4  10  19  35  61  92 120 156 207 259 303 368
#     4  10  22  38  62  90 123 164 194 259 306 377
#     4  10  22  41  65  89 128 160 208 253 316 367
#     4  11  21  37  62  95 118 167 215 256 292 391
#     4  11  21  39  66  92 123 159 214 251 312 365
#
# _framework density 22.118395
#
# number of rings (size 3 to 8) (size 9 to 14) (size 15 to 20)
#    0.000    1.667    3.333    3.000    0.000    0.667 
#    0.000    0.000   36.667    0.000    0.000    0.000 
#    0.000    0.000    0.000    0.000    0.000    0.000 
#
# Total GULP energy -297408.867158 kJ/mol
# GULP energy per Si atom -12392.036132 kJ/mol
# Density = 2.206805 g / cm^3
# Si number density = 22.118395 Si / 1000 Ang^3
#
#
#
# Elastic Constant Matrix: (Units=GPa)
#
#
# Indices 1 2 3 4 5 6 
#
# 1 109.6272 33.4866 33.7699 0.0000 -12.3932 0.0000
# 2 33.4866 95.4206 24.8457 0.0000 -1.7702 0.0000
# 3 33.7699 24.8457 86.2974 0.0000 -5.7567 0.0000
# 4 0.0000 0.0000 0.0000 16.7300 0.0000 6.5548
# 5 -12.3932 -1.7702 -5.7567 0.0000 29.5860 0.0000
# 6 0.0000 0.0000 0.0000 6.5548 0.0000 32.9012
#
#
#
# Elastic Compliance Matrix: (Units=1/GPa)
#
#
# Indices 1 2 3 4 5 6 
#
# 1 0.011559 -0.003107 -0.003362 0.000000 0.004002 0.000000
# 2 -0.003107 0.012164 -0.002355 0.000000 -0.001032 0.000000
# 3 -0.003362 -0.002355 0.013655 0.000000 0.001108 0.000000
# 4 0.000000 0.000000 0.000000 0.064833 0.000000 -0.012916
# 5 0.004002 -0.001032 0.001108 0.000000 0.035630 0.000000
# 6 0.000000 0.000000 0.000000 -0.012916 0.000000 0.032967
#
#
# Mechanical properties :
#
#
# Convention : Reuss Voigt Hill
#
# Bulk Modulus (GPa) = 50.68223 52.83884 51.76054
# Shear Modulus (GPa) = 25.63657 29.12630 27.38144
#
# Velocity S-wave (km/s) = 3.40819 3.63276 3.52227
# Velocity P-wave (km/s) = 6.20093 6.44491 6.32410
#
# Compressibility (1/GPa) = 0.01973078
#
# Stress axis : x y z
#
# Youngs Moduli (GPa) = 86.51412 82.20748 73.23132
#
# Poissons Ratio (x) = 0.25540 0.24619
# Poissons Ratio (y) = 0.26878 0.17248
# Poissons Ratio (z) = 0.29084 0.19362
#
# Static dielectric constant tensor:
#      x y z
#    x 4.144330 0.000000 0.113960 
#    y 0.000000 3.735570 0.000000 
#    z 0.113960 0.000000 4.045410 
# 
# 
# High freq. dielectric constant tensor:
#      x y z
#    x 1.886190 0.000000 0.003460 
#    y 0.000000 1.841690 0.000000 
#    z 0.003460 0.000000 1.855460 
# 
# From -- ./inp_files/135503.got.cif
#   From: 2010.06.25/outbox.cif.g09.slc.cpg/sg15_68_cif.got.tgz:135503.got - 2010.06.28 07:06:18.
