data_PCOD8134424
_publ_section_title
;
Structure prediction by ZEFSAII (Michael W. Deem and Ramdas Pophale) SiO2 
 PCOD8134424
Probable space group: C 2/C
;
_chemical_formula_sum "Si O2"
_cell_formula_units_Z 56
_cell_length_a 25.022207
_cell_length_b 17.278282
_cell_length_c 17.397510
_cell_angle_alpha 90.000000
_cell_angle_beta 21.437761
_cell_angle_gamma 90.000000
_cell_volume 2749.091186
_symmetry_space_group_name_H-M "C 2/C"
_symmetry_group_IT_number 15
_symmetry_cell_setting 'monoclinic'
loop_
_space_group_symop_operation_xyz
x,y,z
-x,y,1/2-z
-x,-y,-z
x,-y,1/2+z
1/2+x,1/2+y,z
1/2-x,1/2+y,1/2-z
1/2-x,1/2-y,-z
1/2+x,1/2-y,1/2+z
loop_
_atom_site_type_symbol
_atom_site_label
_atom_site_fract_x
_atom_site_fract_y
_atom_site_fract_z
Si Si1 0.921586 0.559892 0.700257
Si Si2 0.500000 0.291349 0.750000
Si Si3 0.564086 0.368787 0.445200
Si Si4 0.109922 0.710837 0.457303
Si Si5 0.192591 0.467223 0.312046
Si Si6 0.875591 0.117158 0.061278
Si Si7 0.643458 0.424266 0.650212
Si Si8 0.500000 0.559083 0.750000
O O1 0.814138 0.550502 0.770175
O O2 0.014213 0.636737 0.564153
O O3 0.028722 0.484967 0.563003
O O4 0.820781 0.567202 0.911973
O O5 0.591792 0.236504 0.570147
O O6 0.612806 0.346903 0.642460
O O7 0.555935 0.278373 0.474014
O O8 0.726669 0.397231 0.251626
O O9 0.529785 0.379856 0.401139
O O10 0.432525 0.414453 0.665595
O O11 0.279326 0.691495 0.213882
O O12 0.292554 0.539959 0.196325
O O13 0.903211 0.116059 0.932622
O O14 0.589502 0.504478 0.687003
#
# Coordination Sequence:
#
# PCOD8134424 Si02
#       8
#     8   4   8   8   8   8   8   4
#     4  10  20  35  60  88 127 162 199 251 304 368
#     4   9  20  36  56  92 137 158 194 238 313 396
#     4  11  23  38  65  90 128 160 207 255 310 373
#     4  10  24  36  58  95 128 166 196 249 318 372
#     4  10  20  38  58  88 123 160 212 248 297 364
#     4  11  23  40  62  90 118 163 213 257 301 368
#     4  10  19  35  64  90 119 164 197 250 311 374
#     4  11  20  40  64  86 113 162 222 250 303 360
#
# _framework density 20.370369
#
# number of rings (size 3 to 8) (size 9 to 14) (size 15 to 20)
#    0.000    1.714    2.857    2.143    6.000    1.143 
#    0.000    0.714    0.000    0.000    0.000    0.000 
#    0.000    0.000    0.000    0.000    0.000    0.000 
#
# Total GULP energy -347079.752969 kJ/mol
# GULP energy per Si atom -12395.705463 kJ/mol
# Density = 2.032400 g / cm^3
# Si number density = 20.370369 Si / 1000 Ang^3
#
#
#
# Elastic Constant Matrix: (Units=GPa)
#
#
# Indices 1 2 3 4 5 6 
#
# 1 71.9570 30.0204 18.3812 -0.0008 -0.7706 0.0011
# 2 30.0204 71.8510 43.4527 0.0000 11.7882 0.0010
# 3 18.3812 43.4527 104.0445 -0.0007 0.0634 0.0022
# 4 -0.0008 0.0000 -0.0007 31.1735 0.0024 7.5101
# 5 -0.7706 11.7882 0.0634 0.0024 29.9683 -0.0013
# 6 0.0011 0.0010 0.0022 7.5101 -0.0013 19.3894
#
#
#
# Elastic Compliance Matrix: (Units=1/GPa)
#
#
# Indices 1 2 3 4 5 6 
#
# 1 0.017171 -0.007923 0.000273 0.000000 0.003558 0.000000
# 2 -0.007923 0.024028 -0.008629 0.000000 -0.009637 -0.000001
# 3 0.000273 -0.008629 0.013165 0.000000 0.003374 -0.000001
# 4 0.000000 0.000000 0.000000 0.035380 -0.000004 -0.013704
# 5 0.003558 -0.009637 0.003374 -0.000004 0.037244 0.000004
# 6 0.000000 -0.000001 -0.000001 -0.013704 0.000004 0.056882
#
#
# Mechanical properties :
#
#
# Convention : Reuss Voigt Hill
#
# Bulk Modulus (GPa) = 45.86037 47.95123 46.90580
# Shear Modulus (GPa) = 22.35169 26.50613 24.42891
#
# Velocity S-wave (km/s) = 3.31609 3.61114 3.46676
# Velocity P-wave (km/s) = 6.10116 6.40140 6.25308
#
# Compressibility (1/GPa) = 0.02180532
#
# Stress axis : x y z
#
# Youngs Moduli (GPa) = 58.23750 41.61827 75.96005
#
# Poissons Ratio (x) = 0.32975 -0.02076
# Poissons Ratio (y) = 0.46143 0.65548
# Poissons Ratio (z) = -0.01592 0.35913
#
# Static dielectric constant tensor:
#      x y z
#    x 3.477180 0.000000 -0.013280 
#    y 0.000000 3.699950 0.000000 
#    z -0.013280 0.000000 3.938530 
# 
# 
# High freq. dielectric constant tensor:
#      x y z
#    x 1.777630 0.000000 -0.007010 
#    y 0.000000 1.789480 0.000000 
#    z -0.007010 0.000000 1.789900 
# 
# From -- ./inp_files/222954.got.cif
#   From: 2010.06.25/outbox.cif.g09.slc.cpg/sg15_112_cif.got.tgz:222954.got - 2010.06.28 07:06:18.
