data_PCOD8134711
_publ_section_title
;
Structure prediction by ZEFSAII (Michael W. Deem and Ramdas Pophale) SiO2 
 PCOD8134711
Probable space group: C 2/C
;
_chemical_formula_sum "Si O2"
_cell_formula_units_Z 48
_cell_length_a 9.877534
_cell_length_b 14.175023
_cell_length_c 14.953321
_cell_angle_alpha 90.000000
_cell_angle_beta 82.494141
_cell_angle_gamma 90.000000
_cell_volume 2075.738684
_symmetry_space_group_name_H-M "C 2/C"
_symmetry_group_IT_number 15
_symmetry_cell_setting 'monoclinic'
loop_
_space_group_symop_operation_xyz
x,y,z
-x,y,1/2-z
-x,-y,-z
x,-y,1/2+z
1/2+x,1/2+y,z
1/2-x,1/2+y,1/2-z
1/2-x,1/2-y,-z
1/2+x,1/2-y,1/2+z
loop_
_atom_site_type_symbol
_atom_site_label
_atom_site_fract_x
_atom_site_fract_y
_atom_site_fract_z
Si Si1 0.089826 0.244277 0.622236
Si Si2 0.245946 0.299389 0.230520
Si Si3 0.225824 0.882795 0.984874
Si Si4 0.817954 0.365329 0.627107
Si Si5 0.588540 0.070849 0.869026
Si Si6 0.272937 0.918580 0.433370
O O1 0.120171 0.201301 0.717740
O O2 0.094156 0.160101 0.547766
O O3 0.223178 0.310800 0.595005
O O4 0.954087 0.303676 0.627367
O O5 0.208543 0.192653 0.198356
O O6 0.119720 0.351950 0.289380
O O7 0.295233 0.355347 0.137186
O O8 0.187979 0.983846 0.946083
O O9 0.353503 0.895239 0.041608
O O10 0.842557 0.470341 0.663008
O O11 0.768475 0.365615 0.529003
O O12 0.428090 0.057518 0.892391
#
# Coordination Sequence:
#
# PCOD8134711 Si02
#       6
#     8   8   8   8   8   8
#     4  10  19  36  60  92 114 154 197 244 291 358
#     4  11  25  32  55  94 128 148 198 249 297 345
#     4   9  18  35  63  89 115 148 198 246 298 354
#     4  11  21  40  64  86 120 161 198 245 300 356
#     4  10  20  39  62  90 113 156 204 249 297 351
#     4  11  20  39  60  90 121 156 194 252 299 355
#
# _framework density 23.124299000000001
#
# number of rings (size 3 to 8) (size 9 to 14) (size 15 to 20)
#    0.000    1.667    3.333    2.500    2.333    1.333 
#    0.000    0.833    0.000   14.000    0.000    0.000 
#    0.000    0.000    0.000    0.000    0.000    0.000 
#
# Total GULP energy -297469.338631 kJ/mol
# GULP energy per Si atom -12394.555776 kJ/mol
# Density = 2.307167 g / cm^3
# Si number density = 23.124299 Si / 1000 Ang^3
#
#
#
# Elastic Constant Matrix: (Units=GPa)
#
#
# Indices 1 2 3 4 5 6 
#
# 1 25.7103 19.7492 13.5267 0.0000 -0.7878 0.0000
# 2 19.7492 145.3112 55.6268 0.0000 -8.0362 0.0000
# 3 13.5267 55.6268 106.5785 0.0000 3.0183 0.0000
# 4 0.0000 0.0000 0.0000 43.6177 0.0000 -9.2177
# 5 -0.7878 -8.0362 3.0183 0.0000 23.9670 0.0000
# 6 0.0000 0.0000 0.0000 -9.2177 0.0000 33.3504
#
#
#
# Elastic Compliance Matrix: (Units=1/GPa)
#
#
# Indices 1 2 3 4 5 6 
#
# 1 0.044232 -0.004808 -0.003111 0.000000 0.000234 0.000000
# 2 -0.004808 0.009419 -0.004406 0.000000 0.003555 0.000000
# 3 -0.003111 -0.004406 0.012166 0.000000 -0.003112 0.000000
# 4 0.000000 0.000000 0.000000 0.024349 0.000000 0.006730
# 5 0.000234 0.003555 -0.003112 0.000000 0.043316 0.000000
# 6 0.000000 0.000000 0.000000 0.006730 0.000000 0.031845
#
#
# Mechanical properties :
#
#
# Convention : Reuss Voigt Hill
#
# Bulk Modulus (GPa) = 24.29209 50.60060 37.44635
# Shear Modulus (GPa) = 24.54624 32.76682 28.65653
#
# Velocity S-wave (km/s) = 3.26159 3.76837 3.52410
# Velocity P-wave (km/s) = 4.97109 6.39247 5.72606
#
# Compressibility (1/GPa) = 0.04116566
#
# Stress axis : x y z
#
# Youngs Moduli (GPa) = 22.60818 106.17286 82.19911
#
# Poissons Ratio (x) = 0.51044 0.25573
# Poissons Ratio (y) = 0.10869 0.36220
# Poissons Ratio (z) = 0.07034 0.46784
#
# Static dielectric constant tensor:
#      x y z
#    x 3.602940 0.000000 -0.090690 
#    y 0.000000 4.731870 0.000000 
#    z -0.090690 0.000000 4.575330 
# 
# 
# High freq. dielectric constant tensor:
#      x y z
#    x 1.864210 0.000000 0.000600 
#    y 0.000000 1.927870 0.000000 
#    z 0.000600 0.000000 1.929560 
# 
# From -- ./inp_files/143519.got.cif
#   From: 2010.06.25/outbox.cif.g09.slc.cpg/sg15_72_cif.got.tgz:143519.got - 2010.06.28 07:06:18.
