data_PCOD8134205
_publ_section_title
;
Structure prediction by ZEFSAII (Michael W. Deem and Ramdas Pophale) SiO2 
 PCOD8134205
Probable space group: C 2/C
;
_chemical_formula_sum "Si O2"
_cell_formula_units_Z 56
_cell_length_a 31.408262
_cell_length_b 16.806593
_cell_length_c 19.534660
_cell_angle_alpha 90.000000
_cell_angle_beta 16.165044
_cell_angle_gamma 90.000000
_cell_volume 2870.825259
_symmetry_space_group_name_H-M "C 2/C"
_symmetry_group_IT_number 15
_symmetry_cell_setting 'monoclinic'
loop_
_space_group_symop_operation_xyz
x,y,z
-x,y,1/2-z
-x,-y,-z
x,-y,1/2+z
1/2+x,1/2+y,z
1/2-x,1/2+y,1/2-z
1/2-x,1/2-y,-z
1/2+x,1/2-y,1/2+z
loop_
_atom_site_type_symbol
_atom_site_label
_atom_site_fract_x
_atom_site_fract_y
_atom_site_fract_z
Si Si1 0.682415 0.103099 0.465311
Si Si2 0.324370 0.443882 0.001234
Si Si3 0.301473 0.009063 0.439228
Si Si4 0.172188 0.690096 0.067595
Si Si5 0.180103 0.677514 0.899779
Si Si6 0.324514 0.724044 0.540966
Si Si7 0.155140 0.496903 0.389281
O O1 0.500000 0.101074 0.750000
O O2 0.750499 0.192610 0.368181
O O3 0.752863 0.045875 0.413933
O O4 0.726188 0.069490 0.322932
O O5 0.500000 0.437822 0.750000
O O6 0.308000 0.483370 0.953284
O O7 0.252491 0.353799 0.114958
O O8 0.237771 0.498852 0.189073
O O9 0.275112 0.101265 0.495367
O O10 0.476319 0.991533 0.150225
O O11 0.991473 0.703501 0.354580
O O12 0.250000 0.750000 0.000000
O O13 0.222711 0.705940 0.910733
O O14 0.299552 0.715848 0.661618
O O15 0.186117 0.581980 0.886234
O O16 0.500000 0.729425 0.250000
#
# Coordination Sequence:
#
# PCOD8134205 Si02
#       7
#     8   8   8   8   8   8   8
#     4   9  17  33  59  84 101 138 193 230 261 315
#     4  10  21  36  51  80 122 147 171 225 288 332
#     4  10  19  35  58  83 105 143 193 230 267 326
#     4  10  20  36  58  84 112 144 188 233 278 330
#     4   9  18  37  59  80 111 147 181 232 282 324
#     4   9  19  36  58  82 113 149 182 226 281 330
#     4   9  17  35  61  78 102 144 192 231 266 321
#
# _framework density 19.506585999999999
#
# number of rings (size 3 to 8) (size 9 to 14) (size 15 to 20)
#    0.000    2.571    1.429    0.429    0.000    1.714 
#    5.143   12.143    0.000    0.000    0.000    0.000 
#    0.000    0.000    0.000    0.000    0.000    0.000 
#
# Total GULP energy -347063.396413 kJ/mol
# GULP energy per Si atom -12395.121300 kJ/mol
# Density = 1.946219 g / cm^3
# Si number density = 19.506586 Si / 1000 Ang^3
#
#
#
# Elastic Constant Matrix: (Units=GPa)
#
#
# Indices 1 2 3 4 5 6 
#
# 1 142.9753 76.1978 33.8107 -0.0022 9.0555 0.0032
# 2 76.1978 131.9597 34.5693 0.0006 8.8446 0.0035
# 3 33.8107 34.5693 57.2996 0.0077 15.1292 -0.0034
# 4 -0.0022 0.0006 0.0077 18.9354 0.0036 7.4992
# 5 9.0555 8.8446 15.1292 0.0036 22.2759 -0.0055
# 6 0.0032 0.0035 -0.0034 7.4992 -0.0055 16.8942
#
#
#
# Elastic Compliance Matrix: (Units=1/GPa)
#
#
# Indices 1 2 3 4 5 6 
#
# 1 0.010527 -0.005287 -0.002981 0.000004 -0.000156 -0.000003
# 2 -0.005287 0.011657 -0.003970 0.000002 0.000218 -0.000003
# 3 -0.002981 -0.003970 0.025430 -0.000010 -0.014484 0.000006
# 4 0.000004 0.000002 -0.000010 0.064076 -0.000013 -0.028443
# 5 -0.000156 0.000218 -0.014484 -0.000013 0.054706 0.000021
# 6 -0.000003 -0.000003 0.000006 -0.028443 0.000021 0.071817
#
#
# Mechanical properties :
#
#
# Convention : Reuss Voigt Hill
#
# Bulk Modulus (GPa) = 43.21938 69.04336 56.13137
# Shear Modulus (GPa) = 18.49111 24.13155 21.31133
#
# Velocity S-wave (km/s) = 3.08221 3.52106 3.30891
# Velocity P-wave (km/s) = 5.90517 7.21125 6.59065
#
# Compressibility (1/GPa) = 0.02313777
#
# Stress axis : x y z
#
# Youngs Moduli (GPa) = 94.99646 85.78879 39.32322
#
# Poissons Ratio (x) = 0.45358 0.11721
# Poissons Ratio (y) = 0.50227 0.15612
# Poissons Ratio (z) = 0.28314 0.34059
#
# Static dielectric constant tensor:
#      x y z
#    x 3.380830 0.000000 0.261140 
#    y 0.000000 3.887920 0.000010 
#    z 0.261140 0.000010 3.389110 
# 
# 
# High freq. dielectric constant tensor:
#      x y z
#    x 1.747190 0.000000 0.024910 
#    y 0.000000 1.765640 0.000000 
#    z 0.024910 0.000000 1.741060 
# 
# From -- ./inp_files/225680.got.cif
#   From: 2010.06.25/outbox.cif.g09.slc.cpg/sg15_113_cif.got.tgz:225680.got - 2010.06.28 07:06:18.
