data_PCOD8134438
_publ_section_title
;
Structure prediction by ZEFSAII (Michael W. Deem and Ramdas Pophale) SiO2 
 PCOD8134438
Probable space group: C 2/C
;
_chemical_formula_sum "Si O2"
_cell_formula_units_Z 56
_cell_length_a 13.303508
_cell_length_b 15.020284
_cell_length_c 16.247508
_cell_angle_alpha 90.000000
_cell_angle_beta 123.238592
_cell_angle_gamma 90.000000
_cell_volume 2715.455355
_symmetry_space_group_name_H-M "C 2/C"
_symmetry_group_IT_number 15
_symmetry_cell_setting 'monoclinic'
loop_
_space_group_symop_operation_xyz
x,y,z
-x,y,1/2-z
-x,-y,-z
x,-y,1/2+z
1/2+x,1/2+y,z
1/2-x,1/2+y,1/2-z
1/2-x,1/2-y,-z
1/2+x,1/2-y,1/2+z
loop_
_atom_site_type_symbol
_atom_site_label
_atom_site_fract_x
_atom_site_fract_y
_atom_site_fract_z
Si Si1 0.577751 0.295844 0.481828
Si Si2 0.752379 0.563745 0.459456
Si Si3 0.899180 0.761093 0.262986
Si Si4 0.726212 0.683843 0.302292
Si Si5 0.756893 0.361473 0.434663
Si Si6 0.486199 0.346194 0.613258
Si Si7 0.886371 0.673656 0.648430
O O1 0.463432 0.303162 0.370983
O O2 0.694578 0.342054 0.494530
O O3 0.618262 0.193514 0.518031
O O4 0.540579 0.348176 0.546614
O O5 0.791751 0.624219 0.399741
O O6 0.786669 0.465131 0.447056
O O7 0.610473 0.574978 0.417027
O O8 0.828912 0.591772 0.573645
O O9 0.803844 0.688253 0.253128
O O10 0.831759 0.837375 0.180708
O O11 0.000000 0.714466 0.250000
O O12 0.595466 0.640815 0.226370
O O13 0.709271 0.784319 0.329998
O O14 0.421702 0.251783 0.600376
O O15 0.000000 0.636272 0.750000
#
# Coordination Sequence:
#
# PCOD8134438 Si02
#       7
#     8   8   8   8   8   8   8
#     4  10  20  39  62  78 119 173 195 240 310 381
#     4  11  21  37  61  97 123 154 201 268 310 349
#     4  10  20  37  64  82 112 168 205 238 302 379
#     4  10  19  36  62  90 122 159 206 250 305 374
#     4  10  23  39  58  91 125 153 208 257 300 367
#     4  10  19  35  65  90 119 159 211 243 308 375
#     4   9  19  35  59  89 123 162 201 249 305 376
#
# _framework density 20.622693000000002
#
# number of rings (size 3 to 8) (size 9 to 14) (size 15 to 20)
#    0.000    2.000    1.429    4.714    0.000    4.000 
#    0.000    7.857    0.000    0.000    0.000    0.000 
#    0.000    0.000    0.000    0.000    0.000    0.000 
#
# Total GULP energy -347162.365163 kJ/mol
# GULP energy per Si atom -12398.655899 kJ/mol
# Density = 2.057575 g / cm^3
# Si number density = 20.622693 Si / 1000 Ang^3
#
#
#
# Elastic Constant Matrix: (Units=GPa)
#
#
# Indices 1 2 3 4 5 6 
#
# 1 88.1051 22.1793 18.4125 0.0000 -16.2133 0.0000
# 2 22.1793 91.7133 45.2033 0.0000 2.2199 0.0000
# 3 18.4125 45.2033 115.8700 0.0000 -0.9426 0.0000
# 4 0.0000 0.0000 0.0000 22.7290 0.0000 1.0763
# 5 -16.2133 2.2199 -0.9426 0.0000 28.7485 0.0000
# 6 0.0000 0.0000 0.0000 1.0763 0.0000 14.4921
#
#
#
# Elastic Compliance Matrix: (Units=1/GPa)
#
#
# Indices 1 2 3 4 5 6 
#
# 1 0.013785 -0.003069 -0.000928 0.000000 0.007981 0.000000
# 2 -0.003069 0.014225 -0.005086 0.000000 -0.002996 0.000000
# 3 -0.000928 -0.005086 0.010764 0.000000 0.000222 0.000000
# 4 0.000000 0.000000 0.000000 0.044152 0.000000 -0.003279
# 5 0.007981 -0.002996 0.000222 0.000000 0.039524 0.000000
# 6 0.000000 0.000000 0.000000 -0.003279 0.000000 0.069246
#
#
# Mechanical properties :
#
#
# Convention : Reuss Voigt Hill
#
# Bulk Modulus (GPa) = 48.52747 51.91984 50.22365
# Shear Modulus (GPa) = 23.06976 27.18681 25.12829
#
# Velocity S-wave (km/s) = 3.34826 3.63477 3.49446
# Velocity P-wave (km/s) = 6.20726 6.54570 6.37872
#
# Compressibility (1/GPa) = 0.02060689
#
# Stress axis : x y z
#
# Youngs Moduli (GPa) = 72.54009 70.29769 92.90322
#
# Poissons Ratio (x) = 0.21578 0.08623
# Poissons Ratio (y) = 0.22266 0.47252
# Poissons Ratio (z) = 0.06733 0.35755
#
# Static dielectric constant tensor:
#      x y z
#    x 3.902500 0.000000 -0.019850 
#    y 0.000000 3.177470 0.000000 
#    z -0.019850 0.000000 3.901950 
# 
# 
# High freq. dielectric constant tensor:
#      x y z
#    x 1.813750 0.000000 -0.003820 
#    y 0.000000 1.746070 0.000000 
#    z -0.003820 0.000000 1.827150 
# 
# From -- ./inp_files/178441.got.cif
#   From: 2010.06.25/outbox.cif.g09.slc.cpg/sg15_90_cif.got.tgz:178441.got - 2010.06.28 07:06:18.
