data_PCOD8134790
_publ_section_title
;
Structure prediction by ZEFSAII (Michael W. Deem and Ramdas Pophale) SiO2 
 PCOD8134790
Probable space group: C 2/C
;
_chemical_formula_sum "Si O2"
_cell_formula_units_Z 32
_cell_length_a 4.919876
_cell_length_b 18.794221
_cell_length_c 18.434123
_cell_angle_alpha 90.000000
_cell_angle_beta 111.218321
_cell_angle_gamma 90.000000
_cell_volume 1588.963235
_symmetry_space_group_name_H-M "C 2/C"
_symmetry_group_IT_number 15
_symmetry_cell_setting 'monoclinic'
loop_
_space_group_symop_operation_xyz
x,y,z
-x,y,1/2-z
-x,-y,-z
x,-y,1/2+z
1/2+x,1/2+y,z
1/2-x,1/2+y,1/2-z
1/2-x,1/2-y,-z
1/2+x,1/2-y,1/2+z
loop_
_atom_site_type_symbol
_atom_site_label
_atom_site_fract_x
_atom_site_fract_y
_atom_site_fract_z
Si Si1 0.859424 0.935166 0.574640
Si Si2 0.327144 0.327689 0.802046
Si Si3 0.075946 0.269974 0.053342
Si Si4 0.720807 0.587777 0.975809
O O1 0.512644 0.929314 0.549447
O O2 0.010932 0.900377 0.658914
O O3 0.982233 0.892236 0.515024
O O4 0.922127 0.019723 0.578321
O O5 0.500000 0.295775 0.750000
O O6 0.327552 0.268384 0.864356
O O7 0.000000 0.347320 0.750000
O O8 0.250000 0.250000 0.000000
O O9 0.178607 0.352598 0.072742
O O10 0.750000 0.250000 0.000000
#
# Coordination Sequence:
#
# PCOD8134790 Si02
#       4
#     8   8   8   8
#     4  10  20  36  60  88 117 156 205 262 306 370
#     4  12  24  38  58  92 131 168 202 257 335 387
#     4  12  21  38  63  91 121 163 212 265 307 374
#     4  10  19  36  62  89 114 149 216 264 298 352
#
# _framework density 20.138918
#
# number of rings (size 3 to 8) (size 9 to 14) (size 15 to 20)
#    0.000    1.000    5.000    3.000    0.000    0.000 
#    0.000    1.250    0.000    3.000    0.000    0.000 
#    0.000    0.000    0.000    0.000    0.000    0.000 
#
# Total GULP energy -198232.064421 kJ/mol
# GULP energy per Si atom -12389.504026 kJ/mol
# Density = 2.009308 g / cm^3
# Si number density = 20.138918 Si / 1000 Ang^3
#
#
#
# Elastic Constant Matrix: (Units=GPa)
#
#
# Indices 1 2 3 4 5 6 
#
# 1 123.0609 32.9495 39.6873 0.0000 -5.7602 0.0000
# 2 32.9495 119.6737 58.1824 0.0000 -2.7213 0.0000
# 3 39.6873 58.1824 112.7809 0.0000 -3.0559 0.0000
# 4 0.0000 0.0000 0.0000 6.6994 0.0000 0.5065
# 5 -5.7602 -2.7213 -3.0559 0.0000 37.5938 0.0000
# 6 0.0000 0.0000 0.0000 0.5065 0.0000 37.2066
#
#
#
# Elastic Compliance Matrix: (Units=1/GPa)
#
#
# Indices 1 2 3 4 5 6 
#
# 1 0.009362 -0.001288 -0.002599 0.000000 0.001130 0.000000
# 2 -0.001288 0.011335 -0.005389 0.000000 0.000185 0.000000
# 3 -0.002599 -0.005389 0.012568 0.000000 0.000233 0.000000
# 4 0.000000 0.000000 0.000000 0.149422 0.000000 -0.002034
# 5 0.001130 0.000185 0.000233 0.000000 0.026806 0.000000
# 6 0.000000 0.000000 0.000000 -0.002034 0.000000 0.026905
#
#
# Mechanical properties :
#
#
# Convention : Reuss Voigt Hill
#
# Bulk Modulus (GPa) = 67.97369 68.57264 68.27317
# Shear Modulus (GPa) = 19.24151 31.27970 25.26061
#
# Velocity S-wave (km/s) = 3.09437 3.94534 3.54548
# Velocity P-wave (km/s) = 6.82587 7.40797 7.12287
#
# Compressibility (1/GPa) = 0.01471158
#
# Stress axis : x y z
#
# Youngs Moduli (GPa) = 106.81298 88.22151 79.56687
#
# Poissons Ratio (x) = 0.11365 0.20682
# Poissons Ratio (y) = 0.13760 0.42881
# Poissons Ratio (z) = 0.27764 0.47545
#
# Static dielectric constant tensor:
#      x y z
#    x 3.614530 0.000000 0.045970 
#    y 0.000000 3.178110 0.000000 
#    z 0.045970 0.000000 3.363800 
# 
# 
# High freq. dielectric constant tensor:
#      x y z
#    x 1.817180 0.000000 -0.000420 
#    y 0.000000 1.794430 0.000000 
#    z -0.000420 0.000000 1.744010 
# 
# From -- ./inp_files/184075.got.cif
#   From: 2010.06.25/outbox.cif.g09.slc.cpg/sg15_93_cif.got.tgz:184075.got - 2010.06.28 07:06:18.
