data_PCOD8134075
_publ_section_title
;
Structure prediction by ZEFSAII (Michael W. Deem and Ramdas Pophale) SiO2 
 PCOD8134075
Probable space group: C 2/C
;
_chemical_formula_sum "Si O2"
_cell_formula_units_Z 64
_cell_length_a 20.056246
_cell_length_b 26.967268
_cell_length_c 14.049575
_cell_angle_alpha 90.000000
_cell_angle_beta 152.321169
_cell_angle_gamma 90.000000
_cell_volume 3529.794521
_symmetry_space_group_name_H-M "C 2/C"
_symmetry_group_IT_number 15
_symmetry_cell_setting 'monoclinic'
loop_
_space_group_symop_operation_xyz
x,y,z
-x,y,1/2-z
-x,-y,-z
x,-y,1/2+z
1/2+x,1/2+y,z
1/2-x,1/2+y,1/2-z
1/2-x,1/2-y,-z
1/2+x,1/2-y,1/2+z
loop_
_atom_site_type_symbol
_atom_site_label
_atom_site_fract_x
_atom_site_fract_y
_atom_site_fract_z
Si Si1 0.581011 0.693292 0.258465
Si Si2 0.595380 0.583707 0.786257
Si Si3 0.112350 0.538754 0.817500
Si Si4 0.918906 0.114455 0.939299
Si Si5 0.421979 0.926560 0.745452
Si Si6 0.112359 0.613874 0.649200
Si Si7 0.908103 0.307050 0.222828
Si Si8 0.063765 0.970888 0.730908
O O1 0.500000 0.675224 0.250000
O O2 0.747412 0.684657 0.484786
O O3 0.550634 0.750808 0.198177
O O4 0.524587 0.659104 0.101943
O O5 0.500000 0.607307 0.750000
O O6 0.590343 0.617496 0.686354
O O7 0.533240 0.529287 0.680735
O O8 0.754088 0.582787 0.028656
O O9 0.050592 0.485214 0.709813
O O10 0.128883 0.568804 0.742172
O O11 0.000000 0.563258 0.750000
O O12 0.266200 0.537415 0.063191
O O13 0.761681 0.122642 0.784021
O O14 0.983032 0.060767 0.048335
O O15 0.500000 0.906102 0.750000
O O16 0.486011 0.897798 0.916085
O O17 0.063673 0.662426 0.645635
O O18 0.000000 0.326344 0.250000
O O19 0.000000 0.951446 0.750000
#
# Coordination Sequence:
#
# PCOD8134075 Si02
#       8
#     8   8   8   8   8   8   8   8
#     4  10  20  38  60  87 118 143 171 225 291 343
#     4  10  23  38  54  80 115 150 189 237 273 309
#     4  10  21  34  52  82 119 146 181 232 278 322
#     4  12  21  35  62  84 106 150 196 224 272 339
#     4  10  21  38  54  77 115 156 189 229 274 317
#     4  12  21  35  60  84 108 152 194 224 270 338
#     4  10  22  37  58  89 120 140 171 228 289 339
#     4  10  19  35  55  82 116 146 183 229 278 333
#
# _framework density 18.131367000000001
#
# number of rings (size 3 to 8) (size 9 to 14) (size 15 to 20)
#    0.000    1.500    3.750    2.250    0.000    2.000 
#    0.000    0.000    0.000    1.500    0.000    0.000 
#    0.000    0.000    0.000    0.000    0.000    0.000 
#
# Total GULP energy -396862.428543 kJ/mol
# GULP energy per Si atom -12401.950892 kJ/mol
# Density = 1.809010 g / cm^3
# Si number density = 18.131367 Si / 1000 Ang^3
#
#
#
# Elastic Constant Matrix: (Units=GPa)
#
#
# Indices 1 2 3 4 5 6 
#
# 1 134.6378 33.0670 32.5397 0.0000 3.4035 0.0000
# 2 33.0670 73.2340 34.6906 0.0000 -12.9933 0.0000
# 3 32.5397 34.6906 66.4726 0.0000 -3.6365 0.0000
# 4 0.0000 0.0000 0.0000 25.6799 0.0000 3.9000
# 5 3.4035 -12.9933 -3.6365 0.0000 36.8788 0.0000
# 6 0.0000 0.0000 0.0000 3.9000 0.0000 12.9677
#
#
#
# Elastic Compliance Matrix: (Units=1/GPa)
#
#
# Indices 1 2 3 4 5 6 
#
# 1 0.008932 -0.003046 -0.002902 0.000000 -0.002184 0.000000
# 2 -0.003046 0.020353 -0.008771 0.000000 0.006587 0.000000
# 3 -0.002902 -0.008771 0.021001 0.000000 -0.000751 0.000000
# 4 0.000000 0.000000 0.000000 0.040805 0.000000 -0.012272
# 5 -0.002184 0.006587 -0.000751 0.000000 0.029564 0.000000
# 6 0.000000 0.000000 0.000000 -0.012272 0.000000 0.080805
#
#
# Mechanical properties :
#
#
# Convention : Reuss Voigt Hill
#
# Bulk Modulus (GPa) = 47.96481 52.77100 50.36790
# Shear Modulus (GPa) = 21.02187 26.70842 23.86514
#
# Velocity S-wave (km/s) = 3.40872 3.84220 3.63193
# Velocity P-wave (km/s) = 6.48105 6.98937 6.74000
#
# Compressibility (1/GPa) = 0.02084862
#
# Stress axis : x y z
#
# Youngs Moduli (GPa) = 111.95711 49.13190 47.61735
#
# Poissons Ratio (x) = 0.14963 0.13821
# Poissons Ratio (y) = 0.34097 0.41764
# Poissons Ratio (z) = 0.32495 0.43092
#
# Static dielectric constant tensor:
#      x y z
#    x 3.480900 0.000000 0.134870 
#    y 0.000000 3.238790 0.000000 
#    z 0.134870 0.000000 3.255690 
# 
# 
# High freq. dielectric constant tensor:
#      x y z
#    x 1.714210 0.000000 0.014130 
#    y 0.000000 1.680070 0.000000 
#    z 0.014130 0.000000 1.698950 
# 
# From -- ./inp_files/108672.got.cif
#   From: 2010.06.25/outbox.cif.g09.slc.cpg/sg15_55_cif.got.tgz:108672.got - 2010.06.28 07:06:18.
