data_PCOD8134419
_publ_section_title
;
Structure prediction by ZEFSAII (Michael W. Deem and Ramdas Pophale) SiO2 
 PCOD8134419
Probable space group: C 2/C
;
_chemical_formula_sum "Si O2"
_cell_formula_units_Z 52
_cell_length_a 10.408036
_cell_length_b 30.667231
_cell_length_c 12.032012
_cell_angle_alpha 90.000000
_cell_angle_beta 140.629939
_cell_angle_gamma 90.000000
_cell_volume 2436.096918
_symmetry_space_group_name_H-M "C 2/C"
_symmetry_group_IT_number 15
_symmetry_cell_setting 'monoclinic'
loop_
_space_group_symop_operation_xyz
x,y,z
-x,y,1/2-z
-x,-y,-z
x,-y,1/2+z
1/2+x,1/2+y,z
1/2-x,1/2+y,1/2-z
1/2-x,1/2-y,-z
1/2+x,1/2-y,1/2+z
loop_
_atom_site_type_symbol
_atom_site_label
_atom_site_fract_x
_atom_site_fract_y
_atom_site_fract_z
Si Si1 0.567540 0.289103 0.669324
Si Si2 0.000000 0.925673 0.750000
Si Si3 0.871321 0.525196 0.561064
Si Si4 0.078689 0.433842 0.987451
Si Si5 0.831769 0.306205 0.228093
Si Si6 0.398516 0.371873 0.290293
Si Si7 0.216403 0.124845 0.200681
O O1 0.500000 0.293511 0.750000
O O2 0.377867 0.301958 0.471916
O O3 0.620826 0.239119 0.678170
O O4 0.742760 0.323271 0.748772
O O5 0.855461 0.956631 0.579918
O O6 0.887074 0.894902 0.760308
O O7 0.869252 0.472561 0.563503
O O8 0.000000 0.543401 0.750000
O O9 0.958297 0.544449 0.506687
O O10 0.936914 0.397321 0.831525
O O11 0.292360 0.415663 0.174435
O O12 0.792828 0.343630 0.292673
O O13 0.000000 0.320100 0.250000
O O14 0.500000 0.348699 0.250000
O O15 0.574901 0.382430 0.497673
#
# Coordination Sequence:
#
# PCOD8134419 Si02
#       7
#     8   4   8   8   8   8   8
#     4  10  19  35  63  95 124 156 207 274 321 367
#     4  10  20  38  66  94 128 154 202 288 316 370
#     4  10  22  39  61  94 119 160 213 265 322 372
#     4  10  24  39  63  86 124 169 211 259 313 386
#     4  10  22  37  64  94 124 163 213 267 317 369
#     4  11  26  42  61  92 132 174 213 257 316 387
#     4  10  22  39  63  94 124 165 215 259 323 374
#
# _framework density 21.345618999999999
#
# number of rings (size 3 to 8) (size 9 to 14) (size 15 to 20)
#    0.000    1.846    0.769    2.769    7.538    1.846 
#    0.000    7.692    0.000    0.000    0.000    0.000 
#    0.000    0.000    0.000    0.000    0.000    0.000 
#
# Total GULP energy -322270.294476 kJ/mol
# GULP energy per Si atom -12395.011326 kJ/mol
# Density = 2.129704 g / cm^3
# Si number density = 21.345619 Si / 1000 Ang^3
#
#
#
# Elastic Constant Matrix: (Units=GPa)
#
#
# Indices 1 2 3 4 5 6 
#
# 1 56.5391 32.5134 4.9137 0.0000 0.2575 0.0000
# 2 32.5134 85.3631 26.0893 0.0000 3.0148 0.0000
# 3 4.9137 26.0893 99.6624 0.0000 -0.2122 0.0000
# 4 0.0000 0.0000 0.0000 -43.5458 0.0000 -67.9080
# 5 0.2575 3.0148 -0.2122 0.0000 23.6662 0.0000
# 6 0.0000 0.0000 0.0000 -67.9080 0.0000 -62.4181
#
#
#
# Elastic Compliance Matrix: (Units=1/GPa)
#
#
# Indices 1 2 3 4 5 6 
#
# 1 0.022809 -0.009106 0.001261 0.000000 0.000923 0.000000
# 2 -0.009106 0.016433 -0.003857 0.000000 -0.002029 0.000000
# 3 0.001261 -0.003857 0.010983 0.000000 0.000576 0.000000
# 4 0.000000 0.000000 0.000000 0.032965 0.000000 -0.035865
# 5 0.000923 -0.002029 0.000576 0.000000 0.042508 0.000000
# 6 0.000000 0.000000 0.000000 -0.035865 0.000000 0.022998
#
#
# Mechanical properties :
#
#
# Convention : Reuss Voigt Hill
#
# Bulk Modulus (GPa) = 37.28335 40.95525 39.11930
# Shear Modulus (GPa) = 27.61799 -4.58967 11.51416
#
# Velocity S-wave (km/s) = 3.60091 -1.46794 2.32505
# Velocity P-wave (km/s) = 5.89857 4.04416 5.05710
#
# Compressibility (1/GPa) = 0.02682163
#
# Stress axis : x y z
#
# Youngs Moduli (GPa) = 43.84152 60.85155 91.05250
#
# Poissons Ratio (x) = 0.55410 -0.11482
# Poissons Ratio (y) = 0.39921 0.35121
# Poissons Ratio (z) = -0.05529 0.23472
#
# Static dielectric constant tensor:
#      x y z
#    x 3.706960 0.000000 0.156480 
#    y 0.000000 3.802550 0.000000 
#    z 0.156480 0.000000 3.992030 
# 
# 
# High freq. dielectric constant tensor:
#      x y z
#    x 1.818140 0.000000 0.002150 
#    y 0.000000 1.841370 0.000000 
#    z 0.002150 0.000000 1.850590 
# 
# From -- ./inp_files/92660.got.cif
#   From: 2010.06.25/outbox.cif.g09.slc.cpg/sg15_47_cif.got.tgz:92660.got - 2010.06.28 07:06:18.
