data_PCOD8134664
_publ_section_title
;
Structure prediction by ZEFSAII (Michael W. Deem and Ramdas Pophale) SiO2 
 PCOD8134664
Probable space group: C 2/C
;
_chemical_formula_sum "Si O2"
_cell_formula_units_Z 64
_cell_length_a 17.489488
_cell_length_b 13.634253
_cell_length_c 19.658814
_cell_angle_alpha 90.000000
_cell_angle_beta 137.022013
_cell_angle_gamma 90.000000
_cell_volume 3195.730067
_symmetry_space_group_name_H-M "C 2/C"
_symmetry_group_IT_number 15
_symmetry_cell_setting 'monoclinic'
loop_
_space_group_symop_operation_xyz
x,y,z
-x,y,1/2-z
-x,-y,-z
x,-y,1/2+z
1/2+x,1/2+y,z
1/2-x,1/2+y,1/2-z
1/2-x,1/2-y,-z
1/2+x,1/2-y,1/2+z
loop_
_atom_site_type_symbol
_atom_site_label
_atom_site_fract_x
_atom_site_fract_y
_atom_site_fract_z
Si Si1 0.441983 0.543544 0.143650
Si Si2 0.716668 0.884773 0.774990
Si Si3 0.341597 0.259901 0.961830
Si Si4 0.373018 0.022195 0.674150
Si Si5 0.599045 0.741945 0.596273
Si Si6 0.802379 0.188199 0.974080
Si Si7 0.753379 0.901115 0.014041
Si Si8 0.082001 0.975114 0.116790
O O1 0.500000 0.581567 0.250000
O O2 0.518366 0.472925 0.147291
O O3 0.410371 0.634017 0.075092
O O4 0.330434 0.486703 0.094435
O O5 0.756089 0.798410 0.850110
O O6 0.647038 0.831436 0.671118
O O7 0.639013 0.963960 0.762777
O O8 0.823428 0.942209 0.815384
O O9 0.334824 0.329857 0.023470
O O10 0.464850 0.254656 0.010604
O O11 0.303082 0.151814 0.958759
O O12 0.500000 0.060543 0.750000
O O13 0.288307 0.113534 0.616691
O O14 0.345369 0.946156 0.596000
O O15 0.648653 0.758455 0.552863
O O16 0.636476 0.632588 0.643600
O O17 0.750000 0.250000 0.000000
O O18 0.000000 0.000000 0.000000
#
# Coordination Sequence:
#
# PCOD8134664 Si02
#       8
#     8   8   8   8   8   8   8   8
#     4  11  23  38  66  91 127 172 218 275 327 391
#     4  11  23  37  68  97 122 170 222 267 326 397
#     4  10  19  36  59  95 131 160 204 265 331 387
#     4  10  20  42  63  87 131 174 207 263 335 386
#     4  12  23  41  69  96 129 171 219 275 327 399
#     4  11  25  45  63  91 128 175 224 267 319 391
#     4   9  19  34  59  93 131 161 203 264 325 393
#     4  12  20  45  67  91 131 175 220 274 343 388
#
# _framework density 20.026721999999999
#
# number of rings (size 3 to 8) (size 9 to 14) (size 15 to 20)
#    0.000    1.250    5.000    1.500    3.500    0.500 
#    2.250    0.000    0.000    3.000    0.000    0.000 
#    0.000    0.000    0.000    0.000    0.000    0.000 
#
# Total GULP energy -396798.627453 kJ/mol
# GULP energy per Si atom -12399.957108 kJ/mol
# Density = 1.998114 g / cm^3
# Si number density = 20.026722 Si / 1000 Ang^3
#
#
#
# Elastic Constant Matrix: (Units=GPa)
#
#
# Indices 1 2 3 4 5 6 
#
# 1 130.5514 32.8529 46.0367 0.0000 -6.2751 0.0000
# 2 32.8529 68.1015 25.6042 0.0000 -8.3170 0.0000
# 3 46.0367 25.6042 96.3046 0.0000 -2.5823 0.0000
# 4 0.0000 0.0000 0.0000 24.3797 0.0000 -2.5505
# 5 -6.2751 -8.3170 -2.5823 0.0000 30.1042 0.0000
# 6 0.0000 0.0000 0.0000 -2.5505 0.0000 39.9592
#
#
#
# Elastic Compliance Matrix: (Units=1/GPa)
#
#
# Indices 1 2 3 4 5 6 
#
# 1 0.009862 -0.003212 -0.003838 0.000000 0.000839 0.000000
# 2 -0.003212 0.017894 -0.003114 0.000000 0.004007 0.000000
# 3 -0.003838 -0.003114 0.013032 0.000000 -0.000543 0.000000
# 4 0.000000 0.000000 0.000000 0.041293 0.000000 0.002636
# 5 0.000839 0.004007 -0.000543 0.000000 0.034453 0.000000
# 6 0.000000 0.000000 0.000000 0.002636 0.000000 0.025194
#
#
# Mechanical properties :
#
#
# Convention : Reuss Voigt Hill
#
# Bulk Modulus (GPa) = 48.87880 55.99390 52.43635
# Shear Modulus (GPa) = 29.60751 31.58619 30.59685
#
# Velocity S-wave (km/s) = 3.84917 3.97571 3.91295
# Velocity P-wave (km/s) = 6.64940 7.00680 6.83044
#
# Compressibility (1/GPa) = 0.02045877
#
# Stress axis : x y z
#
# Youngs Moduli (GPa) = 101.40161 55.88530 76.73553
#
# Poissons Ratio (x) = 0.17951 0.29449
# Poissons Ratio (y) = 0.32571 0.23899
# Poissons Ratio (z) = 0.38916 0.17405
#
# Static dielectric constant tensor:
#      x y z
#    x 3.798880 0.000000 -0.003710 
#    y 0.000000 3.677350 0.000000 
#    z -0.003710 0.000000 3.441080 
# 
# 
# High freq. dielectric constant tensor:
#      x y z
#    x 1.790440 0.000000 0.002570 
#    y 0.000000 1.774640 0.000000 
#    z 0.002570 0.000000 1.764140 
# 
# From -- ./inp_files/211399.got.cif
#   From: 2010.06.25/outbox.cif.g09.slc.cpg/sg15_106_cif.got.tgz:211399.got - 2010.06.28 07:06:18.
