data_PCOD8134811
_publ_section_title
;
Structure prediction by ZEFSAII (Michael W. Deem and Ramdas Pophale) SiO2 
 PCOD8134811
Probable space group: C 2/C
;
_chemical_formula_sum "Si O2"
_cell_formula_units_Z 56
_cell_length_a 8.739638
_cell_length_b 16.168800
_cell_length_c 15.642046
_cell_angle_alpha 90.000000
_cell_angle_beta 119.285907
_cell_angle_gamma 90.000000
_cell_volume 1927.860945
_symmetry_space_group_name_H-M "C 2/C"
_symmetry_group_IT_number 15
_symmetry_cell_setting 'monoclinic'
loop_
_space_group_symop_operation_xyz
x,y,z
-x,y,1/2-z
-x,-y,-z
x,-y,1/2+z
1/2+x,1/2+y,z
1/2-x,1/2+y,1/2-z
1/2-x,1/2-y,-z
1/2+x,1/2-y,1/2+z
loop_
_atom_site_type_symbol
_atom_site_label
_atom_site_fract_x
_atom_site_fract_y
_atom_site_fract_z
Si Si1 0.811439 0.450005 0.503337
Si Si2 0.359714 0.573574 0.284253
Si Si3 0.948221 0.157454 0.481458
Si Si4 0.321341 0.130053 0.553664
Si Si5 0.317824 0.082450 0.818211
Si Si6 0.903882 0.672281 0.387160
Si Si7 0.860153 0.230482 0.652143
O O1 0.641658 0.387854 0.460743
O O2 0.760073 0.535375 0.530862
O O3 0.874108 0.463793 0.422562
O O4 0.960251 0.401690 0.597131
O O5 0.500000 0.549474 0.250000
O O6 0.443143 0.593845 0.398381
O O7 0.243522 0.488866 0.263992
O O8 0.257426 0.655333 0.220953
O O9 0.833872 0.235676 0.416904
O O10 0.157818 0.175898 0.555240
O O11 0.501749 0.130935 0.659851
O O12 0.345610 0.174195 0.469104
O O13 0.162155 0.145126 0.801597
O O14 0.018171 0.759720 0.402799
O O15 0.000000 0.283143 0.750000
#
# Coordination Sequence:
#
# PCOD8134811 Si02
#       7
#     8   8   8   8   8   8   8
#     4  10  20  38  62  95 126 164 218 275 313 379
#     4  12  20  38  68  97 116 173 221 263 320 393
#     4  11  24  36  66  95 129 170 224 264 324 398
#     4  11  20  39  63  93 123 170 220 267 318 389
#     4  11  23  41  66  90 134 168 215 274 332 384
#     4  10  19  36  63  87 119 163 213 258 320 386
#     4  11  24  40  60  96 129 167 215 278 332 388
#
# _framework density 29.047737999999999
#
# number of rings (size 3 to 8) (size 9 to 14) (size 15 to 20)
#    0.000    1.143    5.714    1.714    0.000    5.714 
#    0.000    0.000    0.000    3.429    0.000    0.000 
#    0.000    0.000    0.000    0.000    0.000    0.000 
#
# Total GULP energy -346946.481617 kJ/mol
# GULP energy per Si atom -12390.945772 kJ/mol
# Density = 2.898162 g / cm^3
# Si number density = 29.047738 Si / 1000 Ang^3
#
#
#
# Elastic Constant Matrix: (Units=GPa)
#
#
# Indices 1 2 3 4 5 6 
#
# 1 147.7132 28.0868 32.5839 0.0000 37.4142 0.0000
# 2 28.0868 114.9564 3.2461 0.0000 11.8718 0.0000
# 3 32.5839 3.2461 84.8909 0.0000 19.2219 0.0000
# 4 0.0000 0.0000 0.0000 27.0156 0.0000 6.2667
# 5 37.4142 11.8718 19.2219 0.0000 42.3915 0.0000
# 6 0.0000 0.0000 0.0000 6.2667 0.0000 45.1943
#
#
#
# Elastic Compliance Matrix: (Units=1/GPa)
#
#
# Indices 1 2 3 4 5 6 
#
# 1 0.009211 -0.001490 -0.001930 0.000000 -0.006837 0.000000
# 2 -0.001490 0.009204 0.000564 0.000000 -0.001518 0.000000
# 3 -0.001930 0.000564 0.013539 0.000000 -0.004593 0.000000
# 4 0.000000 0.000000 0.000000 0.038246 0.000000 -0.005303
# 5 -0.006837 -0.001518 -0.004593 0.000000 0.032132 0.000000
# 6 0.000000 0.000000 0.000000 -0.005303 0.000000 0.022862
#
#
# Mechanical properties :
#
#
# Convention : Reuss Voigt Hill
#
# Bulk Modulus (GPa) = 38.10873 52.82156 45.46514
# Shear Modulus (GPa) = 35.80302 41.82987 38.81644
#
# Velocity S-wave (km/s) = 3.51459 3.79890 3.65951
# Velocity P-wave (km/s) = 5.44221 6.12095 5.79153
#
# Compressibility (1/GPa) = 0.02624071
#
# Stress axis : x y z
#
# Youngs Moduli (GPa) = 108.57030 108.65036 73.85923
#
# Poissons Ratio (x) = 0.16187 0.14257
# Poissons Ratio (y) = 0.16175 -0.04163
# Poissons Ratio (z) = 0.20958 -0.06124
#
# Static dielectric constant tensor:
#      x y z
#    x 5.560270 0.000000 0.016610 
#    y 0.000000 5.294900 0.000000 
#    z 0.016610 0.000000 5.515850 
# 
# 
# High freq. dielectric constant tensor:
#      x y z
#    x 2.195950 0.000000 0.014340 
#    y 0.000000 2.188690 0.000000 
#    z 0.014340 0.000000 2.175240 
# 
# From -- ./inp_files/232797.got.cif
#   From: 2010.06.25/outbox.cif.g09.slc.cpg/sg15_117_cif.got.tgz:232797.got - 2010.06.28 07:06:18.
