data_PCOD8134185
_publ_section_title
;
Structure prediction by ZEFSAII (Michael W. Deem and Ramdas Pophale) SiO2 
 PCOD8134185
Probable space group: C 2/C
;
_chemical_formula_sum "Si O2"
_cell_formula_units_Z 48
_cell_length_a 28.001944
_cell_length_b 8.114724
_cell_length_c 20.933769
_cell_angle_alpha 90.000000
_cell_angle_beta 154.530617
_cell_angle_gamma 90.000000
_cell_volume 2045.534591
_symmetry_space_group_name_H-M "C 2/C"
_symmetry_group_IT_number 15
_symmetry_cell_setting 'monoclinic'
loop_
_space_group_symop_operation_xyz
x,y,z
-x,y,1/2-z
-x,-y,-z
x,-y,1/2+z
1/2+x,1/2+y,z
1/2-x,1/2+y,1/2-z
1/2-x,1/2-y,-z
1/2+x,1/2-y,1/2+z
loop_
_atom_site_type_symbol
_atom_site_label
_atom_site_fract_x
_atom_site_fract_y
_atom_site_fract_z
Si Si1 0.189731 0.459143 0.365914
Si Si2 0.130623 0.011203 0.661577
Si Si3 0.602042 0.184757 0.566091
Si Si4 0.960521 0.566838 0.137057
Si Si5 0.255888 0.414247 0.581314
Si Si6 0.147511 0.633981 0.189835
O O1 0.264373 0.491961 0.519722
O O2 0.214418 0.275348 0.374614
O O3 0.211100 0.586301 0.333254
O O4 0.059670 0.464894 0.224926
O O5 0.187691 0.187387 0.709004
O O6 0.171453 0.850226 0.670574
O O7 0.158201 0.009112 0.770241
O O8 0.000000 0.000000 0.500000
O O9 0.482709 0.172045 0.456067
O O10 0.588696 0.197062 0.473187
O O11 0.666181 0.014849 0.662184
O O12 0.000000 0.659644 0.250000
O O13 0.869271 0.430963 0.044617
#
# Coordination Sequence:
#
# PCOD8134185 Si02
#       6
#     8   8   8   8   8   8
#     4   9  18  35  62  84 120 161 201 252 301 358
#     4  10  20  33  55  87 114 145 197 242 291 354
#     4   9  17  34  55  78 115 152 188 239 293 353
#     4   9  19  35  59  85 115 164 206 246 306 364
#     4  10  19  35  57  89 120 160 206 246 304 365
#     4   9  17  32  57  83 110 153 190 237 300 348
#
# _framework density 23.465747
#
# number of rings (size 3 to 8) (size 9 to 14) (size 15 to 20)
#    0.000    2.667    1.667    0.000    2.333    0.667 
#    3.000    0.000    0.000    1.000    0.000    0.000 
#    0.000    0.000    0.000    0.000    0.000    0.000 
#
# Total GULP energy -297346.044786 kJ/mol
# GULP energy per Si atom -12389.418533 kJ/mol
# Density = 2.341234 g / cm^3
# Si number density = 23.465747 Si / 1000 Ang^3
#
#
#
# Elastic Constant Matrix: (Units=GPa)
#
#
# Indices 1 2 3 4 5 6 
#
# 1 66.0745 60.0094 36.9307 0.0000 -32.3557 0.0000
# 2 60.0094 194.3788 67.7862 0.0000 -34.2173 0.0000
# 3 36.9307 67.7862 124.6578 0.0000 -42.9936 0.0000
# 4 0.0000 0.0000 0.0000 35.2689 0.0000 -1.5457
# 5 -32.3557 -34.2173 -42.9936 0.0000 41.1960 0.0000
# 6 0.0000 0.0000 0.0000 -1.5457 0.0000 37.9973
#
#
#
# Elastic Compliance Matrix: (Units=1/GPa)
#
#
# Indices 1 2 3 4 5 6 
#
# 1 0.029495 -0.006140 0.001299 0.000000 0.019422 0.000000
# 2 -0.006140 0.007811 -0.002897 0.000000 -0.001358 0.000000
# 3 0.001299 -0.002897 0.013646 0.000000 0.012856 0.000000
# 4 0.000000 0.000000 0.000000 0.028404 0.000000 0.001155
# 5 0.019422 -0.001358 0.012856 0.000000 0.051817 0.000000
# 6 0.000000 0.000000 0.000000 0.001155 0.000000 0.026365
#
#
# Mechanical properties :
#
#
# Convention : Reuss Voigt Hill
#
# Bulk Modulus (GPa) = 28.18714 79.39597 53.79156
# Shear Modulus (GPa) = 27.05034 37.58477 32.31756
#
# Velocity S-wave (km/s) = 3.39891 4.00645 3.71512
# Velocity P-wave (km/s) = 5.23847 7.43710 6.43242
#
# Compressibility (1/GPa) = 0.03547717
#
# Stress axis : x y z
#
# Youngs Moduli (GPa) = 33.90374 128.01752 73.28021
#
# Poissons Ratio (x) = 0.78603 -0.09519
# Poissons Ratio (y) = 0.20817 0.21228
# Poissons Ratio (z) = -0.04404 0.37085
#
# Static dielectric constant tensor:
#      x y z
#    x 4.363800 0.000000 -0.417720 
#    y 0.000000 5.046660 0.000000 
#    z -0.417720 0.000000 4.697650 
# 
# 
# High freq. dielectric constant tensor:
#      x y z
#    x 1.931920 0.000000 -0.002850 
#    y 0.000000 1.920950 0.000000 
#    z -0.002850 0.000000 1.944190 
# 
# From -- ./inp_files/258753.got.cif
#   From: 2010.06.25/outbox.cif.g09.slc.cpg/sg15_130_cif.got.tgz:258753.got - 2010.06.28 07:06:18.
