data_PCOD8134988
_publ_section_title
;
Structure prediction by ZEFSAII (Michael W. Deem and Ramdas Pophale) SiO2 
 PCOD8134988
Probable space group: C 2/C
;
_chemical_formula_sum "Si O2"
_cell_formula_units_Z 64
_cell_length_a 27.727367
_cell_length_b 11.167344
_cell_length_c 16.746686
_cell_angle_alpha 90.000000
_cell_angle_beta 143.965081
_cell_angle_gamma 90.000000
_cell_volume 3050.493875
_symmetry_space_group_name_H-M "C 2/C"
_symmetry_group_IT_number 15
_symmetry_cell_setting 'monoclinic'
loop_
_space_group_symop_operation_xyz
x,y,z
-x,y,1/2-z
-x,-y,-z
x,-y,1/2+z
1/2+x,1/2+y,z
1/2-x,1/2+y,1/2-z
1/2-x,1/2-y,-z
1/2+x,1/2-y,1/2+z
loop_
_atom_site_type_symbol
_atom_site_label
_atom_site_fract_x
_atom_site_fract_y
_atom_site_fract_z
Si Si1 0.524332 0.815541 0.873385
Si Si2 0.189223 0.679183 0.257267
Si Si3 0.598247 0.396892 0.708532
Si Si4 0.048804 0.148599 0.604255
Si Si5 0.089564 0.283686 0.331472
Si Si6 0.114407 0.477353 0.777970
Si Si7 0.266483 0.133554 0.362678
Si Si8 0.690241 0.873492 0.036083
O O1 0.500000 0.796622 0.750000
O O2 0.504363 0.693399 0.892297
O O3 0.477973 0.927245 0.853474
O O4 0.620038 0.843938 0.006783
O O5 0.104247 0.749468 0.139484
O O6 0.170116 0.550824 0.274343
O O7 0.226829 0.662174 0.220963
O O8 0.251276 0.758787 0.392626
O O9 0.606251 0.541262 0.715710
O O10 0.512470 0.379645 0.549366
O O11 0.591730 0.345475 0.790637
O O12 0.676089 0.329211 0.772837
O O13 0.108973 0.382286 0.289081
O O14 0.161049 0.295911 0.493445
O O15 0.000000 0.306871 0.250000
O O16 0.154721 0.399052 0.901735
O O17 0.266530 0.991588 0.373417
#
# Coordination Sequence:
#
# PCOD8134988 Si02
#       8
#     8   8   8   8   8   8   8   8
#     4   9  18  35  59  87 113 150 197 252 309 368
#     4  11  21  37  61  91 122 162 211 260 322 379
#     4  11  23  42  61  84 127 169 201 258 317 377
#     4  10  22  39  60  86 123 161 208 256 310 376
#     4  11  23  43  65  91 126 168 216 264 319 384
#     4   9  20  36  61  89 119 158 206 261 318 372
#     4  11  23  39  63  93 128 168 211 267 321 381
#     4  10  19  37  59  86 127 160 202 267 318 373
#
# _framework density 20.980208999999999
#
# number of rings (size 3 to 8) (size 9 to 14) (size 15 to 20)
#    0.000    1.750    1.250    4.125    0.000    2.500 
#    0.000    3.125    2.750    0.000    0.000    0.000 
#    0.000    0.000    0.000    0.000    0.000    0.000 
#
# Total GULP energy -396620.404342 kJ/mol
# GULP energy per Si atom -12394.387636 kJ/mol
# Density = 2.093246 g / cm^3
# Si number density = 20.980209 Si / 1000 Ang^3
#
#
#
# Elastic Constant Matrix: (Units=GPa)
#
#
# Indices 1 2 3 4 5 6 
#
# 1 105.7422 24.0400 28.9957 0.0000 2.6345 0.0000
# 2 24.0400 49.8738 12.3429 0.0000 -8.3625 0.0000
# 3 28.9957 12.3429 59.0515 0.0000 12.5756 0.0000
# 4 0.0000 0.0000 0.0000 18.5286 0.0000 -1.1683
# 5 2.6345 -8.3625 12.5756 0.0000 31.0767 0.0000
# 6 0.0000 0.0000 0.0000 -1.1683 0.0000 30.5688
#
#
#
# Elastic Compliance Matrix: (Units=1/GPa)
#
#
# Indices 1 2 3 4 5 6 
#
# 1 0.011813 -0.004559 -0.004785 0.000000 -0.000292 0.000000
# 2 -0.004559 0.024993 -0.004925 0.000000 0.009105 0.000000
# 3 -0.004785 -0.004925 0.022443 0.000000 -0.010002 0.000000
# 4 0.000000 0.000000 0.000000 0.054101 0.000000 0.002068
# 5 -0.000292 0.009105 -0.010002 0.000000 0.038700 0.000000
# 6 0.000000 0.000000 0.000000 0.002068 0.000000 0.032792
#
#
# Mechanical properties :
#
#
# Convention : Reuss Voigt Hill
#
# Bulk Modulus (GPa) = 32.56035 38.38052 35.47044
# Shear Modulus (GPa) = 22.35957 25.98741 24.17349
#
# Velocity S-wave (km/s) = 3.26812 3.52328 3.39810
# Velocity P-wave (km/s) = 5.45839 5.90633 5.68677
#
# Compressibility (1/GPa) = 0.03071220
#
# Stress axis : x y z
#
# Youngs Moduli (GPa) = 84.65376 40.01070 44.55651
#
# Poissons Ratio (x) = 0.18239 0.21322
# Poissons Ratio (y) = 0.38590 0.21943
# Poissons Ratio (z) = 0.40511 0.19704
#
# Static dielectric constant tensor:
#      x y z
#    x 3.935370 0.000000 0.231770 
#    y 0.000000 3.797950 0.000000 
#    z 0.231770 0.000000 3.708870 
# 
# 
# High freq. dielectric constant tensor:
#      x y z
#    x 1.830370 0.000000 0.015790 
#    y 0.000000 1.810600 0.000000 
#    z 0.015790 0.000000 1.817050 
# 
# From -- ./inp_files/177847.got.cif
#   From: 2010.06.25/outbox.cif.g09.slc.cpg/sg15_89_cif.got.tgz:177847.got - 2010.06.28 07:06:18.
