data_PCOD8134676
_publ_section_title
;
Structure prediction by ZEFSAII (Michael W. Deem and Ramdas Pophale) SiO2 
 PCOD8134676
Probable space group: C 2/C
;
_chemical_formula_sum "Si O2"
_cell_formula_units_Z 56
_cell_length_a 25.194532
_cell_length_b 5.112226
_cell_length_c 20.049095
_cell_angle_alpha 90.000000
_cell_angle_beta 92.747430
_cell_angle_gamma 90.000000
_cell_volume 2579.357987
_symmetry_space_group_name_H-M "C 2/C"
_symmetry_group_IT_number 15
_symmetry_cell_setting 'monoclinic'
loop_
_space_group_symop_operation_xyz
x,y,z
-x,y,1/2-z
-x,-y,-z
x,-y,1/2+z
1/2+x,1/2+y,z
1/2-x,1/2+y,1/2-z
1/2-x,1/2-y,-z
1/2+x,1/2-y,1/2+z
loop_
_atom_site_type_symbol
_atom_site_label
_atom_site_fract_x
_atom_site_fract_y
_atom_site_fract_z
Si Si1 0.560941 0.488215 0.240569
Si Si2 0.719407 0.000399 0.523348
Si Si3 0.328620 0.068706 0.847638
Si Si4 0.440085 0.495020 0.523854
Si Si5 0.112374 0.067938 0.615425
Si Si6 0.125566 0.513279 0.784329
Si Si7 0.114425 0.504531 0.431998
O O1 0.500000 0.514169 0.250000
O O2 0.563312 0.500093 0.160364
O O3 0.592967 0.722104 0.275453
O O4 0.585434 0.221908 0.269145
O O5 0.750000 0.750000 0.500000
O O6 0.659148 0.000749 0.492076
O O7 0.750000 0.250000 0.500000
O O8 0.720248 0.998481 0.605366
O O9 0.339562 0.376179 0.859539
O O10 0.324703 0.013843 0.766674
O O11 0.375242 0.874865 0.875496
O O12 0.500000 0.500000 0.500000
O O13 0.400003 0.499787 0.460200
O O14 0.426483 0.238027 0.565741
O O15 0.424999 0.747229 0.566473
O O16 0.145105 0.496254 0.862241
#
# Coordination Sequence:
#
# PCOD8134676 Si02
#       7
#     8   8   8   8   8   8   8
#     4  10  21  36  57  87 121 164 218 247 287 372
#     4  12  24  42  69  95 118 163 211 260 325 379
#     4  10  20  42  61  87 121 155 203 249 305 372
#     4  12  24  39  62  93 132 172 208 253 314 367
#     4  10  19  36  60  83 121 167 201 248 298 351
#     4  10  23  39  61  85 123 170 191 259 325 346
#     4  12  25  44  63  94 134 159 214 268 308 379
#
# _framework density 21.710829
#
# number of rings (size 3 to 8) (size 9 to 14) (size 15 to 20)
#    0.000    1.143    2.857    3.429    4.000    0.000 
#    0.000    1.429    0.000    0.000    0.000    0.000 
#    0.000    0.000    0.000    0.000    0.000    0.000 
#
# Total GULP energy -346912.892654 kJ/mol
# GULP energy per Si atom -12389.746166 kJ/mol
# Density = 2.166141 g / cm^3
# Si number density = 21.710829 Si / 1000 Ang^3
#
#
#
# Elastic Constant Matrix: (Units=GPa)
#
#
# Indices 1 2 3 4 5 6 
#
# 1 61.9271 30.1891 21.0830 0.0000 -29.4101 0.0000
# 2 30.1891 170.7240 27.5893 0.0000 -15.0815 0.0000
# 3 21.0830 27.5893 164.7377 0.0000 -33.8371 0.0000
# 4 0.0000 0.0000 0.0000 32.4118 0.0000 -13.5504
# 5 -29.4101 -15.0815 -33.8371 0.0000 37.1630 0.0000
# 6 0.0000 0.0000 0.0000 -13.5504 0.0000 24.5701
#
#
#
# Elastic Compliance Matrix: (Units=1/GPa)
#
#
# Indices 1 2 3 4 5 6 
#
# 1 0.027598 -0.003187 0.001503 0.000000 0.021916 0.000000
# 2 -0.003187 0.006497 -0.000808 0.000000 -0.000621 0.000000
# 3 0.001503 -0.000808 0.007614 0.000000 0.007795 0.000000
# 4 0.000000 0.000000 0.000000 0.040098 0.000000 0.022114
# 5 0.021916 -0.000621 0.007795 0.000000 0.051097 0.000000
# 6 0.000000 0.000000 0.000000 0.022114 0.000000 0.052896
#
#
# Mechanical properties :
#
#
# Convention : Reuss Voigt Hill
#
# Bulk Modulus (GPa) = 27.22875 61.67908 44.45391
# Shear Modulus (GPa) = 24.62745 40.06414 32.34580
#
# Velocity S-wave (km/s) = 3.37165 4.30042 3.86404
# Velocity P-wave (km/s) = 5.26556 7.28897 6.35827
#
# Compressibility (1/GPa) = 0.03672589
#
# Stress axis : x y z
#
# Youngs Moduli (GPa) = 36.23435 153.92572 131.33445
#
# Poissons Ratio (x) = 0.49058 -0.19744
# Poissons Ratio (y) = 0.11548 0.10608
# Poissons Ratio (z) = -0.05447 0.12433
#
# Static dielectric constant tensor:
#      x y z
#    x 3.442770 0.000000 -0.370160 
#    y 0.000000 4.186980 0.000000 
#    z -0.370160 0.000000 4.534490 
# 
# 
# High freq. dielectric constant tensor:
#      x y z
#    x 1.799420 0.000000 -0.032310 
#    y 0.000000 1.879220 0.000000 
#    z -0.032310 0.000000 1.878820 
# 
# From -- ./inp_files/254022.got.cif
#   From: 2010.06.25/outbox.cif.g09.slc.cpg/sg15_128_cif.got.tgz:254022.got - 2010.06.28 07:06:18.
