data_PCOD8134045
_publ_section_title
;
Structure prediction by ZEFSAII (Michael W. Deem and Ramdas Pophale) SiO2 
 PCOD8134045
Probable space group: C 2/C
;
_chemical_formula_sum "Si O2"
_cell_formula_units_Z 40
_cell_length_a 23.131259
_cell_length_b 4.862874
_cell_length_c 19.856414
_cell_angle_alpha 90.000000
_cell_angle_beta 120.830788
_cell_angle_gamma 90.000000
_cell_volume 1917.903689
_symmetry_space_group_name_H-M "C 2/C"
_symmetry_group_IT_number 15
_symmetry_cell_setting 'monoclinic'
loop_
_space_group_symop_operation_xyz
x,y,z
-x,y,1/2-z
-x,-y,-z
x,-y,1/2+z
1/2+x,1/2+y,z
1/2-x,1/2+y,1/2-z
1/2-x,1/2-y,-z
1/2+x,1/2-y,1/2+z
loop_
_atom_site_type_symbol
_atom_site_label
_atom_site_fract_x
_atom_site_fract_y
_atom_site_fract_z
Si Si1 0.664731 0.522239 0.449775
Si Si2 0.704905 0.987163 0.895076
Si Si3 0.208836 0.405418 0.744489
Si Si4 0.915550 0.246318 0.917582
Si Si5 0.066071 0.262981 0.984795
O O1 0.695350 0.326734 0.410718
O O2 0.717750 0.570320 0.542286
O O3 0.597252 0.377491 0.437043
O O4 0.653070 0.814020 0.405294
O O5 0.692363 0.019373 0.808640
O O6 0.237163 0.659133 0.717870
O O7 0.141686 0.286278 0.671444
O O8 0.902579 0.440434 0.975872
O O9 0.918352 0.930819 0.941940
O O10 0.986948 0.314186 0.925057
#
# Coordination Sequence:
#
# PCOD8134045 Si02
#       5
#     8   8   8   8   8
#     4  10  19  35  54  78 111 145 184 225 270 329
#     4  10  21  33  53  82 110 143 185 225 273 337
#     4  12  23  37  58  84 117 149 185 242 298 339
#     4  10  21  36  58  86 111 143 194 235 282 345
#     4  10  20  37  60  82 110 150 190 237 281 333
#
# _framework density 20.856104999999999
#
# number of rings (size 3 to 8) (size 9 to 14) (size 15 to 20)
#    0.000    1.600    0.000    6.000    0.000    3.200 
#    0.000    1.000    0.000    2.400    0.000    0.000 
#    0.000    0.000    0.000    0.000    0.000    0.000 
#
# Total GULP energy -248035.051616 kJ/mol
# GULP energy per Si atom -12401.752581 kJ/mol
# Density = 2.080864 g / cm^3
# Si number density = 20.856105 Si / 1000 Ang^3
#
#
#
# Elastic Constant Matrix: (Units=GPa)
#
#
# Indices 1 2 3 4 5 6 
#
# 1 81.5569 8.9976 37.7184 -0.0009 0.8134 -0.0004
# 2 8.9976 85.5141 15.0314 -0.0020 5.4818 0.0011
# 3 37.7184 15.0314 102.6421 -0.0007 -0.0385 0.0008
# 4 -0.0009 -0.0020 -0.0007 26.6453 -0.0008 -5.4478
# 5 0.8134 5.4818 -0.0385 -0.0008 22.6004 0.0011
# 6 -0.0004 0.0011 0.0008 -5.4478 0.0011 38.2294
#
#
#
# Elastic Compliance Matrix: (Units=1/GPa)
#
#
# Indices 1 2 3 4 5 6 
#
# 1 0.014807 -0.000591 -0.005355 0.000000 -0.000399 0.000000
# 2 -0.000591 0.012222 -0.001574 0.000001 -0.002946 0.000000
# 3 -0.005355 -0.001574 0.011941 0.000000 0.000595 0.000000
# 4 0.000000 0.000001 0.000000 0.038656 0.000001 0.005509
# 5 -0.000399 -0.002946 0.000595 0.000001 0.044977 -0.000001
# 6 0.000000 0.000000 0.000000 0.005509 -0.000001 0.026943
#
#
# Mechanical properties :
#
#
# Convention : Reuss Voigt Hill
#
# Bulk Modulus (GPa) = 41.78775 43.68977 42.73876
# Shear Modulus (GPa) = 28.97510 31.35939 30.16724
#
# Velocity S-wave (km/s) = 3.73136 3.88184 3.80734
# Velocity P-wave (km/s) = 6.21641 6.40978 6.31384
#
# Compressibility (1/GPa) = 0.02393046
#
# Stress axis : x y z
#
# Youngs Moduli (GPa) = 67.53542 81.82219 83.74494
#
# Poissons Ratio (x) = 0.04837 0.44844
# Poissons Ratio (y) = 0.03992 0.13179
# Poissons Ratio (z) = 0.36164 0.12876
#
# Static dielectric constant tensor:
#      x y z
#    x 3.692080 -0.000010 0.025680 
#    y -0.000010 4.037250 0.000000 
#    z 0.025680 0.000000 3.324350 
# 
# 
# High freq. dielectric constant tensor:
#      x y z
#    x 1.808200 0.000000 -0.005800 
#    y 0.000000 1.843420 0.000000 
#    z -0.005800 0.000000 1.780660 
# 
# From -- ./inp_files/217626.got.cif
#   From: 2010.06.25/outbox.cif.g09.slc.cpg/sg15_109_cif.got.tgz:217626.got - 2010.06.28 07:06:18.
