data_PCOD8134817
_publ_section_title
;
Structure prediction by ZEFSAII (Michael W. Deem and Ramdas Pophale) SiO2 
 PCOD8134817
Probable space group: C 2/C
;
_chemical_formula_sum "Si O2"
_cell_formula_units_Z 56
_cell_length_a 19.389949
_cell_length_b 19.300024
_cell_length_c 15.502615
_cell_angle_alpha 90.000000
_cell_angle_beta 151.490933
_cell_angle_gamma 90.000000
_cell_volume 2769.038117
_symmetry_space_group_name_H-M "C 2/C"
_symmetry_group_IT_number 15
_symmetry_cell_setting 'monoclinic'
loop_
_space_group_symop_operation_xyz
x,y,z
-x,y,1/2-z
-x,-y,-z
x,-y,1/2+z
1/2+x,1/2+y,z
1/2-x,1/2+y,1/2-z
1/2-x,1/2-y,-z
1/2+x,1/2-y,1/2+z
loop_
_atom_site_type_symbol
_atom_site_label
_atom_site_fract_x
_atom_site_fract_y
_atom_site_fract_z
Si Si1 0.052308 0.126838 0.152143
Si Si2 0.735754 0.559796 0.735260
Si Si3 0.241540 0.182568 0.210561
Si Si4 0.319723 0.444811 0.960895
Si Si5 0.579881 0.814097 0.087053
Si Si6 0.359164 0.486907 0.188973
Si Si7 0.102669 0.734652 0.792820
O O1 0.181897 0.140231 0.227004
O O2 0.020069 0.195601 0.170966
O O3 0.105471 0.068567 0.277550
O O4 0.909050 0.103255 0.943854
O O5 0.757362 0.498688 0.689271
O O6 0.875329 0.609563 0.894248
O O7 0.732674 0.527102 0.826750
O O8 0.225170 0.134445 0.107892
O O9 0.409875 0.199606 0.403094
O O10 0.154336 0.255220 0.108646
O O11 0.274345 0.464168 0.009168
O O12 0.491440 0.445798 0.138930
O O13 0.636521 0.812279 0.247699
O O14 0.000000 0.696824 0.750000
O O15 0.250000 0.750000 0.000000
#
# Coordination Sequence:
#
# PCOD8134817 Si02
#       7
#     8   8   8   8   8   8   8
#     4  10  19  36  63  89 125 160 197 250 307 368
#     4  11  20  41  64  94 121 166 206 256 308 376
#     4  11  21  43  60  91 121 166 205 256 306 375
#     4  10  21  37  66  94 126 159 214 254 312 362
#     4  11  25  38  65  85 126 169 205 250 322 366
#     4  10  20  36  66  96 120 163 205 261 304 374
#     4  11  22  35  55  89 126 156 201 247 301 379
#
# _framework density 20.223628999999999
#
# number of rings (size 3 to 8) (size 9 to 14) (size 15 to 20)
#    0.000    1.429    2.857    5.143    6.000    0.571 
#    0.000    1.429    0.000    0.000    0.000    0.000 
#    0.000    0.000    0.000    0.000    0.000    0.000 
#
# Total GULP energy -347154.882820 kJ/mol
# GULP energy per Si atom -12398.388672 kJ/mol
# Density = 2.017760 g / cm^3
# Si number density = 20.223629 Si / 1000 Ang^3
#
#
#
# Elastic Constant Matrix: (Units=GPa)
#
#
# Indices 1 2 3 4 5 6 
#
# 1 84.8015 24.0405 23.9083 0.0000 -15.9622 0.0000
# 2 24.0405 76.3212 11.8133 0.0000 -6.6546 0.0000
# 3 23.9083 11.8133 58.5996 0.0000 8.9319 0.0000
# 4 0.0000 0.0000 0.0000 30.1487 0.0000 5.5073
# 5 -15.9622 -6.6546 8.9319 0.0000 39.5458 0.0000
# 6 0.0000 0.0000 0.0000 5.5073 0.0000 23.4936
#
#
#
# Elastic Compliance Matrix: (Units=1/GPa)
#
#
# Indices 1 2 3 4 5 6 
#
# 1 0.016153 -0.003335 -0.007070 0.000000 0.007556 0.000000
# 2 -0.003335 0.014564 -0.001806 0.000000 0.001513 0.000000
# 3 -0.007070 -0.001806 0.021536 0.000000 -0.008022 0.000000
# 4 0.000000 0.000000 0.000000 0.034653 0.000000 -0.008123
# 5 0.007556 0.001513 -0.008022 0.000000 0.030403 0.000000
# 6 0.000000 0.000000 0.000000 -0.008123 0.000000 0.044469
#
#
# Mechanical properties :
#
#
# Convention : Reuss Voigt Hill
#
# Bulk Modulus (GPa) = 35.92951 37.69405 36.81178
# Shear Modulus (GPa) = 25.57841 29.30164 27.44003
#
# Velocity S-wave (km/s) = 3.56023 3.81055 3.68751
# Velocity P-wave (km/s) = 5.89109 6.16761 6.03094
#
# Compressibility (1/GPa) = 0.02783227
#
# Stress axis : x y z
#
# Youngs Moduli (GPa) = 61.90782 68.66038 46.43360
#
# Poissons Ratio (x) = 0.22898 0.32827
# Poissons Ratio (y) = 0.20646 0.08386
# Poissons Ratio (z) = 0.43767 0.12400
#
# Static dielectric constant tensor:
#      x y z
#    x 3.676070 0.000000 -0.171190 
#    y 0.000000 3.777840 0.000000 
#    z -0.171190 0.000000 3.517490 
# 
# 
# High freq. dielectric constant tensor:
#      x y z
#    x 1.786920 0.000000 -0.000990 
#    y 0.000000 1.789070 0.000000 
#    z -0.000990 0.000000 1.766820 
# 
# From -- ./inp_files/57797.got.cif
#   From: 2010.06.25/outbox.cif.g09.slc.cpg/sg15_29_cif.got.tgz:57797.got - 2010.06.28 07:06:18.
