data_PCOD8134071
_publ_section_title
;
Structure prediction by ZEFSAII (Michael W. Deem and Ramdas Pophale) SiO2 
 PCOD8134071
Probable space group: C 2/C
;
_chemical_formula_sum "Si O2"
_cell_formula_units_Z 40
_cell_length_a 12.636710
_cell_length_b 13.902902
_cell_length_c 12.246861
_cell_angle_alpha 90.000000
_cell_angle_beta 68.407276
_cell_angle_gamma 90.000000
_cell_volume 2000.620247
_symmetry_space_group_name_H-M "C 2/C"
_symmetry_group_IT_number 15
_symmetry_cell_setting 'monoclinic'
loop_
_space_group_symop_operation_xyz
x,y,z
-x,y,1/2-z
-x,-y,-z
x,-y,1/2+z
1/2+x,1/2+y,z
1/2-x,1/2+y,1/2-z
1/2-x,1/2-y,-z
1/2+x,1/2-y,1/2+z
loop_
_atom_site_type_symbol
_atom_site_label
_atom_site_fract_x
_atom_site_fract_y
_atom_site_fract_z
Si Si1 0.215440 0.758845 0.695183
Si Si2 0.967974 0.365988 0.147067
Si Si3 0.373785 0.747832 0.830781
Si Si4 0.717132 0.885576 0.014501
Si Si5 0.803044 0.599486 0.525786
O O1 0.092967 0.735737 0.797698
O O2 0.305981 0.786906 0.752193
O O3 0.205115 0.847658 0.614916
O O4 0.256579 0.662860 0.613418
O O5 0.000000 0.421028 0.250000
O O6 0.879920 0.424367 0.103855
O O7 0.086889 0.350468 0.039130
O O8 0.500000 0.718373 0.750000
O O9 0.377019 0.832470 0.918901
O O10 0.314299 0.651951 0.899703
O O11 0.727862 0.000012 0.021281
#
# Coordination Sequence:
#
# PCOD8134071 Si02
#       5
#     8   8   8   8   8
#     4   9  20  34  52  78 108 138 175 217 266 315
#     4   9  18  33  54  80 107 134 170 216 264 311
#     4  10  21  37  53  75 109 144 175 218 265 309
#     4  10  19  35  55  80 107 135 176 223 262 312
#     4  10  21  35  55  82 106 137 182 218 258 316
#
# _framework density 19.993801000000001
#
# number of rings (size 3 to 8) (size 9 to 14) (size 15 to 20)
#    0.000    2.400    0.000    1.800    0.000    7.200 
#    0.000    6.000    0.000    0.000    0.000    0.000 
#    0.000    0.000    0.000    0.000    0.000    0.000 
#
# Total GULP energy -247864.554498 kJ/mol
# GULP energy per Si atom -12393.227725 kJ/mol
# Density = 1.994829 g / cm^3
# Si number density = 19.993801 Si / 1000 Ang^3
#
#
#
# Elastic Constant Matrix: (Units=GPa)
#
#
# Indices 1 2 3 4 5 6 
#
# 1 68.6137 30.4286 34.0399 0.0000 2.6407 0.0000
# 2 30.4286 101.8314 39.2441 0.0000 -5.2875 0.0000
# 3 34.0399 39.2441 84.2795 0.0000 -5.2599 0.0000
# 4 0.0000 0.0000 0.0000 15.6027 0.0000 2.0271
# 5 2.6407 -5.2875 -5.2599 0.0000 45.5200 0.0000
# 6 0.0000 0.0000 0.0000 2.0271 0.0000 13.5833
#
#
#
# Elastic Compliance Matrix: (Units=1/GPa)
#
#
# Indices 1 2 3 4 5 6 
#
# 1 0.019339 -0.003451 -0.006345 0.000000 -0.002256 0.000000
# 2 -0.003451 0.012609 -0.004405 0.000000 0.001156 0.000000
# 3 -0.006345 -0.004405 0.016590 0.000000 0.001773 0.000000
# 4 0.000000 0.000000 0.000000 0.065359 0.000000 -0.009754
# 5 -0.002256 0.001156 0.001773 0.000000 0.022438 0.000000
# 6 0.000000 0.000000 0.000000 -0.009754 0.000000 0.075075
#
#
# Mechanical properties :
#
#
# Convention : Reuss Voigt Hill
#
# Bulk Modulus (GPa) = 49.66223 51.34999 50.50611
# Shear Modulus (GPa) = 20.28193 25.00868 22.64530
#
# Velocity S-wave (km/s) = 3.18844 3.54053 3.36909
# Velocity P-wave (km/s) = 6.20061 6.51556 6.36004
#
# Compressibility (1/GPa) = 0.02013603
#
# Stress axis : x y z
#
# Youngs Moduli (GPa) = 51.70816 79.30794 60.27720
#
# Poissons Ratio (x) = 0.27367 0.38246
# Poissons Ratio (y) = 0.17843 0.26555
# Poissons Ratio (z) = 0.32809 0.34939
#
# Static dielectric constant tensor:
#      x y z
#    x 3.654090 0.000000 0.042970 
#    y 0.000000 3.248250 0.000000 
#    z 0.042970 0.000000 3.918730 
# 
# 
# High freq. dielectric constant tensor:
#      x y z
#    x 1.768320 0.000000 0.005020 
#    y 0.000000 1.742320 0.000000 
#    z 0.005020 0.000000 1.799320 
# 
# From -- ./inp_files/85963.got.cif
#   From: 2010.06.25/outbox.cif.g09.slc.cpg/sg15_43_cif.got.tgz:85963.got - 2010.06.28 07:06:18.
