data_PCOD8134950
_publ_section_title
;
Structure prediction by ZEFSAII (Michael W. Deem and Ramdas Pophale) SiO2 
 PCOD8134950
Probable space group: C 2/C
;
_chemical_formula_sum "Si O2"
_cell_formula_units_Z 56
_cell_length_a 9.338111
_cell_length_b 30.104019
_cell_length_c 21.546771
_cell_angle_alpha 90.000000
_cell_angle_beta 28.635417
_cell_angle_gamma 90.000000
_cell_volume 2902.777644
_symmetry_space_group_name_H-M "C 2/C"
_symmetry_group_IT_number 15
_symmetry_cell_setting 'monoclinic'
loop_
_space_group_symop_operation_xyz
x,y,z
-x,y,1/2-z
-x,-y,-z
x,-y,1/2+z
1/2+x,1/2+y,z
1/2-x,1/2+y,1/2-z
1/2-x,1/2-y,-z
1/2+x,1/2-y,1/2+z
loop_
_atom_site_type_symbol
_atom_site_label
_atom_site_fract_x
_atom_site_fract_y
_atom_site_fract_z
Si Si1 0.810037 0.675482 0.151276
Si Si2 0.155967 0.968355 0.866935
Si Si3 0.717691 0.423216 0.721098
Si Si4 0.349739 0.655987 0.628380
Si Si5 0.846524 0.808862 0.370299
Si Si6 0.326781 0.793151 0.875925
Si Si7 0.399769 0.440519 0.477363
O O1 0.500000 0.699150 0.250000
O O2 0.728461 0.629564 0.214789
O O3 0.966402 0.706739 0.141860
O O4 0.033615 0.667120 0.007763
O O5 0.500000 0.973520 0.750000
O O6 0.076228 0.935611 0.841064
O O7 0.015036 0.946910 0.982389
O O8 0.037753 0.016751 0.891089
O O9 0.500000 0.442247 0.750000
O O10 0.051675 0.442473 0.591274
O O11 0.418549 0.685033 0.663260
O O12 0.531330 0.677066 0.500890
O O13 0.454739 0.605460 0.600537
O O14 0.000000 0.658077 0.750000
O O15 0.749749 0.758103 0.393885
O O16 0.000000 0.829162 0.250000
O O17 0.500000 0.812964 0.750000
#
# Coordination Sequence:
#
# PCOD8134950 Si02
#       7
#     8   8   8   8   8   8   8
#     4  10  20  36  60  84 115 154 198 236 289 348
#     4   9  20  35  58  84 116 150 190 249 290 343
#     4  10  20  35  58  85 115 150 200 237 289 347
#     4  11  22  37  59  87 117 150 200 241 290 356
#     4  10  22  41  56  84 123 155 189 244 300 346
#     4  10  22  37  61  87 114 152 199 243 293 344
#     4  10  19  37  58  82 117 152 193 240 300 341
#
# _framework density 19.291867
#
# number of rings (size 3 to 8) (size 9 to 14) (size 15 to 20)
#    0.000    2.000    2.857    2.143    2.000    4.000 
#    2.571    3.571    0.000    0.000    0.000    0.000 
#    0.000    0.000    0.000    0.000    0.000    0.000 
#
# Total GULP energy -347076.001913 kJ/mol
# GULP energy per Si atom -12395.571497 kJ/mol
# Density = 1.924796 g / cm^3
# Si number density = 19.291867 Si / 1000 Ang^3
#
#
#
# Elastic Constant Matrix: (Units=GPa)
#
#
# Indices 1 2 3 4 5 6 
#
# 1 91.8666 17.5149 59.9171 0.0006 -6.6046 0.0011
# 2 17.5149 82.0084 27.8867 -0.0003 4.9405 -0.0006
# 3 59.9171 27.8867 123.5449 0.0069 5.4025 0.0033
# 4 0.0006 -0.0003 0.0069 32.6900 -0.0003 1.2841
# 5 -6.6046 4.9405 5.4025 -0.0003 35.8415 -0.0021
# 6 0.0011 -0.0006 0.0033 1.2841 -0.0021 20.0971
#
#
#
# Elastic Compliance Matrix: (Units=1/GPa)
#
#
# Indices 1 2 3 4 5 6 
#
# 1 0.016641 -0.001095 -0.008017 0.000001 0.004426 0.000001
# 2 -0.001095 0.013348 -0.002409 0.000001 -0.001679 0.000001
# 3 -0.008017 -0.002409 0.012660 -0.000002 -0.003054 -0.000002
# 4 0.000001 0.000001 -0.000002 0.030667 0.000001 -0.001959
# 5 0.004426 -0.001679 -0.003054 0.000001 0.029408 0.000003
# 6 0.000001 0.000001 -0.000002 -0.001959 0.000003 0.049884
#
#
# Mechanical properties :
#
#
# Convention : Reuss Voigt Hill
#
# Bulk Modulus (GPa) = 50.99986 56.45083 53.72534
# Shear Modulus (GPa) = 27.44479 30.53247 28.98863
#
# Velocity S-wave (km/s) = 3.77584 3.98258 3.88059
# Velocity P-wave (km/s) = 6.74556 7.10443 6.92732
#
# Compressibility (1/GPa) = 0.01960790
#
# Stress axis : x y z
#
# Youngs Moduli (GPa) = 60.09206 74.91863 78.99140
#
# Poissons Ratio (x) = 0.08200 0.63328
# Poissons Ratio (y) = 0.06577 0.19026
# Poissons Ratio (z) = 0.48177 0.18045
#
# Static dielectric constant tensor:
#      x y z
#    x 3.765970 -0.000010 0.027160 
#    y -0.000010 3.440730 0.000020 
#    z 0.027160 0.000020 3.820250 
# 
# 
# High freq. dielectric constant tensor:
#      x y z
#    x 1.739690 0.000000 -0.001250 
#    y 0.000000 1.746100 0.000000 
#    z -0.001250 0.000000 1.753070 
# 
# From -- ./inp_files/234921.got.cif
#   From: 2010.06.25/outbox.cif.g09.slc.cpg/sg15_118_cif.got.tgz:234921.got - 2010.06.28 07:06:18.
