data_PCOD8134414
_publ_section_title
;
Structure prediction by ZEFSAII (Michael W. Deem and Ramdas Pophale) SiO2 
 PCOD8134414
Probable space group: C 2/C
;
_chemical_formula_sum "Si O2"
_cell_formula_units_Z 48
_cell_length_a 28.055541
_cell_length_b 7.308099
_cell_length_c 22.155325
_cell_angle_alpha 90.000000
_cell_angle_beta 27.620434
_cell_angle_gamma 90.000000
_cell_volume 2105.988141
_symmetry_space_group_name_H-M "C 2/C"
_symmetry_group_IT_number 15
_symmetry_cell_setting 'monoclinic'
loop_
_space_group_symop_operation_xyz
x,y,z
-x,y,1/2-z
-x,-y,-z
x,-y,1/2+z
1/2+x,1/2+y,z
1/2-x,1/2+y,1/2-z
1/2-x,1/2-y,-z
1/2+x,1/2-y,1/2+z
loop_
_atom_site_type_symbol
_atom_site_label
_atom_site_fract_x
_atom_site_fract_y
_atom_site_fract_z
Si Si1 0.669899 0.781327 0.276976
Si Si2 0.936751 0.211590 0.402404
Si Si3 0.242293 0.675738 0.198939
Si Si4 0.955556 0.175611 0.516701
Si Si5 0.846253 0.881356 0.887707
Si Si6 0.275449 0.987392 0.075013
O O1 0.679472 0.705385 0.334225
O O2 0.548819 0.819633 0.403040
O O3 0.708033 0.622487 0.191143
O O4 0.734853 0.963069 0.190527
O O5 0.910472 0.141537 0.499572
O O6 0.885519 0.068291 0.411297
O O7 0.887438 0.413581 0.442841
O O8 0.059431 0.216014 0.254082
O O9 0.129912 0.740363 0.344883
O O10 0.286853 0.789629 0.092642
O O11 0.000000 0.000000 0.500000
O O12 0.794420 0.046501 0.907158
O O13 0.750000 0.750000 0.000000
#
# Coordination Sequence:
#
# PCOD8134414 Si02
#       6
#     8   8   8   8   8   8
#     4  12  22  36  59  89 126 169 201 253 310 373
#     4  10  19  35  63  93 121 166 213 254 319 377
#     4  12  23  39  57  91 131 164 207 255 316 380
#     4  12  21  36  60  93 126 162 205 253 314 383
#     4   9  19  36  63  94 115 163 217 261 312 380
#     4  11  21  39  61  89 126 162 209 259 312 376
#
# _framework density 22.792149999999999
#
# number of rings (size 3 to 8) (size 9 to 14) (size 15 to 20)
#    0.000    1.000    6.667    0.500    0.000    0.000 
#    0.000    0.000    0.000    9.000    8.667    0.000 
#    0.000    0.000    0.000    0.000    0.000    0.000 
#
# Total GULP energy -297347.665014 kJ/mol
# GULP energy per Si atom -12389.486042 kJ/mol
# Density = 2.274027 g / cm^3
# Si number density = 22.792150 Si / 1000 Ang^3
#
#
#
# Elastic Constant Matrix: (Units=GPa)
#
#
# Indices 1 2 3 4 5 6 
#
# 1 126.9286 43.4459 6.4178 -0.0817 -6.7164 0.0475
# 2 43.4459 59.5941 -6.9796 0.0991 10.8334 -0.0412
# 3 6.4178 -6.9796 78.5955 0.0948 -21.7973 -0.0515
# 4 -0.0817 0.0991 0.0948 7.8008 -0.0380 9.2852
# 5 -6.7164 10.8334 -21.7973 -0.0380 35.0625 0.0104
# 6 0.0475 -0.0412 -0.0515 9.2852 0.0104 5.1299
#
#
#
# Elastic Compliance Matrix: (Units=1/GPa)
#
#
# Indices 1 2 3 4 5 6 
#
# 1 0.011271 -0.009122 -0.000422 -0.000424 0.004715 0.000577
# 2 -0.009122 0.025161 0.000408 0.000722 -0.009267 -0.000998
# 3 -0.000422 0.000408 0.015390 0.000278 0.009361 -0.000360
# 4 -0.000424 0.000722 0.000278 -0.111012 -0.000311 0.200947
# 5 0.004715 -0.009267 0.009361 -0.000311 0.038106 0.000462
# 6 0.000577 -0.000998 -0.000360 0.200947 0.000462 -0.168800
#
#
# Mechanical properties :
#
#
# Convention : Reuss Voigt Hill
#
# Bulk Modulus (GPa) = 29.80765 38.98738 34.39752
# Shear Modulus (GPa) = -31.16661 24.41424 -3.37618
#
# Velocity S-wave (km/s) = -3.70189 3.27642 -1.21840
# Velocity P-wave (km/s) = 2.27278 5.60857 3.62564
#
# Compressibility (1/GPa) = 0.03354843
#
# Stress axis : x y z
#
# Youngs Moduli (GPa) = 88.72119 39.74371 64.97913
#
# Poissons Ratio (x) = 0.36256 0.02742
# Poissons Ratio (y) = 0.80936 -0.02649
# Poissons Ratio (z) = 0.03745 -0.01620
#
# Static dielectric constant tensor:
#      x y z
#    x 4.274790 -0.001660 -0.657860 
#    y -0.001660 3.855090 -0.000580 
#    z -0.657860 -0.000580 4.251050 
# 
# 
# High freq. dielectric constant tensor:
#      x y z
#    x 1.924560 0.000000 -0.014860 
#    y 0.000000 1.845450 0.000010 
#    z -0.014860 0.000010 1.915700 
# 
# From -- ./inp_files/284153.got.cif
#   From: 2010.06.25/outbox.cif.g09.slc.cpg/sg15_143_cif.got.tgz:284153.got - 2010.06.28 07:06:18.
