data_PCOD8134807
_publ_section_title
;
Structure prediction by ZEFSAII (Michael W. Deem and Ramdas Pophale) SiO2 
 PCOD8134807
Probable space group: C 2/C
;
_chemical_formula_sum "Si O2"
_cell_formula_units_Z 32
_cell_length_a 12.696506
_cell_length_b 19.040575
_cell_length_c 10.458609
_cell_angle_alpha 90.000000
_cell_angle_beta 141.427539
_cell_angle_gamma 90.000000
_cell_volume 1576.439745
_symmetry_space_group_name_H-M "C 2/C"
_symmetry_group_IT_number 15
_symmetry_cell_setting 'monoclinic'
loop_
_space_group_symop_operation_xyz
x,y,z
-x,y,1/2-z
-x,-y,-z
x,-y,1/2+z
1/2+x,1/2+y,z
1/2-x,1/2+y,1/2-z
1/2-x,1/2-y,-z
1/2+x,1/2-y,1/2+z
loop_
_atom_site_type_symbol
_atom_site_label
_atom_site_fract_x
_atom_site_fract_y
_atom_site_fract_z
Si Si1 0.389987 0.981836 0.271932
Si Si2 0.190618 0.895868 0.478813
Si Si3 0.107205 0.725723 0.223498
Si Si4 0.317095 0.853696 0.346882
O O1 0.500000 0.975283 0.250000
O O2 0.300684 0.905726 0.210671
O O3 0.500000 0.000000 0.500000
O O4 0.240747 0.039215 0.117016
O O5 0.227240 0.821110 0.583972
O O6 0.314776 0.900524 0.474160
O O7 0.000000 0.901966 0.250000
O O8 0.163669 0.798278 0.210850
O O9 0.000000 0.741130 0.250000
O O10 0.997235 0.685426 0.013101
#
# Coordination Sequence:
#
# PCOD8134807 Si02
#       4
#     8   8   8   8
#     4  12  23  45  65  90 127 171 208 253 320 375
#     4  11  21  37  65  98 124 159 214 265 305 365
#     4  10  19  36  62  95 126 160 209 262 306 365
#     4  11  21  38  65  91 125 165 210 259 309 368
#
# _framework density 20.298905000000001
#
# number of rings (size 3 to 8) (size 9 to 14) (size 15 to 20)
#    0.000    1.000    5.000    6.000    0.000    1.000 
#    0.000    1.250    0.000    0.000    0.000    0.000 
#    0.000    0.000    0.000    0.000    0.000    0.000 
#
# Total GULP energy -198340.550615 kJ/mol
# GULP energy per Si atom -12396.284413 kJ/mol
# Density = 2.025270 g / cm^3
# Si number density = 20.298905 Si / 1000 Ang^3
#
#
#
# Elastic Constant Matrix: (Units=GPa)
#
#
# Indices 1 2 3 4 5 6 
#
# 1 75.0421 64.6777 32.2352 0.0000 -3.5090 0.0000
# 2 64.6777 174.7918 68.5405 0.0000 4.1551 0.0000
# 3 32.2352 68.5405 110.6073 0.0000 16.1741 0.0000
# 4 0.0000 0.0000 0.0000 30.9381 0.0000 -4.6231
# 5 -3.5090 4.1551 16.1741 0.0000 24.1095 0.0000
# 6 0.0000 0.0000 0.0000 -4.6231 0.0000 43.3757
#
#
#
# Elastic Compliance Matrix: (Units=1/GPa)
#
#
# Indices 1 2 3 4 5 6 
#
# 1 0.020520 -0.006668 -0.002720 0.000000 0.005960 0.000000
# 2 -0.006668 0.009816 -0.004158 0.000000 0.000127 0.000000
# 3 -0.002720 -0.004158 0.013708 0.000000 -0.008875 0.000000
# 4 0.000000 0.000000 0.000000 0.032846 0.000000 0.003501
# 5 0.005960 0.000127 -0.008875 0.000000 0.048277 0.000000
# 6 0.000000 0.000000 0.000000 0.003501 0.000000 0.023427
#
#
# Mechanical properties :
#
#
# Convention : Reuss Voigt Hill
#
# Bulk Modulus (GPa) = 58.98924 76.81645 67.90285
# Shear Modulus (GPa) = 27.57296 32.68384 30.12840
#
# Velocity S-wave (km/s) = 3.68957 4.01699 3.85676
# Velocity P-wave (km/s) = 6.87561 7.70972 7.30458
#
# Compressibility (1/GPa) = 0.01695224
#
# Stress axis : x y z
#
# Youngs Moduli (GPa) = 48.73270 101.87565 72.94976
#
# Poissons Ratio (x) = 0.67932 0.19841
# Poissons Ratio (y) = 0.32496 0.30332
# Poissons Ratio (z) = 0.13255 0.42359
#
# Static dielectric constant tensor:
#      x y z
#    x 3.500100 0.000000 0.072630 
#    y 0.000000 4.141790 0.000000 
#    z 0.072630 0.000000 3.620510 
# 
# 
# High freq. dielectric constant tensor:
#      x y z
#    x 1.752400 0.000000 0.025020 
#    y 0.000000 1.815060 0.000000 
#    z 0.025020 0.000000 1.783430 
# 
# From -- ./inp_files/28602.got.cif
#   From: 2010.06.25/outbox.cif.g09.slc.cpg/sg15_15_cif.got.tgz:28602.got - 2010.06.28 07:06:18.
