data_PCOD8134184
_publ_section_title
;
Structure prediction by ZEFSAII (Michael W. Deem and Ramdas Pophale) SiO2 
 PCOD8134184
Probable space group: C 2/C
;
_chemical_formula_sum "Si O2"
_cell_formula_units_Z 64
_cell_length_a 8.845700
_cell_length_b 24.995208
_cell_length_c 14.361915
_cell_angle_alpha 90.000000
_cell_angle_beta 89.670445
_cell_angle_gamma 90.000000
_cell_volume 3175.368480
_symmetry_space_group_name_H-M "C 2/C"
_symmetry_group_IT_number 15
_symmetry_cell_setting 'monoclinic'
loop_
_space_group_symop_operation_xyz
x,y,z
-x,y,1/2-z
-x,-y,-z
x,-y,1/2+z
1/2+x,1/2+y,z
1/2-x,1/2+y,1/2-z
1/2-x,1/2-y,-z
1/2+x,1/2-y,1/2+z
loop_
_atom_site_type_symbol
_atom_site_label
_atom_site_fract_x
_atom_site_fract_y
_atom_site_fract_z
Si Si1 0.326453 0.459254 0.773942
Si Si2 0.321360 0.300267 0.948510
Si Si3 0.323347 0.492842 0.983050
Si Si4 0.179957 0.159968 0.251291
Si Si5 0.670841 0.893449 0.059762
Si Si6 0.821884 0.800948 0.548587
Si Si7 0.179798 0.399971 0.451274
Si Si8 0.829675 0.564283 0.753112
O O1 0.500000 0.456435 0.750000
O O2 0.293573 0.469864 0.881347
O O3 0.254228 0.401056 0.748478
O O4 0.261746 0.510372 0.718842
O O5 0.265509 0.307587 0.841379
O O6 0.499669 0.293545 0.951274
O O7 0.250000 0.250000 0.000000
O O8 0.274098 0.351818 0.006535
O O9 0.237469 0.548002 0.005423
O O10 0.500000 0.500000 0.000000
O O11 0.242236 0.451723 0.050464
O O12 0.236260 0.190617 0.344440
O O13 0.000000 0.156508 0.250000
O O14 0.496955 0.889725 0.027593
O O15 0.683546 0.887344 0.171678
O O16 0.750000 0.750000 0.500000
O O17 0.778410 0.851037 0.486226
O O18 0.220471 0.408634 0.342987
O O19 0.000000 0.543272 0.750000
#
# Coordination Sequence:
#
# PCOD8134184 Si02
#       8
#     8   8   8   8   8   8   8   8
#     4  10  19  35  57  88 121 158 209 241 297 363
#     4  11  23  43  67  91 118 160 206 251 306 364
#     4  11  21  34  59  91 125 160 201 250 302 362
#     4   9  21  40  63  87 118 160 201 248 301 367
#     4  11  21  39  60  88 123 160 205 246 301 361
#     4  11  24  44  65  90 122 158 207 257 309 362
#     4  10  23  39  59  88 122 163 201 250 303 361
#     4   9  21  38  56  85 126 166 200 243 300 359
#
# _framework density 20.155141
#
# number of rings (size 3 to 8) (size 9 to 14) (size 15 to 20)
#    0.000    1.750    1.250    2.625    5.250    2.000 
#    0.000    7.500    0.000    0.000    0.000    0.000 
#    0.000    0.000    0.000    0.000    0.000    0.000 
#
# Total GULP energy -396651.517085 kJ/mol
# GULP energy per Si atom -12395.359909 kJ/mol
# Density = 2.010927 g / cm^3
# Si number density = 20.155141 Si / 1000 Ang^3
#
#
#
# Elastic Constant Matrix: (Units=GPa)
#
#
# Indices 1 2 3 4 5 6 
#
# 1 63.6221 28.6747 34.2517 0.0000 1.8223 0.0000
# 2 28.6747 138.0947 78.1931 0.0000 3.6138 0.0000
# 3 34.2517 78.1931 114.4891 0.0000 5.4333 0.0000
# 4 0.0000 0.0000 0.0000 32.8654 0.0000 -4.5543
# 5 1.8223 3.6138 5.4333 0.0000 27.7686 0.0000
# 6 0.0000 0.0000 0.0000 -4.5543 0.0000 39.9399
#
#
#
# Elastic Compliance Matrix: (Units=1/GPa)
#
#
# Indices 1 2 3 4 5 6 
#
# 1 0.018852 -0.001176 -0.004830 0.000000 -0.000139 0.000000
# 2 -0.001176 0.011881 -0.007765 0.000000 0.000050 0.000000
# 3 -0.004830 -0.007765 0.015564 0.000000 -0.001718 0.000000
# 4 0.000000 0.000000 0.000000 0.030916 0.000000 0.003525
# 5 -0.000139 0.000050 -0.001718 0.000000 0.036351 0.000000
# 6 0.000000 0.000000 0.000000 0.003525 0.000000 0.025440
#
#
# Mechanical properties :
#
#
# Convention : Reuss Voigt Hill
#
# Bulk Modulus (GPa) = 53.31865 66.49389 59.90627
# Shear Modulus (GPa) = 28.93557 31.78722 30.36139
#
# Velocity S-wave (km/s) = 3.79310 3.97561 3.88543
# Velocity P-wave (km/s) = 6.75981 7.35776 7.06511
#
# Compressibility (1/GPa) = 0.01875516
#
# Stress axis : x y z
#
# Youngs Moduli (GPa) = 53.04412 84.16770 64.24910
#
# Poissons Ratio (x) = 0.09897 0.31035
# Poissons Ratio (y) = 0.06237 0.49890
# Poissons Ratio (z) = 0.25622 0.65357
#
# Static dielectric constant tensor:
#      x y z
#    x 3.534910 0.000000 -0.008750 
#    y 0.000000 3.677240 0.000000 
#    z -0.008750 0.000000 4.066030 
# 
# 
# High freq. dielectric constant tensor:
#      x y z
#    x 1.776740 0.000000 -0.004460 
#    y 0.000000 1.784410 0.000000 
#    z -0.004460 0.000000 1.804480 
# 
# From -- ./inp_files/137824.got.cif
#   From: 2010.06.25/outbox.cif.g09.slc.cpg/sg15_69_cif.got.tgz:137824.got - 2010.06.28 07:06:18.
