data_PCOD8134175
_publ_section_title
;
Structure prediction by ZEFSAII (Michael W. Deem and Ramdas Pophale) SiO2 
 PCOD8134175
Probable space group: C 2/C
;
_chemical_formula_sum "Si O2"
_cell_formula_units_Z 52
_cell_length_a 32.212871
_cell_length_b 16.323204
_cell_length_c 17.137637
_cell_angle_alpha 90.000000
_cell_angle_beta 16.021502
_cell_angle_gamma 90.000000
_cell_volume 2487.091946
_symmetry_space_group_name_H-M "C 2/C"
_symmetry_group_IT_number 15
_symmetry_cell_setting 'monoclinic'
loop_
_space_group_symop_operation_xyz
x,y,z
-x,y,1/2-z
-x,-y,-z
x,-y,1/2+z
1/2+x,1/2+y,z
1/2-x,1/2+y,1/2-z
1/2-x,1/2-y,-z
1/2+x,1/2-y,1/2+z
loop_
_atom_site_type_symbol
_atom_site_label
_atom_site_fract_x
_atom_site_fract_y
_atom_site_fract_z
Si Si1 0.639846 0.617890 0.611631
Si Si2 0.470558 0.146137 0.010249
Si Si3 0.408854 0.961017 0.340727
Si Si4 0.516726 0.858722 0.841987
Si Si5 0.930352 0.990966 0.040862
Si Si6 0.636537 0.323405 0.287384
Si Si7 0.000000 0.762834 0.250000
O O1 0.815305 0.594325 0.299229
O O2 0.582152 0.659678 0.796563
O O3 0.620860 0.678138 0.572476
O O4 0.542844 0.534106 0.775784
O O5 0.553569 0.143650 0.944313
O O6 0.433856 0.239592 0.053702
O O7 0.576107 0.103769 0.756529
O O8 0.500000 0.925551 0.250000
O O9 0.232030 0.966985 0.675940
O O10 0.483143 0.048168 0.186762
O O11 0.683181 0.818580 0.541666
O O12 0.422283 0.799068 0.954139
O O13 0.914504 0.893091 0.058384
O O14 0.000000 0.000000 0.000000
#
# Coordination Sequence:
#
# PCOD8134175 Si02
#       7
#     8   8   8   8   8   8   4
#     4  10  20  34  62  87 109 150 201 244 283 347
#     4  11  20  38  63  87 112 154 205 239 286 355
#     4  11  24  37  59  89 124 154 191 252 303 340
#     4  10  19  35  57  86 114 152 197 245 288 344
#     4   9  21  40  60  80 121 160 189 229 310 363
#     4   9  17  37  59  81 112 157 192 230 292 359
#     4  12  18  30  60  92 114 138 210 256 274 330
#
# _framework density 20.907952999999999
#
# number of rings (size 3 to 8) (size 9 to 14) (size 15 to 20)
#    0.000    1.846    3.846    2.308    2.154    0.000 
#    0.000    3.077    5.077    0.000    0.000    0.000 
#    0.000    0.000    0.000    0.000    0.000    0.000 
#
# Total GULP energy -322220.039801 kJ/mol
# GULP energy per Si atom -12393.078454 kJ/mol
# Density = 2.086037 g / cm^3
# Si number density = 20.907953 Si / 1000 Ang^3
#
#
#
# Elastic Constant Matrix: (Units=GPa)
#
#
# Indices 1 2 3 4 5 6 
#
# 1 108.4654 28.1437 19.2044 0.0023 8.3164 -0.0006
# 2 28.1437 96.7489 34.9215 0.0048 13.0645 -0.0019
# 3 19.2044 34.9215 54.4813 0.0062 -2.8988 -0.0019
# 4 0.0023 0.0048 0.0062 25.0485 -0.0014 2.1476
# 5 8.3164 13.0645 -2.8988 -0.0014 23.5526 -0.0002
# 6 -0.0006 -0.0019 -0.0019 2.1476 -0.0002 34.7202
#
#
#
# Elastic Compliance Matrix: (Units=1/GPa)
#
#
# Indices 1 2 3 4 5 6 
#
# 1 0.010367 -0.001579 -0.002808 0.000000 -0.003130 0.000000
# 2 -0.001579 0.015661 -0.009980 -0.000001 -0.009358 0.000000
# 3 -0.002808 -0.009980 0.026261 -0.000004 0.009760 0.000001
# 4 0.000000 -0.000001 -0.000004 0.040135 0.000002 -0.002482
# 5 -0.003130 -0.009358 0.009760 0.000002 0.049955 0.000000
# 6 0.000000 0.000000 0.000001 -0.002482 0.000000 0.028955
#
#
# Mechanical properties :
#
#
# Convention : Reuss Voigt Hill
#
# Bulk Modulus (GPa) = 42.45583 47.13721 44.79652
# Shear Modulus (GPa) = 24.04759 28.49267 26.27013
#
# Velocity S-wave (km/s) = 3.39509 3.69557 3.54851
# Velocity P-wave (km/s) = 5.97653 6.38778 6.18558
#
# Compressibility (1/GPa) = 0.02355389
#
# Stress axis : x y z
#
# Youngs Moduli (GPa) = 96.46421 63.85174 38.07912
#
# Poissons Ratio (x) = 0.10083 0.10694
# Poissons Ratio (y) = 0.15233 0.38002
# Poissons Ratio (z) = 0.27092 0.63723
#
# Static dielectric constant tensor:
#      x y z
#    x 4.025490 0.000000 -0.041160 
#    y 0.000000 4.261560 0.000010 
#    z -0.041160 0.000010 3.440120 
# 
# 
# High freq. dielectric constant tensor:
#      x y z
#    x 1.821580 0.000000 -0.010480 
#    y 0.000000 1.830920 0.000000 
#    z -0.010480 0.000000 1.756610 
# 
# From -- ./inp_files/182814.got.cif
#   From: 2010.06.25/outbox.cif.g09.slc.cpg/sg15_92_cif.got.tgz:182814.got - 2010.06.28 07:06:18.
