data_PCOD8134867
_publ_section_title
;
Structure prediction by ZEFSAII (Michael W. Deem and Ramdas Pophale) SiO2 
 PCOD8134867
Probable space group: C 2/C
;
_chemical_formula_sum "Si O2"
_cell_formula_units_Z 56
_cell_length_a 17.409481
_cell_length_b 15.635661
_cell_length_c 14.129681
_cell_angle_alpha 90.000000
_cell_angle_beta 47.064505
_cell_angle_gamma 90.000000
_cell_volume 2815.900600
_symmetry_space_group_name_H-M "C 2/C"
_symmetry_group_IT_number 15
_symmetry_cell_setting 'monoclinic'
loop_
_space_group_symop_operation_xyz
x,y,z
-x,y,1/2-z
-x,-y,-z
x,-y,1/2+z
1/2+x,1/2+y,z
1/2-x,1/2+y,1/2-z
1/2-x,1/2-y,-z
1/2+x,1/2-y,1/2+z
loop_
_atom_site_type_symbol
_atom_site_label
_atom_site_fract_x
_atom_site_fract_y
_atom_site_fract_z
Si Si1 0.943953 0.876380 0.587475
Si Si2 0.940836 0.616869 0.392775
Si Si3 0.493111 0.809369 0.481778
Si Si4 0.457134 0.528607 0.887595
Si Si5 0.272637 0.000487 0.481204
Si Si6 0.094128 0.531639 0.805838
Si Si7 0.715484 0.910070 0.835666
O O1 0.996095 0.785449 0.568408
O O2 0.980174 0.903164 0.451220
O O3 0.818060 0.871400 0.699405
O O4 0.986236 0.940680 0.631768
O O5 0.951727 0.691067 0.460988
O O6 0.819476 0.592938 0.474576
O O7 0.000000 0.649548 0.250000
O O8 0.993300 0.530484 0.391657
O O9 0.557162 0.873963 0.362080
O O10 0.371273 0.835332 0.591947
O O11 0.500000 0.561368 0.750000
O O12 0.333515 0.514793 0.985873
O O13 0.357682 0.959997 0.338820
O O14 0.255251 0.936609 0.582551
O O15 0.178286 0.494100 0.809514
#
# Coordination Sequence:
#
# PCOD8134867 Si02
#       7
#     8   8   8   8   8   8   8
#     4  11  26  44  62  89 128 163 211 251 303 375
#     4   9  18  34  64  95 121 152 200 257 308 366
#     4  11  22  40  62  96 129 156 200 265 315 348
#     4  11  24  45  65  82 120 177 210 241 300 379
#     4  11  19  36  68  92 114 167 209 244 299 375
#     4  10  19  36  65  94 124 159 199 246 316 365
#     4  11  20  41  64  91 126 163 202 253 306 371
#
# _framework density 19.887066000000001
#
# number of rings (size 3 to 8) (size 9 to 14) (size 15 to 20)
#    0.000    1.429    5.714    0.857    0.000    1.714 
#    5.143    2.143    0.000    0.000    0.000    0.000 
#    0.000    0.000    0.000    0.000    0.000    0.000 
#
# Total GULP energy -347269.447452 kJ/mol
# GULP energy per Si atom -12402.480266 kJ/mol
# Density = 1.984180 g / cm^3
# Si number density = 19.887066 Si / 1000 Ang^3
#
#
#
# Elastic Constant Matrix: (Units=GPa)
#
#
# Indices 1 2 3 4 5 6 
#
# 1 76.9471 6.0885 10.6538 0.0000 -9.1765 0.0000
# 2 6.0885 73.2911 15.7759 0.0000 -8.7257 0.0000
# 3 10.6538 15.7759 76.5464 0.0000 -1.9190 0.0000
# 4 0.0000 0.0000 0.0000 19.3834 0.0000 -3.3585
# 5 -9.1765 -8.7257 -1.9190 0.0000 42.6731 0.0000
# 6 0.0000 0.0000 0.0000 -3.3585 0.0000 18.2102
#
#
#
# Elastic Compliance Matrix: (Units=1/GPa)
#
#
# Indices 1 2 3 4 5 6 
#
# 1 0.013599 -0.000428 -0.001735 0.000000 0.002759 0.000000
# 2 -0.000428 0.014631 -0.002886 0.000000 0.002770 0.000000
# 3 -0.001735 -0.002886 0.013892 0.000000 -0.000339 0.000000
# 4 0.000000 0.000000 0.000000 0.053293 0.000000 0.009829
# 5 0.002759 0.002770 -0.000339 0.000000 0.024578 0.000000
# 6 0.000000 0.000000 0.000000 0.009829 0.000000 0.056727
#
#
# Mechanical properties :
#
#
# Convention : Reuss Voigt Hill
#
# Bulk Modulus (GPa) = 31.22778 32.42456 31.82617
# Shear Modulus (GPa) = 25.31722 29.00443 27.16082
#
# Velocity S-wave (km/s) = 3.57185 3.82312 3.69962
# Velocity P-wave (km/s) = 5.72254 5.98565 5.85558
#
# Compressibility (1/GPa) = 0.03202277
#
# Stress axis : x y z
#
# Youngs Moduli (GPa) = 73.53442 68.34887 71.98446
#
# Poissons Ratio (x) = 0.02923 0.12492
# Poissons Ratio (y) = 0.03145 0.20778
# Poissons Ratio (z) = 0.12761 0.19728
#
# Static dielectric constant tensor:
#      x y z
#    x 3.777630 0.000000 0.062410 
#    y 0.000000 3.162700 0.000000 
#    z 0.062410 0.000000 3.721210 
# 
# 
# High freq. dielectric constant tensor:
#      x y z
#    x 1.786460 0.000000 0.007810 
#    y 0.000000 1.731200 0.000000 
#    z 0.007810 0.000000 1.789850 
# 
# From -- ./inp_files/162199.got.cif
#   From: 2010.06.25/outbox.cif.g09.slc.cpg/sg15_82_cif.got.tgz:162199.got - 2010.06.28 07:06:18.
