data_PCOD8134521
_publ_section_title
;
Structure prediction by ZEFSAII (Michael W. Deem and Ramdas Pophale) SiO2 
 PCOD8134521
Probable space group: C 2/C
;
_chemical_formula_sum "Si O2"
_cell_formula_units_Z 56
_cell_length_a 17.876892
_cell_length_b 20.339836
_cell_length_c 9.547611
_cell_angle_alpha 90.000000
_cell_angle_beta 62.226361
_cell_angle_gamma 90.000000
_cell_volume 3071.687744
_symmetry_space_group_name_H-M "C 2/C"
_symmetry_group_IT_number 15
_symmetry_cell_setting 'monoclinic'
loop_
_space_group_symop_operation_xyz
x,y,z
-x,y,1/2-z
-x,-y,-z
x,-y,1/2+z
1/2+x,1/2+y,z
1/2-x,1/2+y,1/2-z
1/2-x,1/2-y,-z
1/2+x,1/2-y,1/2+z
loop_
_atom_site_type_symbol
_atom_site_label
_atom_site_fract_x
_atom_site_fract_y
_atom_site_fract_z
Si Si1 0.311243 0.791265 0.615779
Si Si2 0.409273 0.238107 0.759166
Si Si3 0.654863 0.623011 0.644365
Si Si4 0.439314 0.508348 0.183071
Si Si5 0.839526 0.867459 0.693293
Si Si6 0.192734 0.311847 0.376631
Si Si7 0.408923 0.762368 0.777615
O O1 0.337620 0.765046 0.441291
O O2 0.254286 0.857306 0.657937
O O3 0.250777 0.741388 0.750197
O O4 0.393631 0.800013 0.643089
O O5 0.500000 0.225604 0.750000
O O6 0.404055 0.309036 0.686002
O O7 0.386383 0.180290 0.664032
O O8 0.606871 0.558734 0.736188
O O9 0.664905 0.627172 0.469612
O O10 0.747847 0.625309 0.639758
O O11 0.597074 0.684175 0.743971
O O12 0.500000 0.534163 0.250000
O O13 0.368556 0.562895 0.225187
O O14 0.500000 0.500000 0.000000
O O15 0.161955 0.283243 0.550287
O O16 0.500000 0.784317 0.750000
#
# Coordination Sequence:
#
# PCOD8134521 Si02
#       7
#     8   8   8   8   8   8   8
#     4  10  20  34  55  84 112 150 190 232 289 348
#     4  11  22  35  56  90 121 146 181 241 301 341
#     4  11  21  38  57  79 115 158 194 231 277 347
#     4  12  26  39  57  85 118 157 203 237 272 332
#     4  11  21  39  56  77 119 157 191 232 279 344
#     4  10  19  36  57  80 111 152 194 230 286 354
#     4  11  19  31  59  86 112 145 187 239 292 340
#
# _framework density 18.231020000000001
#
# number of rings (size 3 to 8) (size 9 to 14) (size 15 to 20)
#    0.000    1.143    5.714    4.286    0.000    4.571 
#    0.000    0.000    0.000    0.000    0.000    6.000 
#    0.000    0.000    0.000    0.000    0.000    0.000 
#
# Total GULP energy -346947.964240 kJ/mol
# GULP energy per Si atom -12390.998723 kJ/mol
# Density = 1.818953 g / cm^3
# Si number density = 18.231020 Si / 1000 Ang^3
#
#
#
# Elastic Constant Matrix: (Units=GPa)
#
#
# Indices 1 2 3 4 5 6 
#
# 1 133.5308 42.8601 20.3783 0.0000 15.4930 0.0000
# 2 42.8601 65.3917 36.4103 0.0000 -3.2162 0.0000
# 3 20.3783 36.4103 101.0525 0.0000 11.6718 0.0000
# 4 0.0000 0.0000 0.0000 22.2462 0.0000 -1.5250
# 5 15.4930 -3.2162 11.6718 0.0000 32.5892 0.0000
# 6 0.0000 0.0000 0.0000 -1.5250 0.0000 31.6031
#
#
#
# Elastic Compliance Matrix: (Units=1/GPa)
#
#
# Indices 1 2 3 4 5 6 
#
# 1 0.010600 -0.008109 0.001522 0.000000 -0.006385 0.000000
# 2 -0.008109 0.026001 -0.008841 0.000000 0.009587 0.000000
# 3 0.001522 -0.008841 0.013518 0.000000 -0.006437 0.000000
# 4 0.000000 0.000000 0.000000 0.045101 0.000000 0.002176
# 5 -0.006385 0.009587 -0.006437 0.000000 0.036972 0.000000
# 6 0.000000 0.000000 0.000000 0.002176 0.000000 0.031748
#
#
# Mechanical properties :
#
#
# Convention : Reuss Voigt Hill
#
# Bulk Modulus (GPa) = 51.91215 55.47472 53.69343
# Shear Modulus (GPa) = 24.84875 30.64278 27.74576
#
# Velocity S-wave (km/s) = 3.69588 4.10421 3.90538
# Velocity P-wave (km/s) = 6.83733 7.27696 7.06057
#
# Compressibility (1/GPa) = 0.01926331
#
# Stress axis : x y z
#
# Youngs Moduli (GPa) = 94.33705 38.45934 73.97582
#
# Poissons Ratio (x) = 0.31187 -0.11256
# Poissons Ratio (y) = 0.76498 0.65400
# Poissons Ratio (z) = -0.14354 0.34001
#
# Static dielectric constant tensor:
#      x y z
#    x 4.248310 0.000000 0.276480 
#    y 0.000000 3.577960 0.000000 
#    z 0.276480 0.000000 3.528510 
# 
# 
# High freq. dielectric constant tensor:
#      x y z
#    x 1.731900 0.000000 0.016140 
#    y 0.000000 1.648730 0.000000 
#    z 0.016140 0.000000 1.720120 
# 
# From -- ./inp_files/50102.got.cif
#   From: 2010.06.25/outbox.cif.g09.slc.cpg/sg15_26_cif.got.tgz:50102.got - 2010.06.28 07:06:18.
