data_PCOD8134845
_publ_section_title
;
Structure prediction by ZEFSAII (Michael W. Deem and Ramdas Pophale) SiO2 
 PCOD8134845
Probable space group: C 2/C
;
_chemical_formula_sum "Si O2"
_cell_formula_units_Z 64
_cell_length_a 9.624388
_cell_length_b 20.280187
_cell_length_c 23.841838
_cell_angle_alpha 90.000000
_cell_angle_beta 134.227686
_cell_angle_gamma 90.000000
_cell_volume 3334.614562
_symmetry_space_group_name_H-M "C 2/C"
_symmetry_group_IT_number 15
_symmetry_cell_setting 'monoclinic'
loop_
_space_group_symop_operation_xyz
x,y,z
-x,y,1/2-z
-x,-y,-z
x,-y,1/2+z
1/2+x,1/2+y,z
1/2-x,1/2+y,1/2-z
1/2-x,1/2-y,-z
1/2+x,1/2-y,1/2+z
loop_
_atom_site_type_symbol
_atom_site_label
_atom_site_fract_x
_atom_site_fract_y
_atom_site_fract_z
Si Si1 0.725849 0.998829 0.072137
Si Si2 0.444496 0.626653 0.114450
Si Si3 0.497349 0.763029 0.315135
Si Si4 0.360058 0.663469 0.763230
Si Si5 0.257791 0.374570 0.444106
Si Si6 0.694604 0.037332 0.275389
Si Si7 0.884335 0.453320 0.345636
Si Si8 0.048644 0.920021 0.110837
O O1 0.750876 0.960413 0.137682
O O2 0.844451 0.959528 0.057645
O O3 0.799464 0.073109 0.099656
O O4 0.500000 0.000000 0.000000
O O5 0.431503 0.690078 0.150325
O O6 0.660976 0.598307 0.177783
O O7 0.381525 0.645379 0.033505
O O8 0.500000 0.777616 0.250000
O O9 0.271468 0.770839 0.269814
O O10 0.639916 0.812388 0.387906
O O11 0.500000 0.672377 0.750000
O O12 0.204868 0.605809 0.713985
O O13 0.466415 0.643584 0.851541
O O14 0.415909 0.396717 0.442484
O O15 0.111543 0.434765 0.420181
O O16 0.500000 0.060273 0.250000
O O17 0.638508 0.021353 0.195156
O O18 0.778906 0.970610 0.326357
#
# Coordination Sequence:
#
# PCOD8134845 Si02
#       8
#     8   8   8   8   8   8   8   8
#     4  11  22  38  59  94 129 160 194 251 321 371
#     4  11  26  38  61  93 129 163 200 249 322 369
#     4  11  24  41  65  88 117 167 214 257 301 359
#     4  10  19  36  64  89 112 153 212 266 285 352
#     4  11  21  42  65  86 123 162 210 255 295 369
#     4  10  21  36  59  90 128 159 198 251 306 368
#     4  10  20  34  61  89 121 159 202 251 304 357
#     4  10  20  35  62  94 117 154 211 247 300 361
#
# _framework density 19.192623999999999
#
# number of rings (size 3 to 8) (size 9 to 14) (size 15 to 20)
#    0.000    1.500    5.000    0.375    1.750    3.500 
#    0.000    0.000    2.750    1.500    0.000    0.000 
#    0.000    0.000    0.000    0.000    0.000    0.000 
#
# Total GULP energy -396658.172609 kJ/mol
# GULP energy per Si atom -12395.567894 kJ/mol
# Density = 1.914894 g / cm^3
# Si number density = 19.192624 Si / 1000 Ang^3
#
#
#
# Elastic Constant Matrix: (Units=GPa)
#
#
# Indices 1 2 3 4 5 6 
#
# 1 129.8167 34.1667 26.1730 0.0000 12.9283 0.0000
# 2 34.1667 85.8649 28.9227 0.0000 9.6619 0.0000
# 3 26.1730 28.9227 70.4273 0.0000 11.1907 -0.0001
# 4 0.0000 0.0000 0.0000 26.5420 0.0000 -4.2474
# 5 12.9283 9.6619 11.1907 0.0000 36.2056 0.0000
# 6 0.0000 0.0000 -0.0001 -4.2474 0.0000 17.6737
#
#
#
# Elastic Compliance Matrix: (Units=1/GPa)
#
#
# Indices 1 2 3 4 5 6 
#
# 1 0.008995 -0.002718 -0.001926 0.000000 -0.001891 0.000000
# 2 -0.002718 0.014475 -0.004706 0.000000 -0.001438 0.000000
# 3 -0.001926 -0.004706 0.017393 0.000000 -0.003432 0.000000
# 4 0.000000 0.000000 0.000000 0.039183 0.000000 0.009417
# 5 -0.001891 -0.001438 -0.003432 0.000000 0.029740 0.000000
# 6 0.000000 0.000000 0.000000 0.009417 0.000000 0.058844
#
#
# Mechanical properties :
#
#
# Convention : Reuss Voigt Hill
#
# Bulk Modulus (GPa) = 45.12044 51.62598 48.37321
# Shear Modulus (GPa) = 25.67827 29.20734 27.44281
#
# Velocity S-wave (km/s) = 3.66173 3.90526 3.78545
# Velocity P-wave (km/s) = 6.43724 6.87692 6.66071
#
# Compressibility (1/GPa) = 0.02216291
#
# Stress axis : x y z
#
# Youngs Moduli (GPa) = 111.17094 69.08700 57.49475
#
# Poissons Ratio (x) = 0.18775 0.11075
# Poissons Ratio (y) = 0.30212 0.27057
# Poissons Ratio (z) = 0.21415 0.32512
#
# Static dielectric constant tensor:
#      x y z
#    x 4.262470 0.000000 -0.243800 
#    y 0.000000 3.391270 0.000000 
#    z -0.243800 0.000000 3.633100 
# 
# 
# High freq. dielectric constant tensor:
#      x y z
#    x 1.755840 0.000000 -0.002430 
#    y 0.000000 1.723890 0.000000 
#    z -0.002430 0.000000 1.743570 
# 
# From -- ./inp_files/266148.got.cif
#   From: 2010.06.25/outbox.cif.g09.slc.cpg/sg15_134_cif.got.tgz:266148.got - 2010.06.28 07:06:18.
