data_PCOD8134026
_publ_section_title
;
Structure prediction by ZEFSAII (Michael W. Deem and Ramdas Pophale) SiO2 
 PCOD8134026
Probable space group: C 2/C
;
_chemical_formula_sum "Si O2"
_cell_formula_units_Z 60
_cell_length_a 8.878786
_cell_length_b 25.652491
_cell_length_c 14.744983
_cell_angle_alpha 90.000000
_cell_angle_beta 76.803469
_cell_angle_gamma 90.000000
_cell_volume 3269.676075
_symmetry_space_group_name_H-M "C 2/C"
_symmetry_group_IT_number 15
_symmetry_cell_setting 'monoclinic'
loop_
_space_group_symop_operation_xyz
x,y,z
-x,y,1/2-z
-x,-y,-z
x,-y,1/2+z
1/2+x,1/2+y,z
1/2-x,1/2+y,1/2-z
1/2-x,1/2-y,-z
1/2+x,1/2-y,1/2+z
loop_
_atom_site_type_symbol
_atom_site_label
_atom_site_fract_x
_atom_site_fract_y
_atom_site_fract_z
Si Si1 0.827057 0.391452 0.237298
Si Si2 0.778876 0.695526 0.396061
Si Si3 0.859605 0.970968 0.334277
Si Si4 0.708904 0.416471 0.713098
Si Si5 0.000000 0.625526 0.250000
Si Si6 0.007268 0.872457 0.884257
Si Si7 0.541083 0.393728 0.407885
Si Si8 0.289900 0.685385 0.890618
O O1 0.795556 0.441740 0.178061
O O2 0.709092 0.394539 0.338303
O O3 0.809226 0.339986 0.177150
O O4 0.000000 0.393737 0.250000
O O5 0.605858 0.680554 0.384616
O O6 0.797963 0.683913 0.500447
O O7 0.816686 0.754344 0.362904
O O8 0.903482 0.660114 0.331057
O O9 0.927504 0.944888 0.416535
O O10 0.000000 0.955720 0.250000
O O11 0.824401 0.032129 0.342290
O O12 0.890849 0.411037 0.703661
O O13 0.620040 0.416836 0.822777
O O14 0.639117 0.367329 0.664708
O O15 0.933888 0.889765 0.988760
O O16 0.453588 0.344036 0.376095
#
# Coordination Sequence:
#
# PCOD8134026 Si02
#       8
#     8   8   8   8   4   8   8   8
#     4  10  21  34  52  82 109 138 173 234 264 311
#     4   9  19  35  57  81 103 144 176 223 260 322
#     4   9  17  34  54  75 102 141 181 213 268 319
#     4  10  19  35  53  77 108 147 172 223 264 316
#     4  10  22  32  52  80 110 142 178 218 268 316
#     4   9  18  35  55  78 109 136 185 218 256 317
#     4   9  19  34  58  81 102 141 182 219 266 322
#     4   9  18  37  58  75 110 140 180 213 273 319
#
# _framework density 18.350442000000001
#
# number of rings (size 3 to 8) (size 9 to 14) (size 15 to 20)
#    0.000    2.667    1.333    1.200    2.800    1.600 
#    4.800    0.000    0.000    8.800    0.000    0.000 
#    0.000    0.000    0.000    0.000    0.000    0.000 
#
# Total GULP energy -371657.658813 kJ/mol
# GULP energy per Si atom -12388.588627 kJ/mol
# Density = 1.830868 g / cm^3
# Si number density = 18.350442 Si / 1000 Ang^3
#
#
#
# Elastic Constant Matrix: (Units=GPa)
#
#
# Indices 1 2 3 4 5 6 
#
# 1 141.8535 39.3821 40.9409 0.0000 12.7961 0.0000
# 2 39.3821 92.4872 24.4549 0.0000 2.5776 0.0000
# 3 40.9409 24.4549 79.1731 0.0000 4.6519 0.0000
# 4 0.0000 0.0000 0.0000 20.2846 0.0000 -0.8251
# 5 12.7961 2.5776 4.6519 0.0000 21.0189 0.0000
# 6 0.0000 0.0000 0.0000 -0.8251 0.0000 14.9725
#
#
#
# Elastic Compliance Matrix: (Units=1/GPa)
#
#
# Indices 1 2 3 4 5 6 
#
# 1 0.009310 -0.002870 -0.003663 0.000000 -0.004505 0.000000
# 2 -0.002870 0.012667 -0.002472 0.000000 0.000741 0.000000
# 3 -0.003663 -0.002472 0.015339 0.000000 -0.000862 0.000000
# 4 0.000000 0.000000 0.000000 0.049409 0.000000 0.002723
# 5 -0.004505 0.000741 -0.000862 0.000000 0.050419 0.000000
# 6 0.000000 0.000000 0.000000 0.002723 0.000000 0.066939
#
#
# Mechanical properties :
#
#
# Convention : Reuss Voigt Hill
#
# Bulk Modulus (GPa) = 51.79779 58.11884 54.95832
# Shear Modulus (GPa) = 21.87907 25.17094 23.52501
#
# Velocity S-wave (km/s) = 3.45670 3.70764 3.58437
# Velocity P-wave (km/s) = 6.64981 7.07596 6.86619
#
# Compressibility (1/GPa) = 0.01930584
#
# Stress axis : x y z
#
# Youngs Moduli (GPa) = 107.41202 78.94240 65.19376
#
# Poissons Ratio (x) = 0.22658 0.23880
# Poissons Ratio (y) = 0.30829 0.16116
# Poissons Ratio (z) = 0.39345 0.19515
#
# Static dielectric constant tensor:
#      x y z
#    x 3.377930 0.000000 0.093670 
#    y 0.000000 3.321920 0.000000 
#    z 0.093670 0.000000 3.416460 
# 
# 
# High freq. dielectric constant tensor:
#      x y z
#    x 1.700660 0.000000 0.007880 
#    y 0.000000 1.698710 0.000000 
#    z 0.007880 0.000000 1.711550 
# 
# From -- ./inp_files/138241.got.cif
#   From: 2010.06.25/outbox.cif.g09.slc.cpg/sg15_70_cif.got.tgz:138241.got - 2010.06.28 07:06:18.
