data_PCOD8134718
_publ_section_title
;
Structure prediction by ZEFSAII (Michael W. Deem and Ramdas Pophale) SiO2 
 PCOD8134718
Probable space group: C 2/C
;
_chemical_formula_sum "Si O2"
_cell_formula_units_Z 52
_cell_length_a 15.110129
_cell_length_b 8.268815
_cell_length_c 22.627759
_cell_angle_alpha 90.000000
_cell_angle_beta 125.735124
_cell_angle_gamma 90.000000
_cell_volume 2294.892041
_symmetry_space_group_name_H-M "C 2/C"
_symmetry_group_IT_number 15
_symmetry_cell_setting 'monoclinic'
loop_
_space_group_symop_operation_xyz
x,y,z
-x,y,1/2-z
-x,-y,-z
x,-y,1/2+z
1/2+x,1/2+y,z
1/2-x,1/2+y,1/2-z
1/2-x,1/2-y,-z
1/2+x,1/2-y,1/2+z
loop_
_atom_site_type_symbol
_atom_site_label
_atom_site_fract_x
_atom_site_fract_y
_atom_site_fract_z
Si Si1 0.283274 0.423056 0.140583
Si Si2 0.660825 0.558883 0.456777
Si Si3 0.068591 0.649561 0.868212
Si Si4 0.500000 0.604861 0.250000
Si Si5 0.055306 0.548647 0.082661
Si Si6 0.954167 0.929891 0.420993
Si Si7 0.258291 0.952911 0.618864
O O1 0.268674 0.480269 0.067595
O O2 0.392883 0.493283 0.211951
O O3 0.179686 0.490660 0.135387
O O4 0.286524 0.230593 0.143282
O O5 0.655009 0.755381 0.445648
O O6 0.533532 0.499386 0.401315
O O7 0.708952 0.487876 0.535140
O O8 0.130317 0.555662 0.838694
O O9 0.996891 0.784533 0.807513
O O10 0.001418 0.527210 0.882077
O O11 0.044514 0.738824 0.082258
O O12 0.000000 0.500000 0.000000
O O13 0.828354 0.988331 0.365397
O O14 0.000000 0.000000 0.500000
#
# Coordination Sequence:
#
# PCOD8134718 Si02
#       7
#     8   8   8   4   8   8   8
#     4  11  23  41  65  91 131 170 216 265 312 392
#     4  10  19  36  60  96 132 163 204 268 331 382
#     4  11  23  41  65  90 130 171 217 269 317 394
#     4  10  26  48  60  86 126 184 230 258 312 378
#     4  12  22  39  68 104 130 163 208 273 343 383
#     4  10  20  34  57  95 136 161 197 253 326 401
#     4  11  20  36  63  97 126 166 210 270 332 376
#
# _framework density 22.659018
#
# number of rings (size 3 to 8) (size 9 to 14) (size 15 to 20)
#    0.000    1.231    0.000    9.231    0.000    0.615 
#    0.000    9.231    0.000    0.000    0.000    0.000 
#    0.000    0.000    0.000    0.000    0.000    0.000 
#
# Total GULP energy -322298.254751 kJ/mol
# GULP energy per Si atom -12396.086721 kJ/mol
# Density = 2.260744 g / cm^3
# Si number density = 22.659018 Si / 1000 Ang^3
#
#
#
# Elastic Constant Matrix: (Units=GPa)
#
#
# Indices 1 2 3 4 5 6 
#
# 1 103.4057 42.7044 0.8257 0.0000 22.8852 0.0000
# 2 42.7044 185.8872 20.2109 0.0000 6.3113 0.0000
# 3 0.8257 20.2109 61.1991 0.0000 11.1217 0.0000
# 4 0.0000 0.0000 0.0000 29.0972 0.0000 6.5777
# 5 22.8852 6.3113 11.1217 0.0000 27.1442 0.0000
# 6 0.0000 0.0000 0.0000 6.5777 0.0000 37.0013
#
#
#
# Elastic Compliance Matrix: (Units=1/GPa)
#
#
# Indices 1 2 3 4 5 6 
#
# 1 0.013539 -0.003030 0.002987 0.000000 -0.011934 0.000000
# 2 -0.003030 0.006267 -0.002407 0.000000 0.002084 0.000000
# 3 0.002987 -0.002407 0.018855 0.000000 -0.009684 0.000000
# 4 0.000000 0.000000 0.000000 0.035806 0.000000 -0.006365
# 5 -0.011934 0.002084 -0.009684 0.000000 0.050385 0.000000
# 6 0.000000 0.000000 0.000000 -0.006365 0.000000 0.028158
#
#
# Mechanical properties :
#
#
# Convention : Reuss Voigt Hill
#
# Bulk Modulus (GPa) = 29.62132 53.10823 41.36477
# Shear Modulus (GPa) = 29.55710 37.76528 33.66119
#
# Velocity S-wave (km/s) = 3.61561 4.08693 3.85847
# Velocity P-wave (km/s) = 5.52550 6.76458 6.17619
#
# Compressibility (1/GPa) = 0.03375947
#
# Stress axis : x y z
#
# Youngs Moduli (GPa) = 73.85892 159.57394 53.03735
#
# Poissons Ratio (x) = 0.48350 -0.15841
# Poissons Ratio (y) = 0.22379 0.12768
# Poissons Ratio (z) = -0.22060 0.38416
#
# Static dielectric constant tensor:
#      x y z
#    x 4.919650 0.000000 0.474740 
#    y 0.000000 4.223550 0.000000 
#    z 0.474740 0.000000 3.801980 
# 
# 
# High freq. dielectric constant tensor:
#      x y z
#    x 1.912530 0.000000 0.018360 
#    y 0.000000 1.913170 0.000000 
#    z 0.018360 0.000000 1.862640 
# 
# From -- ./inp_files/295278.got.cif
#   From: 2010.06.25/outbox.cif.g09.slc.cpg/sg15_148_cif.got.tgz:295278.got - 2010.06.28 07:06:18.
