data_PCOD8134267
_publ_section_title
;
Structure prediction by ZEFSAII (Michael W. Deem and Ramdas Pophale) SiO2 
 PCOD8134267
Probable space group: C 2/C
;
_chemical_formula_sum "Si O2"
_cell_formula_units_Z 56
_cell_length_a 18.180671
_cell_length_b 11.582382
_cell_length_c 15.572839
_cell_angle_alpha 90.000000
_cell_angle_beta 114.759008
_cell_angle_gamma 90.000000
_cell_volume 2977.819880
_symmetry_space_group_name_H-M "C 2/C"
_symmetry_group_IT_number 15
_symmetry_cell_setting 'monoclinic'
loop_
_space_group_symop_operation_xyz
x,y,z
-x,y,1/2-z
-x,-y,-z
x,-y,1/2+z
1/2+x,1/2+y,z
1/2-x,1/2+y,1/2-z
1/2-x,1/2-y,-z
1/2+x,1/2-y,1/2+z
loop_
_atom_site_type_symbol
_atom_site_label
_atom_site_fract_x
_atom_site_fract_y
_atom_site_fract_z
Si Si1 0.593593 0.461991 0.311886
Si Si2 0.483519 0.361965 0.492496
Si Si3 0.194634 0.356102 0.865011
Si Si4 0.839114 0.812731 0.296119
Si Si5 0.364472 0.703301 0.521342
Si Si6 0.129370 0.178937 0.413978
Si Si7 0.272915 0.878960 0.109126
O O1 0.500000 0.429700 0.250000
O O2 0.654813 0.414956 0.270257
O O3 0.619416 0.412984 0.417090
O O4 0.609530 0.598560 0.322602
O O5 0.500000 0.500000 0.500000
O O6 0.420002 0.320638 0.390656
O O7 0.564371 0.288495 0.513853
O O8 0.451946 0.318349 0.568979
O O9 0.165841 0.308232 0.758115
O O10 0.135770 0.312101 0.913144
O O11 0.193327 0.493289 0.860825
O O12 0.282750 0.304177 0.927103
O O13 0.760239 0.829538 0.316805
O O14 0.202547 0.123473 0.504200
O O15 0.151679 0.303982 0.388040
#
# Coordination Sequence:
#
# PCOD8134267 Si02
#       7
#     8   8   8   8   8   8   8
#     4  11  18  33  58  89 112 139 195 256 286 330
#     4  11  18  37  61  90 111 148 197 253 291 335
#     4  10  21  36  56  86 120 151 188 237 287 361
#     4  10  22  33  60  88 113 151 196 241 295 337
#     4  10  19  35  59  85 112 150 191 234 296 342
#     4  10  21  35  60  83 114 150 194 238 300 338
#     4  10  21  40  54  81 119 156 187 239 290 357
#
# _framework density 18.805705
#
# number of rings (size 3 to 8) (size 9 to 14) (size 15 to 20)
#    0.000    1.714    4.286    0.857    2.000    0.000 
#    0.000    0.714    3.143    0.000    0.000    0.000 
#    0.000    0.000    0.000    0.000    0.000    0.000 
#
# Total GULP energy -347137.246448 kJ/mol
# GULP energy per Si atom -12397.758802 kJ/mol
# Density = 1.876290 g / cm^3
# Si number density = 18.805705 Si / 1000 Ang^3
#
#
#
# Elastic Constant Matrix: (Units=GPa)
#
#
# Indices 1 2 3 4 5 6 
#
# 1 132.2780 58.1352 26.1632 0.0000 -28.6198 0.0000
# 2 58.1352 131.0501 40.7220 0.0000 -15.3286 0.0000
# 3 26.1632 40.7220 68.9650 0.0000 -6.6294 0.0000
# 4 0.0000 0.0000 0.0000 30.6305 0.0000 0.8617
# 5 -28.6198 -15.3286 -6.6294 0.0000 29.5376 0.0000
# 6 0.0000 0.0000 0.0000 0.8617 0.0000 26.1668
#
#
#
# Elastic Compliance Matrix: (Units=1/GPa)
#
#
# Indices 1 2 3 4 5 6 
#
# 1 0.011294 -0.003567 -0.001333 0.000000 0.008792 0.000000
# 2 -0.003567 0.010883 -0.004969 0.000000 0.001076 0.000000
# 3 -0.001333 -0.004969 0.017955 0.000000 0.000160 0.000000
# 4 0.000000 0.000000 0.000000 0.032677 0.000000 -0.001076
# 5 0.008792 0.001076 0.000160 0.000000 0.042969 0.000000
# 6 0.000000 0.000000 0.000000 -0.001076 0.000000 0.038252
#
#
# Mechanical properties :
#
#
# Convention : Reuss Voigt Hill
#
# Bulk Modulus (GPa) = 49.03667 64.70374 56.87021
# Shear Modulus (GPa) = 27.69053 31.08515 29.38784
#
# Velocity S-wave (km/s) = 3.84142 4.07008 3.95740
# Velocity P-wave (km/s) = 6.76811 7.52120 7.15457
#
# Compressibility (1/GPa) = 0.02039290
#
# Stress axis : x y z
#
# Youngs Moduli (GPa) = 88.54570 91.88427 55.69344
#
# Poissons Ratio (x) = 0.32779 0.07423
# Poissons Ratio (y) = 0.31588 0.27677
# Poissons Ratio (z) = 0.11802 0.45662
#
# Static dielectric constant tensor:
#      x y z
#    x 3.654960 0.000000 -0.214450 
#    y 0.000000 3.289980 0.000000 
#    z -0.214450 0.000000 3.527940 
# 
# 
# High freq. dielectric constant tensor:
#      x y z
#    x 1.731040 0.000000 -0.011950 
#    y 0.000000 1.709290 0.000000 
#    z -0.011950 0.000000 1.730210 
# 
# From -- ./inp_files/160989.got.cif
#   From: 2010.06.25/outbox.cif.g09.slc.cpg/sg15_81_cif.got.tgz:160989.got - 2010.06.28 07:06:18.
