data_PCOD8134901
_publ_section_title
;
Structure prediction by ZEFSAII (Michael W. Deem and Ramdas Pophale) SiO2 
 PCOD8134901
Probable space group: C 2/C
;
_chemical_formula_sum "Si O2"
_cell_formula_units_Z 56
_cell_length_a 24.358803
_cell_length_b 16.230678
_cell_length_c 9.132622
_cell_angle_alpha 90.000000
_cell_angle_beta 57.056304
_cell_angle_gamma 90.000000
_cell_volume 3030.095692
_symmetry_space_group_name_H-M "C 2/C"
_symmetry_group_IT_number 15
_symmetry_cell_setting 'monoclinic'
loop_
_space_group_symop_operation_xyz
x,y,z
-x,y,1/2-z
-x,-y,-z
x,-y,1/2+z
1/2+x,1/2+y,z
1/2-x,1/2+y,1/2-z
1/2-x,1/2-y,-z
1/2+x,1/2-y,1/2+z
loop_
_atom_site_type_symbol
_atom_site_label
_atom_site_fract_x
_atom_site_fract_y
_atom_site_fract_z
Si Si1 0.887667 0.665531 0.246033
Si Si2 0.753892 0.588885 0.404295
Si Si3 0.761444 0.905060 0.095980
Si Si4 0.190287 0.809229 0.243937
Si Si5 0.993269 0.411947 0.084984
Si Si6 0.371374 0.838092 0.108886
Si Si7 0.786273 0.808548 0.777253
O O1 0.831957 0.601235 0.272228
O O2 0.872348 0.761791 0.229373
O O3 0.899053 0.656026 0.403566
O O4 0.952302 0.647174 0.061716
O O5 0.735327 0.495928 0.477488
O O6 0.734089 0.657894 0.548906
O O7 0.711640 0.606442 0.318659
O O8 0.820928 0.886091 0.126264
O O9 0.693274 0.895006 0.283442
O O10 0.764689 0.833443 0.970693
O O11 0.230667 0.744007 0.279502
O O12 0.923644 0.371604 0.148864
O O13 0.000000 0.420078 0.250000
O O14 0.000000 0.500000 0.000000
O O15 0.354140 0.742879 0.175591
#
# Coordination Sequence:
#
# PCOD8134901 Si02
#       7
#     8   8   8   8   8   8   8
#     4  11  21  39  61  76 118 159 192 231 279 347
#     4  11  19  35  56  88 118 153 186 232 295 340
#     4  11  22  30  58  89 123 145 189 241 288 335
#     4  10  19  37  54  82 114 154 192 226 289 350
#     4  12  28  42  60  85 114 150 196 237 278 335
#     4  11  21  40  56  81 117 158 193 229 282 340
#     4  10  20  33  56  84 116 154 189 235 284 348
#
# _framework density 18.481263999999999
#
# number of rings (size 3 to 8) (size 9 to 14) (size 15 to 20)
#    0.000    1.143    4.286    5.571    6.000    0.000 
#    0.000    0.000    0.000    0.000    0.000    6.000 
#    0.000    0.000    0.000    0.000    0.000    0.000 
#
# Total GULP energy -346969.076259 kJ/mol
# GULP energy per Si atom -12391.752724 kJ/mol
# Density = 1.843920 g / cm^3
# Si number density = 18.481264 Si / 1000 Ang^3
#
#
#
# Elastic Constant Matrix: (Units=GPa)
#
#
# Indices 1 2 3 4 5 6 
#
# 1 82.1061 33.3994 30.8258 0.0000 15.0001 0.0000
# 2 33.3994 86.6229 21.1660 0.0000 -3.2560 0.0000
# 3 30.8258 21.1660 102.1248 0.0000 15.8543 0.0000
# 4 0.0000 0.0000 0.0000 27.7645 0.0000 8.5520
# 5 15.0001 -3.2560 15.8543 0.0000 29.4084 0.0000
# 6 0.0000 0.0000 0.0000 8.5520 0.0000 26.8911
#
#
#
# Elastic Compliance Matrix: (Units=1/GPa)
#
#
# Indices 1 2 3 4 5 6 
#
# 1 0.017198 -0.006289 -0.002639 0.000000 -0.008046 0.000000
# 2 -0.006289 0.014699 -0.002072 0.000000 0.005952 0.000000
# 3 -0.002639 -0.002072 0.011835 0.000000 -0.005264 0.000000
# 4 0.000000 0.000000 0.000000 0.039928 0.000000 -0.012698
# 5 -0.008046 0.005952 -0.005264 0.000000 0.041605 0.000000
# 6 0.000000 0.000000 0.000000 -0.012698 0.000000 0.041225
#
#
# Mechanical properties :
#
#
# Convention : Reuss Voigt Hill
#
# Bulk Modulus (GPa) = 46.01344 49.07070 47.54207
# Shear Modulus (GPa) = 25.54477 29.17697 27.36087
#
# Velocity S-wave (km/s) = 3.72183 3.97764 3.85186
# Velocity P-wave (km/s) = 6.58944 6.90686 6.75002
#
# Compressibility (1/GPa) = 0.02173278
#
# Stress axis : x y z
#
# Youngs Moduli (GPa) = 58.14586 68.03099 84.49430
#
# Poissons Ratio (x) = 0.42783 0.22296
# Poissons Ratio (y) = 0.36567 0.17510
# Poissons Ratio (z) = 0.15343 0.14098
#
# Static dielectric constant tensor:
#      x y z
#    x 3.535730 0.000000 0.390720 
#    y 0.000000 3.771810 0.000000 
#    z 0.390720 0.000000 3.453170 
# 
# 
# High freq. dielectric constant tensor:
#      x y z
#    x 1.688900 0.000000 0.038290 
#    y 0.000000 1.720970 0.000000 
#    z 0.038290 0.000000 1.719670 
# 
# From -- ./inp_files/61813.got.cif
#   From: 2010.06.25/outbox.cif.g09.slc.cpg/sg15_31_cif.got.tgz:61813.got - 2010.06.28 07:06:18.
