data_PCOD8134751
_publ_section_title
;
Structure prediction by ZEFSAII (Michael W. Deem and Ramdas Pophale) SiO2 
 PCOD8134751
Probable space group: C 2/C
;
_chemical_formula_sum "Si O2"
_cell_formula_units_Z 56
_cell_length_a 13.625427
_cell_length_b 13.121493
_cell_length_c 18.351558
_cell_angle_alpha 90.000000
_cell_angle_beta 121.754333
_cell_angle_gamma 90.000000
_cell_volume 2789.875618
_symmetry_space_group_name_H-M "C 2/C"
_symmetry_group_IT_number 15
_symmetry_cell_setting 'monoclinic'
loop_
_space_group_symop_operation_xyz
x,y,z
-x,y,1/2-z
-x,-y,-z
x,-y,1/2+z
1/2+x,1/2+y,z
1/2-x,1/2+y,1/2-z
1/2-x,1/2-y,-z
1/2+x,1/2-y,1/2+z
loop_
_atom_site_type_symbol
_atom_site_label
_atom_site_fract_x
_atom_site_fract_y
_atom_site_fract_z
Si Si1 0.678964 0.694381 0.910987
Si Si2 0.265278 0.176154 0.208905
Si Si3 0.044034 0.657141 0.983593
Si Si4 0.443783 0.782880 0.301542
Si Si5 0.736685 0.046826 0.773825
Si Si6 0.183216 0.524017 0.588652
Si Si7 0.427075 0.710564 0.871412
O O1 0.707510 0.747722 0.845752
O O2 0.719457 0.576971 0.923027
O O3 0.544307 0.693056 0.873812
O O4 0.750000 0.750000 0.000000
O O5 0.140211 0.200892 0.193964
O O6 0.361979 0.194800 0.308123
O O7 0.268189 0.058945 0.182709
O O8 0.154037 0.585145 0.042050
O O9 0.049761 0.757976 0.036011
O O10 0.044369 0.690504 0.899054
O O11 0.927243 0.597525 0.955871
O O12 0.500000 0.737188 0.250000
O O13 0.374357 0.884740 0.251211
O O14 0.735249 0.011930 0.689362
O O15 0.852876 0.107215 0.839154
#
# Coordination Sequence:
#
# PCOD8134751 Si02
#       7
#     8   8   8   8   8   8   8
#     4  12  22  38  62  96 123 157 203 264 313 369
#     4  11  22  41  58  90 127 161 201 259 309 367
#     4  10  19  38  64  87 121 166 202 255 303 365
#     4  10  22  42  62  86 120 164 210 253 300 368
#     4  10  22  40  61  90 125 159 204 257 312 363
#     4  10  19  36  61  89 125 157 202 251 310 364
#     4  11  21  38  65  92 123 161 205 254 318 364
#
# _framework density 20.072579000000001
#
# number of rings (size 3 to 8) (size 9 to 14) (size 15 to 20)
#    0.000    1.429    7.143    0.429    0.000    2.286 
#    2.571    5.714    0.000    0.000    0.000    0.000 
#    0.000    0.000    0.000    0.000    0.000    0.000 
#
# Total GULP energy -347220.118317 kJ/mol
# GULP energy per Si atom -12400.718511 kJ/mol
# Density = 2.002689 g / cm^3
# Si number density = 20.072579 Si / 1000 Ang^3
#
#
#
# Elastic Constant Matrix: (Units=GPa)
#
#
# Indices 1 2 3 4 5 6 
#
# 1 97.3265 34.9370 43.6990 0.0000 -2.7987 0.0000
# 2 34.9370 96.5017 20.0283 0.0000 10.0884 0.0000
# 3 43.6990 20.0283 101.5714 0.0000 -3.7241 0.0000
# 4 0.0000 0.0000 0.0000 26.6735 0.0000 1.9918
# 5 -2.7987 10.0884 -3.7241 0.0000 26.0805 0.0000
# 6 0.0000 0.0000 0.0000 1.9918 0.0000 17.8029
#
#
#
# Elastic Compliance Matrix: (Units=1/GPa)
#
#
# Indices 1 2 3 4 5 6 
#
# 1 0.014225 -0.004333 -0.005175 0.000000 0.002464 0.000000
# 2 -0.004333 0.012679 -0.000837 0.000000 -0.005489 0.000000
# 3 -0.005175 -0.000837 0.012293 0.000000 0.001524 0.000000
# 4 0.000000 0.000000 0.000000 0.037806 0.000000 -0.004230
# 5 0.002464 -0.005489 0.001524 0.000000 0.040948 0.000000
# 6 0.000000 0.000000 0.000000 -0.004230 0.000000 0.056644
#
#
# Mechanical properties :
#
#
# Convention : Reuss Voigt Hill
#
# Bulk Modulus (GPa) = 54.03833 54.74759 54.39296
# Shear Modulus (GPa) = 24.81963 27.22706 26.02335
#
# Velocity S-wave (km/s) = 3.52020 3.68697 3.60455
# Velocity P-wave (km/s) = 6.59563 6.74233 6.66938
#
# Compressibility (1/GPa) = 0.01850538
#
# Stress axis : x y z
#
# Youngs Moduli (GPa) = 70.30059 78.87144 81.34937
#
# Poissons Ratio (x) = 0.34178 0.42099
# Poissons Ratio (y) = 0.30464 0.06809
# Poissons Ratio (z) = 0.36381 0.06602
#
# Static dielectric constant tensor:
#      x y z
#    x 3.503680 0.000000 0.031760 
#    y 0.000000 3.748370 0.000000 
#    z 0.031760 0.000000 3.671770 
# 
# 
# High freq. dielectric constant tensor:
#      x y z
#    x 1.762180 0.000000 0.007050 
#    y 0.000000 1.774970 0.000000 
#    z 0.007050 0.000000 1.794270 
# 
# From -- ./inp_files/198421.got.cif
#   From: 2010.06.25/outbox.cif.g09.slc.cpg/sg15_100_cif.got.tgz:198421.got - 2010.06.28 07:06:18.
