data_PCOD8134426
_publ_section_title
;
Structure prediction by ZEFSAII (Michael W. Deem and Ramdas Pophale) SiO2 
 PCOD8134426
Probable space group: C 2/C
;
_chemical_formula_sum "Si O2"
_cell_formula_units_Z 32
_cell_length_a 9.136286
_cell_length_b 18.464041
_cell_length_c 11.468528
_cell_angle_alpha 90.000000
_cell_angle_beta 133.015768
_cell_angle_gamma 90.000000
_cell_volume 1414.555855
_symmetry_space_group_name_H-M "C 2/C"
_symmetry_group_IT_number 15
_symmetry_cell_setting 'monoclinic'
loop_
_space_group_symop_operation_xyz
x,y,z
-x,y,1/2-z
-x,-y,-z
x,-y,1/2+z
1/2+x,1/2+y,z
1/2-x,1/2+y,1/2-z
1/2-x,1/2-y,-z
1/2+x,1/2-y,1/2+z
loop_
_atom_site_type_symbol
_atom_site_label
_atom_site_fract_x
_atom_site_fract_y
_atom_site_fract_z
Si Si1 0.799098 0.456190 0.203479
Si Si2 0.624595 0.784436 0.706986
Si Si3 0.622023 0.394402 0.556385
Si Si4 0.283013 0.854156 0.392808
O O1 0.775442 0.542106 0.178445
O O2 0.820716 0.430759 0.349999
O O3 0.000000 0.429304 0.250000
O O4 0.604274 0.418427 0.041380
O O5 0.500000 0.812463 0.750000
O O6 0.833631 0.828154 0.830789
O O7 0.488783 0.808759 0.524158
O O8 0.658489 0.697867 0.734706
O O9 0.656555 0.371546 0.439945
#
# Coordination Sequence:
#
# PCOD8134426 Si02
#       4
#     8   8   8   8
#     4  11  23  39  59  88 122 156 193 239 298 355
#     4  10  19  35  64  91 112 150 206 252 283 333
#     4  10  22  39  61  87 117 155 200 244 289 345
#     4  11  21  39  64  89 118 154 199 246 291 343
#
# _framework density 22.621941
#
# number of rings (size 3 to 8) (size 9 to 14) (size 15 to 20)
#    0.000    1.500    0.000    9.000    0.000    4.000 
#    0.000    8.750    0.000    0.000    0.000    0.000 
#    0.000    0.000    0.000    0.000    0.000    0.000 
#
# Total GULP energy -198273.987343 kJ/mol
# GULP energy per Si atom -12392.124209 kJ/mol
# Density = 2.257045 g / cm^3
# Si number density = 22.621941 Si / 1000 Ang^3
#
#
#
# Elastic Constant Matrix: (Units=GPa)
#
#
# Indices 1 2 3 4 5 6 
#
# 1 83.7897 30.0320 34.6294 0.0000 23.8688 0.0000
# 2 30.0320 133.2874 40.3152 0.0000 -1.9299 0.0000
# 3 34.6294 40.3152 79.0604 0.0000 4.0278 0.0000
# 4 0.0000 0.0000 0.0000 63.1582 0.0000 -2.0620
# 5 23.8688 -1.9299 4.0278 0.0000 22.8298 0.0000
# 6 0.0000 0.0000 0.0000 -2.0620 0.0000 25.1318
#
#
#
# Elastic Compliance Matrix: (Units=1/GPa)
#
#
# Indices 1 2 3 4 5 6 
#
# 1 0.022390 -0.003251 -0.007006 0.000000 -0.022447 0.000000
# 2 -0.003251 0.009398 -0.003615 0.000000 0.004831 0.000000
# 3 -0.007006 -0.003615 0.017359 0.000000 0.003956 0.000000
# 4 0.000000 0.000000 0.000000 0.015876 0.000000 0.001303
# 5 -0.022447 0.004831 0.003956 0.000000 0.066982 0.000000
# 6 0.000000 0.000000 0.000000 0.001303 0.000000 0.039897
#
#
# Mechanical properties :
#
#
# Convention : Reuss Voigt Hill
#
# Bulk Modulus (GPa) = 46.71925 56.23230 51.47578
# Shear Modulus (GPa) = 24.18046 34.96801 29.57423
#
# Velocity S-wave (km/s) = 3.27294 3.93588 3.61962
# Velocity P-wave (km/s) = 5.91438 6.75027 6.34610
#
# Compressibility (1/GPa) = 0.02140445
#
# Stress axis : x y z
#
# Youngs Moduli (GPa) = 44.66349 106.40182 57.60767
#
# Poissons Ratio (x) = 0.34589 0.40358
# Poissons Ratio (y) = 0.14519 0.20824
# Poissons Ratio (z) = 0.31290 0.38461
#
# Static dielectric constant tensor:
#      x y z
#    x 3.593580 0.000000 0.350430 
#    y 0.000000 4.169920 0.000000 
#    z 0.350430 0.000000 4.378780 
# 
# 
# High freq. dielectric constant tensor:
#      x y z
#    x 1.832430 0.000000 0.038230 
#    y 0.000000 1.907640 0.000000 
#    z 0.038230 0.000000 1.909620 
# 
# From -- ./inp_files/22148.got.cif
#   From: 2010.06.25/outbox.cif.g09.slc.cpg/sg15_12_cif.got.tgz:22148.got - 2010.06.28 07:06:18.
