data_PCOD8134381
_publ_section_title
;
Structure prediction by ZEFSAII (Michael W. Deem and Ramdas Pophale) SiO2 
 PCOD8134381
Probable space group: C 2/C
;
_chemical_formula_sum "Si O2"
_cell_formula_units_Z 52
_cell_length_a 8.662481
_cell_length_b 20.849800
_cell_length_c 14.253595
_cell_angle_alpha 90.000000
_cell_angle_beta 79.942624
_cell_angle_gamma 90.000000
_cell_volume 2534.796813
_symmetry_space_group_name_H-M "C 2/C"
_symmetry_group_IT_number 15
_symmetry_cell_setting 'monoclinic'
loop_
_space_group_symop_operation_xyz
x,y,z
-x,y,1/2-z
-x,-y,-z
x,-y,1/2+z
1/2+x,1/2+y,z
1/2-x,1/2+y,1/2-z
1/2-x,1/2-y,-z
1/2+x,1/2-y,1/2+z
loop_
_atom_site_type_symbol
_atom_site_label
_atom_site_fract_x
_atom_site_fract_y
_atom_site_fract_z
Si Si1 0.594364 0.008784 0.376635
Si Si2 0.350825 0.521121 0.204450
Si Si3 0.762524 0.835802 0.714695
Si Si4 0.781714 0.549100 0.949618
Si Si5 0.000000 0.263495 0.250000
Si Si6 0.994065 0.649416 0.108780
Si Si7 0.657154 0.810713 0.050988
O O1 0.690215 0.999243 0.271590
O O2 0.721202 0.013892 0.448371
O O3 0.486793 0.072768 0.387424
O O4 0.465924 0.952581 0.398051
O O5 0.500000 0.498932 0.250000
O O6 0.353990 0.597442 0.190061
O O7 0.344522 0.485169 0.104846
O O8 0.888281 0.779857 0.698028
O O9 0.670560 0.833958 0.822971
O O10 0.643276 0.820161 0.643373
O O11 0.735806 0.624489 0.963064
O O12 0.098880 0.304339 0.164393
O O13 0.988790 0.676780 0.004034
O O14 0.750000 0.750000 0.000000
#
# Coordination Sequence:
#
# PCOD8134381 Si02
#       7
#     8   8   8   8   4   8   8
#     4   9  19  36  62  89 115 151 203 248 303 355
#     4  11  21  35  59  94 126 150 187 261 316 357
#     4  10  19  35  62  90 116 159 211 246 304 366
#     4  10  21  38  63  88 116 158 203 250 298 361
#     4  12  24  38  62  90 120 172 206 242 302 364
#     4   9  18  38  62  85 119 158 203 260 295 352
#     4  11  24  42  62  88 127 165 205 253 291 360
#
# _framework density 20.514465000000001
#
# number of rings (size 3 to 8) (size 9 to 14) (size 15 to 20)
#    0.000    1.846    3.846    0.462    2.154    1.231 
#    0.000    1.538    0.000    0.000    0.000    0.000 
#    0.000    0.000    0.000    0.000    0.000    0.000 
#
# Total GULP energy -322303.958896 kJ/mol
# GULP energy per Si atom -12396.306111 kJ/mol
# Density = 2.046777 g / cm^3
# Si number density = 20.514465 Si / 1000 Ang^3
#
#
#
# Elastic Constant Matrix: (Units=GPa)
#
#
# Indices 1 2 3 4 5 6 
#
# 1 53.3864 23.3638 10.3746 0.0000 25.8186 0.0000
# 2 23.3638 74.7719 22.2011 0.0000 11.4361 0.0000
# 3 10.3746 22.2011 96.6057 0.0000 22.3855 0.0000
# 4 0.0000 0.0000 0.0000 29.1697 0.0000 3.0754
# 5 25.8186 11.4361 22.3855 0.0000 39.7754 0.0000
# 6 0.0000 0.0000 0.0000 3.0754 0.0000 20.8192
#
#
#
# Elastic Compliance Matrix: (Units=1/GPa)
#
#
# Indices 1 2 3 4 5 6 
#
# 1 0.030920 -0.007545 0.002945 0.000000 -0.019559 0.000000
# 2 -0.007545 0.016434 -0.003457 0.000000 0.002118 0.000000
# 3 0.002945 -0.003457 0.012698 0.000000 -0.008064 0.000000
# 4 0.000000 0.000000 0.000000 0.034824 0.000000 -0.005144
# 5 -0.019559 0.002118 -0.008064 0.000000 0.041767 0.000000
# 6 0.000000 0.000000 0.000000 -0.005144 0.000000 0.048793
#
#
# Mechanical properties :
#
#
# Convention : Reuss Voigt Hill
#
# Bulk Modulus (GPa) = 22.75861 37.40478 30.08170
# Shear Modulus (GPa) = 23.12727 29.20782 26.16755
#
# Velocity S-wave (km/s) = 3.36127 3.77738 3.57538
# Velocity P-wave (km/s) = 5.11685 6.10719 5.63382
#
# Compressibility (1/GPa) = 0.04393941
#
# Stress axis : x y z
#
# Youngs Moduli (GPa) = 32.34178 60.84933 78.75087
#
# Poissons Ratio (x) = 0.45908 -0.23196
# Poissons Ratio (y) = 0.24400 0.27226
# Poissons Ratio (z) = -0.09526 0.21037
#
# Static dielectric constant tensor:
#      x y z
#    x 3.392660 0.000000 0.161780 
#    y 0.000000 3.569650 0.000000 
#    z 0.161780 0.000000 3.868920 
# 
# 
# High freq. dielectric constant tensor:
#      x y z
#    x 1.776500 0.000000 0.019820 
#    y 0.000000 1.782940 0.000000 
#    z 0.019820 0.000000 1.813670 
# 
# From -- ./inp_files/136074.got.cif
#   From: 2010.06.25/outbox.cif.g09.slc.cpg/sg15_69_cif.got.tgz:136074.got - 2010.06.28 07:06:18.
