data_PCOD8134308
_publ_section_title
;
Structure prediction by ZEFSAII (Michael W. Deem and Ramdas Pophale) SiO2 
 PCOD8134308
Probable space group: C 2/C
;
_chemical_formula_sum "Si O2"
_cell_formula_units_Z 48
_cell_length_a 13.755662
_cell_length_b 9.253329
_cell_length_c 19.066156
_cell_angle_alpha 90.000000
_cell_angle_beta 86.018370
_cell_angle_gamma 90.000000
_cell_volume 2420.990838
_symmetry_space_group_name_H-M "C 2/C"
_symmetry_group_IT_number 15
_symmetry_cell_setting 'monoclinic'
loop_
_space_group_symop_operation_xyz
x,y,z
-x,y,1/2-z
-x,-y,-z
x,-y,1/2+z
1/2+x,1/2+y,z
1/2-x,1/2+y,1/2-z
1/2-x,1/2-y,-z
1/2+x,1/2-y,1/2+z
loop_
_atom_site_type_symbol
_atom_site_label
_atom_site_fract_x
_atom_site_fract_y
_atom_site_fract_z
Si Si1 0.822128 0.724497 0.890859
Si Si2 0.575046 0.793932 0.615149
Si Si3 0.859311 0.413454 0.624568
Si Si4 0.890777 0.509633 0.771793
Si Si5 0.088016 0.002369 0.550347
Si Si6 0.298079 0.964995 0.992165
O O1 0.712534 0.780440 0.886984
O O2 0.847622 0.643221 0.817372
O O3 0.896655 0.853438 0.907466
O O4 0.828997 0.615388 0.955007
O O5 0.469499 0.863042 0.608861
O O6 0.615472 0.856423 0.686416
O O7 0.567655 0.620785 0.612638
O O8 0.652131 0.833298 0.550490
O O9 0.835031 0.482632 0.701593
O O10 0.839022 0.538758 0.569249
O O11 0.000000 0.555244 0.750000
O O12 0.181488 0.045796 0.498988
O O13 0.000000 0.000000 0.500000
#
# Coordination Sequence:
#
# PCOD8134308 Si02
#       6
#     8   8   8   8   8   8
#     4  10  21  38  57  82 113 145 183 229 277 328
#     4  10  20  36  56  82 111 144 184 228 274 329
#     4  10  19  35  60  82 109 146 184 225 272 327
#     4   9  21  39  56  77 111 152 187 217 271 340
#     4  11  21  34  55  86 113 140 184 240 282 317
#     4  10  20  36  58  83 112 147 185 223 275 339
#
# _framework density 19.826592000000002
#
# number of rings (size 3 to 8) (size 9 to 14) (size 15 to 20)
#    0.000    2.000    0.000    5.000    0.000    5.333 
#    0.000    7.500    0.000    2.000    0.000    0.000 
#    0.000    0.000    0.000    0.000    0.000    0.000 
#
# Total GULP energy -297522.852850 kJ/mol
# GULP energy per Si atom -12396.785535 kJ/mol
# Density = 1.978147 g / cm^3
# Si number density = 19.826592 Si / 1000 Ang^3
#
#
#
# Elastic Constant Matrix: (Units=GPa)
#
#
# Indices 1 2 3 4 5 6 
#
# 1 72.6603 24.9187 32.9046 0.0000 2.1465 0.0000
# 2 24.9187 82.3674 33.5306 0.0000 6.3141 0.0000
# 3 32.9046 33.5306 126.3295 0.0000 9.9913 0.0000
# 4 0.0000 0.0000 0.0000 17.3188 0.0000 -4.4122
# 5 2.1465 6.3141 9.9913 0.0000 31.8248 0.0000
# 6 0.0000 0.0000 0.0000 -4.4122 0.0000 22.2960
#
#
#
# Elastic Compliance Matrix: (Units=1/GPa)
#
#
# Indices 1 2 3 4 5 6 
#
# 1 0.016536 -0.003677 -0.003385 0.000000 0.000677 0.000000
# 2 -0.003677 0.014509 -0.002754 0.000000 -0.001766 0.000000
# 3 -0.003385 -0.002754 0.009708 0.000000 -0.002273 0.000000
# 4 0.000000 0.000000 0.000000 0.060806 0.000000 0.012033
# 5 0.000677 -0.001766 -0.002273 0.000000 0.032440 0.000000
# 6 0.000000 0.000000 0.000000 0.012033 0.000000 0.047232
#
#
# Mechanical properties :
#
#
# Convention : Reuss Voigt Hill
#
# Bulk Modulus (GPa) = 47.34095 51.56276 49.45185
# Shear Modulus (GPa) = 24.04948 26.95482 25.50215
#
# Velocity S-wave (km/s) = 3.48658 3.69118 3.59034
# Velocity P-wave (km/s) = 6.33543 6.65054 6.49490
#
# Compressibility (1/GPa) = 0.02112336
#
# Stress axis : x y z
#
# Youngs Moduli (GPa) = 60.47243 68.92050 103.00643
#
# Poissons Ratio (x) = 0.25340 0.34866
# Poissons Ratio (y) = 0.22234 0.28366
# Poissons Ratio (z) = 0.20469 0.18979
#
# Static dielectric constant tensor:
#      x y z
#    x 3.637330 0.000000 -0.088750 
#    y 0.000000 3.598670 0.000000 
#    z -0.088750 0.000000 3.948420 
# 
# 
# High freq. dielectric constant tensor:
#      x y z
#    x 1.775520 0.000000 -0.001980 
#    y 0.000000 1.769430 0.000000 
#    z -0.001980 0.000000 1.775190 
# 
# From -- ./inp_files/203021.got.cif
#   From: 2010.06.25/outbox.cif.g09.slc.cpg/sg15_102_cif.got.tgz:203021.got - 2010.06.28 07:06:18.
