data_PCOD8134068
_publ_section_title
;
Structure prediction by ZEFSAII (Michael W. Deem and Ramdas Pophale) SiO2 
 PCOD8134068
Probable space group: C 2/C
;
_chemical_formula_sum "Si O2"
_cell_formula_units_Z 64
_cell_length_a 17.026023
_cell_length_b 21.098268
_cell_length_c 16.937449
_cell_angle_alpha 90.000000
_cell_angle_beta 34.425752
_cell_angle_gamma 90.000000
_cell_volume 3439.664190
_symmetry_space_group_name_H-M "C 2/C"
_symmetry_group_IT_number 15
_symmetry_cell_setting 'monoclinic'
loop_
_space_group_symop_operation_xyz
x,y,z
-x,y,1/2-z
-x,-y,-z
x,-y,1/2+z
1/2+x,1/2+y,z
1/2-x,1/2+y,1/2-z
1/2-x,1/2-y,-z
1/2+x,1/2-y,1/2+z
loop_
_atom_site_type_symbol
_atom_site_label
_atom_site_fract_x
_atom_site_fract_y
_atom_site_fract_z
Si Si1 0.626507 0.302560 0.900437
Si Si2 0.057585 0.310261 0.922392
Si Si3 0.896869 0.155372 0.902009
Si Si4 0.093834 0.639060 0.100147
Si Si5 0.404934 0.517513 0.953913
Si Si6 0.373492 0.994069 0.406510
Si Si7 0.887143 0.062204 0.143135
Si Si8 0.405490 0.943098 0.545881
O O1 0.784374 0.292349 0.736339
O O2 0.565138 0.365520 0.910352
O O3 0.519089 0.246655 0.966441
O O4 0.615270 0.307971 0.005175
O O5 0.035542 0.371899 0.995662
O O6 0.964499 0.323236 0.924194
O O7 0.945866 0.083034 0.877857
O O8 0.000000 0.184806 0.750000
O O9 0.749518 0.160801 0.983319
O O10 0.088046 0.563675 0.093546
O O11 0.000000 0.660330 0.250000
O O12 0.530895 0.466331 0.848023
O O13 0.265620 0.490534 0.030327
O O14 0.392874 0.523440 0.057484
O O15 0.500000 0.967433 0.250000
O O16 0.359411 0.949978 0.493819
O O17 0.725627 0.057177 0.289952
O O18 0.500000 0.000000 0.500000
#
# Coordination Sequence:
#
# PCOD8134068 Si02
#       8
#     8   8   8   8   8   8   8   8
#     4  10  23  41  54  78 115 158 198 234 287 342
#     4  11  23  40  58  81 113 158 199 239 284 345
#     4  10  21  32  53  87 117 147 192 232 278 352
#     4  10  19  35  55  78 118 154 183 235 282 339
#     4   9  19  35  56  84 117 150 182 240 292 342
#     4  10  20  34  57  88 118 145 184 237 298 345
#     4   9  20  38  57  83 121 151 187 236 295 340
#     4  11  21  36  60  88 113 148 195 241 292 344
#
# _framework density 18.606466999999999
#
# number of rings (size 3 to 8) (size 9 to 14) (size 15 to 20)
#    0.000    2.000    2.500    0.750    8.750    1.000 
#    6.750    0.000    0.000    0.750    0.000    0.000 
#    0.000    0.000    0.000    0.000    0.000    0.000 
#
# Total GULP energy -396471.881671 kJ/mol
# GULP energy per Si atom -12389.746302 kJ/mol
# Density = 1.856412 g / cm^3
# Si number density = 18.606467 Si / 1000 Ang^3
#
#
#
# Elastic Constant Matrix: (Units=GPa)
#
#
# Indices 1 2 3 4 5 6 
#
# 1 74.2025 44.5572 18.4042 0.0128 -12.0200 -0.0033
# 2 44.5572 98.7247 32.5119 0.0240 -9.1934 -0.0102
# 3 18.4042 32.5119 68.7541 0.0225 -0.6397 -0.0066
# 4 0.0128 0.0240 0.0225 26.8607 -0.0046 -6.8110
# 5 -12.0200 -9.1934 -0.6397 -0.0046 20.9472 0.0019
# 6 -0.0033 -0.0102 -0.0066 -6.8110 0.0019 10.2766
#
#
#
# Elastic Compliance Matrix: (Units=1/GPa)
#
#
# Indices 1 2 3 4 5 6 
#
# 1 0.019750 -0.007650 -0.001595 -0.000001 0.007927 -0.000004
# 2 -0.007650 0.015530 -0.005275 -0.000004 0.002265 0.000007
# 3 -0.001595 -0.005275 0.017441 -0.000010 -0.002698 -0.000001
# 4 -0.000001 -0.000004 -0.000010 0.044750 0.000005 0.029659
# 5 0.007927 0.002265 -0.002698 0.000005 0.053199 -0.000004
# 6 -0.000004 0.000007 -0.000001 0.029659 -0.000004 0.116965
#
#
# Mechanical properties :
#
#
# Convention : Reuss Voigt Hill
#
# Bulk Modulus (GPa) = 42.22952 48.06976 45.14964
# Shear Modulus (GPa) = 16.41662 21.36409 18.89035
#
# Velocity S-wave (km/s) = 2.97359 3.39220 3.18977
# Velocity P-wave (km/s) = 5.87665 6.42135 6.15503
#
# Compressibility (1/GPa) = 0.02368012
#
# Stress axis : x y z
#
# Youngs Moduli (GPa) = 50.63227 64.39168 57.33662
#
# Poissons Ratio (x) = 0.49261 0.09148
# Poissons Ratio (y) = 0.38735 0.30244
# Poissons Ratio (z) = 0.08078 0.33965
#
# Static dielectric constant tensor:
#      x y z
#    x 3.471820 0.000000 -0.065460 
#    y 0.000000 3.747990 -0.000010 
#    z -0.065460 -0.000010 3.580400 
# 
# 
# High freq. dielectric constant tensor:
#      x y z
#    x 1.709130 0.000000 -0.008970 
#    y 0.000000 1.711380 0.000000 
#    z -0.008970 0.000000 1.727940 
# 
# From -- ./inp_files/211951.got.cif
#   From: 2010.06.25/outbox.cif.g09.slc.cpg/sg15_106_cif.got.tgz:211951.got - 2010.06.28 07:06:18.
