data_PCOD8134528
_publ_section_title
;
Structure prediction by ZEFSAII (Michael W. Deem and Ramdas Pophale) SiO2 
 PCOD8134528
Probable space group: C 2/C
;
_chemical_formula_sum "Si O2"
_cell_formula_units_Z 48
_cell_length_a 22.607822
_cell_length_b 7.814645
_cell_length_c 20.283494
_cell_angle_alpha 90.000000
_cell_angle_beta 49.403423
_cell_angle_gamma 90.000000
_cell_volume 2721.008962
_symmetry_space_group_name_H-M "C 2/C"
_symmetry_group_IT_number 15
_symmetry_cell_setting 'monoclinic'
loop_
_space_group_symop_operation_xyz
x,y,z
-x,y,1/2-z
-x,-y,-z
x,-y,1/2+z
1/2+x,1/2+y,z
1/2-x,1/2+y,1/2-z
1/2-x,1/2-y,-z
1/2+x,1/2-y,1/2+z
loop_
_atom_site_type_symbol
_atom_site_label
_atom_site_fract_x
_atom_site_fract_y
_atom_site_fract_z
Si Si1 0.315652 0.441601 0.004122
Si Si2 0.184179 0.557006 0.495899
Si Si3 0.238400 0.063576 0.685381
Si Si4 0.078732 0.248697 0.606966
Si Si5 0.403386 0.251204 0.250310
Si Si6 0.762734 0.438681 0.814339
O O1 0.250415 0.501054 0.999306
O O2 0.385597 0.576834 0.950372
O O3 0.345839 0.249356 0.966295
O O4 0.278166 0.435853 0.104174
O O5 0.220413 0.561467 0.396304
O O6 0.114284 0.421916 0.550784
O O7 0.145294 0.080379 0.737871
O O8 0.277021 0.251616 0.649027
O O9 0.251265 0.002005 0.749381
O O10 0.090768 0.246609 0.675772
O O11 0.987454 0.248805 0.655094
O O12 0.355572 0.080593 0.262665
#
# Coordination Sequence:
#
# PCOD8134528 Si02
#       6
#     8   8   8   8   8   8
#     4  11  20  34  60  87 109 150 195 231 280 335
#     4  11  20  34  60  87 109 150 195 231 280 335
#     4  10  19  36  57  83 111 148 194 232 276 334
#     4  11  18  41  58  85 122 138 188 240 289 334
#     4   9  21  34  63  82 114 156 176 239 296 323
#     4  10  19  36  57  83 111 148 194 232 276 334
#
# _framework density 17.640515000000001
#
# number of rings (size 3 to 8) (size 9 to 14) (size 15 to 20)
#    1.000    0.667    5.000    1.500    0.000    0.000 
#    0.000    8.333    0.000    0.000    0.000    0.000 
#    0.000    0.000    0.000    0.000    0.000    0.000 
#
# Total GULP energy -297452.911265 kJ/mol
# GULP energy per Si atom -12393.871303 kJ/mol
# Density = 1.760036 g / cm^3
# Si number density = 17.640515 Si / 1000 Ang^3
#
#
#
# Elastic Constant Matrix: (Units=GPa)
#
#
# Indices 1 2 3 4 5 6 
#
# 1 77.3505 20.6417 51.0226 -0.0034 -5.6322 0.0018
# 2 20.6417 94.8495 32.3378 -0.0018 -19.9778 0.0010
# 3 51.0226 32.3378 107.1597 -0.0037 -6.0717 0.0018
# 4 -0.0034 -0.0018 -0.0037 21.4905 0.0003 11.2557
# 5 -5.6322 -19.9778 -6.0717 0.0003 39.6135 0.0005
# 6 0.0018 0.0010 0.0018 11.2557 0.0005 18.3322
#
#
#
# Elastic Compliance Matrix: (Units=1/GPa)
#
#
# Indices 1 2 3 4 5 6 
#
# 1 0.018990 -0.000985 -0.008695 0.000003 0.000871 -0.000003
# 2 -0.000985 0.013088 -0.003142 0.000001 0.005979 -0.000001
# 3 -0.008695 -0.003142 0.014385 0.000002 -0.000616 -0.000001
# 4 0.000003 0.000001 0.000002 0.068589 0.000001 -0.042113
# 5 0.000871 0.005979 -0.000616 0.000001 0.028289 -0.000002
# 6 -0.000003 -0.000001 -0.000001 -0.042113 -0.000002 0.080406
#
#
# Mechanical properties :
#
#
# Convention : Reuss Voigt Hill
#
# Bulk Modulus (GPa) = 48.03276 54.15154 51.09215
# Shear Modulus (GPa) = 19.50613 27.57776 23.54195
#
# Velocity S-wave (km/s) = 3.32890 3.95817 3.65710
# Velocity P-wave (km/s) = 6.48562 7.18703 6.84531
#
# Compressibility (1/GPa) = 0.02081912
#
# Stress axis : x y z
#
# Youngs Moduli (GPa) = 52.65915 76.40695 69.51556
#
# Poissons Ratio (x) = 0.07524 0.60446
# Poissons Ratio (y) = 0.05186 0.21841
# Poissons Ratio (z) = 0.45789 0.24006
#
# Static dielectric constant tensor:
#      x y z
#    x 3.190950 0.000000 -0.055460 
#    y 0.000000 3.197520 0.000000 
#    z -0.055460 0.000000 3.211510 
# 
# 
# High freq. dielectric constant tensor:
#      x y z
#    x 1.665090 0.000000 0.014060 
#    y 0.000000 1.679290 0.000000 
#    z 0.014060 0.000000 1.677550 
# 
# From -- ./inp_files/254625.got.cif
#   From: 2010.06.25/outbox.cif.g09.slc.cpg/sg15_128_cif.got.tgz:254625.got - 2010.06.28 07:06:18.
