data_PCOD8134511
_publ_section_title
;
Structure prediction by ZEFSAII (Michael W. Deem and Ramdas Pophale) SiO2 
 PCOD8134511
Probable space group: C 2/C
;
_chemical_formula_sum "Si O2"
_cell_formula_units_Z 44
_cell_length_a 13.289220
_cell_length_b 22.343280
_cell_length_c 8.779928
_cell_angle_alpha 90.000000
_cell_angle_beta 61.619907
_cell_angle_gamma 90.000000
_cell_volume 2293.655187
_symmetry_space_group_name_H-M "C 2/C"
_symmetry_group_IT_number 15
_symmetry_cell_setting 'monoclinic'
loop_
_space_group_symop_operation_xyz
x,y,z
-x,y,1/2-z
-x,-y,-z
x,-y,1/2+z
1/2+x,1/2+y,z
1/2-x,1/2+y,1/2-z
1/2-x,1/2-y,-z
1/2+x,1/2-y,1/2+z
loop_
_atom_site_type_symbol
_atom_site_label
_atom_site_fract_x
_atom_site_fract_y
_atom_site_fract_z
Si Si1 0.616373 0.423400 0.899519
Si Si2 0.751248 0.270788 0.326139
Si Si3 0.562984 0.186331 0.004182
Si Si4 0.172596 0.653374 0.233758
Si Si5 0.000000 0.993730 0.250000
Si Si6 0.981998 0.818604 0.096661
O O1 0.751293 0.406231 0.798917
O O2 0.590041 0.465957 0.777326
O O3 0.580396 0.455129 0.082183
O O4 0.546124 0.361465 0.931142
O O5 0.750000 0.250000 0.500000
O O6 0.745217 0.212452 0.223360
O O7 0.648304 0.316046 0.365473
O O8 0.866394 0.309062 0.204929
O O9 0.640501 0.156854 0.078985
O O10 0.442581 0.150129 0.077749
O O11 0.534501 0.253308 0.073082
O O12 0.000000 0.848337 0.250000
#
# Coordination Sequence:
#
# PCOD8134511 Si02
#       6
#     8   8   8   8   4   8
#     4  11  22  40  59  84 107 151 192 259 295 327
#     4  11  22  31  52  92 128 157 180 227 273 370
#     4  10  19  36  56  92 119 155 192 207 277 391
#     4  10  20  35  61  81 121 155 189 228 284 357
#     4  10  26  40  58  82 106 140 218 258 292 334
#     4  11  19  33  59  85 121 154 187 223 290 354
#
# _framework density 19.183354999999999
#
# number of rings (size 3 to 8) (size 9 to 14) (size 15 to 20)
#    0.000    1.455    6.364    1.636    2.545    2.909 
#    0.000    0.000    0.000    4.364    0.000    0.000 
#    0.000    0.000    0.000    0.000    0.000    0.000 
#
# Total GULP energy -272666.829441 kJ/mol
# GULP energy per Si atom -12393.946793 kJ/mol
# Density = 1.913969 g / cm^3
# Si number density = 19.183355 Si / 1000 Ang^3
#
#
#
# Elastic Constant Matrix: (Units=GPa)
#
#
# Indices 1 2 3 4 5 6 
#
# 1 126.6144 55.0539 75.7284 0.0000 -24.5913 0.0000
# 2 55.0539 72.2700 27.7979 0.0000 -7.0402 0.0000
# 3 75.7284 27.7979 121.4281 0.0000 -16.4270 0.0000
# 4 0.0000 0.0000 0.0000 3.6085 0.0000 -10.3520
# 5 -24.5913 -7.0402 -16.4270 0.0000 26.8179 0.0000
# 6 0.0000 0.0000 0.0000 -10.3520 0.0000 35.0115
#
#
#
# Elastic Compliance Matrix: (Units=1/GPa)
#
#
# Indices 1 2 3 4 5 6 
#
# 1 0.019441 -0.010632 -0.008348 0.000000 0.009922 0.000000
# 2 -0.010632 0.021089 0.001344 0.000000 -0.003390 0.000000
# 3 -0.008348 0.001344 0.013243 0.000000 0.000810 0.000000
# 4 0.000000 0.000000 0.000000 1.825924 0.000000 0.539877
# 5 0.009922 -0.003390 0.000810 0.000000 0.045993 0.000000
# 6 0.000000 0.000000 0.000000 0.539877 0.000000 0.188189
#
#
# Mechanical properties :
#
#
# Convention : Reuss Voigt Hill
#
# Bulk Modulus (GPa) = 54.04908 70.83032 62.43970
# Shear Modulus (GPa) = 2.31984 23.86972 13.09478
#
# Velocity S-wave (km/s) = 1.10087 3.53128 2.61552
# Velocity P-wave (km/s) = 5.46370 7.32322 6.46071
#
# Compressibility (1/GPa) = 0.01850170
#
# Stress axis : x y z
#
# Youngs Moduli (GPa) = 51.43671 47.41761 75.50893
#
# Poissons Ratio (x) = 0.50416 0.63036
# Poissons Ratio (y) = 0.54690 -0.10152
# Poissons Ratio (z) = 0.42940 -0.06375
#
# Static dielectric constant tensor:
#      x y z
#    x 3.627110 0.000000 -0.237380 
#    y 0.000000 3.281450 0.000000 
#    z -0.237380 0.000000 3.570230 
# 
# 
# High freq. dielectric constant tensor:
#      x y z
#    x 1.748160 0.000000 -0.010320 
#    y 0.000000 1.708170 0.000000 
#    z -0.010320 0.000000 1.745020 
# 
# From -- ./inp_files/31830.got.cif
#   From: 2010.06.25/outbox.cif.g09.slc.cpg/sg15_16_cif.got.tgz:31830.got - 2010.06.28 07:06:18.
