data_PCOD8134694
_publ_section_title
;
Structure prediction by ZEFSAII (Michael W. Deem and Ramdas Pophale) SiO2 
 PCOD8134694
Probable space group: C 2/C
;
_chemical_formula_sum "Si O2"
_cell_formula_units_Z 56
_cell_length_a 22.950325
_cell_length_b 10.968328
_cell_length_c 13.594213
_cell_angle_alpha 90.000000
_cell_angle_beta 123.275702
_cell_angle_gamma 90.000000
_cell_volume 2860.951242
_symmetry_space_group_name_H-M "C 2/C"
_symmetry_group_IT_number 15
_symmetry_cell_setting 'monoclinic'
loop_
_space_group_symop_operation_xyz
x,y,z
-x,y,1/2-z
-x,-y,-z
x,-y,1/2+z
1/2+x,1/2+y,z
1/2-x,1/2+y,1/2-z
1/2-x,1/2-y,-z
1/2+x,1/2-y,1/2+z
loop_
_atom_site_type_symbol
_atom_site_label
_atom_site_fract_x
_atom_site_fract_y
_atom_site_fract_z
Si Si1 0.656719 0.550352 0.745315
Si Si2 0.874370 0.809679 0.900037
Si Si3 0.649153 0.930605 0.820270
Si Si4 0.693490 0.028524 0.057937
Si Si5 0.573184 0.938212 0.086935
Si Si6 0.418054 0.311852 0.160596
Si Si7 0.781261 0.723384 0.275698
O O1 0.623775 0.433387 0.661803
O O2 0.736153 0.541611 0.852014
O O3 0.608633 0.580709 0.793477
O O4 0.662760 0.667159 0.678588
O O5 0.931142 0.710080 0.914824
O O6 0.799573 0.742433 0.816457
O O7 0.893174 0.846406 0.028432
O O8 0.613506 0.818535 0.842284
O O9 0.705387 0.881458 0.794080
O O10 0.593903 0.013785 0.713063
O O11 0.684939 0.019449 0.932753
O O12 0.626251 0.972360 0.049056
O O13 0.704671 0.168182 0.102871
O O14 0.500000 0.000000 0.000000
O O15 0.500000 0.303939 0.250000
#
# Coordination Sequence:
#
# PCOD8134694 Si02
#       7
#     8   8   8   8   8   8   8
#     4  10  21  39  61  89 117 160 199 243 297 358
#     4  11  21  39  63  86 125 157 197 247 299 354
#     4  10  20  35  61  87 117 154 203 251 294 356
#     4  10  19  36  60  87 117 152 195 247 300 346
#     4  11  22  36  58  89 119 151 198 247 296 346
#     4  11  22  38  61  85 115 161 205 244 296 360
#     4   9  19  36  60  91 119 152 200 248 297 354
#
# _framework density 19.573909
#
# number of rings (size 3 to 8) (size 9 to 14) (size 15 to 20)
#    0.000    1.714    2.857    1.714    0.000    2.857 
#    2.571    1.429    0.000    0.000    0.000    0.000 
#    0.000    0.000    0.000    0.000    0.000    0.000 
#
# Total GULP energy -347087.402685 kJ/mol
# GULP energy per Si atom -12395.978667 kJ/mol
# Density = 1.952936 g / cm^3
# Si number density = 19.573909 Si / 1000 Ang^3
#
#
#
# Elastic Constant Matrix: (Units=GPa)
#
#
# Indices 1 2 3 4 5 6 
#
# 1 66.9224 23.3019 31.3177 0.0000 11.1356 0.0000
# 2 23.3019 99.1570 75.5098 0.0000 0.3194 0.0000
# 3 31.3177 75.5098 115.4051 0.0000 -7.9002 0.0000
# 4 0.0000 0.0000 0.0000 21.2205 0.0000 6.8453
# 5 11.1356 0.3194 -7.9002 0.0000 21.4510 0.0000
# 6 0.0000 0.0000 0.0000 6.8453 0.0000 14.1378
#
#
#
# Elastic Compliance Matrix: (Units=1/GPa)
#
#
# Indices 1 2 3 4 5 6 
#
# 1 0.020008 0.000280 -0.006487 0.000000 -0.012780 0.000000
# 2 0.000280 0.020704 -0.014006 0.000000 -0.005612 0.000000
# 3 -0.006487 -0.014006 0.020348 0.000000 0.011070 0.000000
# 4 0.000000 0.000000 0.000000 0.055847 0.000000 -0.027040
# 5 -0.012780 -0.005612 0.011070 0.000000 0.057412 0.000000
# 6 0.000000 0.000000 0.000000 -0.027040 0.000000 0.083825
#
#
# Mechanical properties :
#
#
# Convention : Reuss Voigt Hill
#
# Bulk Modulus (GPa) = 48.47129 60.19371 54.33250
# Shear Modulus (GPa) = 16.36937 21.45221 18.91079
#
# Velocity S-wave (km/s) = 2.89500 3.31412 3.11162
# Velocity P-wave (km/s) = 5.99930 6.74265 6.38181
#
# Compressibility (1/GPa) = 0.02063077
#
# Stress axis : x y z
#
# Youngs Moduli (GPa) = 49.98085 48.30096 49.14530
#
# Poissons Ratio (x) = -0.01350 0.31882
# Poissons Ratio (y) = -0.01397 0.68835
# Poissons Ratio (z) = 0.32424 0.67652
#
# Static dielectric constant tensor:
#      x y z
#    x 3.713150 0.000000 -0.265530 
#    y 0.000000 3.707740 0.000000 
#    z -0.265530 0.000000 3.788000 
# 
# 
# High freq. dielectric constant tensor:
#      x y z
#    x 1.752110 0.000000 0.001170 
#    y 0.000000 1.762330 0.000000 
#    z 0.001170 0.000000 1.762730 
# 
# From -- ./inp_files/111662.got.cif
#   From: 2010.06.25/outbox.cif.g09.slc.cpg/sg15_56_cif.got.tgz:111662.got - 2010.06.28 07:06:18.
