data_PCOD8134784
_publ_section_title
;
Structure prediction by ZEFSAII (Michael W. Deem and Ramdas Pophale) SiO2 
 PCOD8134784
Probable space group: C 2/C
;
_chemical_formula_sum "Si O2"
_cell_formula_units_Z 52
_cell_length_a 18.101174
_cell_length_b 9.232525
_cell_length_c 19.698106
_cell_angle_alpha 90.000000
_cell_angle_beta 46.193082
_cell_angle_gamma 90.000000
_cell_volume 2375.715115
_symmetry_space_group_name_H-M "C 2/C"
_symmetry_group_IT_number 15
_symmetry_cell_setting 'monoclinic'
loop_
_space_group_symop_operation_xyz
x,y,z
-x,y,1/2-z
-x,-y,-z
x,-y,1/2+z
1/2+x,1/2+y,z
1/2-x,1/2+y,1/2-z
1/2-x,1/2-y,-z
1/2+x,1/2-y,1/2+z
loop_
_atom_site_type_symbol
_atom_site_label
_atom_site_fract_x
_atom_site_fract_y
_atom_site_fract_z
Si Si1 0.830150 0.493706 0.420848
Si Si2 0.914972 0.419065 0.109933
Si Si3 0.954136 0.661793 0.445089
Si Si4 0.103798 0.037757 0.560519
Si Si5 0.000000 0.912835 0.750000
Si Si6 0.131171 0.273381 0.991647
Si Si7 0.163972 0.701353 0.705205
O O1 0.912462 0.603273 0.399418
O O2 0.723069 0.579011 0.489308
O O3 0.824622 0.343530 0.467178
O O4 0.856225 0.441609 0.327902
O O5 0.932450 0.590305 0.116065
O O6 0.843214 0.343692 0.210989
O O7 0.032939 0.362307 0.030866
O O8 0.876851 0.385236 0.057207
O O9 0.959661 0.835747 0.437520
O O10 0.091932 0.889452 0.526893
O O11 0.063025 0.019497 0.662218
O O12 0.925586 0.815499 0.751422
O O13 0.224271 0.271760 0.877926
#
# Coordination Sequence:
#
# PCOD8134784 Si02
#       7
#     8   8   8   8   4   8   8
#     4  10  19  38  62  87 122 155 197 251 305 361
#     4  10  22  42  61  79 123 170 199 235 304 376
#     4  10  23  39  57  85 125 163 191 247 313 356
#     4  11  20  34  58  93 117 146 201 260 299 341
#     4  12  18  32  58  94 114 140 204 262 298 342
#     4  10  19  36  62  88 116 154 203 251 294 359
#     4  11  19  36  65  89 109 158 209 240 296 372
#
# _framework density 21.888147
#
# number of rings (size 3 to 8) (size 9 to 14) (size 15 to 20)
#    0.000    1.538    4.615    2.308    0.000    1.846 
#    0.000   10.769    0.000    0.000    0.000    0.000 
#    0.000    0.000    0.000    0.000    0.000    0.000 
#
# Total GULP energy -322186.977857 kJ/mol
# GULP energy per Si atom -12391.806841 kJ/mol
# Density = 2.183833 g / cm^3
# Si number density = 21.888147 Si / 1000 Ang^3
#
#
#
# Elastic Constant Matrix: (Units=GPa)
#
#
# Indices 1 2 3 4 5 6 
#
# 1 31.3013 3.3340 -3.5501 0.0000 1.4532 0.0000
# 2 3.3340 104.8682 5.1620 0.0000 1.6739 -0.0001
# 3 -3.5501 5.1620 102.3381 0.0000 10.5978 0.0000
# 4 0.0000 0.0000 0.0000 21.1111 0.0000 3.8058
# 5 1.4532 1.6739 10.5978 0.0000 26.4486 0.0000
# 6 0.0000 -0.0001 0.0000 3.8058 0.0000 11.4187
#
#
#
# Elastic Compliance Matrix: (Units=1/GPa)
#
#
# Indices 1 2 3 4 5 6 
#
# 1 0.032326 -0.001061 0.001410 0.000000 -0.002274 0.000000
# 2 -0.001061 0.009599 -0.000484 0.000000 -0.000355 0.000000
# 3 0.001410 -0.000484 0.010276 0.000000 -0.004164 0.000000
# 4 0.000000 0.000000 0.000000 0.050396 0.000000 -0.016797
# 5 -0.002274 -0.000355 -0.004164 0.000000 0.039625 0.000000
# 6 0.000000 0.000000 0.000000 -0.016797 0.000000 0.093174
#
#
# Mechanical properties :
#
#
# Convention : Reuss Voigt Hill
#
# Bulk Modulus (GPa) = 19.25596 27.59993 23.42795
# Shear Modulus (GPa) = 19.76469 27.36647 23.56558
#
# Velocity S-wave (km/s) = 3.00823 3.53978 3.28477
# Velocity P-wave (km/s) = 4.56974 5.41697 5.01129
#
# Compressibility (1/GPa) = 0.05193198
#
# Stress axis : x y z
#
# Youngs Moduli (GPa) = 30.93472 104.17739 97.31288
#
# Poissons Ratio (x) = 0.11052 -0.13725
# Poissons Ratio (y) = 0.03282 0.04712
# Poissons Ratio (z) = -0.04363 0.05044
#
# Static dielectric constant tensor:
#      x y z
#    x 3.832880 0.000000 0.110640 
#    y 0.000000 3.893780 0.000000 
#    z 0.110640 0.000000 3.933290 
# 
# 
# High freq. dielectric constant tensor:
#      x y z
#    x 1.838120 0.000000 0.012210 
#    y 0.000000 1.856040 0.000000 
#    z 0.012210 0.000000 1.855630 
# 
# From -- ./inp_files/171752.got.cif
#   From: 2010.06.25/outbox.cif.g09.slc.cpg/sg15_86_cif.got.tgz:171752.got - 2010.06.28 07:06:18.
