data_PCOD8134032
_publ_section_title
;
Structure prediction by ZEFSAII (Michael W. Deem and Ramdas Pophale) SiO2 
 PCOD8134032
Probable space group: C 2/C
;
_chemical_formula_sum "Si O2"
_cell_formula_units_Z 52
_cell_length_a 24.961890
_cell_length_b 14.425282
_cell_length_c 8.393044
_cell_angle_alpha 90.000000
_cell_angle_beta 63.285759
_cell_angle_gamma 90.000000
_cell_volume 2699.597447
_symmetry_space_group_name_H-M "C 2/C"
_symmetry_group_IT_number 15
_symmetry_cell_setting 'monoclinic'
loop_
_space_group_symop_operation_xyz
x,y,z
-x,y,1/2-z
-x,-y,-z
x,-y,1/2+z
1/2+x,1/2+y,z
1/2-x,1/2+y,1/2-z
1/2-x,1/2-y,-z
1/2+x,1/2-y,1/2+z
loop_
_atom_site_type_symbol
_atom_site_label
_atom_site_fract_x
_atom_site_fract_y
_atom_site_fract_z
Si Si1 0.804455 0.831026 0.297406
Si Si2 0.803171 0.442391 0.137698
Si Si3 0.000000 0.961077 0.750000
Si Si4 0.500000 0.757498 0.750000
Si Si5 0.784917 0.374857 0.832678
Si Si6 0.432224 0.099084 0.544391
Si Si7 0.436013 0.390549 0.130763
Si Si8 0.000000 0.549222 0.750000
O O1 0.754724 0.877065 0.245027
O O2 0.815847 0.722336 0.240041
O O3 0.781183 0.844992 0.512165
O O4 0.865289 0.887340 0.199140
O O5 0.784812 0.550640 0.189529
O O6 0.820388 0.427961 0.928112
O O7 0.860511 0.408647 0.161572
O O8 0.034803 0.896005 0.581690
O O9 0.951422 0.021842 0.719965
O O10 0.549033 0.813914 0.585913
O O11 0.539896 0.700936 0.818948
O O12 0.459594 0.110659 0.685129
O O13 0.455469 0.008329 0.422060
#
# Coordination Sequence:
#
# PCOD8134032 Si02
#       8
#     8   8   4   4   8   8   8   4
#     4   9  21  36  61  84 120 153 191 243 300 344
#     4  10  19  35  59  82 113 155 190 243 288 349
#     4   9  22  38  58  85 106 152 202 241 286 353
#     4  10  22  34  58  82 114 158 180 244 300 339
#     4   9  20  36  55  89 114 155 195 229 304 340
#     4  10  19  35  53  81 114 147 199 227 286 346
#     4  10  20  39  59  82 114 148 196 243 295 348
#     4   9  20  32  50  77 108 154 186 231 262 334
#
# _framework density 19.262131
#
# number of rings (size 3 to 8) (size 9 to 14) (size 15 to 20)
#    0.923    1.538    0.000    1.846    2.154    3.077 
#    0.000    2.308    0.000    0.000    0.000    0.000 
#    0.000    0.000    0.000    0.000    0.000    0.000 
#
# Total GULP energy -322206.854425 kJ/mol
# GULP energy per Si atom -12392.571324 kJ/mol
# Density = 1.921829 g / cm^3
# Si number density = 19.262131 Si / 1000 Ang^3
#
#
#
# Elastic Constant Matrix: (Units=GPa)
#
#
# Indices 1 2 3 4 5 6 
#
# 1 151.3113 56.3644 53.1643 0.0000 -9.6062 0.0000
# 2 56.3644 102.2176 45.4476 0.0000 1.3098 0.0000
# 3 53.1643 45.4476 86.2563 0.0000 9.6763 0.0000
# 4 0.0000 0.0000 0.0000 26.1142 0.0000 -0.1761
# 5 -9.6062 1.3098 9.6763 0.0000 22.6795 0.0000
# 6 0.0000 0.0000 0.0000 -0.1761 0.0000 15.5504
#
#
#
# Elastic Compliance Matrix: (Units=1/GPa)
#
#
# Indices 1 2 3 4 5 6 
#
# 1 0.010116 -0.003340 -0.005228 0.000000 0.006708 0.000000
# 2 -0.003340 0.013988 -0.005317 0.000000 0.000046 0.000000
# 3 -0.005228 -0.005317 0.018727 0.000000 -0.009897 0.000000
# 4 0.000000 0.000000 0.000000 0.038296 0.000000 0.000434
# 5 0.006708 0.000046 -0.009897 0.000000 0.051154 0.000000
# 6 0.000000 0.000000 0.000000 0.000434 0.000000 0.064312
#
#
# Mechanical properties :
#
#
# Convention : Reuss Voigt Hill
#
# Bulk Modulus (GPa) = 66.39073 72.19311 69.29192
# Shear Modulus (GPa) = 21.79771 25.18940 23.49356
#
# Velocity S-wave (km/s) = 3.36763 3.62016 3.49617
# Velocity P-wave (km/s) = 7.04720 7.41854 7.23525
#
# Compressibility (1/GPa) = 0.01506234
#
# Stress axis : x y z
#
# Youngs Moduli (GPa) = 98.85807 71.49025 53.39832
#
# Poissons Ratio (x) = 0.23874 0.27915
# Poissons Ratio (y) = 0.33014 0.28392
# Poissons Ratio (z) = 0.51680 0.38011
#
# Static dielectric constant tensor:
#      x y z
#    x 3.205430 0.000000 0.466450 
#    y 0.000000 3.425000 0.000000 
#    z 0.466450 0.000000 2.430700 
# 
# 
# High freq. dielectric constant tensor:
#      x y z
#    x 1.746060 0.000000 -0.002370 
#    y 0.000000 1.744070 0.000000 
#    z -0.002370 0.000000 1.730740 
# 
# From -- ./inp_files/61224.got.cif
#   From: 2010.06.25/outbox.cif.g09.slc.cpg/sg15_31_cif.got.tgz:61224.got - 2010.06.28 07:06:18.
