data_PCOD8134058
_publ_section_title
;
Structure prediction by ZEFSAII (Michael W. Deem and Ramdas Pophale) SiO2 
 PCOD8134058
Probable space group: C 2/C
;
_chemical_formula_sum "Si O2"
_cell_formula_units_Z 64
_cell_length_a 24.890597
_cell_length_b 14.151698
_cell_length_c 10.042419
_cell_angle_alpha 90.000000
_cell_angle_beta 89.076561
_cell_angle_gamma 90.000000
_cell_volume 3536.924541
_symmetry_space_group_name_H-M "C 2/C"
_symmetry_group_IT_number 15
_symmetry_cell_setting 'monoclinic'
loop_
_space_group_symop_operation_xyz
x,y,z
-x,y,1/2-z
-x,-y,-z
x,-y,1/2+z
1/2+x,1/2+y,z
1/2-x,1/2+y,1/2-z
1/2-x,1/2-y,-z
1/2+x,1/2-y,1/2+z
loop_
_atom_site_type_symbol
_atom_site_label
_atom_site_fract_x
_atom_site_fract_y
_atom_site_fract_z
Si Si1 0.188908 0.899395 0.880444
Si Si2 0.268772 0.903692 0.106962
Si Si3 0.245607 0.383226 0.878752
Si Si4 0.541030 0.905209 0.862912
Si Si5 0.693558 0.613083 0.863554
Si Si6 0.141353 0.714972 0.279391
Si Si7 0.866758 0.279316 0.035368
Si Si8 0.529031 0.880557 0.379397
O O1 0.205745 0.885235 0.727866
O O2 0.140170 0.830015 0.921668
O O3 0.171780 0.008543 0.901347
O O4 0.238326 0.872045 0.974421
O O5 0.232786 0.883311 0.236054
O O6 0.323344 0.844073 0.113090
O O7 0.282095 0.014575 0.099697
O O8 0.199797 0.315510 0.827168
O O9 0.271715 0.346604 0.014670
O O10 0.500000 0.872550 0.750000
O O11 0.595273 0.845428 0.850864
O O12 0.554591 0.016280 0.848563
O O13 0.516150 0.885569 0.006694
O O14 0.640701 0.676020 0.830464
O O15 0.136876 0.705623 0.121906
O O16 0.925374 0.308049 0.080830
O O17 0.500000 0.840439 0.250000
#
# Coordination Sequence:
#
# PCOD8134058 Si02
#       8
#     8   8   8   8   8   8   8   8
#     4  10  20  36  55  79 116 152 184 225 274 328
#     4  10  19  35  54  83 118 152 183 222 275 333
#     4  10  21  34  52  83 121 146 181 230 273 322
#     4  10  21  40  60  84 116 144 177 231 288 332
#     4  10  22  35  53  83 119 150 182 231 275 317
#     4  12  21  35  60  85 108 150 195 225 269 336
#     4  12  21  35  62  83 106 152 195 223 272 340
#     4  10  23  40  59  85 115 141 178 234 287 329
#
# _framework density 18.094816999999999
#
# number of rings (size 3 to 8) (size 9 to 14) (size 15 to 20)
#    0.000    1.500    3.750    2.250    0.000    2.000 
#    0.000    0.000    0.000    1.500    0.000    0.000 
#    0.000    0.000    0.000    0.000    0.000    0.000 
#
# Total GULP energy -396847.781159 kJ/mol
# GULP energy per Si atom -12401.493161 kJ/mol
# Density = 1.805363 g / cm^3
# Si number density = 18.094817 Si / 1000 Ang^3
#
#
#
# Elastic Constant Matrix: (Units=GPa)
#
#
# Indices 1 2 3 4 5 6 
#
# 1 75.2391 51.4425 32.6341 0.0000 7.1981 0.0000
# 2 51.4425 86.0505 32.4171 0.0000 3.0211 0.0000
# 3 32.6341 32.4171 114.1108 0.0000 11.2332 0.0000
# 4 0.0000 0.0000 0.0000 22.8462 0.0000 4.6108
# 5 7.1981 3.0211 11.2332 0.0000 25.5339 0.0000
# 6 0.0000 0.0000 0.0000 4.6108 0.0000 27.4350
#
#
#
# Elastic Compliance Matrix: (Units=1/GPa)
#
#
# Indices 1 2 3 4 5 6 
#
# 1 0.023764 -0.013051 -0.002698 0.000000 -0.003968 0.000000
# 2 -0.013051 0.020181 -0.002224 0.000000 0.002270 0.000000
# 3 -0.002698 -0.002224 0.010522 0.000000 -0.003605 0.000000
# 4 0.000000 0.000000 0.000000 0.045308 0.000000 -0.007615
# 5 -0.003968 0.002270 -0.003605 0.000000 0.041600 0.000000
# 6 0.000000 0.000000 0.000000 -0.007615 0.000000 0.037730
#
#
# Mechanical properties :
#
#
# Convention : Reuss Voigt Hill
#
# Bulk Modulus (GPa) = 53.99321 56.48754 55.24037
# Shear Modulus (GPa) = 22.60156 25.75680 24.17918
#
# Velocity S-wave (km/s) = 3.53804 3.77694 3.65944
# Velocity P-wave (km/s) = 6.82599 7.09265 6.96060
#
# Compressibility (1/GPa) = 0.01852085
#
# Stress axis : x y z
#
# Youngs Moduli (GPa) = 42.08070 49.55076 95.04092
#
# Poissons Ratio (x) = 0.64668 0.25642
# Poissons Ratio (y) = 0.54919 0.21140
# Poissons Ratio (z) = 0.11353 0.11022
#
# Static dielectric constant tensor:
#      x y z
#    x 3.019080 0.000000 0.073890 
#    y 0.000000 3.599680 0.000000 
#    z 0.073890 0.000000 3.544330 
# 
# 
# High freq. dielectric constant tensor:
#      x y z
#    x 1.663240 0.000000 0.003550 
#    y 0.000000 1.705480 0.000000 
#    z 0.003550 0.000000 1.721830 
# 
# From -- ./inp_files/61939.got.cif
#   From: 2010.06.25/outbox.cif.g09.slc.cpg/sg15_31_cif.got.tgz:61939.got - 2010.06.28 07:06:18.
