data_PCOD8134067
_publ_section_title
;
Structure prediction by ZEFSAII (Michael W. Deem and Ramdas Pophale) SiO2 
 PCOD8134067
Probable space group: C 2/C
;
_chemical_formula_sum "Si O2"
_cell_formula_units_Z 52
_cell_length_a 16.080913
_cell_length_b 15.936352
_cell_length_c 16.728012
_cell_angle_alpha 90.000000
_cell_angle_beta 35.589680
_cell_angle_gamma 90.000000
_cell_volume 2494.878502
_symmetry_space_group_name_H-M "C 2/C"
_symmetry_group_IT_number 15
_symmetry_cell_setting 'monoclinic'
loop_
_space_group_symop_operation_xyz
x,y,z
-x,y,1/2-z
-x,-y,-z
x,-y,1/2+z
1/2+x,1/2+y,z
1/2-x,1/2+y,1/2-z
1/2-x,1/2-y,-z
1/2+x,1/2-y,1/2+z
loop_
_atom_site_type_symbol
_atom_site_label
_atom_site_fract_x
_atom_site_fract_y
_atom_site_fract_z
Si Si1 0.328095 0.548503 0.800609
Si Si2 0.500000 0.684794 0.750000
Si Si3 0.012389 0.936456 0.562944
Si Si4 0.649183 0.729434 0.348760
Si Si5 0.031657 0.512142 0.067417
Si Si6 0.794626 0.391051 0.274730
Si Si7 0.029285 0.297586 0.867821
O O1 0.369139 0.626952 0.823560
O O2 0.465370 0.487806 0.679235
O O3 0.268752 0.582777 0.762283
O O4 0.202073 0.497873 0.945201
O O5 0.448566 0.743973 0.862783
O O6 0.175420 0.903290 0.437451
O O7 0.900914 0.860804 0.642166
O O8 0.000000 0.000000 0.500000
O O9 0.661180 0.793344 0.264353
O O10 0.802254 0.719701 0.270707
O O11 0.531978 0.767789 0.499856
O O12 0.933495 0.445610 0.191710
O O13 0.994684 0.604556 0.127199
O O14 0.000000 0.500000 0.000000
#
# Coordination Sequence:
#
# PCOD8134067 Si02
#       7
#     8   4   8   8   8   8   8
#     4  10  20  37  53  78 116 159 194 233 289 357
#     4  12  24  38  56  86 128 166 200 222 284 382
#     4  10  20  34  55  80 115 149 192 251 300 345
#     4  12  20  35  57  87 115 149 195 254 301 344
#     4  10  19  35  55  78 113 152 196 248 298 340
#     4  10  19  36  55  85 113 145 199 248 306 346
#     4  12  22  35  54  82 123 158 195 238 288 359
#
# _framework density 20.842697999999999
#
# number of rings (size 3 to 8) (size 9 to 14) (size 15 to 20)
#    0.000    1.231    6.154    3.692    0.000    2.462 
#    0.000    0.000    0.000    0.000    0.000    5.385 
#    0.000    0.000    0.000    0.000    0.000    0.000 
#
# Total GULP energy -322276.322214 kJ/mol
# GULP energy per Si atom -12395.243162 kJ/mol
# Density = 2.079526 g / cm^3
# Si number density = 20.842698 Si / 1000 Ang^3
#
#
#
# Elastic Constant Matrix: (Units=GPa)
#
#
# Indices 1 2 3 4 5 6 
#
# 1 31.3540 32.4021 30.0691 0.0002 -4.7085 0.0000
# 2 32.4021 159.2109 68.4468 -0.0014 0.6323 0.0005
# 3 30.0691 68.4468 143.4113 -0.0033 -17.4215 0.0009
# 4 0.0002 -0.0014 -0.0033 41.8933 0.0003 1.3677
# 5 -4.7085 0.6323 -17.4215 0.0003 12.6216 0.0000
# 6 0.0000 0.0005 0.0009 1.3677 0.0000 34.9800
#
#
#
# Elastic Compliance Matrix: (Units=1/GPa)
#
#
# Indices 1 2 3 4 5 6 
#
# 1 0.045613 -0.007268 -0.004786 -0.000001 0.010774 0.000000
# 2 -0.007268 0.009567 -0.004121 0.000000 -0.008879 0.000000
# 3 -0.004786 -0.004121 0.011716 0.000001 0.014592 0.000000
# 4 -0.000001 0.000000 0.000001 0.023901 0.000000 -0.000934
# 5 0.010774 -0.008879 0.014592 0.000000 0.103835 0.000000
# 6 0.000000 0.000000 0.000000 -0.000934 0.000000 0.028624
#
#
# Mechanical properties :
#
#
# Convention : Reuss Voigt Hill
#
# Bulk Modulus (GPa) = 28.94697 66.20136 47.57416
# Shear Modulus (GPa) = 18.71814 31.43619 25.07717
#
# Velocity S-wave (km/s) = 3.00003 3.88784 3.47243
# Velocity P-wave (km/s) = 5.09104 7.21007 6.24114
#
# Compressibility (1/GPa) = 0.03454594
#
# Stress axis : x y z
#
# Youngs Moduli (GPa) = 21.92365 104.52601 85.35497
#
# Poissons Ratio (x) = 0.75972 0.40850
# Poissons Ratio (y) = 0.15935 0.35172
# Poissons Ratio (z) = 0.10492 0.43072
#
# Static dielectric constant tensor:
#      x y z
#    x 3.151050 -0.000010 -0.209210 
#    y -0.000010 4.057040 -0.000020 
#    z -0.209210 -0.000020 4.645440 
# 
# 
# High freq. dielectric constant tensor:
#      x y z
#    x 1.742160 0.000000 -0.014870 
#    y 0.000000 1.829420 0.000000 
#    z -0.014870 0.000000 1.838280 
# 
# From -- ./inp_files/249085.got.cif
#   From: 2010.06.25/outbox.cif.g09.slc.cpg/sg15_125_cif.got.tgz:249085.got - 2010.06.28 07:06:18.
