data_PCOD8134409
_publ_section_title
;
Structure prediction by ZEFSAII (Michael W. Deem and Ramdas Pophale) SiO2 
 PCOD8134409
Probable space group: C 2/C
;
_chemical_formula_sum "Si O2"
_cell_formula_units_Z 56
_cell_length_a 13.632938
_cell_length_b 11.959891
_cell_length_c 17.280356
_cell_angle_alpha 90.000000
_cell_angle_beta 111.568636
_cell_angle_gamma 90.000000
_cell_volume 2620.245452
_symmetry_space_group_name_H-M "C 2/C"
_symmetry_group_IT_number 15
_symmetry_cell_setting 'monoclinic'
loop_
_space_group_symop_operation_xyz
x,y,z
-x,y,1/2-z
-x,-y,-z
x,-y,1/2+z
1/2+x,1/2+y,z
1/2-x,1/2+y,1/2-z
1/2-x,1/2-y,-z
1/2+x,1/2-y,1/2+z
loop_
_atom_site_type_symbol
_atom_site_label
_atom_site_fract_x
_atom_site_fract_y
_atom_site_fract_z
Si Si1 0.497880 0.525977 0.410447
Si Si2 0.455508 0.989071 0.322930
Si Si3 0.292955 0.152139 0.236152
Si Si4 0.062229 0.235408 0.187995
Si Si5 0.817467 0.111678 0.588133
Si Si6 0.640431 0.142485 0.417326
Si Si7 0.893246 0.126982 0.766158
O O1 0.500000 0.500000 0.500000
O O2 0.487230 0.657840 0.392882
O O3 0.611490 0.493644 0.411587
O O4 0.399425 0.460502 0.339372
O O5 0.500000 0.992190 0.250000
O O6 0.446349 0.860918 0.348040
O O7 0.337141 0.040589 0.290682
O O8 0.537373 0.064531 0.395631
O O9 0.181161 0.192491 0.236563
O O10 0.292713 0.129472 0.143224
O O11 0.378623 0.245479 0.288452
O O12 0.000000 0.220797 0.250000
O O13 0.708631 0.104979 0.510956
O O14 0.883766 0.224607 0.583954
O O15 0.798057 0.106232 0.675891
O O16 0.000000 0.112063 0.750000
#
# Coordination Sequence:
#
# PCOD8134409 Si02
#       7
#     8   8   8   8   8   8   8
#     4  11  22  38  60  86 123 164 209 256 306 378
#     4   9  19  37  59  91 128 162 201 256 310 371
#     4  10  19  35  63  91 122 167 208 247 308 378
#     4  11  24  39  59  92 134 164 198 250 318 374
#     4   9  17  33  62  94 118 154 207 266 308 355
#     4   9  17  35  65  96 122 157 211 265 305 360
#     4   9  18  35  64  94 117 151 212 268 307 356
#
# _framework density 21.372043000000001
#
# number of rings (size 3 to 8) (size 9 to 14) (size 15 to 20)
#    0.000    2.286    0.000    5.143    2.000    0.000 
#    2.571    0.714    3.143   12.857    0.000    0.000 
#    0.000    0.000    0.000    0.000    0.000    0.000 
#
# Total GULP energy -346938.004820 kJ/mol
# GULP energy per Si atom -12390.643029 kJ/mol
# Density = 2.132340 g / cm^3
# Si number density = 21.372043 Si / 1000 Ang^3
#
#
#
# Elastic Constant Matrix: (Units=GPa)
#
#
# Indices 1 2 3 4 5 6 
#
# 1 75.7134 42.7931 31.1848 0.0000 10.8586 0.0000
# 2 42.7931 162.1185 62.7207 0.0000 17.8396 0.0000
# 3 31.1848 62.7207 133.9057 0.0000 21.6625 0.0000
# 4 0.0000 0.0000 0.0000 29.3224 0.0000 3.9881
# 5 10.8586 17.8396 21.6625 0.0000 27.1669 0.0000
# 6 0.0000 0.0000 0.0000 3.9881 0.0000 20.8343
#
#
#
# Elastic Compliance Matrix: (Units=1/GPa)
#
#
# Indices 1 2 3 4 5 6 
#
# 1 0.016204 -0.003272 -0.001769 0.000000 -0.002918 0.000000
# 2 -0.003272 0.008339 -0.002835 0.000000 -0.001907 0.000000
# 3 -0.001769 -0.002835 0.010095 0.000000 -0.005480 0.000000
# 4 0.000000 0.000000 0.000000 0.035015 0.000000 -0.006703
# 5 -0.002918 -0.001907 -0.005480 0.000000 0.043598 0.000000
# 6 0.000000 0.000000 0.000000 -0.006703 0.000000 0.049281
#
#
# Mechanical properties :
#
#
# Convention : Reuss Voigt Hill
#
# Bulk Modulus (GPa) = 52.95280 71.68164 62.31722
# Shear Modulus (GPa) = 27.08872 31.13399 29.11136
#
# Velocity S-wave (km/s) = 3.56404 3.82090 3.69470
# Velocity P-wave (km/s) = 6.46273 7.28549 6.88641
#
# Compressibility (1/GPa) = 0.01888474
#
# Stress axis : x y z
#
# Youngs Moduli (GPa) = 61.71310 119.92207 99.06289
#
# Poissons Ratio (x) = 0.39235 0.17527
# Poissons Ratio (y) = 0.20191 0.28088
# Poissons Ratio (z) = 0.10919 0.34002
#
# Static dielectric constant tensor:
#      x y z
#    x 3.572240 0.000000 0.370470 
#    y 0.000000 6.921880 0.000000 
#    z 0.370470 0.000000 3.807280 
# 
# 
# High freq. dielectric constant tensor:
#      x y z
#    x 1.817910 0.000000 0.016980 
#    y 0.000000 1.847460 0.000000 
#    z 0.016980 0.000000 1.825720 
# 
# From -- ./inp_files/204126.got.cif
#   From: 2010.06.25/outbox.cif.g09.slc.cpg/sg15_103_cif.got.tgz:204126.got - 2010.06.28 07:06:18.
