data_PCOD8134914
_publ_section_title
;
Structure prediction by ZEFSAII (Michael W. Deem and Ramdas Pophale) SiO2 
 PCOD8134914
Probable space group: C 2/C
;
_chemical_formula_sum "Si O2"
_cell_formula_units_Z 64
_cell_length_a 24.851147
_cell_length_b 14.168501
_cell_length_c 9.589090
_cell_angle_alpha 90.000000
_cell_angle_beta 76.261746
_cell_angle_gamma 90.000000
_cell_volume 3279.757348
_symmetry_space_group_name_H-M "C 2/C"
_symmetry_group_IT_number 15
_symmetry_cell_setting 'monoclinic'
loop_
_space_group_symop_operation_xyz
x,y,z
-x,y,1/2-z
-x,-y,-z
x,-y,1/2+z
1/2+x,1/2+y,z
1/2-x,1/2+y,1/2-z
1/2-x,1/2-y,-z
1/2+x,1/2-y,1/2+z
loop_
_atom_site_type_symbol
_atom_site_label
_atom_site_fract_x
_atom_site_fract_y
_atom_site_fract_z
Si Si1 0.542144 0.901593 0.110000
Si Si2 0.354612 0.221125 0.004437
Si Si3 0.820451 0.095985 0.169725
Si Si4 0.674223 0.424135 0.507595
Si Si5 0.776842 0.340680 0.318554
Si Si6 0.034413 0.613432 0.102162
Si Si7 0.148032 0.701364 0.949768
Si Si8 0.290806 0.184431 0.297068
O O1 0.500000 0.863784 0.250000
O O2 0.593662 0.831767 0.093275
O O3 0.559423 0.010558 0.128248
O O4 0.513421 0.895388 0.980391
O O5 0.362837 0.334018 0.019470
O O6 0.302488 0.217901 0.931267
O O7 0.341085 0.166182 0.157471
O O8 0.828202 0.064612 0.324831
O O9 0.754607 0.101289 0.175184
O O10 0.850560 0.195407 0.121921
O O11 0.849385 0.018299 0.051632
O O12 0.737901 0.419965 0.410010
O O13 0.738940 0.277671 0.241371
O O14 0.826530 0.373005 0.181382
O O15 0.084639 0.678642 0.022449
O O16 0.000000 0.659786 0.250000
O O17 0.185255 0.700235 0.064720
#
# Coordination Sequence:
#
# PCOD8134914 Si02
#       8
#     8   8   8   8   8   8   8   8
#     4  10  22  37  64  87 111 143 195 244 304 347
#     4  11  19  38  61  82 115 159 193 238 293 353
#     4  11  23  37  54  87 122 158 198 235 285 345
#     4  11  23  36  56  84 124 158 194 240 281 346
#     4  10  19  37  56  80 118 153 194 236 277 342
#     4  10  22  42  58  89 117 144 188 254 297 353
#     4  11  22  36  63  83 120 159 196 235 298 352
#     4  10  20  35  55  84 117 156 194 235 279 343
#
# _framework density 19.513639000000001
#
# number of rings (size 3 to 8) (size 9 to 14) (size 15 to 20)
#    0.000    1.500    3.750    3.750    5.250    2.000 
#    0.000    0.000    0.000    1.500    0.000    0.000 
#    0.000    0.000    0.000    0.000    0.000    0.000 
#
# Total GULP energy -396559.913820 kJ/mol
# GULP energy per Si atom -12392.497307 kJ/mol
# Density = 1.946922 g / cm^3
# Si number density = 19.513639 Si / 1000 Ang^3
#
#
#
# Elastic Constant Matrix: (Units=GPa)
#
#
# Indices 1 2 3 4 5 6 
#
# 1 59.0399 31.4126 26.4857 0.0000 -15.5591 0.0000
# 2 31.4126 77.4429 37.0141 0.0000 -12.0807 0.0000
# 3 26.4857 37.0141 144.8486 0.0000 -9.4442 0.0000
# 4 0.0000 0.0000 0.0000 31.4714 0.0000 -3.6615
# 5 -15.5591 -12.0807 -9.4442 0.0000 38.8647 0.0000
# 6 0.0000 0.0000 0.0000 -3.6615 0.0000 27.9435
#
#
#
# Elastic Compliance Matrix: (Units=1/GPa)
#
#
# Indices 1 2 3 4 5 6 
#
# 1 0.023601 -0.007616 -0.001938 0.000000 0.006610 0.000000
# 2 -0.007616 0.017715 -0.003022 0.000000 0.001723 0.000000
# 3 -0.001938 -0.003022 0.008046 0.000000 0.000240 0.000000
# 4 0.000000 0.000000 0.000000 0.032267 0.000000 0.004228
# 5 0.006610 0.001723 0.000240 0.000000 0.028971 0.000000
# 6 0.000000 0.000000 0.000000 0.004228 0.000000 0.036341
#
#
# Mechanical properties :
#
#
# Convention : Reuss Voigt Hill
#
# Bulk Modulus (GPa) = 41.30463 52.35069 46.82766
# Shear Modulus (GPa) = 27.75275 32.08384 29.91830
#
# Velocity S-wave (km/s) = 3.77533 4.05924 3.91986
# Velocity P-wave (km/s) = 6.34170 6.98970 6.67357
#
# Compressibility (1/GPa) = 0.02421036
#
# Stress axis : x y z
#
# Youngs Moduli (GPa) = 42.37066 56.44943 124.28435
#
# Poissons Ratio (x) = 0.42989 0.24092
# Poissons Ratio (y) = 0.32268 0.37558
# Poissons Ratio (z) = 0.08213 0.17059
#
# Static dielectric constant tensor:
#      x y z
#    x 3.250040 0.000000 -0.195870 
#    y 0.000000 3.362160 0.000000 
#    z -0.195870 0.000000 4.044300 
# 
# 
# High freq. dielectric constant tensor:
#      x y z
#    x 1.726460 0.000000 0.002390 
#    y 0.000000 1.734630 0.000000 
#    z 0.002390 0.000000 1.793730 
# 
# From -- ./inp_files/66192.got.cif
#   From: 2010.06.25/outbox.cif.g09.slc.cpg/sg15_34_cif.got.tgz:66192.got - 2010.06.28 07:06:18.
