data_PCOD8134250
_publ_section_title
;
Structure prediction by ZEFSAII (Michael W. Deem and Ramdas Pophale) SiO2 
 PCOD8134250
Probable space group: C 2/C
;
_chemical_formula_sum "Si O2"
_cell_formula_units_Z 56
_cell_length_a 19.821338
_cell_length_b 13.736124
_cell_length_c 12.615939
_cell_angle_alpha 90.000000
_cell_angle_beta 120.901113
_cell_angle_gamma 90.000000
_cell_volume 2947.350879
_symmetry_space_group_name_H-M "C 2/C"
_symmetry_group_IT_number 15
_symmetry_cell_setting 'monoclinic'
loop_
_space_group_symop_operation_xyz
x,y,z
-x,y,1/2-z
-x,-y,-z
x,-y,1/2+z
1/2+x,1/2+y,z
1/2-x,1/2+y,1/2-z
1/2-x,1/2-y,-z
1/2+x,1/2-y,1/2+z
loop_
_atom_site_type_symbol
_atom_site_label
_atom_site_fract_x
_atom_site_fract_y
_atom_site_fract_z
Si Si1 0.518802 0.390978 0.986256
Si Si2 0.669891 0.190326 0.424190
Si Si3 0.707724 0.136534 0.674033
Si Si4 0.637704 0.553527 0.405951
Si Si5 0.650236 0.334044 0.709922
Si Si6 0.759759 0.465727 0.658126
Si Si7 0.885031 0.861405 0.235349
O O1 0.577650 0.391632 0.934579
O O2 0.441883 0.330074 0.893137
O O3 0.500000 0.500000 0.000000
O O4 0.556014 0.342842 0.120572
O O5 0.750000 0.250000 0.500000
O O6 0.651927 0.141912 0.524242
O O7 0.676939 0.108097 0.339936
O O8 0.604511 0.269200 0.335844
O O9 0.689171 0.228423 0.732916
O O10 0.798337 0.134838 0.714173
O O11 0.691276 0.038127 0.726413
O O12 0.663613 0.632003 0.340231
O O13 0.717211 0.523585 0.529588
O O14 0.597090 0.460278 0.315519
O O15 0.691321 0.409642 0.664303
#
# Coordination Sequence:
#
# PCOD8134250 Si02
#       7
#     8   8   8   8   8   8   8
#     4  12  23  35  54  88 126 157 189 245 310 370
#     4  10  19  35  59  82 115 157 200 248 280 352
#     4  11  21  38  55  86 120 153 200 247 294 351
#     4  12  20  34  56  86 121 157 191 238 311 360
#     4  12  23  35  56  85 126 155 193 250 299 362
#     4  12  19  36  60  85 116 156 202 245 297 347
#     4  11  20  35  59  83 116 158 195 243 292 365
#
# _framework density 19.000112999999999
#
# number of rings (size 3 to 8) (size 9 to 14) (size 15 to 20)
#    0.000    0.571   11.429    0.429    0.000    0.571 
#    0.000    0.000    0.000    0.857    0.000    0.000 
#    0.000    0.000    0.000    0.000    0.000    0.000 
#
# Total GULP energy -347202.286625 kJ/mol
# GULP energy per Si atom -12400.081665 kJ/mol
# Density = 1.895687 g / cm^3
# Si number density = 19.000113 Si / 1000 Ang^3
#
#
#
# Elastic Constant Matrix: (Units=GPa)
#
#
# Indices 1 2 3 4 5 6 
#
# 1 35.3068 25.5567 28.4785 0.0000 -14.8908 0.0000
# 2 25.5567 105.5039 50.9692 0.0000 -14.0855 0.0000
# 3 28.4785 50.9692 98.2395 0.0000 -25.3464 0.0000
# 4 0.0000 0.0000 0.0000 43.9232 0.0000 -10.1112
# 5 -14.8908 -14.0855 -25.3464 0.0000 28.2791 0.0000
# 6 0.0000 0.0000 0.0000 -10.1112 0.0000 18.1563
#
#
#
# Elastic Compliance Matrix: (Units=1/GPa)
#
#
# Indices 1 2 3 4 5 6 
#
# 1 0.043384 -0.005741 -0.005778 0.000000 0.014806 0.000000
# 2 -0.005741 0.013415 -0.005661 0.000000 -0.001415 0.000000
# 3 -0.005778 -0.005661 0.017273 0.000000 0.009620 0.000000
# 4 0.000000 0.000000 0.000000 0.026115 0.000000 0.014543
# 5 0.014806 -0.001415 0.009620 0.000000 0.051076 0.000000
# 6 0.000000 0.000000 0.000000 0.014543 0.000000 0.063176
#
#
# Mechanical properties :
#
#
# Convention : Reuss Voigt Hill
#
# Bulk Modulus (GPa) = 25.18097 49.89544 37.53820
# Shear Modulus (GPa) = 19.08140 27.00810 23.04475
#
# Velocity S-wave (km/s) = 3.17247 3.77433 3.48641
# Velocity P-wave (km/s) = 5.16733 6.73140 6.00054
#
# Compressibility (1/GPa) = 0.03971254
#
# Stress axis : x y z
#
# Youngs Moduli (GPa) = 23.05011 74.54438 57.89377
#
# Poissons Ratio (x) = 0.42796 0.33449
# Poissons Ratio (y) = 0.13233 0.32772
# Poissons Ratio (z) = 0.13318 0.42198
#
# Static dielectric constant tensor:
#      x y z
#    x 3.471930 0.000000 -0.271760 
#    y 0.000000 3.642660 0.000000 
#    z -0.271760 0.000000 4.269420 
# 
# 
# High freq. dielectric constant tensor:
#      x y z
#    x 1.710920 0.000000 -0.029630 
#    y 0.000000 1.722350 0.000000 
#    z -0.029630 0.000000 1.748650 
# 
# From -- ./inp_files/105784.got.cif
#   From: 2010.06.25/outbox.cif.g09.slc.cpg/sg15_53_cif.got.tgz:105784.got - 2010.06.28 07:06:18.
