data_PCOD8134242
_publ_section_title
;
Structure prediction by ZEFSAII (Michael W. Deem and Ramdas Pophale) SiO2 
 PCOD8134242
Probable space group: C 2/C
;
_chemical_formula_sum "Si O2"
_cell_formula_units_Z 60
_cell_length_a 22.299363
_cell_length_b 8.996666
_cell_length_c 24.905651
_cell_angle_alpha 90.000000
_cell_angle_beta 32.740019
_cell_angle_gamma 90.000000
_cell_volume 2702.284582
_symmetry_space_group_name_H-M "C 2/C"
_symmetry_group_IT_number 15
_symmetry_cell_setting 'monoclinic'
loop_
_space_group_symop_operation_xyz
x,y,z
-x,y,1/2-z
-x,-y,-z
x,-y,1/2+z
1/2+x,1/2+y,z
1/2-x,1/2+y,1/2-z
1/2-x,1/2-y,-z
1/2+x,1/2-y,1/2+z
loop_
_atom_site_type_symbol
_atom_site_label
_atom_site_fract_x
_atom_site_fract_y
_atom_site_fract_z
Si Si1 0.057178 0.025420 0.038717
Si Si2 0.724872 0.133609 0.944849
Si Si3 0.003905 0.245718 0.503498
Si Si4 0.000000 0.539735 0.250000
Si Si5 0.472068 0.865928 0.655148
Si Si6 0.638128 0.983715 0.345514
Si Si7 0.233976 0.534993 0.054293
Si Si8 0.651804 0.566395 0.754935
O O1 0.955703 0.039787 0.157896
O O2 0.051955 0.866354 0.012298
O O3 0.167272 0.048399 0.990780
O O4 0.060514 0.156674 0.993744
O O5 0.775527 0.296704 0.916057
O O6 0.784637 0.052799 0.849699
O O7 0.591794 0.141799 0.034461
O O8 0.751617 0.033476 0.976961
O O9 0.105955 0.333408 0.400470
O O10 0.917169 0.364906 0.591039
O O11 0.003726 0.641550 0.300178
O O12 0.116824 0.451018 0.157403
O O13 0.404186 0.013205 0.685158
O O14 0.391140 0.731352 0.701495
O O15 0.770176 0.987275 0.254168
#
# Coordination Sequence:
#
# PCOD8134242 Si02
#       8
#     8   8   8   4   8   8   8   8
#     4  11  23  38  63 100 134 163 224 277 327 383
#     4  10  20  35  58  91 133 166 213 274 329 374
#     4  10  23  42  63  91 134 179 208 274 333 387
#     4  10  22  36  66  90 126 172 218 272 330 380
#     4  11  22  40  60  98 125 170 219 275 321 384
#     4  11  23  41  64  90 135 176 213 258 336 403
#     4  10  19  35  58  92 131 166 210 281 327 375
#     4  12  23  35  65  97 129 173 218 267 328 391
#
# _framework density 22.203434999999999
#
# number of rings (size 3 to 8) (size 9 to 14) (size 15 to 20)
#    0.000    1.333    4.000    2.400    1.867    1.600 
#    0.000    0.000    0.000    8.800    0.000    0.933 
#    0.000    0.000    0.000    0.000    0.000    0.000 
#
# Total GULP energy -371686.397989 kJ/mol
# GULP energy per Si atom -12389.546600 kJ/mol
# Density = 2.215290 g / cm^3
# Si number density = 22.203435 Si / 1000 Ang^3
#
#
#
# Elastic Constant Matrix: (Units=GPa)
#
#
# Indices 1 2 3 4 5 6 
#
# 1 149.7512 25.3833 74.4284 -0.0012 -21.5207 0.0035
# 2 25.3833 50.0242 13.9827 0.0002 -3.8845 0.0009
# 3 74.4284 13.9827 116.4696 0.0014 -24.2548 -0.0028
# 4 -0.0012 0.0002 0.0014 4.9668 0.0002 -6.1625
# 5 -21.5207 -3.8845 -24.2548 0.0002 46.0307 -0.0014
# 6 0.0035 0.0009 -0.0028 -6.1625 -0.0014 25.7756
#
#
#
# Elastic Compliance Matrix: (Units=1/GPa)
#
#
# Indices 1 2 3 4 5 6 
#
# 1 0.010438 -0.003522 -0.005946 0.000003 0.001450 -0.000001
# 2 -0.003522 0.021883 -0.000376 -0.000003 0.000002 -0.000001
# 3 -0.005946 -0.000376 0.013305 -0.000003 0.004199 0.000002
# 4 0.000003 -0.000003 -0.000003 0.286250 0.000000 0.068437
# 5 0.001450 0.000002 0.004199 0.000000 0.024615 0.000002
# 6 -0.000001 -0.000001 0.000002 0.068437 0.000002 0.055158
#
#
# Mechanical properties :
#
#
# Convention : Reuss Voigt Hill
#
# Bulk Modulus (GPa) = 38.55246 60.42598 49.48922
# Shear Modulus (GPa) = 11.36407 28.85131 20.10769
#
# Velocity S-wave (km/s) = 2.26479 3.60864 3.01260
# Velocity P-wave (km/s) = 4.92341 6.68108 5.86843
#
# Compressibility (1/GPa) = 0.02593868
#
# Stress axis : x y z
#
# Youngs Moduli (GPa) = 95.80244 45.69808 75.15968
#
# Poissons Ratio (x) = 0.16095 0.44687
# Poissons Ratio (y) = 0.33742 0.02826
# Poissons Ratio (z) = 0.56960 0.01718
#
# Static dielectric constant tensor:
#      x y z
#    x 4.422160 0.000000 0.046610 
#    y 0.000000 3.579650 0.000000 
#    z 0.046610 0.000000 4.288710 
# 
# 
# High freq. dielectric constant tensor:
#      x y z
#    x 1.896890 0.000000 -0.002980 
#    y 0.000000 1.813570 0.000000 
#    z -0.002980 0.000000 1.887220 
# 
# From -- ./inp_files/302069.got.cif
#   From: 2010.06.25/outbox.cif.g09.slc.cpg/sg15_152_cif.got.tgz:302069.got - 2010.06.28 07:06:18.
