data_PCOD8134569
_publ_section_title
;
Structure prediction by ZEFSAII (Michael W. Deem and Ramdas Pophale) SiO2 
 PCOD8134569
Probable space group: C 2/C
;
_chemical_formula_sum "Si O2"
_cell_formula_units_Z 32
_cell_length_a 5.232299
_cell_length_b 19.513034
_cell_length_c 13.693356
_cell_angle_alpha 90.000000
_cell_angle_beta 120.437689
_cell_angle_gamma 90.000000
_cell_volume 1205.384238
_symmetry_space_group_name_H-M "C 2/C"
_symmetry_group_IT_number 15
_symmetry_cell_setting 'monoclinic'
loop_
_space_group_symop_operation_xyz
x,y,z
-x,y,1/2-z
-x,-y,-z
x,-y,1/2+z
1/2+x,1/2+y,z
1/2-x,1/2+y,1/2-z
1/2-x,1/2-y,-z
1/2+x,1/2-y,1/2+z
loop_
_atom_site_type_symbol
_atom_site_label
_atom_site_fract_x
_atom_site_fract_y
_atom_site_fract_z
Si Si1 0.148840 0.499024 0.924851
Si Si2 0.544667 0.145663 0.898732
Si Si3 0.318038 0.131044 0.346695
Si Si4 0.526482 0.272655 0.374285
O O1 0.022400 0.568453 0.850569
O O2 0.047023 0.428014 0.854647
O O3 0.500000 0.500000 0.000000
O O4 0.000000 0.500000 0.000000
O O5 0.769875 0.181577 0.869574
O O6 0.225548 0.185510 0.831742
O O7 0.670775 0.143518 0.033766
O O8 0.391209 0.202149 0.305064
O O9 0.000000 0.104870 0.250000
O O10 0.750000 0.250000 0.500000
#
# Coordination Sequence:
#
# PCOD8134569 Si02
#       4
#     8   8   8   8
#     4  10  20  37  58  82 112 153 192 227 281 353
#     4  10  20  38  60  79 109 155 192 221 277 356
#     4  10  21  37  59  90 117 144 192 253 290 323
#     4  10  19  36  58  81 110 150 190 225 278 350
#
# _framework density 26.547550000000001
#
# number of rings (size 3 to 8) (size 9 to 14) (size 15 to 20)
#    0.000    2.000    0.000    7.500    0.000    2.000 
#    0.000   33.750    0.000    0.000    0.000    0.000 
#    0.000    0.000    0.000    0.000    0.000    0.000 
#
# Total GULP energy -198296.838879 kJ/mol
# GULP energy per Si atom -12393.552430 kJ/mol
# Density = 2.648713 g / cm^3
# Si number density = 26.547550 Si / 1000 Ang^3
#
#
#
# Elastic Constant Matrix: (Units=GPa)
#
#
# Indices 1 2 3 4 5 6 
#
# 1 227.7660 107.5260 50.0645 0.0000 29.3562 0.0000
# 2 107.5260 315.2954 28.2975 0.0000 43.9446 0.0000
# 3 50.0645 28.2975 70.5205 0.0000 15.8051 0.0000
# 4 0.0000 0.0000 0.0000 13.3735 0.0000 36.0788
# 5 29.3562 43.9446 15.8051 0.0000 58.9556 0.0000
# 6 0.0000 0.0000 0.0000 36.0788 0.0000 32.5315
#
#
#
# Elastic Compliance Matrix: (Units=1/GPa)
#
#
# Indices 1 2 3 4 5 6 
#
# 1 0.006024 -0.001625 -0.003429 0.000000 -0.000868 0.000000
# 2 -0.001625 0.004030 0.000030 0.000000 -0.002203 0.000000
# 3 -0.003429 0.000030 0.017262 0.000000 -0.002943 0.000000
# 4 0.000000 0.000000 0.000000 -0.037538 0.000000 0.041632
# 5 -0.000868 -0.002203 -0.002943 0.000000 0.019825 0.000000
# 6 0.000000 0.000000 0.000000 0.041632 0.000000 -0.015432
#
#
# Mechanical properties :
#
#
# Convention : Reuss Voigt Hill
#
# Bulk Modulus (GPa) = 57.91316 109.48420 83.69868
# Shear Modulus (GPa) = 501.20558 49.48504 275.34531
#
# Velocity S-wave (km/s) = 13.75519 4.32211 10.19524
# Velocity P-wave (km/s) = 16.55705 8.13866 13.04557
#
# Compressibility (1/GPa) = 0.01726723
#
# Stress axis : x y z
#
# Youngs Moduli (GPa) = 166.01510 248.12414 57.92984
#
# Poissons Ratio (x) = 0.40330 0.19867
# Poissons Ratio (y) = 0.26984 -0.00176
# Poissons Ratio (z) = 0.56934 -0.00755
#
# Static dielectric constant tensor:
#      x y z
#    x 4.602480 0.000000 0.931850 
#    y 0.000000 7.808030 0.000000 
#    z 0.931850 0.000000 3.979900 
# 
# 
# High freq. dielectric constant tensor:
#      x y z
#    x 2.079350 0.000000 -0.000290 
#    y 0.000000 2.094680 0.000000 
#    z -0.000290 0.000000 2.067240 
# 
# From -- ./inp_files/184786.got.cif
#   From: 2010.06.25/outbox.cif.g09.slc.cpg/sg15_93_cif.got.tgz:184786.got - 2010.06.28 07:06:18.
