data_PCOD8134805
_publ_section_title
;
Structure prediction by ZEFSAII (Michael W. Deem and Ramdas Pophale) SiO2 
 PCOD8134805
Probable space group: C 2/C
;
_chemical_formula_sum "Si O2"
_cell_formula_units_Z 64
_cell_length_a 16.291655
_cell_length_b 10.203817
_cell_length_c 19.421431
_cell_angle_alpha 90.000000
_cell_angle_beta 72.402141
_cell_angle_gamma 90.000000
_cell_volume 3077.471371
_symmetry_space_group_name_H-M "C 2/C"
_symmetry_group_IT_number 15
_symmetry_cell_setting 'monoclinic'
loop_
_space_group_symop_operation_xyz
x,y,z
-x,y,1/2-z
-x,-y,-z
x,-y,1/2+z
1/2+x,1/2+y,z
1/2-x,1/2+y,1/2-z
1/2-x,1/2-y,-z
1/2+x,1/2-y,1/2+z
loop_
_atom_site_type_symbol
_atom_site_label
_atom_site_fract_x
_atom_site_fract_y
_atom_site_fract_z
Si Si1 0.061868 0.358145 0.052452
Si Si2 0.068541 0.786659 0.679336
Si Si3 0.797805 0.993147 0.897609
Si Si4 0.816153 0.608531 0.187228
Si Si5 0.766409 0.457447 0.439816
Si Si6 0.281567 0.864617 0.296240
Si Si7 0.674786 0.766175 0.574952
Si Si8 0.492612 0.148596 0.080495
O O1 0.020976 0.266312 0.122380
O O2 0.163430 0.360032 0.044120
O O3 0.021521 0.500415 0.064806
O O4 0.045452 0.295990 0.981757
O O5 0.122602 0.915225 0.651183
O O6 0.123032 0.670263 0.701190
O O7 0.000000 0.838928 0.750000
O O8 0.711250 0.938793 0.883092
O O9 0.811347 0.146909 0.874998
O O10 0.799358 0.982488 0.980934
O O11 0.764249 0.737741 0.226330
O O12 0.790931 0.488218 0.243504
O O13 0.917431 0.646930 0.158118
O O14 0.725727 0.395745 0.380593
O O15 0.810920 0.589682 0.397829
O O16 0.750000 0.750000 0.500000
O O17 0.574898 0.759709 0.575593
#
# Coordination Sequence:
#
# PCOD8134805 Si02
#       8
#     8   8   8   8   8   8   8   8
#     4   9  18  32  62  88 114 149 209 262 293 366
#     4  10  21  39  56  84 124 165 207 250 322 378
#     4  10  21  38  63  86 125 170 207 258 325 392
#     4  11  23  40  63  94 129 167 218 261 330 381
#     4   9  18  38  63  89 114 161 214 257 313 374
#     4  10  24  39  63  92 126 168 207 268 318 384
#     4   9  20  38  59  92 126 157 201 266 326 372
#     4  10  19  36  62  95 117 160 213 260 308 382
#
# _framework density 20.796294
#
# number of rings (size 3 to 8) (size 9 to 14) (size 15 to 20)
#    0.000    2.250    1.250    0.750    5.250    1.500 
#    4.500    1.875    0.000    0.000    0.000    0.000 
#    0.000    0.000    0.000    0.000    0.000    0.000 
#
# Total GULP energy -396434.220838 kJ/mol
# GULP energy per Si atom -12388.569401 kJ/mol
# Density = 2.074896 g / cm^3
# Si number density = 20.796294 Si / 1000 Ang^3
#
#
#
# Elastic Constant Matrix: (Units=GPa)
#
#
# Indices 1 2 3 4 5 6 
#
# 1 83.7991 31.9961 34.1531 0.0000 -13.0336 0.0000
# 2 31.9961 95.7037 42.8652 0.0000 0.8151 0.0000
# 3 34.1531 42.8652 95.0197 0.0000 -11.8812 0.0000
# 4 0.0000 0.0000 0.0000 31.9410 0.0000 1.0143
# 5 -13.0336 0.8151 -11.8812 0.0000 23.2052 0.0000
# 6 0.0000 0.0000 0.0000 1.0143 0.0000 19.3615
#
#
#
# Elastic Compliance Matrix: (Units=1/GPa)
#
#
# Indices 1 2 3 4 5 6 
#
# 1 0.015846 -0.004052 -0.002924 0.000000 0.007545 0.000000
# 2 -0.004052 0.014439 -0.005775 0.000000 -0.005740 0.000000
# 3 -0.002924 -0.005775 0.014958 0.000000 0.006219 0.000000
# 4 0.000000 0.000000 0.000000 0.031360 0.000000 -0.001643
# 5 0.007545 -0.005740 0.006219 0.000000 0.050718 0.000000
# 6 0.000000 0.000000 0.000000 -0.001643 0.000000 0.051735
#
#
# Mechanical properties :
#
#
# Convention : Reuss Voigt Hill
#
# Bulk Modulus (GPa) = 50.65747 54.72793 52.69270
# Shear Modulus (GPa) = 23.68119 25.93540 24.80830
#
# Velocity S-wave (km/s) = 3.37816 3.53528 3.45761
# Velocity P-wave (km/s) = 6.29505 6.56031 6.42905
#
# Compressibility (1/GPa) = 0.01974042
#
# Stress axis : x y z
#
# Youngs Moduli (GPa) = 63.10838 69.25610 66.85407
#
# Poissons Ratio (x) = 0.28064 0.19548
# Poissons Ratio (y) = 0.25573 0.38608
# Poissons Ratio (z) = 0.18453 0.39995
#
# Static dielectric constant tensor:
#      x y z
#    x 3.680240 0.000000 0.150820 
#    y 0.000000 4.013500 0.000000 
#    z 0.150820 0.000000 3.758910 
# 
# 
# High freq. dielectric constant tensor:
#      x y z
#    x 1.789660 0.000000 -0.002780 
#    y 0.000000 1.815950 0.000000 
#    z -0.002780 0.000000 1.805820 
# 
# From -- ./inp_files/210283.got.cif
#   From: 2010.06.25/outbox.cif.g09.slc.cpg/sg15_106_cif.got.tgz:210283.got - 2010.06.28 07:06:18.
