data_PCOD8134733
_publ_section_title
;
Structure prediction by ZEFSAII (Michael W. Deem and Ramdas Pophale) SiO2 
 PCOD8134733
Probable space group: C 2/C
;
_chemical_formula_sum "Si O2"
_cell_formula_units_Z 40
_cell_length_a 27.108464
_cell_length_b 16.233692
_cell_length_c 14.905927
_cell_angle_alpha 90.000000
_cell_angle_beta 161.895782
_cell_angle_gamma 90.000000
_cell_volume 2038.390159
_symmetry_space_group_name_H-M "C 2/C"
_symmetry_group_IT_number 15
_symmetry_cell_setting 'monoclinic'
loop_
_space_group_symop_operation_xyz
x,y,z
-x,y,1/2-z
-x,-y,-z
x,-y,1/2+z
1/2+x,1/2+y,z
1/2-x,1/2+y,1/2-z
1/2-x,1/2-y,-z
1/2+x,1/2-y,1/2+z
loop_
_atom_site_type_symbol
_atom_site_label
_atom_site_fract_x
_atom_site_fract_y
_atom_site_fract_z
Si Si1 0.500000 0.517918 0.250000
Si Si2 0.303611 0.265685 0.694106
Si Si3 0.834434 0.412470 0.281297
Si Si4 0.925644 0.535554 0.743749
Si Si5 0.000000 0.328569 0.250000
Si Si6 0.098499 0.055211 0.102712
O O1 0.652375 0.576289 0.497414
O O2 0.531286 0.457153 0.387200
O O3 0.250000 0.250000 0.500000
O O4 0.389579 0.182857 0.876511
O O5 0.154027 0.273104 0.502196
O O6 0.413337 0.347382 0.890845
O O7 0.849182 0.452223 0.208655
O O8 0.958781 0.457352 0.561646
O O9 0.024418 0.615531 0.881992
O O10 0.781468 0.525351 0.423744
O O11 0.000000 0.000000 0.000000
#
# Coordination Sequence:
#
# PCOD8134733 Si02
#       6
#     4   8   8   8   4   8
#     4  12  23  40  67  94 126 172 212 261 334 367
#     4  11  20  37  61  94 123 162 212 259 314 376
#     4  11  21  38  65  95 122 166 213 258 315 383
#     4  10  21  39  64  89 126 165 211 256 318 376
#     4  10  19  36  61  86 124 168 206 255 310 377
#     4  11  22  42  64  93 130 168 214 266 314 385
#
# _framework density 19.623328999999998
#
# number of rings (size 3 to 8) (size 9 to 14) (size 15 to 20)
#    0.000    1.200    6.000    3.000    0.000    0.000 
#    0.000    4.000    0.000    0.000    0.000    0.000 
#    0.000    0.000    0.000    0.000    0.000    0.000 
#
# Total GULP energy -247887.284765 kJ/mol
# GULP energy per Si atom -12394.364238 kJ/mol
# Density = 1.957867 g / cm^3
# Si number density = 19.623329 Si / 1000 Ang^3
#
#
#
# Elastic Constant Matrix: (Units=GPa)
#
#
# Indices 1 2 3 4 5 6 
#
# 1 95.6417 26.1217 31.3637 0.0000 1.3568 0.0000
# 2 26.1217 158.1467 61.8648 0.0000 -3.3823 0.0000
# 3 31.3637 61.8648 94.6298 0.0000 -3.4338 0.0000
# 4 0.0000 0.0000 0.0000 33.9017 0.0000 -1.9955
# 5 1.3568 -3.3823 -3.4338 0.0000 39.2374 0.0000
# 6 0.0000 0.0000 0.0000 -1.9955 0.0000 35.8277
#
#
#
# Elastic Compliance Matrix: (Units=1/GPa)
#
#
# Indices 1 2 3 4 5 6 
#
# 1 0.011791 -0.000570 -0.003563 0.000000 -0.000769 0.000000
# 2 -0.000570 0.008526 -0.005375 0.000000 0.000284 0.000000
# 3 -0.003563 -0.005375 0.015298 0.000000 0.000999 0.000000
# 4 0.000000 0.000000 0.000000 0.029594 0.000000 0.001648
# 5 -0.000769 0.000284 0.000999 0.000000 0.025624 0.000000
# 6 0.000000 0.000000 0.000000 0.001648 0.000000 0.028003
#
#
# Mechanical properties :
#
#
# Convention : Reuss Voigt Hill
#
# Bulk Modulus (GPa) = 60.24295 65.23540 62.73917
# Shear Modulus (GPa) = 34.87106 37.06457 35.96782
#
# Velocity S-wave (km/s) = 4.22005 4.35075 4.28590
# Velocity P-wave (km/s) = 7.38318 7.65210 7.51884
#
# Compressibility (1/GPa) = 0.01659945
#
# Stress axis : x y z
#
# Youngs Moduli (GPa) = 84.81235 117.28858 65.36659
#
# Poissons Ratio (x) = 0.06687 0.23290
# Poissons Ratio (y) = 0.04836 0.35132
# Poissons Ratio (z) = 0.30219 0.63038
#
# Static dielectric constant tensor:
#      x y z
#    x 3.925240 0.000000 0.157450 
#    y 0.000000 3.844230 0.000000 
#    z 0.157450 0.000000 3.579510 
# 
# 
# High freq. dielectric constant tensor:
#      x y z
#    x 1.781870 0.000000 0.013600 
#    y 0.000000 1.763310 0.000000 
#    z 0.013600 0.000000 1.740170 
# 
# From -- ./inp_files/133863.got.cif
#   From: 2010.06.25/outbox.cif.g09.slc.cpg/sg15_67_cif.got.tgz:133863.got - 2010.06.28 07:06:18.
