data_PCOD8134179
_publ_section_title
;
Structure prediction by ZEFSAII (Michael W. Deem and Ramdas Pophale) SiO2 
 PCOD8134179
Probable space group: C 2/C
;
_chemical_formula_sum "Si O2"
_cell_formula_units_Z 64
_cell_length_a 15.720226
_cell_length_b 11.482602
_cell_length_c 30.405050
_cell_angle_alpha 90.000000
_cell_angle_beta 39.118903
_cell_angle_gamma 90.000000
_cell_volume 3462.798657
_symmetry_space_group_name_H-M "C 2/C"
_symmetry_group_IT_number 15
_symmetry_cell_setting 'monoclinic'
loop_
_space_group_symop_operation_xyz
x,y,z
-x,y,1/2-z
-x,-y,-z
x,-y,1/2+z
1/2+x,1/2+y,z
1/2-x,1/2+y,1/2-z
1/2-x,1/2-y,-z
1/2+x,1/2-y,1/2+z
loop_
_atom_site_type_symbol
_atom_site_label
_atom_site_fract_x
_atom_site_fract_y
_atom_site_fract_z
Si Si1 0.717806 0.690562 0.293794
Si Si2 0.797092 0.726844 0.410108
Si Si3 0.807198 0.055448 0.663926
Si Si4 0.158654 0.429344 0.841213
Si Si5 0.567611 0.881532 0.321467
Si Si6 0.033341 0.232604 0.572204
Si Si7 0.842423 0.123401 0.808192
Si Si8 0.116029 0.508233 0.670207
O O1 0.680026 0.584369 0.340355
O O2 0.779435 0.644310 0.223759
O O3 0.575114 0.753594 0.339739
O O4 0.816336 0.780768 0.280216
O O5 0.910542 0.749457 0.401206
O O6 0.650063 0.723258 0.490004
O O7 0.792551 0.827217 0.375017
O O8 0.827432 0.601631 0.377793
O O9 0.717029 0.101025 0.740372
O O10 0.953957 0.110827 0.605193
O O11 0.731389 0.081079 0.648529
O O12 0.050912 0.522081 0.865893
O O13 0.268339 0.499633 0.826750
O O14 0.068768 0.334838 0.903428
O O15 0.445809 0.893638 0.336788
O O16 0.000000 0.096570 0.750000
O O17 0.000000 0.461614 0.750000
#
# Coordination Sequence:
#
# PCOD8134179 Si02
#       8
#     8   8   8   8   8   8   8   8
#     4  10  19  35  58  86 112 148 184 232 301 333
#     4  11  23  38  60  82 112 164 195 241 269 350
#     4  10  20  33  57  85 110 149 181 247 279 341
#     4  10  20  36  58  85 115 150 182 243 290 342
#     4   9  18  32  59  82 112 144 183 233 293 336
#     4  11  23  40  57  82 120 153 202 227 293 347
#     4  11  23  37  61  90 115 147 198 241 286 341
#     4  10  19  35  57  87 108 141 195 240 280 336
#
# _framework density 18.48216
#
# number of rings (size 3 to 8) (size 9 to 14) (size 15 to 20)
#    0.000    1.750    3.750    1.125    5.250    1.000 
#    2.250    0.000    0.000    0.750    0.000    0.000 
#    0.000    0.000    0.000    0.000    0.000    0.000 
#
# Total GULP energy -396592.001563 kJ/mol
# GULP energy per Si atom -12393.500049 kJ/mol
# Density = 1.844009 g / cm^3
# Si number density = 18.482160 Si / 1000 Ang^3
#
#
#
# Elastic Constant Matrix: (Units=GPa)
#
#
# Indices 1 2 3 4 5 6 
#
# 1 108.2321 41.3625 37.9494 0.0000 -11.3756 0.0000
# 2 41.3625 78.3940 22.0001 0.0000 -19.5606 0.0001
# 3 37.9494 22.0001 70.4701 0.0000 -9.4015 0.0000
# 4 0.0000 0.0000 0.0000 15.7224 0.0000 -3.9482
# 5 -11.3756 -19.5606 -9.4015 0.0000 23.9595 0.0000
# 6 0.0000 0.0001 0.0000 -3.9482 0.0000 31.1319
#
#
#
# Elastic Compliance Matrix: (Units=1/GPa)
#
#
# Indices 1 2 3 4 5 6 
#
# 1 0.013227 -0.005548 -0.005443 0.000000 -0.000385 0.000000
# 2 -0.005548 0.019175 -0.001331 0.000000 0.012498 0.000000
# 3 -0.005443 -0.001331 0.017989 0.000000 0.003388 0.000000
# 4 0.000000 0.000000 0.000000 0.065696 0.000000 0.008332
# 5 -0.000385 0.012498 0.003388 0.000000 0.053088 0.000000
# 6 0.000000 0.000000 0.000000 0.008332 0.000000 0.033178
#
#
# Mechanical properties :
#
#
# Convention : Reuss Voigt Hill
#
# Bulk Modulus (GPa) = 38.83735 51.08002 44.95869
# Shear Modulus (GPa) = 21.22428 24.54837 22.88632
#
# Velocity S-wave (km/s) = 3.39243 3.64843 3.52276
# Velocity P-wave (km/s) = 6.03356 6.74133 6.39724
#
# Compressibility (1/GPa) = 0.02574841
#
# Stress axis : x y z
#
# Youngs Moduli (GPa) = 75.60042 52.15019 55.58967
#
# Poissons Ratio (x) = 0.28931 0.30255
# Poissons Ratio (y) = 0.41941 0.07401
# Poissons Ratio (z) = 0.41146 0.06943
#
# Static dielectric constant tensor:
#      x y z
#    x 3.665310 0.000000 0.056140 
#    y 0.000000 3.563680 0.000000 
#    z 0.056140 0.000000 3.113580 
# 
# 
# High freq. dielectric constant tensor:
#      x y z
#    x 1.729910 0.000000 0.002790 
#    y 0.000000 1.719180 0.000000 
#    z 0.002790 0.000000 1.679640 
# 
# From -- ./inp_files/313568.got.cif
#   From: 2010.06.25/outbox.cif.g09.slc.cpg/sg15_157_cif.got.tgz:313568.got - 2010.06.28 07:06:18.
