data_PCOD8134847
_publ_section_title
;
Structure prediction by ZEFSAII (Michael W. Deem and Ramdas Pophale) SiO2 
 PCOD8134847
Probable space group: C 2/C
;
_chemical_formula_sum "Si O2"
_cell_formula_units_Z 52
_cell_length_a 24.524385
_cell_length_b 15.081276
_cell_length_c 18.573503
_cell_angle_alpha 90.000000
_cell_angle_beta 159.833500
_cell_angle_gamma 90.000000
_cell_volume 2368.282871
_symmetry_space_group_name_H-M "C 2/C"
_symmetry_group_IT_number 15
_symmetry_cell_setting 'monoclinic'
loop_
_space_group_symop_operation_xyz
x,y,z
-x,y,1/2-z
-x,-y,-z
x,-y,1/2+z
1/2+x,1/2+y,z
1/2-x,1/2+y,1/2-z
1/2-x,1/2-y,-z
1/2+x,1/2-y,1/2+z
loop_
_atom_site_type_symbol
_atom_site_label
_atom_site_fract_x
_atom_site_fract_y
_atom_site_fract_z
Si Si1 0.867376 0.770470 0.318570
Si Si2 0.955126 0.289824 0.075728
Si Si3 0.031186 0.056571 0.634926
Si Si4 0.263565 0.968530 0.822063
Si Si5 0.592646 0.140105 0.547125
Si Si6 0.265845 0.348863 0.414106
Si Si7 0.000000 0.996190 0.750000
O O1 0.956634 0.771230 0.505899
O O2 0.942467 0.846133 0.362950
O O3 0.682594 0.789715 0.104936
O O4 0.911986 0.676515 0.334046
O O5 0.134626 0.322093 0.311561
O O6 0.837973 0.372342 0.919257
O O7 0.895713 0.229588 0.067958
O O8 0.858800 0.023177 0.395974
O O9 0.167215 0.989621 0.775508
O O10 0.040127 0.058688 0.732205
O O11 0.402556 0.041924 0.981404
O O12 0.677829 0.135756 0.729540
O O13 0.348176 0.437220 0.543434
#
# Coordination Sequence:
#
# PCOD8134847 Si02
#       7
#     8   8   8   8   8   8   4
#     4   9  18  33  57  86 118 148 196 250 302 343
#     4  10  21  38  63  97 121 156 205 261 312 354
#     4  10  21  37  61  87 125 167 198 254 303 369
#     4  10  19  36  64  91 119 152 209 260 307 352
#     4   9  17  34  57  91 114 148 195 252 306 343
#     4  10  22  37  56  89 127 160 198 246 310 377
#     4  12  24  40  58  88 128 168 214 236 306 390
#
# _framework density 21.956837
#
# number of rings (size 3 to 8) (size 9 to 14) (size 15 to 20)
#    0.000    2.154    1.538    2.769    4.308    3.077 
#    2.769    0.000    0.000    8.308    0.000    0.000 
#    0.000    0.000    0.000    0.000    0.000    0.000 
#
# Total GULP energy -322216.468774 kJ/mol
# GULP energy per Si atom -12392.941107 kJ/mol
# Density = 2.190686 g / cm^3
# Si number density = 21.956837 Si / 1000 Ang^3
#
#
#
# Elastic Constant Matrix: (Units=GPa)
#
#
# Indices 1 2 3 4 5 6 
#
# 1 97.2278 31.7301 30.1919 0.0022 -3.8593 0.0013
# 2 31.7301 72.4931 15.3854 0.0036 -8.4259 0.0028
# 3 30.1919 15.3854 32.9493 0.0040 9.2587 0.0035
# 4 0.0022 0.0036 0.0040 21.7142 0.0034 9.9459
# 5 -3.8593 -8.4259 9.2587 0.0034 19.4113 0.0030
# 6 0.0013 0.0028 0.0035 9.9459 0.0030 37.2906
#
#
#
# Elastic Compliance Matrix: (Units=1/GPa)
#
#
# Indices 1 2 3 4 5 6 
#
# 1 0.016872 -0.002508 -0.017236 0.000000 0.010487 0.000000
# 2 -0.002508 0.018346 -0.009661 -0.000003 0.012073 -0.000001
# 3 -0.017236 -0.009661 0.060967 -0.000002 -0.036700 -0.000001
# 4 0.000000 -0.000003 -0.000002 0.052462 -0.000007 -0.013992
# 5 0.010487 0.012073 -0.036700 -0.000007 0.076347 -0.000002
# 6 0.000000 -0.000001 -0.000001 -0.013992 -0.000002 0.030548
#
#
# Mechanical properties :
#
#
# Convention : Reuss Voigt Hill
#
# Bulk Modulus (GPa) = 26.75554 39.69835 33.22694
# Shear Modulus (GPa) = 15.29947 24.04073 19.67010
#
# Velocity S-wave (km/s) = 2.64256 3.31253 2.99633
# Velocity P-wave (km/s) = 4.63926 5.72275 5.20925
#
# Compressibility (1/GPa) = 0.03737544
#
# Stress axis : x y z
#
# Youngs Moduli (GPa) = 59.26955 54.50869 16.40240
#
# Poissons Ratio (x) = 0.13671 0.28271
# Poissons Ratio (y) = 0.14865 0.15846
# Poissons Ratio (z) = 1.02156 0.52659
#
# Static dielectric constant tensor:
#      x y z
#    x 4.141020 0.000000 0.526690 
#    y 0.000000 3.915260 0.000000 
#    z 0.526690 0.000000 3.737680 
# 
# 
# High freq. dielectric constant tensor:
#      x y z
#    x 1.861640 0.000000 0.038760 
#    y 0.000000 1.864320 0.000000 
#    z 0.038760 0.000000 1.823410 
# 
# From -- ./inp_files/257811.got.cif
#   From: 2010.06.25/outbox.cif.g09.slc.cpg/sg15_129_cif.got.tgz:257811.got - 2010.06.28 07:06:18.
