data_PCOD8134329
_publ_section_title
;
Structure prediction by ZEFSAII (Michael W. Deem and Ramdas Pophale) SiO2 
 PCOD8134329
Probable space group: C 2/C
;
_chemical_formula_sum "Si O2"
_cell_formula_units_Z 60
_cell_length_a 14.839135
_cell_length_b 15.058459
_cell_length_c 16.148046
_cell_angle_alpha 90.000000
_cell_angle_beta 56.559357
_cell_angle_gamma 90.000000
_cell_volume 3011.016559
_symmetry_space_group_name_H-M "C 2/C"
_symmetry_group_IT_number 15
_symmetry_cell_setting 'monoclinic'
loop_
_space_group_symop_operation_xyz
x,y,z
-x,y,1/2-z
-x,-y,-z
x,-y,1/2+z
1/2+x,1/2+y,z
1/2-x,1/2+y,1/2-z
1/2-x,1/2-y,-z
1/2+x,1/2-y,1/2+z
loop_
_atom_site_type_symbol
_atom_site_label
_atom_site_fract_x
_atom_site_fract_y
_atom_site_fract_z
Si Si1 0.060582 0.472519 0.135935
Si Si2 0.769514 0.387385 0.946240
Si Si3 0.915348 0.667006 0.636666
Si Si4 0.934861 0.001119 0.947919
Si Si5 0.789577 0.208438 0.862651
Si Si6 0.683982 0.189624 0.636964
Si Si7 0.500000 0.392131 0.250000
Si Si8 0.904406 0.197443 0.459746
O O1 0.120782 0.563162 0.077103
O O2 0.153615 0.401114 0.106118
O O3 0.000000 0.498573 0.250000
O O4 0.975793 0.429646 0.112321
O O5 0.791027 0.316952 0.859806
O O6 0.682309 0.461634 0.965368
O O7 0.717284 0.325984 0.041247
O O8 0.810026 0.662571 0.634261
O O9 0.878364 0.698048 0.745804
O O10 0.996527 0.741432 0.559297
O O11 0.979907 0.051936 0.844135
O O12 0.938293 0.900289 0.917784
O O13 0.000000 0.000000 0.000000
O O14 0.901439 0.170734 0.771018
O O15 0.814184 0.195709 0.579084
O O16 0.645264 0.270318 0.600909
#
# Coordination Sequence:
#
# PCOD8134329 Si02
#       8
#     8   8   8   8   8   8   4   8
#     4   9  18  34  60  87 116 153 201 250 305 363
#     4  10  21  41  58  83 116 166 201 257 305 366
#     4  10  21  37  59  91 118 155 202 255 304 375
#     4  11  23  38  65  92 125 159 208 253 313 380
#     4  10  23  42  59  79 125 158 212 251 309 371
#     4   9  19  35  58  87 124 157 187 248 315 370
#     4  10  26  42  62  90 120 172 202 262 314 370
#     4  10  19  35  60  89 123 155 191 246 317 367
#
# _framework density 19.926825999999998
#
# number of rings (size 3 to 8) (size 9 to 14) (size 15 to 20)
#    0.000    2.133    1.333    2.000    4.667    0.533 
#    0.000    0.000    0.000    0.000    0.000    0.000 
#    0.000    0.000    0.000    0.000    0.000    0.000 
#
# Total GULP energy -371673.485611 kJ/mol
# GULP energy per Si atom -12389.116187 kJ/mol
# Density = 1.988147 g / cm^3
# Si number density = 19.926826 Si / 1000 Ang^3
#
#
#
# Elastic Constant Matrix: (Units=GPa)
#
#
# Indices 1 2 3 4 5 6 
#
# 1 126.1261 38.8684 25.2091 0.0000 -17.4146 0.0000
# 2 38.8684 110.1842 25.8268 0.0000 -12.9087 0.0000
# 3 25.2091 25.8268 56.6878 0.0000 -13.3739 0.0000
# 4 0.0000 0.0000 0.0000 17.8183 0.0000 -5.3040
# 5 -17.4146 -12.9087 -13.3739 0.0000 32.9509 0.0000
# 6 0.0000 0.0000 0.0000 -5.3040 0.0000 27.1661
#
#
#
# Elastic Compliance Matrix: (Units=1/GPa)
#
#
# Indices 1 2 3 4 5 6 
#
# 1 0.009599 -0.002454 -0.002412 0.000000 0.003133 0.000000
# 2 -0.002454 0.010952 -0.003530 0.000000 0.001561 0.000000
# 3 -0.002412 -0.003530 0.021780 0.000000 0.006182 0.000000
# 4 0.000000 0.000000 0.000000 0.059585 0.000000 0.011634
# 5 0.003133 0.001561 0.006182 0.000000 0.035125 0.000000
# 6 0.000000 0.000000 0.000000 0.011634 0.000000 0.039082
#
#
# Mechanical properties :
#
#
# Convention : Reuss Voigt Hill
#
# Bulk Modulus (GPa) = 39.15505 52.53407 45.84456
# Shear Modulus (GPa) = 24.82290 29.12668 26.97479
#
# Velocity S-wave (km/s) = 3.53328 3.82734 3.68325
# Velocity P-wave (km/s) = 6.02806 6.77880 6.41442
#
# Compressibility (1/GPa) = 0.02553949
#
# Stress axis : x y z
#
# Youngs Moduli (GPa) = 104.17291 91.31060 45.91412
#
# Poissons Ratio (x) = 0.22407 0.11073
# Poissons Ratio (y) = 0.25563 0.16208
# Poissons Ratio (z) = 0.25123 0.32233
#
# Static dielectric constant tensor:
#      x y z
#    x 3.376580 0.000000 -0.486680 
#    y 0.000000 4.441960 0.000000 
#    z -0.486680 0.000000 3.506720 
# 
# 
# High freq. dielectric constant tensor:
#      x y z
#    x 1.772450 0.000000 -0.023680 
#    y 0.000000 1.783590 0.000000 
#    z -0.023680 0.000000 1.765190 
# 
# From -- ./inp_files/154243.got.cif
#   From: 2010.06.25/outbox.cif.g09.slc.cpg/sg15_78_cif.got.tgz:154243.got - 2010.06.28 07:06:18.
