data_PCOD8134824
_publ_section_title
;
Structure prediction by ZEFSAII (Michael W. Deem and Ramdas Pophale) SiO2 
 PCOD8134824
Probable space group: C 2/C
;
_chemical_formula_sum "Si O2"
_cell_formula_units_Z 60
_cell_length_a 11.683942
_cell_length_b 14.016540
_cell_length_c 19.129579
_cell_angle_alpha 90.000000
_cell_angle_beta 105.006105
_cell_angle_gamma 90.000000
_cell_volume 3025.986607
_symmetry_space_group_name_H-M "C 2/C"
_symmetry_group_IT_number 15
_symmetry_cell_setting 'monoclinic'
loop_
_space_group_symop_operation_xyz
x,y,z
-x,y,1/2-z
-x,-y,-z
x,-y,1/2+z
1/2+x,1/2+y,z
1/2-x,1/2+y,1/2-z
1/2-x,1/2-y,-z
1/2+x,1/2-y,1/2+z
loop_
_atom_site_type_symbol
_atom_site_label
_atom_site_fract_x
_atom_site_fract_y
_atom_site_fract_z
Si Si1 0.882072 0.541564 0.112358
Si Si2 0.886310 0.284767 0.961812
Si Si3 0.500000 0.820189 0.250000
Si Si4 0.309512 0.134364 0.830399
Si Si5 0.344900 0.067717 0.350044
Si Si6 0.670788 0.177056 0.891193
Si Si7 0.139011 0.306603 0.774975
Si Si8 0.354555 0.181626 0.993558
O O1 0.831654 0.436736 0.119787
O O2 0.830206 0.619383 0.158414
O O3 0.021908 0.532460 0.142894
O O4 0.842692 0.578413 0.029264
O O5 0.835964 0.386102 0.925598
O O6 0.809933 0.202820 0.911478
O O7 0.879184 0.284393 0.043806
O O8 0.022653 0.270233 0.960250
O O9 0.587776 0.876643 0.211797
O O10 0.407699 0.768067 0.181676
O O11 0.204889 0.205749 0.793773
O O12 0.364767 0.167608 0.912567
O O13 0.260567 0.025849 0.831793
O O14 0.310428 0.147119 0.287731
O O15 0.000000 0.283894 0.750000
O O16 0.250000 0.250000 0.000000
#
# Coordination Sequence:
#
# PCOD8134824 Si02
#       8
#     8   8   4   8   8   8   8   8
#     4  10  19  36  63  91 117 158 211 254 301 363
#     4  10  22  39  60  92 126 160 207 255 310 361
#     4  12  22  36  60  96 118 156 206 256 308 358
#     4  12  22  38  65  90 124 158 213 257 310 362
#     4  10  20  36  62  89 118 163 211 256 298 368
#     4  11  21  37  62  91 126 160 202 261 305 364
#     4  10  22  38  61  91 124 161 203 258 311 366
#     4  11  21  39  63  90 123 162 206 258 307 369
#
# _framework density 19.828243000000001
#
# number of rings (size 3 to 8) (size 9 to 14) (size 15 to 20)
#    0.000    1.333    4.000    2.400    1.867    2.133 
#    0.000    0.667    5.867    0.000    0.000    0.000 
#    0.000    0.000    0.000    0.000    0.000    0.000 
#
# Total GULP energy -371663.201945 kJ/mol
# GULP energy per Si atom -12388.773398 kJ/mol
# Density = 1.978311 g / cm^3
# Si number density = 19.828243 Si / 1000 Ang^3
#
#
#
# Elastic Constant Matrix: (Units=GPa)
#
#
# Indices 1 2 3 4 5 6 
#
# 1 75.2483 46.7406 42.6003 0.0000 8.5676 0.0000
# 2 46.7406 121.0831 49.8450 0.0000 20.7628 0.0000
# 3 42.6003 49.8450 143.8725 0.0000 4.1541 0.0000
# 4 0.0000 0.0000 0.0000 28.5964 0.0000 6.1917
# 5 8.5676 20.7628 4.1541 0.0000 28.3541 0.0000
# 6 0.0000 0.0000 0.0000 6.1917 0.0000 22.6352
#
#
#
# Elastic Compliance Matrix: (Units=1/GPa)
#
#
# Indices 1 2 3 4 5 6 
#
# 1 0.018974 -0.005647 -0.003631 0.000000 -0.001066 0.000000
# 2 -0.005647 0.012719 -0.002526 0.000000 -0.007238 0.000000
# 3 -0.003631 -0.002526 0.008853 0.000000 0.001650 0.000000
# 4 0.000000 0.000000 0.000000 0.037171 0.000000 -0.010168
# 5 -0.001066 -0.007238 0.001650 0.000000 0.040649 0.000000
# 6 0.000000 0.000000 0.000000 -0.010168 0.000000 0.046960
#
#
# Mechanical properties :
#
#
# Convention : Reuss Voigt Hill
#
# Bulk Modulus (GPa) = 59.03364 68.73064 63.88214
# Shear Modulus (GPa) = 25.69642 29.31834 27.50738
#
# Velocity S-wave (km/s) = 3.60384 3.84945 3.72867
# Velocity P-wave (km/s) = 6.86688 7.38214 7.12916
#
# Compressibility (1/GPa) = 0.01693950
#
# Stress axis : x y z
#
# Youngs Moduli (GPa) = 52.70422 78.62030 112.95435
#
# Poissons Ratio (x) = 0.44395 0.41014
# Poissons Ratio (y) = 0.29761 0.28529
# Poissons Ratio (z) = 0.19137 0.19857
#
# Static dielectric constant tensor:
#      x y z
#    x 3.520820 0.000000 -0.048330 
#    y 0.000000 3.487500 0.000000 
#    z -0.048330 0.000000 4.082480 
# 
# 
# High freq. dielectric constant tensor:
#      x y z
#    x 1.749590 0.000000 -0.014110 
#    y 0.000000 1.753010 0.000000 
#    z -0.014110 0.000000 1.799440 
# 
# From -- ./inp_files/238801.got.cif
#   From: 2010.06.25/outbox.cif.g09.slc.cpg/sg15_120_cif.got.tgz:238801.got - 2010.06.28 07:06:18.
