data_PCOD8134352
_publ_section_title
;
Structure prediction by ZEFSAII (Michael W. Deem and Ramdas Pophale) SiO2 
 PCOD8134352
Probable space group: C 2/C
;
_chemical_formula_sum "Si O2"
_cell_formula_units_Z 52
_cell_length_a 8.549319
_cell_length_b 30.318965
_cell_length_c 14.096109
_cell_angle_alpha 90.000000
_cell_angle_beta 138.311354
_cell_angle_gamma 90.000000
_cell_volume 2430.080096
_symmetry_space_group_name_H-M "C 2/C"
_symmetry_group_IT_number 15
_symmetry_cell_setting 'monoclinic'
loop_
_space_group_symop_operation_xyz
x,y,z
-x,y,1/2-z
-x,-y,-z
x,-y,1/2+z
1/2+x,1/2+y,z
1/2-x,1/2+y,1/2-z
1/2-x,1/2-y,-z
1/2+x,1/2-y,1/2+z
loop_
_atom_site_type_symbol
_atom_site_label
_atom_site_fract_x
_atom_site_fract_y
_atom_site_fract_z
Si Si1 0.144974 0.784982 0.727833
Si Si2 0.437043 0.061587 0.539107
Si Si3 0.956808 0.291804 0.454696
Si Si4 0.500000 0.654814 0.750000
Si Si5 0.308962 0.357426 0.527020
Si Si6 0.321846 0.525664 0.582900
Si Si7 0.350275 0.407868 0.348517
O O1 0.107446 0.755600 0.618219
O O2 0.000000 0.764403 0.750000
O O3 0.057328 0.835190 0.667057
O O4 0.413328 0.786054 0.885119
O O5 0.268572 0.103104 0.437165
O O6 0.593213 0.052176 0.517051
O O7 0.597080 0.073329 0.702740
O O8 0.271234 0.021146 0.497168
O O9 0.719489 0.315431 0.375545
O O10 0.110731 0.319048 0.446911
O O11 0.552899 0.624825 0.685531
O O12 0.325020 0.379862 0.431833
O O13 0.500000 0.517699 0.750000
O O14 0.455976 0.552233 0.559478
#
# Coordination Sequence:
#
# PCOD8134352 Si02
#       7
#     8   8   8   4   8   8   8
#     4  10  24  43  66  98 131 163 217 265 322 384
#     4  10  19  35  61  88 125 173 209 264 318 383
#     4  11  25  43  67  96 128 170 211 266 324 384
#     4  12  24  40  68  92 132 166 216 260 324 396
#     4  11  22  38  67  92 127 168 219 263 312 383
#     4   9  19  37  58  91 130 168 214 266 324 378
#     4  11  21  39  62  96 123 170 219 264 320 380
#
# _framework density 21.398471000000001
#
# number of rings (size 3 to 8) (size 9 to 14) (size 15 to 20)
#    0.000    1.538    3.846    2.308    4.308    3.077 
#    0.000    0.000    0.000    0.000    0.000    0.000 
#    0.000    0.000    0.000    0.000    0.000    0.000 
#
# Total GULP energy -322260.050523 kJ/mol
# GULP energy per Si atom -12394.617328 kJ/mol
# Density = 2.134977 g / cm^3
# Si number density = 21.398471 Si / 1000 Ang^3
#
#
#
# Elastic Constant Matrix: (Units=GPa)
#
#
# Indices 1 2 3 4 5 6 
#
# 1 57.9111 45.8111 45.3281 0.0000 6.1502 0.0000
# 2 45.8111 157.5886 80.1788 0.0000 9.9514 0.0000
# 3 45.3281 80.1788 127.6159 0.0000 19.8849 0.0000
# 4 0.0000 0.0000 0.0000 31.6516 0.0000 21.8793
# 5 6.1502 9.9514 19.8849 0.0000 27.5801 0.0000
# 6 0.0000 0.0000 0.0000 21.8793 0.0000 -0.1445
#
#
#
# Elastic Compliance Matrix: (Units=1/GPa)
#
#
# Indices 1 2 3 4 5 6 
#
# 1 0.025642 -0.004133 -0.006593 0.000000 0.000527 0.000000
# 2 -0.004133 0.010016 -0.004963 0.000000 0.000886 0.000000
# 3 -0.006593 -0.004963 0.014407 0.000000 -0.007126 0.000000
# 4 0.000000 0.000000 0.000000 0.000299 0.000000 0.045273
# 5 0.000527 0.000886 -0.007126 0.000000 0.040958 0.000000
# 6 0.000000 0.000000 0.000000 0.045273 0.000000 -0.065493
#
#
# Mechanical properties :
#
#
# Convention : Reuss Voigt Hill
#
# Bulk Modulus (GPa) = 53.51567 76.19463 64.85515
# Shear Modulus (GPa) = 78.81919 23.27060 51.04490
#
# Velocity S-wave (km/s) = 6.07569 3.30129 4.88940
# Velocity P-wave (km/s) = 8.61870 7.08633 7.88981
#
# Compressibility (1/GPa) = 0.01868612
#
# Stress axis : x y z
#
# Youngs Moduli (GPa) = 38.99867 99.83747 69.41300
#
# Poissons Ratio (x) = 0.41261 0.45766
# Poissons Ratio (y) = 0.16117 0.34451
# Poissons Ratio (z) = 0.25713 0.49551
#
# Static dielectric constant tensor:
#      x y z
#    x 2.826330 0.000000 0.211460 
#    y 0.000000 4.175930 0.000000 
#    z 0.211460 0.000000 3.870950 
# 
# 
# High freq. dielectric constant tensor:
#      x y z
#    x 1.830830 0.000000 0.022030 
#    y 0.000000 1.853610 0.000000 
#    z 0.022030 0.000000 1.823530 
# 
# From -- ./inp_files/139905.got.cif
#   From: 2010.06.25/outbox.cif.g09.slc.cpg/sg15_70_cif.got.tgz:139905.got - 2010.06.28 07:06:18.
