data_PCOD8134407
_publ_section_title
;
Structure prediction by ZEFSAII (Michael W. Deem and Ramdas Pophale) SiO2 
 PCOD8134407
Probable space group: C 2/C
;
_chemical_formula_sum "Si O2"
_cell_formula_units_Z 60
_cell_length_a 9.981326
_cell_length_b 26.874143
_cell_length_c 11.056090
_cell_angle_alpha 90.000000
_cell_angle_beta 88.397926
_cell_angle_gamma 90.000000
_cell_volume 2964.521689
_symmetry_space_group_name_H-M "C 2/C"
_symmetry_group_IT_number 15
_symmetry_cell_setting 'monoclinic'
loop_
_space_group_symop_operation_xyz
x,y,z
-x,y,1/2-z
-x,-y,-z
x,-y,1/2+z
1/2+x,1/2+y,z
1/2-x,1/2+y,1/2-z
1/2-x,1/2-y,-z
1/2+x,1/2-y,1/2+z
loop_
_atom_site_type_symbol
_atom_site_label
_atom_site_fract_x
_atom_site_fract_y
_atom_site_fract_z
Si Si1 0.184653 0.060427 0.167887
Si Si2 0.167553 0.705321 0.361988
Si Si3 0.209555 0.787458 0.897251
Si Si4 0.000000 0.025626 0.750000
Si Si5 0.493912 0.596023 0.538997
Si Si6 0.262429 0.897995 0.925757
Si Si7 0.065771 0.203821 0.997757
Si Si8 0.047500 0.595918 0.377172
O O1 0.217969 0.090828 0.288475
O O2 0.324659 0.061707 0.086644
O O3 0.126981 0.006329 0.201321
O O4 0.074190 0.088022 0.089933
O O5 0.226735 0.724878 0.233805
O O6 0.067209 0.748748 0.408507
O O7 0.288515 0.696432 0.450440
O O8 0.084431 0.654278 0.362730
O O9 0.266442 0.839423 0.939797
O O10 0.250000 0.750000 0.000000
O O11 0.046645 0.788342 0.895500
O O12 0.939322 0.059687 0.644426
O O13 0.650984 0.580707 0.519926
O O14 0.471226 0.653492 0.576463
O O15 0.413802 0.914469 0.961705
O O16 0.000000 0.575816 0.250000
#
# Coordination Sequence:
#
# PCOD8134407 Si02
#       8
#     8   8   8   4   8   8   8   8
#     4  11  20  38  65  85 112 155 205 257 303 364
#     4  11  20  38  57  89 125 159 207 245 303 367
#     4  11  21  33  55  88 123 159 199 247 300 357
#     4  12  26  38  66  90 122 160 212 264 322 354
#     4  11  22  42  59  89 122 158 204 257 309 371
#     4  10  20  36  62  88 116 155 202 253 306 364
#     4  10  23  35  61  86 118 169 204 247 302 376
#     4  10  19  35  63  91 116 153 200 258 302 354
#
# _framework density 20.239353999999999
#
# number of rings (size 3 to 8) (size 9 to 14) (size 15 to 20)
#    0.000    1.333    5.333    1.600    0.000    4.267 
#    0.000    0.667    2.933    0.000    0.000    0.000 
#    0.000    0.000    0.000    0.000    0.000    0.000 
#
# Total GULP energy -371668.408830 kJ/mol
# GULP energy per Si atom -12388.946961 kJ/mol
# Density = 2.019329 g / cm^3
# Si number density = 20.239354 Si / 1000 Ang^3
#
#
#
# Elastic Constant Matrix: (Units=GPa)
#
#
# Indices 1 2 3 4 5 6 
#
# 1 147.8333 47.9515 20.1494 0.0000 -19.3106 0.0000
# 2 47.9515 92.0710 38.4061 0.0000 -3.6225 0.0000
# 3 20.1494 38.4061 55.6850 0.0000 -9.8681 0.0000
# 4 0.0000 0.0000 0.0000 31.6200 0.0000 -4.0778
# 5 -19.3106 -3.6225 -9.8681 0.0000 22.5828 0.0000
# 6 0.0000 0.0000 0.0000 -4.0778 0.0000 27.1153
#
#
#
# Elastic Compliance Matrix: (Units=1/GPa)
#
#
# Indices 1 2 3 4 5 6 
#
# 1 0.009240 -0.005175 0.001603 0.000000 0.007771 0.000000
# 2 -0.005175 0.018260 -0.011909 0.000000 -0.006700 0.000000
# 3 0.001603 -0.011909 0.027636 0.000000 0.011537 0.000000
# 4 0.000000 0.000000 0.000000 0.032251 0.000000 0.004850
# 5 0.007771 -0.006700 0.011537 0.000000 0.054893 0.000000
# 6 0.000000 0.000000 0.000000 0.004850 0.000000 0.037609
#
#
# Mechanical properties :
#
#
# Convention : Reuss Voigt Hill
#
# Bulk Modulus (GPa) = 41.36623 56.51149 48.93886
# Shear Modulus (GPa) = 22.84048 28.86912 25.85480
#
# Velocity S-wave (km/s) = 3.36299 3.78085 3.57802
# Velocity P-wave (km/s) = 5.96343 6.85871 6.42668
#
# Compressibility (1/GPa) = 0.02417431
#
# Stress axis : x y z
#
# Youngs Moduli (GPa) = 108.23034 54.76306 36.18428
#
# Poissons Ratio (x) = 0.28340 -0.05801
# Poissons Ratio (y) = 0.56009 0.43092
# Poissons Ratio (z) = -0.17350 0.65218
#
# Static dielectric constant tensor:
#      x y z
#    x 4.394070 0.000000 -0.285130 
#    y 0.000000 3.622230 0.000000 
#    z -0.285130 0.000000 3.450530 
# 
# 
# High freq. dielectric constant tensor:
#      x y z
#    x 1.814650 0.000000 -0.010470 
#    y 0.000000 1.781160 0.000000 
#    z -0.010470 0.000000 1.753840 
# 
# From -- ./inp_files/81365.got.cif
#   From: 2010.06.25/outbox.cif.g09.slc.cpg/sg15_41_cif.got.tgz:81365.got - 2010.06.28 07:06:18.
