data_PCOD8134710
_publ_section_title
;
Structure prediction by ZEFSAII (Michael W. Deem and Ramdas Pophale) SiO2 
 PCOD8134710
Probable space group: C 2/C
;
_chemical_formula_sum "Si O2"
_cell_formula_units_Z 56
_cell_length_a 24.917926
_cell_length_b 12.849422
_cell_length_c 8.380152
_cell_angle_alpha 90.000000
_cell_angle_beta 70.993947
_cell_angle_gamma 90.000000
_cell_volume 2536.890048
_symmetry_space_group_name_H-M "C 2/C"
_symmetry_group_IT_number 15
_symmetry_cell_setting 'monoclinic'
loop_
_space_group_symop_operation_xyz
x,y,z
-x,y,1/2-z
-x,-y,-z
x,-y,1/2+z
1/2+x,1/2+y,z
1/2-x,1/2+y,1/2-z
1/2-x,1/2-y,-z
1/2+x,1/2-y,1/2+z
loop_
_atom_site_type_symbol
_atom_site_label
_atom_site_fract_x
_atom_site_fract_y
_atom_site_fract_z
Si Si1 0.061500 0.333896 0.617772
Si Si2 0.633893 0.039848 0.532772
Si Si3 0.759318 0.417596 0.959807
Si Si4 0.941342 0.706307 0.736453
Si Si5 0.847423 0.293862 0.734760
Si Si6 0.629293 0.633135 0.040879
Si Si7 0.181064 0.009205 0.265449
O O1 0.091171 0.443770 0.557262
O O2 0.055373 0.273095 0.455830
O O3 0.098985 0.263427 0.704041
O O4 0.000000 0.353333 0.750000
O O5 0.608708 0.124786 0.680373
O O6 0.638780 0.091264 0.351931
O O7 0.696011 0.006429 0.531080
O O8 0.791729 0.307334 0.901688
O O9 0.732377 0.448983 0.818784
O O10 0.707699 0.411919 0.137908
O O11 0.929557 0.815819 0.843247
O O12 0.000000 0.662044 0.750000
O O13 0.836129 0.216621 0.599015
O O14 0.663189 0.602886 0.167228
O O15 0.627280 0.532203 0.924351
#
# Coordination Sequence:
#
# PCOD8134710 Si02
#       7
#     8   8   8   8   8   8   8
#     4  11  21  34  60  93 130 170 203 246 313 381
#     4  10  20  36  59  92 138 173 202 239 301 381
#     4  10  19  36  60  91 130 167 205 244 303 369
#     4  11  24  42  64  93 129 164 210 266 309 369
#     4  10  21  36  59  92 127 167 208 252 300 373
#     4  10  24  44  63  90 120 159 215 266 317 372
#     4  10  22  41  63  84 123 167 211 263 310 359
#
# _framework density 22.074269999999999
#
# number of rings (size 3 to 8) (size 9 to 14) (size 15 to 20)
#    0.000    1.714    1.429    3.857    2.000    5.143 
#    2.571    0.714    0.000    0.857    0.000    0.000 
#    0.000    0.000    0.000    0.000    0.000    0.000 
#
# Total GULP energy -346960.043553 kJ/mol
# GULP energy per Si atom -12391.430127 kJ/mol
# Density = 2.202403 g / cm^3
# Si number density = 22.074270 Si / 1000 Ang^3
#
#
#
# Elastic Constant Matrix: (Units=GPa)
#
#
# Indices 1 2 3 4 5 6 
#
# 1 54.6030 29.9270 49.2420 0.0000 11.3499 0.0000
# 2 29.9270 45.7396 24.3309 0.0000 7.8227 0.0000
# 3 49.2420 24.3309 128.3469 0.0000 13.3824 0.0000
# 4 0.0000 0.0000 0.0000 14.4800 0.0000 2.2936
# 5 11.3499 7.8227 13.3824 0.0000 38.4136 0.0000
# 6 0.0000 0.0000 0.0000 2.2936 0.0000 21.0373
#
#
#
# Elastic Compliance Matrix: (Units=1/GPa)
#
#
# Indices 1 2 3 4 5 6 
#
# 1 0.039920 -0.019484 -0.011214 0.000000 -0.003921 0.000000
# 2 -0.019484 0.034279 0.001146 0.000000 -0.001623 0.000000
# 3 -0.011214 0.001146 0.011991 0.000000 -0.001097 0.000000
# 4 0.000000 0.000000 0.000000 0.070275 0.000000 -0.007662
# 5 -0.003921 -0.001623 -0.001097 0.000000 0.027904 0.000000
# 6 0.000000 0.000000 0.000000 -0.007662 0.000000 0.048370
#
#
# Mechanical properties :
#
#
# Convention : Reuss Voigt Hill
#
# Bulk Modulus (GPa) = 36.91747 48.40993 42.66370
# Shear Modulus (GPa) = 16.61844 23.13214 19.87529
#
# Velocity S-wave (km/s) = 2.74677 3.24068 3.00389
# Velocity P-wave (km/s) = 5.17882 5.99839 5.60361
#
# Compressibility (1/GPa) = 0.02708745
#
# Stress axis : x y z
#
# Youngs Moduli (GPa) = 25.04979 29.17241 83.39740
#
# Poissons Ratio (x) = 0.56840 0.93519
# Poissons Ratio (y) = 0.48807 -0.09559
# Poissons Ratio (z) = 0.28090 -0.03344
#
# Static dielectric constant tensor:
#      x y z
#    x 3.750100 0.000000 -0.016820 
#    y 0.000000 3.809900 0.000000 
#    z -0.016820 0.000000 4.424930 
# 
# 
# High freq. dielectric constant tensor:
#      x y z
#    x 1.846200 0.000000 0.003110 
#    y 0.000000 1.840160 0.000000 
#    z 0.003110 0.000000 1.902270 
# 
# From -- ./inp_files/65436.got.cif
#   From: 2010.06.25/outbox.cif.g09.slc.cpg/sg15_33_cif.got.tgz:65436.got - 2010.06.28 07:06:18.
