data_PCOD8134054
_publ_section_title
;
Structure prediction by ZEFSAII (Michael W. Deem and Ramdas Pophale) SiO2 
 PCOD8134054
Probable space group: C 2/C
;
_chemical_formula_sum "Si O2"
_cell_formula_units_Z 60
_cell_length_a 23.438868
_cell_length_b 19.537840
_cell_length_c 8.124863
_cell_angle_alpha 90.000000
_cell_angle_beta 50.355922
_cell_angle_gamma 90.000000
_cell_volume 2865.053416
_symmetry_space_group_name_H-M "C 2/C"
_symmetry_group_IT_number 15
_symmetry_cell_setting 'monoclinic'
loop_
_space_group_symop_operation_xyz
x,y,z
-x,y,1/2-z
-x,-y,-z
x,-y,1/2+z
1/2+x,1/2+y,z
1/2-x,1/2+y,1/2-z
1/2-x,1/2-y,-z
1/2+x,1/2-y,1/2+z
loop_
_atom_site_type_symbol
_atom_site_label
_atom_site_fract_x
_atom_site_fract_y
_atom_site_fract_z
Si Si1 0.272651 0.951037 0.227730
Si Si2 0.000000 0.472025 0.750000
Si Si3 0.907211 0.937223 0.273138
Si Si4 0.185353 0.317183 0.953107
Si Si5 0.408301 0.073366 0.709103
Si Si6 0.436155 0.417418 0.599441
Si Si7 0.817110 0.167163 0.465053
Si Si8 0.252772 0.087337 0.419101
O O1 0.335730 0.950251 0.248020
O O2 0.210144 0.893708 0.368424
O O3 0.241729 0.028393 0.299110
O O4 0.300540 0.938218 0.989247
O O5 0.933002 0.520565 0.807468
O O6 0.027218 0.423392 0.549451
O O7 0.924961 0.923310 0.427707
O O8 0.831459 0.897197 0.365580
O O9 0.898662 0.018396 0.260462
O O10 0.975130 0.911569 0.031313
O O11 0.257482 0.324099 0.931541
O O12 0.204458 0.348775 0.739127
O O13 0.112472 0.354213 0.166652
O O14 0.169766 0.236913 0.956794
O O15 0.396418 0.349737 0.739327
#
# Coordination Sequence:
#
# PCOD8134054 Si02
#       8
#     8   4   8   8   8   8   8   8
#     4  11  22  34  62  89 120 146 202 242 306 338
#     4  10  20  38  66  84 124 138 202 242 304 354
#     4  10  20  31  54  85 113 155 193 245 287 348
#     4  10  22  37  61  81 120 150 207 233 308 345
#     4  10  21  38  59  93 110 158 184 251 298 360
#     4  10  19  35  54  81 120 151 201 238 303 345
#     4  10  20  39  57  82 114 165 188 253 287 361
#     4  12  20  34  56  93 119 153 196 258 286 358
#
# _framework density 20.942018999999998
#
# number of rings (size 3 to 8) (size 9 to 14) (size 15 to 20)
#    0.000    1.600    2.667    4.000    0.000    1.600 
#    0.000    1.333    2.933    0.000    0.000    0.000 
#    0.000    0.000    0.000    0.000    0.000    0.000 
#
# Total GULP energy -371798.413238 kJ/mol
# GULP energy per Si atom -12393.280441 kJ/mol
# Density = 2.089435 g / cm^3
# Si number density = 20.942019 Si / 1000 Ang^3
#
#
#
# Elastic Constant Matrix: (Units=GPa)
#
#
# Indices 1 2 3 4 5 6 
#
# 1 70.9443 23.6609 26.9593 0.0000 -0.7558 0.0000
# 2 23.6609 118.6537 61.5451 0.0000 -8.3137 0.0000
# 3 26.9593 61.5451 106.0067 0.0000 -3.0179 0.0000
# 4 0.0000 0.0000 0.0000 41.4528 0.0000 -4.9616
# 5 -0.7558 -8.3137 -3.0179 0.0000 34.6021 0.0000
# 6 0.0000 0.0000 0.0000 -4.9616 0.0000 18.0692
#
#
#
# Elastic Compliance Matrix: (Units=1/GPa)
#
#
# Indices 1 2 3 4 5 6 
#
# 1 0.015797 -0.001549 -0.003126 0.000000 -0.000300 0.000000
# 2 -0.001549 0.012396 -0.006735 0.000000 0.002357 0.000000
# 3 -0.003126 -0.006735 0.014126 0.000000 -0.000455 0.000000
# 4 0.000000 0.000000 0.000000 0.024944 0.000000 0.006849
# 5 -0.000300 0.002357 -0.000455 0.000000 0.029420 0.000000
# 6 0.000000 0.000000 0.000000 0.006849 0.000000 0.057224
#
#
# Mechanical properties :
#
#
# Convention : Reuss Voigt Hill
#
# Bulk Modulus (GPa) = 51.29242 57.77059 54.53151
# Shear Modulus (GPa) = 27.28843 31.05410 29.17127
#
# Velocity S-wave (km/s) = 3.61369 3.85497 3.73628
# Velocity P-wave (km/s) = 6.47746 6.88914 6.68647
#
# Compressibility (1/GPa) = 0.01949606
#
# Stress axis : x y z
#
# Youngs Moduli (GPa) = 63.30230 80.67324 70.79142
#
# Poissons Ratio (x) = 0.12500 0.22133
# Poissons Ratio (y) = 0.09809 0.47681
# Poissons Ratio (z) = 0.19791 0.54337
#
# Static dielectric constant tensor:
#      x y z
#    x 3.819060 0.000000 -0.174660 
#    y 0.000000 4.196780 0.000000 
#    z -0.174660 0.000000 4.069570 
# 
# 
# High freq. dielectric constant tensor:
#      x y z
#    x 1.815720 0.000000 0.000710 
#    y 0.000000 1.779630 0.000000 
#    z 0.000710 0.000000 1.834780 
# 
# From -- ./inp_files/67019.got.cif
#   From: 2010.06.25/outbox.cif.g09.slc.cpg/sg15_34_cif.got.tgz:67019.got - 2010.06.28 07:06:18.
