data_PCOD8134752
_publ_section_title
;
Structure prediction by ZEFSAII (Michael W. Deem and Ramdas Pophale) SiO2 
 PCOD8134752
Probable space group: C 2/C
;
_chemical_formula_sum "Si O2"
_cell_formula_units_Z 40
_cell_length_a 8.696389
_cell_length_b 17.174264
_cell_length_c 18.323458
_cell_angle_alpha 90.000000
_cell_angle_beta 49.200653
_cell_angle_gamma 90.000000
_cell_volume 2071.676048
_symmetry_space_group_name_H-M "C 2/C"
_symmetry_group_IT_number 15
_symmetry_cell_setting 'monoclinic'
loop_
_space_group_symop_operation_xyz
x,y,z
-x,y,1/2-z
-x,-y,-z
x,-y,1/2+z
1/2+x,1/2+y,z
1/2-x,1/2+y,1/2-z
1/2-x,1/2-y,-z
1/2+x,1/2-y,1/2+z
loop_
_atom_site_type_symbol
_atom_site_label
_atom_site_fract_x
_atom_site_fract_y
_atom_site_fract_z
Si Si1 0.500000 0.147442 0.250000
Si Si2 0.576422 0.586327 0.898289
Si Si3 0.000000 0.649472 0.750000
Si Si4 0.529048 0.747004 0.601073
Si Si5 0.943058 0.912311 0.604631
Si Si6 0.667305 0.274065 0.602604
O O1 0.489496 0.202369 0.322269
O O2 0.299425 0.094362 0.311359
O O3 0.496026 0.655513 0.871603
O O4 0.494155 0.502148 0.899089
O O5 0.817372 0.589118 0.813448
O O6 0.512179 0.608038 0.001076
O O7 0.002829 0.709167 0.679718
O O8 0.750000 0.750000 0.500000
O O9 0.355058 0.778011 0.600184
O O10 0.055917 0.857671 0.628726
O O11 0.750000 0.250000 0.500000
#
# Coordination Sequence:
#
# PCOD8134752 Si02
#       6
#     4   8   4   8   8   8
#     4  12  23  40  65  86 124 164 204 244 317 358
#     4  10  21  37  62  89 127 153 205 247 312 360
#     4  10  19  36  61  90 116 166 200 248 297 374
#     4  11  22  41  63  90 122 162 207 253 302 371
#     4  11  21  38  62  93 121 163 197 257 303 367
#     4  11  20  38  64  91 120 158 213 247 299 370
#
# _framework density 19.308039000000001
#
# number of rings (size 3 to 8) (size 9 to 14) (size 15 to 20)
#    0.000    1.200    6.000    3.000    0.000    0.000 
#    0.000    4.000    0.000    0.000    0.000    0.000 
#    0.000    0.000    0.000    0.000    0.000    0.000 
#
# Total GULP energy -247824.175467 kJ/mol
# GULP energy per Si atom -12391.208773 kJ/mol
# Density = 1.926409 g / cm^3
# Si number density = 19.308039 Si / 1000 Ang^3
#
#
#
# Elastic Constant Matrix: (Units=GPa)
#
#
# Indices 1 2 3 4 5 6 
#
# 1 84.9460 34.9202 26.0033 0.0009 -10.8340 -0.0002
# 2 34.9202 118.1532 13.6837 0.0003 0.4505 0.0001
# 3 26.0033 13.6837 119.6514 0.0004 -11.8418 -0.0002
# 4 0.0009 0.0003 0.0004 13.5149 -0.0008 -18.6428
# 5 -10.8340 0.4505 -11.8418 -0.0008 38.5417 0.0004
# 6 -0.0002 0.0001 -0.0002 -18.6428 0.0004 9.5050
#
#
#
# Elastic Compliance Matrix: (Units=1/GPa)
#
#
# Indices 1 2 3 4 5 6 
#
# 1 0.014601 -0.004054 -0.002371 0.000000 0.003423 0.000001
# 2 -0.004054 0.009709 -0.000364 0.000000 -0.001365 0.000000
# 3 -0.002371 -0.000364 0.009127 0.000000 0.002142 0.000000
# 4 0.000000 0.000000 0.000000 -0.043383 0.000000 -0.085090
# 5 0.003423 -0.001365 0.002142 0.000000 0.027582 -0.000001
# 6 0.000001 0.000000 0.000000 -0.085090 -0.000001 -0.061685
#
#
# Mechanical properties :
#
#
# Convention : Reuss Voigt Hill
#
# Bulk Modulus (GPa) = 50.35618 52.44055 51.39836
# Shear Modulus (GPa) = -209.63299 28.85522 -90.38889
#
# Velocity S-wave (km/s) = -10.43114 3.87003 -6.84951
# Velocity P-wave (km/s) = 10.90601 6.86938 5.98969
#
# Compressibility (1/GPa) = 0.01985854
#
# Stress axis : x y z
#
# Youngs Moduli (GPa) = 68.48856 102.99610 109.57098
#
# Poissons Ratio (x) = 0.41753 0.25977
# Poissons Ratio (y) = 0.27764 0.03993
# Poissons Ratio (z) = 0.16237 0.03754
#
# Static dielectric constant tensor:
#      x y z
#    x 3.152520 0.000000 -0.172700 
#    y 0.000000 3.703630 0.000000 
#    z -0.172700 0.000000 3.667430 
# 
# 
# High freq. dielectric constant tensor:
#      x y z
#    x 1.721570 0.000000 -0.021380 
#    y 0.000000 1.760130 0.000000 
#    z -0.021380 0.000000 1.777110 
# 
# From -- ./inp_files/133842.got.cif
#   From: 2010.06.25/outbox.cif.g09.slc.cpg/sg15_67_cif.got.tgz:133842.got - 2010.06.28 07:06:18.
