data_PCOD8134029
_publ_section_title
;
Structure prediction by ZEFSAII (Michael W. Deem and Ramdas Pophale) SiO2 
 PCOD8134029
Probable space group: C 2/C
;
_chemical_formula_sum "Si O2"
_cell_formula_units_Z 60
_cell_length_a 23.930258
_cell_length_b 13.746779
_cell_length_c 33.177313
_cell_angle_alpha 90.000000
_cell_angle_beta 161.598572
_cell_angle_gamma 90.000000
_cell_volume 3445.296058
_symmetry_space_group_name_H-M "C 2/C"
_symmetry_group_IT_number 15
_symmetry_cell_setting 'monoclinic'
loop_
_space_group_symop_operation_xyz
x,y,z
-x,y,1/2-z
-x,-y,-z
x,-y,1/2+z
1/2+x,1/2+y,z
1/2-x,1/2+y,1/2-z
1/2-x,1/2-y,-z
1/2+x,1/2-y,1/2+z
loop_
_atom_site_type_symbol
_atom_site_label
_atom_site_fract_x
_atom_site_fract_y
_atom_site_fract_z
Si Si1 0.000000 0.674445 0.750000
Si Si2 0.659330 0.096660 0.190281
Si Si3 0.630897 0.775048 0.138534
Si Si4 0.370101 0.425693 0.758068
Si Si5 0.369712 0.077040 0.930803
Si Si6 0.421493 0.910604 0.321012
Si Si7 0.742417 0.728910 0.637869
Si Si8 0.731257 0.864858 0.479523
O O1 0.127163 0.742905 0.810744
O O2 0.122028 0.610949 0.863752
O O3 0.710006 0.202454 0.242096
O O4 0.811643 0.054264 0.264393
O O5 0.641630 0.020786 0.214981
O O6 0.463081 0.109281 0.036185
O O7 0.674264 0.830041 0.126777
O O8 0.592642 0.852310 0.147188
O O9 0.455244 0.710040 0.012625
O O10 0.312739 0.514924 0.689380
O O11 0.255425 0.328673 0.671326
O O12 0.578090 0.413027 0.894828
O O13 0.500000 0.000000 0.000000
O O14 0.296391 0.863025 0.201716
O O15 0.624980 0.909707 0.444629
O O16 0.750000 0.750000 0.500000
#
# Coordination Sequence:
#
# PCOD8134029 Si02
#       8
#     4   8   8   8   8   8   8   8
#     4  10  20  30  48  78 120 146 172 218 284 358
#     4  11  21  36  54  79 116 147 188 236 278 331
#     4  12  19  34  56  74 114 151 182 241 277 327
#     4  11  18  34  54  80 114 144 183 227 278 342
#     4  10  19  35  53  80 106 146 192 228 276 329
#     4  11  21  34  53  83 115 144 189 235 278 344
#     4  11  20  31  51  84 113 149 181 223 287 341
#     4  11  20  35  53  84 114 150 181 224 297 346
#
# _framework density 17.415049
#
# number of rings (size 3 to 8) (size 9 to 14) (size 15 to 20)
#    0.000    1.067    9.333    1.600    0.000    0.533 
#    0.000    0.000    0.000    0.800    0.000    0.000 
#    0.000    0.000    0.000    0.000    0.000    0.000 
#
# Total GULP energy -371876.367621 kJ/mol
# GULP energy per Si atom -12395.878921 kJ/mol
# Density = 1.737541 g / cm^3
# Si number density = 17.415049 Si / 1000 Ang^3
#
#
#
# Elastic Constant Matrix: (Units=GPa)
#
#
# Indices 1 2 3 4 5 6 
#
# 1 63.9038 39.4506 25.2794 0.0002 -0.0808 0.0054
# 2 39.4506 83.2144 52.0015 -0.0058 -1.0186 0.0127
# 3 25.2794 52.0015 118.4164 -0.1452 -3.8090 0.0575
# 4 0.0002 -0.0058 -0.1452 36.8015 0.0729 -1.7242
# 5 -0.0808 -1.0186 -3.8090 0.0729 29.1139 -0.0120
# 6 0.0054 0.0127 0.0575 -1.7242 -0.0120 25.1853
#
#
#
# Elastic Compliance Matrix: (Units=1/GPa)
#
#
# Indices 1 2 3 4 5 6 
#
# 1 0.022129 -0.010387 -0.000173 -0.000002 -0.000325 0.000001
# 2 -0.010387 0.021441 -0.007206 -0.000024 -0.000221 0.000006
# 3 -0.000173 -0.007206 0.011687 0.000042 0.001276 -0.000020
# 4 -0.000002 -0.000024 0.000042 0.027261 -0.000063 0.001866
# 5 -0.000325 -0.000221 0.001276 -0.000063 0.034506 0.000009
# 6 0.000001 0.000006 -0.000020 0.001866 0.000009 0.039833
#
#
# Mechanical properties :
#
#
# Convention : Reuss Voigt Hill
#
# Bulk Modulus (GPa) = 50.69367 55.44419 53.06893
# Shear Modulus (GPa) = 25.13015 28.14035 26.63525
#
# Velocity S-wave (km/s) = 3.80282 4.02414 3.91505
# Velocity P-wave (km/s) = 6.96091 7.31421 7.13975
#
# Compressibility (1/GPa) = 0.01972633
#
# Stress axis : x y z
#
# Youngs Moduli (GPa) = 45.19005 46.63868 85.56384
#
# Poissons Ratio (x) = 0.48442 0.01483
# Poissons Ratio (y) = 0.46937 0.61654
# Poissons Ratio (z) = 0.00783 0.33606
#
# Static dielectric constant tensor:
#      x y z
#    x 3.291210 0.000020 -0.189330 
#    y 0.000020 3.119940 -0.000210 
#    z -0.189330 -0.000210 3.595040 
# 
# 
# High freq. dielectric constant tensor:
#      x y z
#    x 1.660370 0.000000 -0.016200 
#    y 0.000000 1.641880 -0.000020 
#    z -0.016200 -0.000020 1.679050 
# 
# From -- ./inp_files/317971.got.cif
#   From: 2010.06.25/outbox.cif.g09.slc.cpg/sg15_159_cif.got.tgz:317971.got - 2010.06.28 07:06:18.
