data_PCOD8134642
_publ_section_title
;
Structure prediction by ZEFSAII (Michael W. Deem and Ramdas Pophale) SiO2 
 PCOD8134642
Probable space group: C 2/C
;
_chemical_formula_sum "Si O2"
_cell_formula_units_Z 56
_cell_length_a 17.141935
_cell_length_b 18.803166
_cell_length_c 8.249043
_cell_angle_alpha 90.000000
_cell_angle_beta 75.675597
_cell_angle_gamma 90.000000
_cell_volume 2576.190822
_symmetry_space_group_name_H-M "C 2/C"
_symmetry_group_IT_number 15
_symmetry_cell_setting 'monoclinic'
loop_
_space_group_symop_operation_xyz
x,y,z
-x,y,1/2-z
-x,-y,-z
x,-y,1/2+z
1/2+x,1/2+y,z
1/2-x,1/2+y,1/2-z
1/2-x,1/2-y,-z
1/2+x,1/2-y,1/2+z
loop_
_atom_site_type_symbol
_atom_site_label
_atom_site_fract_x
_atom_site_fract_y
_atom_site_fract_z
Si Si1 0.775143 0.323651 0.906223
Si Si2 0.324365 0.937516 0.138647
Si Si3 0.437236 0.179664 0.135704
Si Si4 0.467830 0.335295 0.084426
Si Si5 0.879824 0.097296 0.088841
Si Si6 0.355765 0.454034 0.242671
Si Si7 0.576300 0.944166 0.109600
O O1 0.845993 0.318666 0.742156
O O2 0.700560 0.356215 0.843555
O O3 0.750000 0.250000 0.000000
O O4 0.807423 0.370482 0.036598
O O5 0.238644 0.968146 0.240170
O O6 0.364974 0.912170 0.284476
O O7 0.379867 0.994020 0.014515
O O8 0.500000 0.168514 0.250000
O O9 0.444753 0.255755 0.043615
O O10 0.452190 0.117753 0.997268
O O11 0.500000 0.333187 0.250000
O O12 0.393856 0.391894 0.108133
O O13 0.540805 0.355533 0.927836
O O14 0.893763 0.031376 0.200124
O O15 0.875446 0.065821 0.913145
O O16 0.500000 0.975628 0.250000
#
# Coordination Sequence:
#
# PCOD8134642 Si02
#       7
#     8   8   8   8   8   8   8
#     4  11  22  40  65  90 121 166 208 252 313 379
#     4  11  23  40  61  90 122 157 207 259 311 380
#     4  11  22  41  64  89 121 164 209 257 311 375
#     4   9  19  37  61  87 118 155 198 241 296 367
#     4  10  20  35  59  88 117 152 195 243 298 361
#     4  10  19  36  59  87 117 151 192 245 302 363
#     4  12  25  41  62  91 124 165 211 263 315 369
#
# _framework density 21.737521999999998
#
# number of rings (size 3 to 8) (size 9 to 14) (size 15 to 20)
#    0.000    1.429    0.000    8.571    0.000    1.143 
#    0.000    5.714    0.000    0.000    0.000    0.000 
#    0.000    0.000    0.000    0.000    0.000    0.000 
#
# Total GULP energy -347075.111721 kJ/mol
# GULP energy per Si atom -12395.539704 kJ/mol
# Density = 2.168805 g / cm^3
# Si number density = 21.737522 Si / 1000 Ang^3
#
#
#
# Elastic Constant Matrix: (Units=GPa)
#
#
# Indices 1 2 3 4 5 6 
#
# 1 103.0405 53.6481 68.0053 0.0000 -36.5396 0.0000
# 2 53.6481 153.1203 46.2154 0.0000 -25.8105 0.0000
# 3 68.0053 46.2154 59.2900 0.0000 -20.5233 0.0000
# 4 0.0000 0.0000 0.0000 19.4198 0.0000 -13.5844
# 5 -36.5396 -25.8105 -20.5233 0.0000 28.8208 0.0000
# 6 0.0000 0.0000 0.0000 -13.5844 0.0000 37.1712
#
#
#
# Elastic Compliance Matrix: (Units=1/GPa)
#
#
# Indices 1 2 3 4 5 6 
#
# 1 0.058775 0.002731 -0.056937 0.000000 0.036416 0.000000
# 2 0.002731 0.009003 -0.008176 0.000000 0.005703 0.000000
# 3 -0.056937 -0.008176 0.080987 0.000000 -0.021837 0.000000
# 4 0.000000 0.000000 0.000000 0.069178 0.000000 0.025282
# 5 0.036416 0.005703 -0.021837 0.000000 0.070423 0.000000
# 6 0.000000 0.000000 0.000000 0.025282 0.000000 0.036142
#
#
# Mechanical properties :
#
#
# Convention : Reuss Voigt Hill
#
# Bulk Modulus (GPa) = 41.66681 72.35426 57.01053
# Shear Modulus (GPa) = 10.93439 26.92116 18.92778
#
# Velocity S-wave (km/s) = 2.24524 3.52300 2.95404
# Velocity P-wave (km/s) = 5.09227 7.06445 6.15783
#
# Compressibility (1/GPa) = 0.02399992
#
# Stress axis : x y z
#
# Youngs Moduli (GPa) = 17.01417 111.07419 12.34765
#
# Poissons Ratio (x) = -0.30333 0.70304
# Poissons Ratio (y) = -0.04646 0.10095
# Poissons Ratio (z) = 0.96874 0.90814
#
# Static dielectric constant tensor:
#      x y z
#    x 4.307660 0.000000 -0.522390 
#    y 0.000000 4.156110 0.000000 
#    z -0.522390 0.000000 3.907680 
# 
# 
# High freq. dielectric constant tensor:
#      x y z
#    x 1.865650 0.000000 -0.023350 
#    y 0.000000 1.861450 0.000000 
#    z -0.023350 0.000000 1.841940 
# 
# From -- ./inp_files/49036.got.cif
#   From: 2010.06.25/outbox.cif.g09.slc.cpg/sg15_25_cif.got.tgz:49036.got - 2010.06.28 07:06:18.
