data_PCOD8134743
_publ_section_title
;
Structure prediction by ZEFSAII (Michael W. Deem and Ramdas Pophale) SiO2 
 PCOD8134743
Probable space group: C 2/C
;
_chemical_formula_sum "Si O2"
_cell_formula_units_Z 40
_cell_length_a 13.560590
_cell_length_b 7.393237
_cell_length_c 18.285309
_cell_angle_alpha 90.000000
_cell_angle_beta 107.638869
_cell_angle_gamma 90.000000
_cell_volume 1747.035499
_symmetry_space_group_name_H-M "C 2/C"
_symmetry_group_IT_number 15
_symmetry_cell_setting 'monoclinic'
loop_
_space_group_symop_operation_xyz
x,y,z
-x,y,1/2-z
-x,-y,-z
x,-y,1/2+z
1/2+x,1/2+y,z
1/2-x,1/2+y,1/2-z
1/2-x,1/2-y,-z
1/2+x,1/2-y,1/2+z
loop_
_atom_site_type_symbol
_atom_site_label
_atom_site_fract_x
_atom_site_fract_y
_atom_site_fract_z
Si Si1 0.090328 0.870495 0.717769
Si Si2 0.030694 0.771159 0.548016
Si Si3 0.842468 0.403632 0.937167
Si Si4 0.788698 0.938402 0.977684
Si Si5 0.251211 0.622181 0.819889
O O1 0.028204 0.836421 0.629822
O O2 0.141916 0.684111 0.760031
O O3 0.000000 0.945105 0.750000
O O4 0.179665 0.020941 0.725640
O O5 0.098871 0.588649 0.563124
O O6 0.087557 0.919293 0.508117
O O7 0.915542 0.740892 0.494478
O O8 0.740811 0.420039 0.965796
O O9 0.808668 0.309459 0.854528
O O10 0.750000 0.750000 0.000000
O O11 0.734589 0.993537 0.887716
#
# Coordination Sequence:
#
# PCOD8134743 Si02
#       5
#     8   8   8   8   8
#     4  11  24  42  61  87 126 168 205 252 310 368
#     4   9  20  37  58  87 119 155 204 249 303 374
#     4  10  19  36  61  88 118 155 200 257 310 358
#     4   9  19  35  58  86 115 150 196 253 306 355
#     4  11  23  39  61  90 124 163 211 256 306 377
#
# _framework density 22.895928000000001
#
# number of rings (size 3 to 8) (size 9 to 14) (size 15 to 20)
#    0.000    2.000    0.000    3.000    0.000    4.800 
#    0.000   12.000    0.000    0.000    0.000    0.000 
#    0.000    0.000    0.000    0.000    0.000    0.000 
#
# Total GULP energy -247893.855208 kJ/mol
# GULP energy per Si atom -12394.692760 kJ/mol
# Density = 2.284382 g / cm^3
# Si number density = 22.895928 Si / 1000 Ang^3
#
#
#
# Elastic Constant Matrix: (Units=GPa)
#
#
# Indices 1 2 3 4 5 6 
#
# 1 125.6102 28.2240 45.6044 0.0000 -23.9923 0.0000
# 2 28.2240 76.3163 9.9439 0.0000 -20.5697 0.0000
# 3 45.6044 9.9439 78.2096 0.0000 -11.7737 0.0000
# 4 0.0000 0.0000 0.0000 46.1348 0.0000 -5.9827
# 5 -23.9923 -20.5697 -11.7737 0.0000 39.0933 0.0000
# 6 0.0000 0.0000 0.0000 -5.9827 0.0000 22.9251
#
#
#
# Elastic Compliance Matrix: (Units=1/GPa)
#
#
# Indices 1 2 3 4 5 6 
#
# 1 0.011326 -0.002371 -0.005703 0.000000 0.003986 0.000000
# 2 -0.002371 0.015809 0.000425 0.000000 0.006991 0.000000
# 3 -0.005703 0.000425 0.016303 0.000000 0.001634 0.000000
# 4 0.000000 0.000000 0.000000 0.022435 0.000000 0.005855
# 5 0.003986 0.006991 0.001634 0.000000 0.032196 0.000000
# 6 0.000000 0.000000 0.000000 0.005855 0.000000 0.045148
#
#
# Mechanical properties :
#
#
# Convention : Reuss Voigt Hill
#
# Bulk Modulus (GPa) = 35.53576 49.74231 42.63903
# Shear Modulus (GPa) = 29.78047 34.72155 32.25101
#
# Velocity S-wave (km/s) = 3.61042 3.89844 3.75719
# Velocity P-wave (km/s) = 5.73885 6.48355 6.12253
#
# Compressibility (1/GPa) = 0.02814067
#
# Stress axis : x y z
#
# Youngs Moduli (GPa) = 88.29550 63.25415 61.33744
#
# Poissons Ratio (x) = 0.14999 0.34978
# Poissons Ratio (y) = 0.20937 -0.02607
# Poissons Ratio (z) = 0.50351 -0.02689
#
# Static dielectric constant tensor:
#      x y z
#    x 4.388870 0.000000 -0.221030 
#    y 0.000000 4.458370 0.000000 
#    z -0.221030 0.000000 4.016100 
# 
# 
# High freq. dielectric constant tensor:
#      x y z
#    x 1.906490 0.000000 -0.009400 
#    y 0.000000 1.924160 0.000000 
#    z -0.009400 0.000000 1.895480 
# 
# From -- ./inp_files/150798.got.cif
#   From: 2010.06.25/outbox.cif.g09.slc.cpg/sg15_76_cif.got.tgz:150798.got - 2010.06.28 07:06:18.
