data_PCOD8134648
_publ_section_title
;
Structure prediction by ZEFSAII (Michael W. Deem and Ramdas Pophale) SiO2 
 PCOD8134648
Probable space group: C 2/C
;
_chemical_formula_sum "Si O2"
_cell_formula_units_Z 56
_cell_length_a 12.273549
_cell_length_b 14.011630
_cell_length_c 17.551635
_cell_angle_alpha 90.000000
_cell_angle_beta 111.455646
_cell_angle_gamma 90.000000
_cell_volume 2809.225382
_symmetry_space_group_name_H-M "C 2/C"
_symmetry_group_IT_number 15
_symmetry_cell_setting 'monoclinic'
loop_
_space_group_symop_operation_xyz
x,y,z
-x,y,1/2-z
-x,-y,-z
x,-y,1/2+z
1/2+x,1/2+y,z
1/2-x,1/2+y,1/2-z
1/2-x,1/2-y,-z
1/2+x,1/2-y,1/2+z
loop_
_atom_site_type_symbol
_atom_site_label
_atom_site_fract_x
_atom_site_fract_y
_atom_site_fract_z
Si Si1 0.366248 0.995636 0.099808
Si Si2 0.435043 0.132753 0.385680
Si Si3 0.414072 0.281697 0.161570
Si Si4 0.723462 0.119836 0.295048
Si Si5 0.865365 0.053311 0.541423
Si Si6 0.525546 0.620327 0.084840
Si Si7 0.373247 0.198947 0.534486
O O1 0.489493 0.036798 0.102837
O O2 0.337319 0.029574 0.178321
O O3 0.372633 0.880727 0.100817
O O4 0.265594 0.031679 0.017279
O O5 0.512305 0.223525 0.381934
O O6 0.321099 0.123447 0.302699
O O7 0.392925 0.144061 0.460534
O O8 0.500000 0.316339 0.250000
O O9 0.310920 0.215654 0.167996
O O10 0.356308 0.374289 0.109529
O O11 0.863435 0.109961 0.330763
O O12 0.939067 0.102572 0.493286
O O13 0.928712 0.956743 0.585226
O O14 0.474666 0.726229 0.079418
O O15 0.250000 0.250000 0.500000
#
# Coordination Sequence:
#
# PCOD8134648 Si02
#       7
#     8   8   8   8   8   8   8
#     4  10  21  37  64  88 117 155 203 249 304 349
#     4  10  21  40  61  89 123 156 201 254 301 357
#     4   9  18  35  61  88 116 149 198 255 302 348
#     4   9  21  40  63  89 117 157 202 254 305 355
#     4  10  19  36  59  89 113 155 197 245 298 361
#     4  10  21  37  60  83 121 159 199 238 302 361
#     4  12  23  40  60  88 124 164 199 247 296 366
#
# _framework density 19.93432
#
# number of rings (size 3 to 8) (size 9 to 14) (size 15 to 20)
#    0.000    2.000    2.857    1.714    2.000    1.714 
#    2.571    5.000    0.000    0.000    0.000    0.000 
#    0.000    0.000    0.000    0.000    0.000    0.000 
#
# Total GULP energy -347298.445604 kJ/mol
# GULP energy per Si atom -12403.515914 kJ/mol
# Density = 1.988895 g / cm^3
# Si number density = 19.934320 Si / 1000 Ang^3
#
#
#
# Elastic Constant Matrix: (Units=GPa)
#
#
# Indices 1 2 3 4 5 6 
#
# 1 51.5582 13.1393 10.7533 0.0000 12.1155 0.0000
# 2 13.1393 122.9217 28.8693 0.0000 3.1468 0.0000
# 3 10.7533 28.8693 49.5308 0.0000 14.7197 0.0000
# 4 0.0000 0.0000 0.0000 21.8100 0.0000 10.0425
# 5 12.1155 3.1468 14.7197 0.0000 24.6638 0.0000
# 6 0.0000 0.0000 0.0000 10.0425 0.0000 25.6249
#
#
#
# Elastic Compliance Matrix: (Units=1/GPa)
#
#
# Indices 1 2 3 4 5 6 
#
# 1 0.022481 -0.001989 -0.000626 0.000000 -0.010416 0.000000
# 2 -0.001989 0.009733 -0.006275 0.000000 0.003481 0.000000
# 3 -0.000626 -0.006275 0.028753 0.000000 -0.016052 0.000000
# 4 0.000000 0.000000 0.000000 0.055946 0.000000 -0.021925
# 5 -0.010416 0.003481 -0.016052 0.000000 0.054798 0.000000
# 6 0.000000 0.000000 0.000000 -0.021925 0.000000 0.047617
#
#
# Mechanical properties :
#
#
# Convention : Reuss Voigt Hill
#
# Bulk Modulus (GPa) = 23.15565 36.61494 29.88529
# Shear Modulus (GPa) = 19.88045 25.83634 22.85840
#
# Velocity S-wave (km/s) = 3.16143 3.60401 3.38995
# Velocity P-wave (km/s) = 4.99673 5.97714 5.50879
#
# Compressibility (1/GPa) = 0.04318601
#
# Stress axis : x y z
#
# Youngs Moduli (GPa) = 44.48280 102.74775 34.77866
#
# Poissons Ratio (x) = 0.20440 0.02176
# Poissons Ratio (y) = 0.08849 0.21824
# Poissons Ratio (z) = 0.02783 0.64476
#
# Static dielectric constant tensor:
#      x y z
#    x 3.518590 0.000000 0.128430 
#    y 0.000000 3.683800 0.000000 
#    z 0.128430 0.000000 3.478840 
# 
# 
# High freq. dielectric constant tensor:
#      x y z
#    x 1.771330 0.000000 0.016960 
#    y 0.000000 1.779140 0.000000 
#    z 0.016960 0.000000 1.765770 
# 
# From -- ./inp_files/237638.got.cif
#   From: 2010.06.25/outbox.cif.g09.slc.cpg/sg15_119_cif.got.tgz:237638.got - 2010.06.28 07:06:18.
