data_PCOD8134609
_publ_section_title
;
Structure prediction by ZEFSAII (Michael W. Deem and Ramdas Pophale) SiO2 
 PCOD8134609
Probable space group: C 2/C
;
_chemical_formula_sum "Si O2"
_cell_formula_units_Z 64
_cell_length_a 18.129468
_cell_length_b 9.757868
_cell_length_c 20.575800
_cell_angle_alpha 90.000000
_cell_angle_beta 61.857306
_cell_angle_gamma 90.000000
_cell_volume 3209.628951
_symmetry_space_group_name_H-M "C 2/C"
_symmetry_group_IT_number 15
_symmetry_cell_setting 'monoclinic'
loop_
_space_group_symop_operation_xyz
x,y,z
-x,y,1/2-z
-x,-y,-z
x,-y,1/2+z
1/2+x,1/2+y,z
1/2-x,1/2+y,1/2-z
1/2-x,1/2-y,-z
1/2+x,1/2-y,1/2+z
loop_
_atom_site_type_symbol
_atom_site_label
_atom_site_fract_x
_atom_site_fract_y
_atom_site_fract_z
Si Si1 0.136283 0.513386 0.600145
Si Si2 0.251034 0.496309 0.928156
Si Si3 0.395259 0.867959 0.579975
Si Si4 0.440241 0.356319 0.682941
Si Si5 0.508210 0.874234 0.419828
Si Si6 0.048287 0.167353 0.829886
Si Si7 0.622517 0.704351 0.158977
Si Si8 0.124363 0.224122 0.658381
O O1 0.197025 0.482338 0.514784
O O2 0.041892 0.542256 0.615119
O O3 0.162508 0.645584 0.631340
O O4 0.141507 0.385577 0.646359
O O5 0.201230 0.405843 0.894305
O O6 0.330641 0.400916 0.908152
O O7 0.288726 0.643058 0.890148
O O8 0.441711 0.804531 0.497407
O O9 0.409046 0.766961 0.634887
O O10 0.432200 0.019048 0.571042
O O11 0.428970 0.245850 0.630286
O O12 0.436834 0.509675 0.655846
O O13 0.369874 0.337003 0.768058
O O14 0.527759 0.311295 0.677133
O O15 0.092980 0.191844 0.743101
O O16 0.948389 0.189504 0.864185
#
# Coordination Sequence:
#
# PCOD8134609 Si02
#       8
#     8   8   8   8   8   8   8   8
#     4  10  21  34  63  87 113 151 201 243 288 351
#     4  11  21  40  56  84 126 155 183 245 309 346
#     4  10  22  39  59  83 119 153 190 243 293 350
#     4  10  19  36  62  84 114 154 197 247 281 348
#     4   9  20  39  59  84 111 155 197 234 294 349
#     4  11  21  38  63  85 117 155 200 245 283 351
#     4  10  19  36  58  89 115 148 195 246 296 341
#     4  11  21  38  61  91 115 151 203 244 290 347
#
# _framework density 19.940000000000001
#
# number of rings (size 3 to 8) (size 9 to 14) (size 15 to 20)
#    0.000    1.750    3.750    1.500    1.750    1.500 
#    2.250    1.250    0.000    0.000    0.000    0.000 
#    0.000    0.000    0.000    0.000    0.000    0.000 
#
# Total GULP energy -396539.615287 kJ/mol
# GULP energy per Si atom -12391.862978 kJ/mol
# Density = 1.989462 g / cm^3
# Si number density = 19.940000 Si / 1000 Ang^3
#
#
#
# Elastic Constant Matrix: (Units=GPa)
#
#
# Indices 1 2 3 4 5 6 
#
# 1 37.8857 14.3997 16.7103 0.0000 -0.3989 0.0000
# 2 14.3997 136.7873 34.8777 0.0000 0.9788 0.0001
# 3 16.7103 34.8777 53.0765 0.0000 -6.0007 0.0000
# 4 0.0000 0.0000 0.0000 36.3157 0.0000 -0.8394
# 5 -0.3989 0.9788 -6.0007 0.0000 23.2492 0.0000
# 6 0.0000 0.0001 0.0000 -0.8394 0.0000 21.9483
#
#
#
# Elastic Compliance Matrix: (Units=1/GPa)
#
#
# Indices 1 2 3 4 5 6 
#
# 1 0.030825 -0.000846 -0.009358 0.000000 -0.001851 0.000000
# 2 -0.000846 0.008889 -0.005788 0.000000 -0.001883 0.000000
# 3 -0.009358 -0.005788 0.026369 0.000000 0.006889 0.000000
# 4 0.000000 0.000000 0.000000 0.027561 0.000000 0.001054
# 5 -0.001851 -0.001883 0.006889 0.000000 0.044838 0.000000
# 6 0.000000 0.000000 0.000000 0.001054 0.000000 0.045602
#
#
# Mechanical properties :
#
#
# Convention : Reuss Voigt Hill
#
# Bulk Modulus (GPa) = 29.32585 39.96945 34.64765
# Shear Modulus (GPa) = 21.98452 27.08677 24.53565
#
# Velocity S-wave (km/s) = 3.32404 3.68967 3.51162
# Velocity P-wave (km/s) = 5.42875 6.18384 5.81856
#
# Compressibility (1/GPa) = 0.03409961
#
# Stress axis : x y z
#
# Youngs Moduli (GPa) = 32.44143 112.50077 37.92310
#
# Poissons Ratio (x) = 0.09512 0.35490
# Poissons Ratio (y) = 0.02743 0.21949
# Poissons Ratio (z) = 0.30360 0.65112
#
# Static dielectric constant tensor:
#      x y z
#    x 3.424540 0.000000 -0.108080 
#    y 0.000000 3.765370 0.000000 
#    z -0.108080 0.000000 4.040610 
# 
# 
# High freq. dielectric constant tensor:
#      x y z
#    x 1.746240 0.000000 -0.013430 
#    y 0.000000 1.788900 0.000000 
#    z -0.013430 0.000000 1.779470 
# 
# From -- ./inp_files/251895.got.cif
#   From: 2010.06.25/outbox.cif.g09.slc.cpg/sg15_126_cif.got.tgz:251895.got - 2010.06.28 07:06:18.
