data_PCOD8134877
_publ_section_title
;
Structure prediction by ZEFSAII (Michael W. Deem and Ramdas Pophale) SiO2 
 PCOD8134877
Probable space group: C 2/C
;
_chemical_formula_sum "Si O2"
_cell_formula_units_Z 32
_cell_length_a 13.162748
_cell_length_b 13.575211
_cell_length_c 9.379298
_cell_angle_alpha 90.000000
_cell_angle_beta 68.285998
_cell_angle_gamma 90.000000
_cell_volume 1557.036969
_symmetry_space_group_name_H-M "C 2/C"
_symmetry_group_IT_number 15
_symmetry_cell_setting 'monoclinic'
loop_
_space_group_symop_operation_xyz
x,y,z
-x,y,1/2-z
-x,-y,-z
x,-y,1/2+z
1/2+x,1/2+y,z
1/2-x,1/2+y,1/2-z
1/2-x,1/2-y,-z
1/2+x,1/2-y,1/2+z
loop_
_atom_site_type_symbol
_atom_site_label
_atom_site_fract_x
_atom_site_fract_y
_atom_site_fract_z
Si Si1 0.711211 0.620581 0.493421
Si Si2 0.500000 0.703875 0.250000
Si Si3 0.000000 0.107400 0.750000
Si Si4 0.870989 0.914234 0.051214
Si Si5 0.200746 0.287400 0.296014
O O1 0.598801 0.667338 0.623104
O O2 0.698770 0.504896 0.473595
O O3 0.805602 0.639301 0.562868
O O4 0.736416 0.678571 0.334587
O O5 0.446170 0.630695 0.390792
O O6 0.584422 0.778405 0.280532
O O7 0.944158 0.046054 0.647821
O O8 0.789072 0.827040 0.138114
#
# Coordination Sequence:
#
# PCOD8134877 Si02
#       5
#     8   4   4   8   8
#     4  10  21  40  62  98 127 165 206 267 319 367
#     4  12  23  42  64 103 122 166 215 266 310 377
#     4  10  19  36  66  99 118 158 207 272 310 361
#     4  11  23  38  69  93 130 164 211 261 319 375
#     4  10  24  39  62  95 134 161 209 263 317 371
#
# _framework density 20.551856000000001
#
# number of rings (size 3 to 8) (size 9 to 14) (size 15 to 20)
#    0.000    1.500    2.500    2.250    7.000    0.000 
#    0.000    1.250    0.000    0.000    0.000    0.000 
#    0.000    0.000    0.000    0.000    0.000    0.000 
#
# Total GULP energy -198211.983684 kJ/mol
# GULP energy per Si atom -12388.248980 kJ/mol
# Density = 2.050508 g / cm^3
# Si number density = 20.551856 Si / 1000 Ang^3
#
#
#
# Elastic Constant Matrix: (Units=GPa)
#
#
# Indices 1 2 3 4 5 6 
#
# 1 122.4738 67.8336 66.1283 0.0000 34.1768 0.0000
# 2 67.8336 107.6678 74.2415 0.0000 -3.6016 0.0000
# 3 66.1283 74.2415 135.2126 0.0000 2.0850 0.0000
# 4 0.0000 0.0000 0.0000 12.5222 0.0000 11.1148
# 5 34.1768 -3.6016 2.0850 0.0000 38.1136 0.0000
# 6 0.0000 0.0000 0.0000 11.1148 0.0000 28.4017
#
#
#
# Elastic Compliance Matrix: (Units=1/GPa)
#
#
# Indices 1 2 3 4 5 6 
#
# 1 0.023759 -0.012775 -0.004262 0.000000 -0.022279 0.000000
# 2 -0.012775 0.021950 -0.006018 0.000000 0.013859 0.000000
# 3 -0.004262 -0.006018 0.012745 0.000000 0.002555 0.000000
# 4 0.000000 0.000000 0.000000 0.122361 0.000000 -0.047885
# 5 -0.022279 0.013859 0.002555 0.000000 0.047385 0.000000
# 6 0.000000 0.000000 0.000000 -0.047885 0.000000 0.053949
#
#
# Mechanical properties :
#
#
# Convention : Reuss Voigt Hill
#
# Bulk Modulus (GPa) = 81.01093 86.86231 83.93662
# Shear Modulus (GPa) = 15.04343 26.28422 20.66383
#
# Velocity S-wave (km/s) = 2.70844 3.58008 3.17432
# Velocity P-wave (km/s) = 7.02027 7.71012 7.37327
#
# Compressibility (1/GPa) = 0.01234401
#
# Stress axis : x y z
#
# Youngs Moduli (GPa) = 42.08971 45.55873 78.46438
#
# Poissons Ratio (x) = 0.58203 0.33438
# Poissons Ratio (y) = 0.53771 0.47217
# Poissons Ratio (z) = 0.17937 0.27416
#
# Static dielectric constant tensor:
#      x y z
#    x 3.932310 0.000000 0.210760 
#    y 0.000000 3.410420 0.000000 
#    z 0.210760 0.000000 4.124360 
# 
# 
# High freq. dielectric constant tensor:
#      x y z
#    x 1.796030 0.000000 0.023830 
#    y 0.000000 1.774320 0.000000 
#    z 0.023830 0.000000 1.826590 
# 
# From -- ./inp_files/27929.got.cif
#   From: 2010.06.25/outbox.cif.g09.slc.cpg/sg15_14_cif.got.tgz:27929.got - 2010.06.28 07:06:18.
