data_PCOD8134574
_publ_section_title
;
Structure prediction by ZEFSAII (Michael W. Deem and Ramdas Pophale) SiO2 
 PCOD8134574
Probable space group: C 2/C
;
_chemical_formula_sum "Si O2"
_cell_formula_units_Z 48
_cell_length_a 15.094256
_cell_length_b 8.811541
_cell_length_c 17.653558
_cell_angle_alpha 90.000000
_cell_angle_beta 92.128042
_cell_angle_gamma 90.000000
_cell_volume 2346.368435
_symmetry_space_group_name_H-M "C 2/C"
_symmetry_group_IT_number 15
_symmetry_cell_setting 'monoclinic'
loop_
_space_group_symop_operation_xyz
x,y,z
-x,y,1/2-z
-x,-y,-z
x,-y,1/2+z
1/2+x,1/2+y,z
1/2-x,1/2+y,1/2-z
1/2-x,1/2-y,-z
1/2+x,1/2-y,1/2+z
loop_
_atom_site_type_symbol
_atom_site_label
_atom_site_fract_x
_atom_site_fract_y
_atom_site_fract_z
Si Si1 0.655035 0.027690 0.583442
Si Si2 0.654340 0.717806 0.661321
Si Si3 0.056930 0.190891 0.042089
Si Si4 0.256450 0.530475 0.432603
Si Si5 0.018921 0.922739 0.381946
Si Si6 0.303524 0.293386 0.169250
O O1 0.568144 0.133386 0.566594
O O2 0.717879 0.110314 0.645608
O O3 0.625036 0.872155 0.619873
O O4 0.703841 0.990632 0.506559
O O5 0.722242 0.623943 0.611040
O O6 0.563509 0.625849 0.673150
O O7 0.701559 0.749819 0.742652
O O8 0.154542 0.117039 0.040202
O O9 0.012565 0.177010 0.958493
O O10 0.993663 0.101953 0.099351
O O11 0.194691 0.638371 0.378943
O O12 0.110652 0.897228 0.342445
#
# Coordination Sequence:
#
# PCOD8134574 Si02
#       6
#     8   8   8   8   8   8
#     4  11  20  38  59  83 112 150 192 237 277 337
#     4  11  24  33  55  88 120 143 181 239 297 335
#     4   9  18  35  61  83 103 150 195 235 268 338
#     4  10  19  38  58  81 110 153 196 225 276 345
#     4  10  19  36  58  82 111 144 193 229 286 336
#     4  11  20  39  59  79 110 155 190 234 279 342
#
# _framework density 20.457144
#
# number of rings (size 3 to 8) (size 9 to 14) (size 15 to 20)
#    0.000    1.667    3.333    3.000    0.000    0.667 
#    0.000    0.000    0.000    6.000    0.000    0.000 
#    0.000    0.000    0.000    0.000    0.000    0.000 
#
# Total GULP energy -297637.152835 kJ/mol
# GULP energy per Si atom -12401.548035 kJ/mol
# Density = 2.041058 g / cm^3
# Si number density = 20.457144 Si / 1000 Ang^3
#
#
#
# Elastic Constant Matrix: (Units=GPa)
#
#
# Indices 1 2 3 4 5 6 
#
# 1 48.0381 17.9700 5.8479 0.0000 3.4876 0.0000
# 2 17.9700 92.1720 23.6950 0.0000 -8.6601 0.0000
# 3 5.8479 23.6950 90.0048 0.0000 14.6764 0.0000
# 4 0.0000 0.0000 0.0000 27.6923 0.0000 -0.4075
# 5 3.4876 -8.6601 14.6764 0.0000 24.3657 0.0000
# 6 0.0000 0.0000 0.0000 -0.4075 0.0000 33.5110
#
#
#
# Elastic Compliance Matrix: (Units=1/GPa)
#
#
# Indices 1 2 3 4 5 6 
#
# 1 0.023089 -0.005238 0.000800 0.000000 -0.005648 0.000000
# 2 -0.005238 0.013879 -0.004702 0.000000 0.008515 0.000000
# 3 0.000800 -0.004702 0.013959 0.000000 -0.010193 0.000000
# 4 0.000000 0.000000 0.000000 0.036118 0.000000 0.000439
# 5 -0.005648 0.008515 -0.010193 0.000000 0.051016 0.000000
# 6 0.000000 0.000000 0.000000 0.000439 0.000000 0.029846
#
#
# Mechanical properties :
#
#
# Convention : Reuss Voigt Hill
#
# Bulk Modulus (GPa) = 30.63102 36.13785 33.38444
# Shear Modulus (GPa) = 25.37184 29.29392 27.33288
#
# Velocity S-wave (km/s) = 3.52553 3.78824 3.65924
# Velocity P-wave (km/s) = 5.61945 6.06942 5.84876
#
# Compressibility (1/GPa) = 0.03264664
#
# Stress axis : x y z
#
# Youngs Moduli (GPa) = 43.31099 72.05014 71.64040
#
# Poissons Ratio (x) = 0.37738 -0.05729
# Poissons Ratio (y) = 0.22685 0.33686
# Poissons Ratio (z) = -0.03464 0.33878
#
# Static dielectric constant tensor:
#      x y z
#    x 3.537570 0.000000 0.232720 
#    y 0.000000 3.754520 0.000000 
#    z 0.232720 0.000000 3.678970 
# 
# 
# High freq. dielectric constant tensor:
#      x y z
#    x 1.784960 0.000000 0.019080 
#    y 0.000000 1.793410 0.000000 
#    z 0.019080 0.000000 1.800280 
# 
# From -- ./inp_files/202966.got.cif
#   From: 2010.06.25/outbox.cif.g09.slc.cpg/sg15_102_cif.got.tgz:202966.got - 2010.06.28 07:06:18.
