data_PCOD8134410
_publ_section_title
;
Structure prediction by ZEFSAII (Michael W. Deem and Ramdas Pophale) SiO2 
 PCOD8134410
Probable space group: C 2/C
;
_chemical_formula_sum "Si O2"
_cell_formula_units_Z 64
_cell_length_a 18.900558
_cell_length_b 9.076842
_cell_length_c 28.733631
_cell_angle_alpha 90.000000
_cell_angle_beta 143.217912
_cell_angle_gamma 90.000000
_cell_volume 2951.632586
_symmetry_space_group_name_H-M "C 2/C"
_symmetry_group_IT_number 15
_symmetry_cell_setting 'monoclinic'
loop_
_space_group_symop_operation_xyz
x,y,z
-x,y,1/2-z
-x,-y,-z
x,-y,1/2+z
1/2+x,1/2+y,z
1/2-x,1/2+y,1/2-z
1/2-x,1/2-y,-z
1/2+x,1/2-y,1/2+z
loop_
_atom_site_type_symbol
_atom_site_label
_atom_site_fract_x
_atom_site_fract_y
_atom_site_fract_z
Si Si1 0.778691 0.682012 0.115171
Si Si2 0.244394 0.992984 0.430300
Si Si3 0.908722 0.377323 0.596375
Si Si4 0.886940 0.407130 0.924094
Si Si5 0.278372 0.567079 0.735584
Si Si6 0.325318 0.105525 0.242400
Si Si7 0.015147 0.885836 0.467924
Si Si8 0.963310 0.959845 0.121339
O O1 0.833570 0.582377 0.102835
O O2 0.824446 0.605956 0.186229
O O3 0.812868 0.855076 0.128771
O O4 0.639266 0.691859 0.039547
O O5 0.297491 0.109703 0.421272
O O6 0.135343 0.060641 0.404117
O O7 0.351687 0.948097 0.520796
O O8 0.042706 0.430776 0.671055
O O9 0.905360 0.201905 0.590483
O O10 0.821271 0.495749 0.848899
O O11 0.919097 0.246407 0.920411
O O12 0.000000 0.500000 0.000000
O O13 0.271253 0.742340 0.732537
O O14 0.257748 0.518985 0.778567
O O15 0.410100 0.523810 0.786540
O O16 0.010812 0.987660 0.419429
O O17 0.000000 0.000000 0.500000
#
# Coordination Sequence:
#
# PCOD8134410 Si02
#       8
#     8   8   8   8   8   8   8   8
#     4  11  19  36  60  93 119 160 214 264 316 384
#     4  11  19  37  65  91 126 161 218 271 320 373
#     4  10  19  35  63  91 126 157 209 277 317 364
#     4  12  22  39  62  93 124 166 213 265 324 380
#     4  11  23  38  60  88 129 162 210 263 319 380
#     4  11  22  37  59  94 124 163 213 265 324 386
#     4  12  23  39  63  91 129 168 209 258 324 393
#     4  10  20  37  59  90 123 164 207 260 320 372
#
# _framework density 21.682915999999999
#
# number of rings (size 3 to 8) (size 9 to 14) (size 15 to 20)
#    0.000    1.000    5.000    4.125    0.000    0.500 
#    0.000    0.625    2.750    0.000    0.000    0.000 
#    0.000    0.000    0.000    0.000    0.000    0.000 
#
# Total GULP energy -396602.439205 kJ/mol
# GULP energy per Si atom -12393.826225 kJ/mol
# Density = 2.163356 g / cm^3
# Si number density = 21.682916 Si / 1000 Ang^3
#
#
#
# Elastic Constant Matrix: (Units=GPa)
#
#
# Indices 1 2 3 4 5 6 
#
# 1 152.8139 29.4103 20.9048 0.0000 -7.8573 0.0000
# 2 29.4103 33.6653 9.0943 0.0000 3.4726 -0.0001
# 3 20.9048 9.0943 87.6398 0.0000 -6.4209 0.0000
# 4 0.0000 0.0000 0.0000 21.9192 0.0000 -2.0265
# 5 -7.8573 3.4726 -6.4209 0.0000 36.8493 0.0000
# 6 0.0000 -0.0001 0.0000 -2.0265 0.0000 27.4853
#
#
#
# Elastic Compliance Matrix: (Units=1/GPa)
#
#
# Indices 1 2 3 4 5 6 
#
# 1 0.008164 -0.007078 -0.001050 0.000000 0.002225 0.000000
# 2 -0.007078 0.037144 -0.002566 0.000000 -0.005457 0.000000
# 3 -0.001050 -0.002566 0.012083 0.000000 0.002123 0.000000
# 4 0.000000 0.000000 0.000000 0.045935 0.000000 0.003387
# 5 0.002225 -0.005457 0.002123 0.000000 0.028496 0.000000
# 6 0.000000 0.000000 0.000000 0.003387 0.000000 0.036633
#
#
# Mechanical properties :
#
#
# Convention : Reuss Voigt Hill
#
# Bulk Modulus (GPa) = 27.77565 43.65973 35.71769
# Shear Modulus (GPa) = 24.77170 31.56474 28.16822
#
# Velocity S-wave (km/s) = 3.38369 3.81956 3.60821
# Velocity P-wave (km/s) = 5.30127 6.29534 5.81957
#
# Compressibility (1/GPa) = 0.03600276
#
# Stress axis : x y z
#
# Youngs Moduli (GPa) = 122.48613 26.92247 82.76373
#
# Poissons Ratio (x) = 0.19056 0.08689
# Poissons Ratio (y) = 0.86698 0.21235
# Poissons Ratio (z) = 0.12860 0.06908
#
# Static dielectric constant tensor:
#      x y z
#    x 4.465690 0.000000 0.012400 
#    y 0.000000 3.498010 0.000000 
#    z 0.012400 0.000000 4.035920 
# 
# 
# High freq. dielectric constant tensor:
#      x y z
#    x 1.881830 0.000000 0.001240 
#    y 0.000000 1.785530 0.000000 
#    z 0.001240 0.000000 1.864010 
# 
# From -- ./inp_files/315737.got.cif
#   From: 2010.06.25/outbox.cif.g09.slc.cpg/sg15_158_cif.got.tgz:315737.got - 2010.06.28 07:06:18.
