data_PCOD8134822
_publ_section_title
;
Structure prediction by ZEFSAII (Michael W. Deem and Ramdas Pophale) SiO2 
 PCOD8134822
Probable space group: C 2/C
;
_chemical_formula_sum "Si O2"
_cell_formula_units_Z 56
_cell_length_a 17.450641
_cell_length_b 21.962448
_cell_length_c 8.930628
_cell_angle_alpha 90.000000
_cell_angle_beta 125.732859
_cell_angle_gamma 90.000000
_cell_volume 2778.406266
_symmetry_space_group_name_H-M "C 2/C"
_symmetry_group_IT_number 15
_symmetry_cell_setting 'monoclinic'
loop_
_space_group_symop_operation_xyz
x,y,z
-x,y,1/2-z
-x,-y,-z
x,-y,1/2+z
1/2+x,1/2+y,z
1/2-x,1/2+y,1/2-z
1/2-x,1/2-y,-z
1/2+x,1/2-y,1/2+z
loop_
_atom_site_type_symbol
_atom_site_label
_atom_site_fract_x
_atom_site_fract_y
_atom_site_fract_z
Si Si1 0.267025 0.085784 0.694044
Si Si2 0.217105 0.820373 0.611108
Si Si3 0.681723 0.699474 0.730395
Si Si4 0.134617 0.582029 0.180208
Si Si5 0.536685 0.148072 0.622991
Si Si6 0.524415 0.731867 0.944599
Si Si7 0.305481 0.001380 0.995677
O O1 0.209881 0.148915 0.638668
O O2 0.377681 0.101132 0.797567
O O3 0.237973 0.043392 0.518599
O O4 0.245951 0.046074 0.819362
O O5 0.274395 0.765392 0.756587
O O6 0.224844 0.818582 0.440130
O O7 0.264973 0.882910 0.718054
O O8 0.107217 0.818776 0.533101
O O9 0.568647 0.701911 0.591690
O O10 0.129332 0.542127 0.323337
O O11 0.124370 0.538857 0.024677
O O12 0.047880 0.628080 0.083196
O O13 0.500000 0.153028 0.750000
O O14 0.565872 0.214154 0.594290
O O15 0.500000 0.756149 0.750000
#
# Coordination Sequence:
#
# PCOD8134822 Si02
#       7
#     8   8   8   8   8   8   8
#     4  11  22  40  59  86 121 158 200 245 291 360
#     4  10  19  36  63  91 116 153 195 248 301 349
#     4  10  19  36  63  91 116 153 195 248 301 349
#     4  11  22  40  59  86 121 158 200 245 291 360
#     4  12  24  37  56  93 128 157 195 244 301 362
#     4  10  22  38  63  92 121 156 198 241 302 364
#     4  10  24  39  60  83 118 166 200 241 292 347
#
# _framework density 20.155438
#
# number of rings (size 3 to 8) (size 9 to 14) (size 15 to 20)
#    0.000    1.429    5.714    0.000    2.000    3.429 
#    2.571    2.143    0.000    5.143    0.000    0.000 
#    0.000    0.000    0.000    0.000    0.000    0.000 
#
# Total GULP energy -347149.009957 kJ/mol
# GULP energy per Si atom -12398.178927 kJ/mol
# Density = 2.010956 g / cm^3
# Si number density = 20.155438 Si / 1000 Ang^3
#
#
#
# Elastic Constant Matrix: (Units=GPa)
#
#
# Indices 1 2 3 4 5 6 
#
# 1 91.2455 35.9763 33.9669 0.0000 7.4694 0.0000
# 2 35.9763 92.5305 33.0696 0.0000 -4.7937 0.0000
# 3 33.9669 33.0696 59.9319 0.0000 -8.8134 0.0000
# 4 0.0000 0.0000 0.0000 19.2728 0.0000 -11.7964
# 5 7.4694 -4.7937 -8.8134 0.0000 34.5208 0.0000
# 6 0.0000 0.0000 0.0000 -11.7964 0.0000 26.6596
#
#
#
# Elastic Compliance Matrix: (Units=1/GPa)
#
#
# Indices 1 2 3 4 5 6 
#
# 1 0.015790 -0.003658 -0.007801 0.000000 -0.005916 0.000000
# 2 -0.003658 0.014309 -0.005625 0.000000 0.001342 0.000000
# 3 -0.007801 -0.005625 0.025294 0.000000 0.007364 0.000000
# 4 0.000000 0.000000 0.000000 0.071159 0.000000 0.031487
# 5 -0.005916 0.001342 0.007364 0.000000 0.032315 0.000000
# 6 0.000000 0.000000 0.000000 0.031487 0.000000 0.051442
#
#
# Mechanical properties :
#
#
# Convention : Reuss Voigt Hill
#
# Bulk Modulus (GPa) = 47.11336 49.97040 48.54188
# Shear Modulus (GPa) = 19.87666 25.47030 22.67348
#
# Velocity S-wave (km/s) = 3.14374 3.55870 3.35764
# Velocity P-wave (km/s) = 6.05006 6.46004 6.25841
#
# Compressibility (1/GPa) = 0.02122540
#
# Stress axis : x y z
#
# Youngs Moduli (GPa) = 63.33216 69.88432 39.53564
#
# Poissons Ratio (x) = 0.25562 0.30840
# Poissons Ratio (y) = 0.23165 0.22240
# Poissons Ratio (z) = 0.49403 0.39312
#
# Static dielectric constant tensor:
#      x y z
#    x 3.534790 0.000000 -0.177590 
#    y 0.000000 3.734410 0.000000 
#    z -0.177590 0.000000 3.498360 
# 
# 
# High freq. dielectric constant tensor:
#      x y z
#    x 1.770250 0.000000 -0.018160 
#    y 0.000000 1.792400 0.000000 
#    z -0.018160 0.000000 1.766950 
# 
# From -- ./inp_files/42748.got.cif
#   From: 2010.06.25/outbox.cif.g09.slc.cpg/sg15_22_cif.got.tgz:42748.got - 2010.06.28 07:06:18.
