data_PCOD8134964
_publ_section_title
;
Structure prediction by ZEFSAII (Michael W. Deem and Ramdas Pophale) SiO2 
 PCOD8134964
Probable space group: C 2/C
;
_chemical_formula_sum "Si O2"
_cell_formula_units_Z 48
_cell_length_a 12.453866
_cell_length_b 18.870977
_cell_length_c 21.771354
_cell_angle_alpha 90.000000
_cell_angle_beta 150.624646
_cell_angle_gamma 90.000000
_cell_volume 2509.855155
_symmetry_space_group_name_H-M "C 2/C"
_symmetry_group_IT_number 15
_symmetry_cell_setting 'monoclinic'
loop_
_space_group_symop_operation_xyz
x,y,z
-x,y,1/2-z
-x,-y,-z
x,-y,1/2+z
1/2+x,1/2+y,z
1/2-x,1/2+y,1/2-z
1/2-x,1/2-y,-z
1/2+x,1/2-y,1/2+z
loop_
_atom_site_type_symbol
_atom_site_label
_atom_site_fract_x
_atom_site_fract_y
_atom_site_fract_z
Si Si1 0.500000 0.554962 0.750000
Si Si2 0.301914 0.968344 0.198737
Si Si3 0.110688 0.608035 0.628639
Si Si4 0.991346 0.093855 0.451622
Si Si5 0.000000 0.814818 0.750000
Si Si6 0.143846 0.066779 0.401379
Si Si7 0.391633 0.750183 0.009271
O O1 0.293971 0.601167 0.667653
O O2 0.450000 0.508083 0.665549
O O3 0.500000 0.959202 0.250000
O O4 0.341362 0.930453 0.283152
O O5 0.089050 0.928623 0.065646
O O6 0.240062 0.052430 0.175241
O O7 0.882619 0.575803 0.489881
O O8 0.078567 0.692296 0.616796
O O9 0.160556 0.068218 0.483122
O O10 0.974767 0.178925 0.439990
O O11 0.984750 0.868205 0.801101
O O12 0.779222 0.767397 0.632104
O O13 0.250000 0.750000 0.000000
#
# Coordination Sequence:
#
# PCOD8134964 Si02
#       7
#     4   8   8   8   4   8   8
#     4  11  22  38  58  84 121 152 194 250 293 346
#     4  11  22  39  61  85 119 159 191 241 294 354
#     4  11  22  38  63  87 116 156 198 246 294 345
#     4  11  22  36  60  89 118 150 202 237 291 358
#     4   9  20  32  58  86 117 148 192 250 293 328
#     4  10  19  37  58  89 112 152 200 244 292 343
#     4  11  21  37  59  89 117 151 200 245 291 349
#
# _framework density 19.124609
#
# number of rings (size 3 to 8) (size 9 to 14) (size 15 to 20)
#    0.000    1.333    6.667    0.500    3.500    0.000 
#    1.500    0.000    0.000    1.000    0.000    0.000 
#    0.000    0.000    0.000    0.000    0.000    0.000 
#
# Total GULP energy -297363.229863 kJ/mol
# GULP energy per Si atom -12390.134578 kJ/mol
# Density = 1.908108 g / cm^3
# Si number density = 19.124609 Si / 1000 Ang^3
#
#
#
# Elastic Constant Matrix: (Units=GPa)
#
#
# Indices 1 2 3 4 5 6 
#
# 1 68.2567 27.1675 27.3353 0.0043 6.6991 -0.0060
# 2 27.1675 146.4517 48.2216 0.0088 1.1158 -0.0082
# 3 27.3353 48.2216 87.5645 0.0284 -8.1623 -0.0123
# 4 0.0043 0.0088 0.0284 32.5573 0.0024 5.7709
# 5 6.6991 1.1158 -8.1623 0.0024 29.2329 -0.0040
# 6 -0.0060 -0.0082 -0.0123 5.7709 -0.0040 21.0310
#
#
#
# Elastic Compliance Matrix: (Units=1/GPa)
#
#
# Indices 1 2 3 4 5 6 
#
# 1 0.017912 -0.001552 -0.005251 0.000003 -0.005512 0.000000
# 2 -0.001552 0.008553 -0.004336 0.000002 -0.001181 0.000000
# 3 -0.005251 -0.004336 0.015991 -0.000015 0.005834 0.000011
# 4 0.000003 0.000002 -0.000015 0.032285 -0.000009 -0.008859
# 5 -0.005512 -0.001181 0.005834 -0.000009 0.037145 0.000011
# 6 0.000000 0.000000 0.000011 -0.008859 0.000011 0.049980
#
#
# Mechanical properties :
#
#
# Convention : Reuss Voigt Hill
#
# Bulk Modulus (GPa) = 49.55688 56.41351 52.98520
# Shear Modulus (GPa) = 26.19607 29.86748 28.03178
#
# Velocity S-wave (km/s) = 3.70504 3.95616 3.83266
# Velocity P-wave (km/s) = 6.65372 7.10142 6.88121
#
# Compressibility (1/GPa) = 0.02017883
#
# Stress axis : x y z
#
# Youngs Moduli (GPa) = 55.82847 116.92309 62.53636
#
# Poissons Ratio (x) = 0.18145 0.32837
# Poissons Ratio (y) = 0.08664 0.27113
# Poissons Ratio (z) = 0.29314 0.50693
#
# Static dielectric constant tensor:
#      x y z
#    x 3.507530 0.000080 -0.278670 
#    y 0.000080 3.690640 -0.000120 
#    z -0.278670 -0.000120 3.796950 
# 
# 
# High freq. dielectric constant tensor:
#      x y z
#    x 1.721330 0.000000 -0.017500 
#    y 0.000000 1.745320 0.000000 
#    z -0.017500 0.000000 1.743970 
# 
# From -- ./inp_files/88790.got.cif
#   From: 2010.06.25/outbox.cif.g09.slc.cpg/sg15_45_cif.got.tgz:88790.got - 2010.06.28 07:06:18.
