data_PCOD8134305
_publ_section_title
;
Structure prediction by ZEFSAII (Michael W. Deem and Ramdas Pophale) SiO2 
 PCOD8134305
Probable space group: C 2/C
;
_chemical_formula_sum "Si O2"
_cell_formula_units_Z 64
_cell_length_a 12.239531
_cell_length_b 24.001284
_cell_length_c 11.385191
_cell_angle_alpha 90.000000
_cell_angle_beta 100.129032
_cell_angle_gamma 90.000000
_cell_volume 3292.436750
_symmetry_space_group_name_H-M "C 2/C"
_symmetry_group_IT_number 15
_symmetry_cell_setting 'monoclinic'
loop_
_space_group_symop_operation_xyz
x,y,z
-x,y,1/2-z
-x,-y,-z
x,-y,1/2+z
1/2+x,1/2+y,z
1/2-x,1/2+y,1/2-z
1/2-x,1/2-y,-z
1/2+x,1/2-y,1/2+z
loop_
_atom_site_type_symbol
_atom_site_label
_atom_site_fract_x
_atom_site_fract_y
_atom_site_fract_z
Si Si1 0.890741 0.110436 0.087896
Si Si2 0.158978 0.231307 0.076801
Si Si3 0.183822 0.412821 0.405209
Si Si4 0.092555 0.769115 0.996490
Si Si5 0.293108 0.204661 0.678110
Si Si6 0.337799 0.036623 0.178607
Si Si7 0.634927 0.393702 0.644149
Si Si8 0.537930 0.944823 0.571333
O O1 0.882213 0.176752 0.076229
O O2 0.870808 0.097463 0.218607
O O3 0.014054 0.092878 0.067437
O O4 0.802007 0.078977 0.991311
O O5 0.164735 0.270267 0.192447
O O6 0.178494 0.167607 0.117882
O O7 0.036921 0.238055 0.995579
O O8 0.250000 0.250000 0.000000
O O9 0.194779 0.362701 0.313327
O O10 0.155002 0.470344 0.336280
O O11 0.085828 0.401308 0.483608
O O12 0.131208 0.719168 0.920065
O O13 0.166498 0.774107 0.129593
O O14 0.220476 0.060490 0.112691
O O15 0.359491 0.045404 0.320462
O O16 0.428963 0.073141 0.123285
O O17 0.500000 0.000000 0.500000
#
# Coordination Sequence:
#
# PCOD8134305 Si02
#       8
#     8   8   8   8   8   8   8   8
#     4   9  17  34  61  80 106 142 188 241 277 328
#     4  11  23  39  55  88 121 150 191 239 296 350
#     4  10  20  36  58  85 111 147 197 233 284 347
#     4   9  19  37  60  84 110 149 193 241 285 339
#     4  10  20  37  63  84 114 153 195 241 288 343
#     4  10  20  35  56  83 114 149 186 234 287 347
#     4  10  19  35  60  80 109 151 186 232 287 335
#     4   9  19  37  53  75 116 152 181 233 287 332
#
# _framework density 19.438490999999999
#
# number of rings (size 3 to 8) (size 9 to 14) (size 15 to 20)
#    0.000    2.250    2.500    0.375    0.000    2.000 
#   13.500    1.250    0.000    1.500    0.000    0.000 
#    0.000    0.000    0.000    0.000    0.000    0.000 
#
# Total GULP energy -396537.248975 kJ/mol
# GULP energy per Si atom -12391.789030 kJ/mol
# Density = 1.939425 g / cm^3
# Si number density = 19.438491 Si / 1000 Ang^3
#
#
#
# Elastic Constant Matrix: (Units=GPa)
#
#
# Indices 1 2 3 4 5 6 
#
# 1 119.8227 32.3774 22.6640 0.0000 3.5406 0.0000
# 2 32.3774 65.2069 14.6784 0.0000 -6.3308 0.0000
# 3 22.6640 14.6784 45.1626 0.0000 -2.1329 0.0000
# 4 0.0000 0.0000 0.0000 10.8457 0.0000 3.0985
# 5 3.5406 -6.3308 -2.1329 0.0000 25.3002 0.0000
# 6 0.0000 0.0000 0.0000 3.0985 0.0000 29.5548
#
#
#
# Elastic Compliance Matrix: (Units=1/GPa)
#
#
# Indices 1 2 3 4 5 6 
#
# 1 0.010401 -0.004578 -0.003870 0.000000 -0.002927 0.000000
# 2 -0.004578 0.018914 -0.003611 0.000000 0.005069 0.000000
# 3 -0.003870 -0.003611 0.025342 0.000000 0.001775 0.000000
# 4 0.000000 0.000000 0.000000 0.095050 0.000000 -0.009965
# 5 -0.002927 0.005069 0.001775 0.000000 0.041353 0.000000
# 6 0.000000 0.000000 0.000000 -0.009965 0.000000 0.034880
#
#
# Mechanical properties :
#
#
# Convention : Reuss Voigt Hill
#
# Bulk Modulus (GPa) = 32.74405 41.07020 36.90712
# Shear Modulus (GPa) = 19.21337 23.83829 21.52583
#
# Velocity S-wave (km/s) = 3.14732 3.50572 3.33134
# Velocity P-wave (km/s) = 5.48535 6.12870 5.81592
#
# Compressibility (1/GPa) = 0.03053990
#
# Stress axis : x y z
#
# Youngs Moduli (GPa) = 96.14391 52.87204 39.46073
#
# Poissons Ratio (x) = 0.24202 0.15272
# Poissons Ratio (y) = 0.44010 0.14248
# Poissons Ratio (z) = 0.37209 0.19090
#
# Static dielectric constant tensor:
#      x y z
#    x 3.994960 0.000000 0.134570 
#    y 0.000000 3.362290 0.000000 
#    z 0.134570 0.000000 3.491660 
# 
# 
# High freq. dielectric constant tensor:
#      x y z
#    x 1.769000 0.000000 0.014170 
#    y 0.000000 1.739330 0.000000 
#    z 0.014170 0.000000 1.740100 
# 
# From -- ./inp_files/90861.got.cif
#   From: 2010.06.25/outbox.cif.g09.slc.cpg/sg15_46_cif.got.tgz:90861.got - 2010.06.28 07:06:18.
