data_PCOD8134903
_publ_section_title
;
Structure prediction by ZEFSAII (Michael W. Deem and Ramdas Pophale) SiO2 
 PCOD8134903
Probable space group: C 2/C
;
_chemical_formula_sum "Si O2"
_cell_formula_units_Z 48
_cell_length_a 23.338519
_cell_length_b 14.858968
_cell_length_c 13.583002
_cell_angle_alpha 90.000000
_cell_angle_beta 155.717882
_cell_angle_gamma 90.000000
_cell_volume 1937.056903
_symmetry_space_group_name_H-M "C 2/C"
_symmetry_group_IT_number 15
_symmetry_cell_setting 'monoclinic'
loop_
_space_group_symop_operation_xyz
x,y,z
-x,y,1/2-z
-x,-y,-z
x,-y,1/2+z
1/2+x,1/2+y,z
1/2-x,1/2+y,1/2-z
1/2-x,1/2-y,-z
1/2+x,1/2-y,1/2+z
loop_
_atom_site_type_symbol
_atom_site_label
_atom_site_fract_x
_atom_site_fract_y
_atom_site_fract_z
Si Si1 0.788489 0.244724 0.338780
Si Si2 0.497257 0.247922 0.971231
Si Si3 0.196023 0.008478 0.400325
Si Si4 0.572651 0.586421 0.029527
Si Si5 0.651657 0.312785 0.935026
Si Si6 0.856900 0.670886 0.135393
O O1 0.637192 0.216744 0.138673
O O2 0.868509 0.149436 0.464642
O O3 0.867019 0.317599 0.532282
O O4 0.769762 0.274437 0.194503
O O5 0.495976 0.192641 0.075637
O O6 0.507705 0.353881 0.012867
O O7 0.372183 0.240633 0.693703
O O8 0.309329 0.929278 0.591726
O O9 0.192639 0.032844 0.277848
O O10 0.224709 0.094361 0.514069
O O11 0.042343 0.978555 0.195933
O O12 0.500000 0.327800 0.750000
O O13 0.750000 0.750000 0.000000
#
# Coordination Sequence:
#
# PCOD8134903 Si02
#       6
#     8   8   8   8   8   8
#     4  10  20  36  57  89 115 164 193 236 295 367
#     4   9  19  38  53  83 122 155 187 241 291 354
#     4  10  20  36  57  94 121 142 192 265 292 335
#     4  10  20  35  62  89 117 148 199 248 297 340
#     4   9  20  36  59  88 122 151 200 246 291 346
#     4  10  19  37  54  84 128 153 186 242 305 350
#
# _framework density 24.779861
#
# number of rings (size 3 to 8) (size 9 to 14) (size 15 to 20)
#    0.000    2.333    3.333    0.000    2.333    6.000 
#    0.000    0.000    0.000    4.000    8.667    0.000 
#    0.000    0.000    0.000    0.000    0.000    0.000 
#
# Total GULP energy -297318.275286 kJ/mol
# GULP energy per Si atom -12388.261470 kJ/mol
# Density = 2.472346 g / cm^3
# Si number density = 24.779861 Si / 1000 Ang^3
#
#
#
# Elastic Constant Matrix: (Units=GPa)
#
#
# Indices 1 2 3 4 5 6 
#
# 1 91.5715 27.3861 47.7194 0.0000 -34.3341 0.0000
# 2 27.3861 122.9701 52.4485 0.0000 -13.4543 0.0000
# 3 47.7194 52.4485 180.6630 0.0000 -28.8892 0.0000
# 4 0.0000 0.0000 0.0000 36.0942 0.0000 2.8716
# 5 -34.3341 -13.4543 -28.8892 0.0000 37.3542 0.0000
# 6 0.0000 0.0000 0.0000 2.8716 0.0000 36.2984
#
#
#
# Elastic Compliance Matrix: (Units=1/GPa)
#
#
# Indices 1 2 3 4 5 6 
#
# 1 0.017744 -0.001559 -0.001958 0.000000 0.014233 0.000000
# 2 -0.001559 0.009486 -0.002311 0.000000 0.000197 0.000000
# 3 -0.001958 -0.002311 0.007192 0.000000 0.002930 0.000000
# 4 0.000000 0.000000 0.000000 0.027881 0.000000 -0.002206
# 5 0.014233 0.000197 0.002930 0.000000 0.042190 0.000000
# 6 0.000000 0.000000 0.000000 -0.002206 0.000000 0.027724
#
#
# Mechanical properties :
#
#
# Convention : Reuss Voigt Hill
#
# Bulk Modulus (GPa) = 43.92555 72.25695 58.09125
# Shear Modulus (GPa) = 33.01176 39.79274 36.40225
#
# Velocity S-wave (km/s) = 3.65389 4.01165 3.83694
# Velocity P-wave (km/s) = 5.96373 7.11904 6.56684
#
# Compressibility (1/GPa) = 0.02276579
#
# Stress axis : x y z
#
# Youngs Moduli (GPa) = 56.35776 105.41447 139.04897
#
# Poissons Ratio (x) = 0.16436 0.27227
# Poissons Ratio (y) = 0.08787 0.32130
# Poissons Ratio (z) = 0.11035 0.24358
#
# Static dielectric constant tensor:
#      x y z
#    x 4.926010 0.000000 -0.528980 
#    y 0.000000 4.126060 0.000000 
#    z -0.528980 0.000000 5.100620 
# 
# 
# High freq. dielectric constant tensor:
#      x y z
#    x 2.002860 0.000000 -0.007830 
#    y 0.000000 1.954630 0.000000 
#    z -0.007830 0.000000 2.008670 
# 
# From -- ./inp_files/181823.got.cif
#   From: 2010.06.25/outbox.cif.g09.slc.cpg/sg15_91_cif.got.tgz:181823.got - 2010.06.28 07:06:18.
