data_PCOD8134861
_publ_section_title
;
Structure prediction by ZEFSAII (Michael W. Deem and Ramdas Pophale) SiO2 
 PCOD8134861
Probable space group: C 2/C
;
_chemical_formula_sum "Si O2"
_cell_formula_units_Z 56
_cell_length_a 9.709174
_cell_length_b 17.296107
_cell_length_c 20.209793
_cell_angle_alpha 90.000000
_cell_angle_beta 54.049781
_cell_angle_gamma 90.000000
_cell_volume 2747.413677
_symmetry_space_group_name_H-M "C 2/C"
_symmetry_group_IT_number 15
_symmetry_cell_setting 'monoclinic'
loop_
_space_group_symop_operation_xyz
x,y,z
-x,y,1/2-z
-x,-y,-z
x,-y,1/2+z
1/2+x,1/2+y,z
1/2-x,1/2+y,1/2-z
1/2-x,1/2-y,-z
1/2+x,1/2-y,1/2+z
loop_
_atom_site_type_symbol
_atom_site_label
_atom_site_fract_x
_atom_site_fract_y
_atom_site_fract_z
Si Si1 0.312235 0.219389 0.912793
Si Si2 0.256128 0.947451 0.447822
Si Si3 0.619721 0.584705 0.422906
Si Si4 0.813309 0.596808 0.494769
Si Si5 0.335963 0.710461 0.192219
Si Si6 0.640929 0.672371 0.660182
Si Si7 0.070947 0.279166 0.876152
O O1 0.367140 0.128316 0.899902
O O2 0.469598 0.270899 0.842802
O O3 0.151205 0.224738 0.909556
O O4 0.250000 0.250000 0.000000
O O5 0.354266 0.004959 0.471770
O O6 0.081951 0.917679 0.530304
O O7 0.203198 0.997975 0.397366
O O8 0.672032 0.622178 0.479430
O O9 0.693473 0.634069 0.342562
O O10 0.736659 0.607220 0.590122
O O11 0.982167 0.647824 0.436669
O O12 0.276568 0.784542 0.167486
O O13 0.226662 0.691928 0.287460
O O14 0.500000 0.635968 0.750000
O O15 0.561933 0.733082 0.630963
#
# Coordination Sequence:
#
# PCOD8134861 Si02
#       7
#     8   8   8   8   8   8   8
#     4  12  23  39  64  89 125 167 204 261 319 369
#     4   9  20  37  63  94 118 166 216 246 312 391
#     4   9  18  36  65  89 121 161 210 253 300 389
#     4  10  19  36  65  87 120 158 216 251 302 365
#     4  11  22  39  59  95 126 161 208 262 316 369
#     4  10  20  35  62  94 123 155 210 265 311 368
#     4  11  23  37  61  94 125 163 213 258 309 376
#
# _framework density 20.382805000000001
#
# number of rings (size 3 to 8) (size 9 to 14) (size 15 to 20)
#    0.857    0.857    2.857    2.571    0.000    0.000 
#    0.000    5.714    3.143    0.000    0.000    0.000 
#    0.000    0.000    0.000    0.000    0.000    0.000 
#
# Total GULP energy -346974.114607 kJ/mol
# GULP energy per Si atom -12391.932665 kJ/mol
# Density = 2.033641 g / cm^3
# Si number density = 20.382805 Si / 1000 Ang^3
#
#
#
# Elastic Constant Matrix: (Units=GPa)
#
#
# Indices 1 2 3 4 5 6 
#
# 1 60.8227 16.2146 18.3993 0.0002 -1.8680 0.0000
# 2 16.2146 112.3492 50.6693 0.0000 -1.5834 0.0000
# 3 18.3993 50.6693 116.0327 0.0004 -2.4354 -0.0002
# 4 0.0002 0.0000 0.0004 14.6908 -0.0002 2.8154
# 5 -1.8680 -1.5834 -2.4354 -0.0002 27.1136 0.0001
# 6 0.0000 0.0000 -0.0002 2.8154 0.0001 31.0681
#
#
#
# Elastic Compliance Matrix: (Units=1/GPa)
#
#
# Indices 1 2 3 4 5 6 
#
# 1 0.017517 -0.001583 -0.002067 0.000000 0.000929 0.000000
# 2 -0.001583 0.011228 -0.004649 0.000000 0.000129 0.000000
# 3 -0.002067 -0.004649 0.010988 0.000000 0.000573 0.000000
# 4 0.000000 0.000000 0.000000 0.069273 0.000001 -0.006278
# 5 0.000929 0.000129 0.000573 0.000001 0.037005 0.000000
# 6 0.000000 0.000000 0.000000 -0.006278 0.000000 0.032756
#
#
# Mechanical properties :
#
#
# Convention : Reuss Voigt Hill
#
# Bulk Modulus (GPa) = 43.22459 51.08566 47.15512
# Shear Modulus (GPa) = 24.62117 28.16926 26.39521
#
# Velocity S-wave (km/s) = 3.47931 3.72157 3.60248
# Velocity P-wave (km/s) = 6.11500 6.60184 6.36308
#
# Compressibility (1/GPa) = 0.02313498
#
# Stress axis : x y z
#
# Youngs Moduli (GPa) = 57.08740 89.06373 91.00572
#
# Poissons Ratio (x) = 0.14097 0.18811
# Poissons Ratio (y) = 0.09036 0.42311
# Poissons Ratio (z) = 0.11800 0.41409
#
# Static dielectric constant tensor:
#      x y z
#    x 3.755290 0.000000 -0.034290 
#    y 0.000000 3.624770 0.000000 
#    z -0.034290 0.000000 3.601510 
# 
# 
# High freq. dielectric constant tensor:
#      x y z
#    x 1.793210 0.000000 -0.001380 
#    y 0.000000 1.781100 0.000000 
#    z -0.001380 0.000000 1.781780 
# 
# From -- ./inp_files/192035.got.cif
#   From: 2010.06.25/outbox.cif.g09.slc.cpg/sg15_97_cif.got.tgz:192035.got - 2010.06.28 07:06:18.
