data_PCOD8134894
_publ_section_title
;
Structure prediction by ZEFSAII (Michael W. Deem and Ramdas Pophale) SiO2 
 PCOD8134894
Probable space group: C 2/C
;
_chemical_formula_sum "Si O2"
_cell_formula_units_Z 64
_cell_length_a 26.555685
_cell_length_b 17.469802
_cell_length_c 9.017471
_cell_angle_alpha 90.000000
_cell_angle_beta 65.754985
_cell_angle_gamma 90.000000
_cell_volume 3814.422306
_symmetry_space_group_name_H-M "C 2/C"
_symmetry_group_IT_number 15
_symmetry_cell_setting 'monoclinic'
loop_
_space_group_symop_operation_xyz
x,y,z
-x,y,1/2-z
-x,-y,-z
x,-y,1/2+z
1/2+x,1/2+y,z
1/2-x,1/2+y,1/2-z
1/2-x,1/2-y,-z
1/2+x,1/2-y,1/2+z
loop_
_atom_site_type_symbol
_atom_site_label
_atom_site_fract_x
_atom_site_fract_y
_atom_site_fract_z
Si Si1 0.057143 0.087325 0.748623
Si Si2 0.056092 0.926011 0.604213
Si Si3 0.158859 0.176326 0.505530
Si Si4 0.735626 0.924457 0.081377
Si Si5 0.185554 0.721974 0.740011
Si Si6 0.757129 0.416237 0.777406
Si Si7 0.294789 0.240335 0.287562
Si Si8 0.840305 0.828986 0.997274
O O1 0.105806 0.147260 0.657536
O O2 0.000000 0.120172 0.750000
O O3 0.072018 0.009736 0.644121
O O4 0.051287 0.072312 0.931338
O O5 0.101202 0.866713 0.608506
O O6 0.000000 0.898563 0.750000
O O7 0.140112 0.243327 0.410877
O O8 0.192741 0.107189 0.385921
O O9 0.205245 0.218472 0.552365
O O10 0.734508 0.928926 0.906213
O O11 0.794988 0.896175 0.068123
O O12 0.686046 0.868524 0.201669
O O13 0.725387 0.007898 0.158140
O O14 0.243816 0.742254 0.742056
O O15 0.179781 0.769304 0.598878
O O16 0.799379 0.351758 0.789966
O O17 0.346701 0.280424 0.141512
#
# Coordination Sequence:
#
# PCOD8134894 Si02
#       8
#     8   8   8   8   8   8   8   8
#     4  11  24  39  53  78 107 137 180 223 264 306
#     4  11  24  37  56  76 106 140 178 224 263 305
#     4  11  22  34  56  74 100 143 178 215 259 308
#     4  11  22  32  48  75 105 140 173 210 251 309
#     4  10  20  35  53  71 103 140 174 217 256 308
#     4  11  22  32  48  74 107 138 174 209 253 308
#     4  10  19  37  49  75 102 135 177 217 256 305
#     4  11  19  36  56  70 103 141 183 209 261 308
#
# _framework density 16.778426
#
# number of rings (size 3 to 8) (size 9 to 14) (size 15 to 20)
#    0.000    1.250    5.000    4.500    8.750    2.000 
#    0.000    0.000    0.000    0.000    0.000    0.000 
#    0.000    6.000    0.000    0.000    0.000    0.000 
#
# Total GULP energy -396509.069025 kJ/mol
# GULP energy per Si atom -12390.908407 kJ/mol
# Density = 1.674024 g / cm^3
# Si number density = 16.778426 Si / 1000 Ang^3
#
#
#
# Elastic Constant Matrix: (Units=GPa)
#
#
# Indices 1 2 3 4 5 6 
#
# 1 46.7643 34.2149 25.7116 0.0000 2.6124 0.0000
# 2 34.2149 123.3024 57.6850 0.0000 2.2796 0.0000
# 3 25.7116 57.6850 116.7289 0.0000 12.9212 0.0000
# 4 0.0000 0.0000 0.0000 35.0567 0.0000 3.7297
# 5 2.6124 2.2796 12.9212 0.0000 29.4496 0.0000
# 6 0.0000 0.0000 0.0000 3.7297 0.0000 19.6896
#
#
#
# Elastic Compliance Matrix: (Units=1/GPa)
#
#
# Indices 1 2 3 4 5 6 
#
# 1 0.027622 -0.006297 -0.002896 0.000000 -0.000692 0.000000
# 2 -0.006297 0.012052 -0.004758 0.000000 0.001714 0.000000
# 3 -0.002896 -0.004758 0.012073 0.000000 -0.004672 0.000000
# 4 0.000000 0.000000 0.000000 0.029112 0.000000 -0.005514
# 5 -0.000692 0.001714 -0.004672 0.000000 0.035935 0.000000
# 6 0.000000 0.000000 0.000000 -0.005514 0.000000 0.051833
#
#
# Mechanical properties :
#
#
# Convention : Reuss Voigt Hill
#
# Bulk Modulus (GPa) = 41.93806 58.00205 49.97005
# Shear Modulus (GPa) = 24.45251 28.11812 26.28531
#
# Velocity S-wave (km/s) = 3.82170 4.09816 3.96234
# Velocity P-wave (km/s) = 6.67258 7.55233 7.12604
#
# Compressibility (1/GPa) = 0.02384469
#
# Stress axis : x y z
#
# Youngs Moduli (GPa) = 36.20312 82.97348 82.82696
#
# Poissons Ratio (x) = 0.52251 0.23983
# Poissons Ratio (y) = 0.22798 0.39413
# Poissons Ratio (z) = 0.10483 0.39483
#
# Static dielectric constant tensor:
#      x y z
#    x 2.983010 0.000000 0.131080 
#    y 0.000000 3.442870 0.000000 
#    z 0.131080 0.000000 3.575280 
# 
# 
# High freq. dielectric constant tensor:
#      x y z
#    x 1.607470 0.000000 0.026370 
#    y 0.000000 1.643210 0.000000 
#    z 0.026370 0.000000 1.671060 
# 
# From -- ./inp_files/69937.got.cif
#   From: 2010.06.25/outbox.cif.g09.slc.cpg/sg15_35_cif.got.tgz:69937.got - 2010.06.28 07:06:18.
