data_PCOD8134036
_publ_section_title
;
Structure prediction by ZEFSAII (Michael W. Deem and Ramdas Pophale) SiO2 
 PCOD8134036
Probable space group: C 2/C
;
_chemical_formula_sum "Si O2"
_cell_formula_units_Z 56
_cell_length_a 10.201463
_cell_length_b 21.595646
_cell_length_c 14.960326
_cell_angle_alpha 90.000000
_cell_angle_beta 124.628806
_cell_angle_gamma 90.000000
_cell_volume 2712.006954
_symmetry_space_group_name_H-M "C 2/C"
_symmetry_group_IT_number 15
_symmetry_cell_setting 'monoclinic'
loop_
_space_group_symop_operation_xyz
x,y,z
-x,y,1/2-z
-x,-y,-z
x,-y,1/2+z
1/2+x,1/2+y,z
1/2-x,1/2+y,1/2-z
1/2-x,1/2-y,-z
1/2+x,1/2-y,1/2+z
loop_
_atom_site_type_symbol
_atom_site_label
_atom_site_fract_x
_atom_site_fract_y
_atom_site_fract_z
Si Si1 0.586197 0.094402 0.581486
Si Si2 0.355729 0.680971 0.757131
Si Si3 0.258038 0.468030 0.870400
Si Si4 0.719720 0.845687 0.485997
Si Si5 0.186865 0.239890 0.331096
Si Si6 0.040335 0.463336 0.632224
Si Si7 0.941047 0.090149 0.946930
O O1 0.739334 0.138525 0.651033
O O2 0.450959 0.122042 0.593626
O O3 0.510972 0.092835 0.452633
O O4 0.624204 0.022672 0.618012
O O5 0.500000 0.704502 0.750000
O O6 0.265583 0.740787 0.765734
O O7 0.426463 0.640939 0.864891
O O8 0.172205 0.436587 0.751568
O O9 0.360843 0.527250 0.879734
O O10 0.119113 0.489386 0.883240
O O11 0.371569 0.418056 0.961683
O O12 0.743526 0.823343 0.598128
O O13 0.728791 0.791547 0.418492
O O14 0.859736 0.892297 0.510186
O O15 0.000000 0.230965 0.250000
#
# Coordination Sequence:
#
# PCOD8134036 Si02
#       7
#     8   8   8   8   8   8   8
#     4  11  20  36  57  89 118 161 196 245 301 367
#     4  11  22  38  63  89 119 154 201 255 311 363
#     4  10  19  35  53  84 122 163 196 238 284 364
#     4  10  21  37  62  88 113 154 207 260 293 357
#     4  10  21  39  65  88 110 151 212 254 308 360
#     4  10  21  33  56  84 124 163 202 228 295 371
#     4  10  20  34  58  86 120 157 198 243 300 345
#
# _framework density 20.648914999999999
#
# number of rings (size 3 to 8) (size 9 to 14) (size 15 to 20)
#    0.000    1.714    4.286    0.857    0.000    1.143 
#    0.000    0.714    6.286    0.000    0.000    0.000 
#    0.000    0.000    0.000    0.000    0.000    0.000 
#
# Total GULP energy -347020.399995 kJ/mol
# GULP energy per Si atom -12393.585714 kJ/mol
# Density = 2.060192 g / cm^3
# Si number density = 20.648915 Si / 1000 Ang^3
#
#
#
# Elastic Constant Matrix: (Units=GPa)
#
#
# Indices 1 2 3 4 5 6 
#
# 1 92.4429 13.8354 37.7816 0.0000 4.1669 0.0000
# 2 13.8354 38.5905 27.6337 0.0000 -1.0458 0.0000
# 3 37.7816 27.6337 119.8426 0.0000 8.5229 0.0000
# 4 0.0000 0.0000 0.0000 16.8284 0.0000 -4.9896
# 5 4.1669 -1.0458 8.5229 0.0000 33.9456 0.0000
# 6 0.0000 0.0000 0.0000 -4.9896 0.0000 20.8152
#
#
#
# Elastic Compliance Matrix: (Units=1/GPa)
#
#
# Indices 1 2 3 4 5 6 
#
# 1 0.012563 -0.002067 -0.003431 0.000000 -0.000744 0.000000
# 2 -0.002067 0.031642 -0.006854 0.000000 0.002950 0.000000
# 3 -0.003431 -0.006854 0.011191 0.000000 -0.002600 0.000000
# 4 0.000000 0.000000 0.000000 0.063970 0.000000 0.015334
# 5 -0.000744 0.002950 -0.002600 0.000000 0.030294 0.000000
# 6 0.000000 0.000000 0.000000 0.015334 0.000000 0.051718
#
#
# Mechanical properties :
#
#
# Convention : Reuss Voigt Hill
#
# Bulk Modulus (GPa) = 32.58242 45.48638 39.03440
# Shear Modulus (GPa) = 21.15841 25.75954 23.45897
#
# Velocity S-wave (km/s) = 3.20453 3.53583 3.37425
# Velocity P-wave (km/s) = 5.43189 6.22461 5.84171
#
# Compressibility (1/GPa) = 0.03069140
#
# Stress axis : x y z
#
# Youngs Moduli (GPa) = 79.60104 31.60323 89.35546
#
# Poissons Ratio (x) = 0.06533 0.30657
# Poissons Ratio (y) = 0.16456 0.61246
# Poissons Ratio (z) = 0.27310 0.21661
#
# Static dielectric constant tensor:
#      x y z
#    x 3.719050 0.000000 -0.042600 
#    y 0.000000 3.566770 0.000000 
#    z -0.042600 0.000000 3.939690 
# 
# 
# High freq. dielectric constant tensor:
#      x y z
#    x 1.801570 0.000000 0.007210 
#    y 0.000000 1.779810 0.000000 
#    z 0.007210 0.000000 1.813150 
# 
# From -- ./inp_files/137931.got.cif
#   From: 2010.06.25/outbox.cif.g09.slc.cpg/sg15_69_cif.got.tgz:137931.got - 2010.06.28 07:06:18.
