data_PCOD8134548
_publ_section_title
;
Structure prediction by ZEFSAII (Michael W. Deem and Ramdas Pophale) SiO2 
 PCOD8134548
Probable space group: C 2/C
;
_chemical_formula_sum "Si O2"
_cell_formula_units_Z 56
_cell_length_a 22.117518
_cell_length_b 11.299522
_cell_length_c 12.717135
_cell_angle_alpha 90.000000
_cell_angle_beta 68.323975
_cell_angle_gamma 90.000000
_cell_volume 2953.491342
_symmetry_space_group_name_H-M "C 2/C"
_symmetry_group_IT_number 15
_symmetry_cell_setting 'monoclinic'
loop_
_space_group_symop_operation_xyz
x,y,z
-x,y,1/2-z
-x,-y,-z
x,-y,1/2+z
1/2+x,1/2+y,z
1/2-x,1/2+y,1/2-z
1/2-x,1/2-y,-z
1/2+x,1/2-y,1/2+z
loop_
_atom_site_type_symbol
_atom_site_label
_atom_site_fract_x
_atom_site_fract_y
_atom_site_fract_z
Si Si1 0.072899 0.522426 0.489655
Si Si2 0.335682 0.853212 0.952511
Si Si3 0.684867 0.623947 0.099319
Si Si4 0.301550 0.637926 0.852927
Si Si5 0.648933 0.981716 0.244688
Si Si6 0.070391 0.696190 0.674347
Si Si7 0.734285 0.316177 0.346449
O O1 0.099439 0.404650 0.533372
O O2 0.122723 0.550630 0.363178
O O3 0.075253 0.643169 0.554232
O O4 0.000000 0.500000 0.500000
O O5 0.344084 0.718248 0.906261
O O6 0.320047 0.930020 0.859478
O O7 0.274590 0.859711 0.069123
O O8 0.672322 0.495352 0.155681
O O9 0.618997 0.695787 0.156628
O O10 0.744023 0.686265 0.125754
O O11 0.701391 0.615070 0.964974
O O12 0.311843 0.688151 0.727028
O O13 0.586133 0.911784 0.241913
O O14 0.703953 0.887532 0.236736
O O15 0.000000 0.745681 0.750000
#
# Coordination Sequence:
#
# PCOD8134548 Si02
#       7
#     8   8   8   8   8   8   8
#     4  11  21  37  63  86 115 156 199 250 301 347
#     4  10  23  34  57  90 120 150 195 246 303 363
#     4  10  23  38  57  88 117 155 201 238 296 370
#     4  11  22  37  57  88 125 154 185 250 307 362
#     4  10  19  36  57  88 116 147 194 247 299 350
#     4  10  21  38  59  86 116 154 204 249 286 353
#     4  10  21  35  60  85 116 156 193 239 303 362
#
# _framework density 18.960611
#
# number of rings (size 3 to 8) (size 9 to 14) (size 15 to 20)
#    0.000    1.714    4.286    0.000    6.000    0.000 
#    0.000    0.000    3.143    1.714    0.000    0.000 
#    0.000    0.000    0.000    0.000    0.000    0.000 
#
# Total GULP energy -347121.911833 kJ/mol
# GULP energy per Si atom -12397.211137 kJ/mol
# Density = 1.891746 g / cm^3
# Si number density = 18.960611 Si / 1000 Ang^3
#
#
#
# Elastic Constant Matrix: (Units=GPa)
#
#
# Indices 1 2 3 4 5 6 
#
# 1 69.5080 34.5390 24.5460 0.0000 7.6972 0.0000
# 2 34.5390 107.5508 32.5123 0.0000 13.4543 0.0000
# 3 24.5460 32.5123 121.4587 0.0000 11.6525 0.0000
# 4 0.0000 0.0000 0.0000 24.1679 0.0000 1.6996
# 5 7.6972 13.4543 11.6525 0.0000 26.7098 0.0000
# 6 0.0000 0.0000 0.0000 1.6996 0.0000 21.0915
#
#
#
# Elastic Compliance Matrix: (Units=1/GPa)
#
#
# Indices 1 2 3 4 5 6 
#
# 1 0.017732 -0.004834 -0.002122 0.000000 -0.001749 0.000000
# 2 -0.004834 0.011881 -0.001840 0.000000 -0.003789 0.000000
# 3 -0.002122 -0.001840 0.009400 0.000000 -0.002563 0.000000
# 4 0.000000 0.000000 0.000000 0.041613 0.000000 -0.003353
# 5 -0.001749 -0.003789 -0.002563 0.000000 0.040970 0.000000
# 6 0.000000 0.000000 0.000000 -0.003353 0.000000 0.047683
#
#
# Mechanical properties :
#
#
# Convention : Reuss Voigt Hill
#
# Bulk Modulus (GPa) = 46.68203 53.52358 50.10280
# Shear Modulus (GPa) = 25.77181 28.18852 26.98016
#
# Velocity S-wave (km/s) = 3.69077 3.85994 3.77630
# Velocity P-wave (km/s) = 6.54495 6.93943 6.74507
#
# Compressibility (1/GPa) = 0.02142152
#
# Stress axis : x y z
#
# Youngs Moduli (GPa) = 56.39536 84.17131 106.37884
#
# Poissons Ratio (x) = 0.40691 0.22570
# Poissons Ratio (y) = 0.27263 0.19571
# Poissons Ratio (z) = 0.11965 0.15485
#
# Static dielectric constant tensor:
#      x y z
#    x 3.297080 0.000000 0.211900 
#    y 0.000000 3.366390 0.000000 
#    z 0.211900 0.000000 3.582540 
# 
# 
# High freq. dielectric constant tensor:
#      x y z
#    x 1.712220 0.000000 0.013610 
#    y 0.000000 1.723140 0.000000 
#    z 0.013610 0.000000 1.751590 
# 
# From -- ./inp_files/111551.got.cif
#   From: 2010.06.25/outbox.cif.g09.slc.cpg/sg15_56_cif.got.tgz:111551.got - 2010.06.28 07:06:18.
