data_PCOD8134525
_publ_section_title
;
Structure prediction by ZEFSAII (Michael W. Deem and Ramdas Pophale) SiO2 
 PCOD8134525
Probable space group: C 2/C
;
_chemical_formula_sum "Si O2"
_cell_formula_units_Z 60
_cell_length_a 24.217766
_cell_length_b 8.824188
_cell_length_c 22.440022
_cell_angle_alpha 90.000000
_cell_angle_beta 40.580162
_cell_angle_gamma 90.000000
_cell_volume 3119.514058
_symmetry_space_group_name_H-M "C 2/C"
_symmetry_group_IT_number 15
_symmetry_cell_setting 'monoclinic'
loop_
_space_group_symop_operation_xyz
x,y,z
-x,y,1/2-z
-x,-y,-z
x,-y,1/2+z
1/2+x,1/2+y,z
1/2-x,1/2+y,1/2-z
1/2-x,1/2-y,-z
1/2+x,1/2-y,1/2+z
loop_
_atom_site_type_symbol
_atom_site_label
_atom_site_fract_x
_atom_site_fract_y
_atom_site_fract_z
Si Si1 0.670728 0.506921 0.434400
Si Si2 0.968482 0.226935 0.455963
Si Si3 0.000000 0.152614 0.750000
Si Si4 0.537446 0.360404 0.778309
Si Si5 0.652306 0.250145 0.854718
Si Si6 0.156428 0.246318 0.546116
Si Si7 0.146336 0.501449 0.954014
Si Si8 0.284630 0.256276 0.827450
O O1 0.599770 0.394398 0.464244
O O2 0.692834 0.626582 0.365169
O O3 0.646940 0.591991 0.515340
O O4 0.753548 0.404873 0.378367
O O5 0.938712 0.401344 0.483209
O O6 0.975401 0.181834 0.381852
O O7 0.054748 0.207361 0.421705
O O8 0.921516 0.250239 0.841956
O O9 0.958459 0.043949 0.732978
O O10 0.500000 0.282404 0.750000
O O11 0.627359 0.286564 0.714103
O O12 0.657154 0.089190 0.883137
O O13 0.708736 0.247023 0.749421
O O14 0.250000 0.250000 0.500000
O O15 0.142356 0.389569 0.514547
O O16 0.225047 0.390906 0.897917
#
# Coordination Sequence:
#
# PCOD8134525 Si02
#       8
#     8   8   4   8   8   8   8   8
#     4  10  20  37  59  84 114 153 197 238 295 354
#     4  10  19  36  57  82 114 153 192 241 287 347
#     4  10  20  42  60  82 122 156 202 240 298 372
#     4   9  19  35  59  81 110 149 205 233 290 351
#     4  10  20  35  57  84 118 152 193 235 298 356
#     4  11  23  41  61  87 120 160 198 250 305 360
#     4  10  22  36  56  86 122 147 196 245 296 347
#     4  10  20  36  60  85 116 154 194 245 291 350
#
# _framework density 19.233764999999998
#
# number of rings (size 3 to 8) (size 9 to 14) (size 15 to 20)
#    0.400    1.600    1.333    2.400    0.000    1.067 
#    6.000    3.333    8.800    0.000    0.000    0.000 
#    0.000    0.000    0.000    0.000    0.000    0.000 
#
# Total GULP energy -371867.089719 kJ/mol
# GULP energy per Si atom -12395.569657 kJ/mol
# Density = 1.918999 g / cm^3
# Si number density = 19.233765 Si / 1000 Ang^3
#
#
#
# Elastic Constant Matrix: (Units=GPa)
#
#
# Indices 1 2 3 4 5 6 
#
# 1 58.0372 25.8017 22.8491 -0.0010 11.4596 0.0009
# 2 25.8017 113.8876 44.5920 -0.0041 5.5610 0.0047
# 3 22.8491 44.5920 111.8623 -0.0014 1.7281 0.0010
# 4 -0.0010 -0.0041 -0.0014 32.1378 0.0014 1.4265
# 5 11.4596 5.5610 1.7281 0.0014 19.8682 -0.0010
# 6 0.0009 0.0047 0.0010 1.4265 -0.0010 17.0429
#
#
#
# Elastic Compliance Matrix: (Units=1/GPa)
#
#
# Indices 1 2 3 4 5 6 
#
# 1 0.022174 -0.003263 -0.003049 0.000001 -0.011611 -0.000001
# 2 -0.003263 0.011016 -0.003711 0.000001 -0.000879 -0.000003
# 3 -0.003049 -0.003711 0.011013 0.000000 0.001840 0.000001
# 4 0.000001 0.000001 0.000000 0.031232 -0.000003 -0.002614
# 5 -0.011611 -0.000879 0.001840 -0.000003 0.057115 0.000004
# 6 -0.000001 -0.000003 0.000001 -0.002614 0.000004 0.058894
#
#
# Mechanical properties :
#
#
# Convention : Reuss Voigt Hill
#
# Bulk Modulus (GPa) = 41.39637 52.25253 46.82445
# Shear Modulus (GPa) = 22.77458 26.51273 24.64365
#
# Velocity S-wave (km/s) = 3.44480 3.71677 3.58337
# Velocity P-wave (km/s) = 6.11487 6.75613 6.44348
#
# Compressibility (1/GPa) = 0.02415671
#
# Stress axis : x y z
#
# Youngs Moduli (GPa) = 45.09787 90.77886 90.79842
#
# Poissons Ratio (x) = 0.29619 0.27687
# Poissons Ratio (y) = 0.14714 0.33697
# Poissons Ratio (z) = 0.13752 0.33690
#
# Static dielectric constant tensor:
#      x y z
#    x 3.384140 0.000000 0.033250 
#    y 0.000000 3.533770 0.000010 
#    z 0.033250 0.000010 3.611780 
# 
# 
# High freq. dielectric constant tensor:
#      x y z
#    x 1.742380 0.000000 0.000410 
#    y 0.000000 1.751060 0.000000 
#    z 0.000410 0.000000 1.753180 
# 
# From -- ./inp_files/281654.got.cif
#   From: 2010.06.25/outbox.cif.g09.slc.cpg/sg15_141_cif.got.tgz:281654.got - 2010.06.28 07:06:18.
