data_PCOD8134856
_publ_section_title
;
Structure prediction by ZEFSAII (Michael W. Deem and Ramdas Pophale) SiO2 
 PCOD8134856
Probable space group: C 2/C
;
_chemical_formula_sum "Si O2"
_cell_formula_units_Z 48
_cell_length_a 12.105995
_cell_length_b 17.190633
_cell_length_c 10.802104
_cell_angle_alpha 90.000000
_cell_angle_beta 77.191491
_cell_angle_gamma 90.000000
_cell_volume 2192.084001
_symmetry_space_group_name_H-M "C 2/C"
_symmetry_group_IT_number 15
_symmetry_cell_setting 'monoclinic'
loop_
_space_group_symop_operation_xyz
x,y,z
-x,y,1/2-z
-x,-y,-z
x,-y,1/2+z
1/2+x,1/2+y,z
1/2-x,1/2+y,1/2-z
1/2-x,1/2-y,-z
1/2+x,1/2-y,1/2+z
loop_
_atom_site_type_symbol
_atom_site_label
_atom_site_fract_x
_atom_site_fract_y
_atom_site_fract_z
Si Si1 0.851924 0.706868 0.040905
Si Si2 0.088267 0.228437 0.459365
Si Si3 0.490787 0.433701 0.601043
Si Si4 0.741433 0.553409 0.022816
Si Si5 0.811445 0.036829 0.740525
Si Si6 0.317481 0.286478 0.299023
O O1 0.840592 0.615160 0.019701
O O2 0.851190 0.724576 0.186818
O O3 0.970948 0.731258 0.951374
O O4 0.750000 0.750000 0.000000
O O5 0.087504 0.138784 0.416701
O O6 0.185720 0.276294 0.365624
O O7 0.104324 0.230490 0.602834
O O8 0.500000 0.500000 0.500000
O O9 0.620395 0.404455 0.583722
O O10 0.421283 0.478944 0.727626
O O11 0.762853 0.484164 0.118615
O O12 0.746962 0.520936 0.879412
O O13 0.843281 0.127577 0.739394
#
# Coordination Sequence:
#
# PCOD8134856 Si02
#       6
#     8   8   8   8   8   8
#     4  12  22  42  65  98 136 173 222 271 343 402
#     4  11  24  42  68  97 135 179 221 276 341 408
#     4  10  19  36  64  97 128 164 214 279 341 390
#     4  11  23  39  63  98 130 172 216 285 335 407
#     4  11  22  39  62  92 136 168 223 273 338 396
#     4  11  24  42  65  98 134 177 225 277 333 405
#
# _framework density 21.89697
#
# number of rings (size 3 to 8) (size 9 to 14) (size 15 to 20)
#    0.000    1.000    3.333    5.000    0.000    4.667 
#    0.000    0.833    0.000    4.000    0.000    0.000 
#    0.000    0.000    0.000    0.000    0.000    0.000 
#
# Total GULP energy -297400.778573 kJ/mol
# GULP energy per Si atom -12391.699107 kJ/mol
# Density = 2.184713 g / cm^3
# Si number density = 21.896970 Si / 1000 Ang^3
#
#
#
# Elastic Constant Matrix: (Units=GPa)
#
#
# Indices 1 2 3 4 5 6 
#
# 1 104.8387 43.7124 25.4152 0.0000 -4.5189 0.0000
# 2 43.7124 93.2463 24.6426 0.0000 5.5812 0.0000
# 3 25.4152 24.6426 105.6448 0.0000 19.7331 0.0000
# 4 0.0000 0.0000 0.0000 40.3968 0.0000 -4.8605
# 5 -4.5189 5.5812 19.7331 0.0000 23.0314 0.0000
# 6 0.0000 0.0000 0.0000 -4.8605 0.0000 24.4157
#
#
#
# Elastic Compliance Matrix: (Units=1/GPa)
#
#
# Indices 1 2 3 4 5 6 
#
# 1 0.012894 -0.005640 -0.002993 0.000000 0.006461 0.000000
# 2 -0.005640 0.013903 -0.001250 0.000000 -0.003405 0.000000
# 3 -0.002993 -0.001250 0.012537 0.000000 -0.011026 0.000000
# 4 0.000000 0.000000 0.000000 0.025362 0.000000 0.005049
# 5 0.006461 -0.003405 -0.011026 0.000000 0.054959 0.000000
# 6 0.000000 0.000000 0.000000 0.005049 0.000000 0.041962
#
#
# Mechanical properties :
#
#
# Convention : Reuss Voigt Hill
#
# Bulk Modulus (GPa) = 51.10799 54.58557 52.84678
# Shear Modulus (GPa) = 26.60904 31.56609 29.08756
#
# Velocity S-wave (km/s) = 3.48974 3.80092 3.64865
# Velocity P-wave (km/s) = 6.29513 6.65171 6.47587
#
# Compressibility (1/GPa) = 0.01956641
#
# Stress axis : x y z
#
# Youngs Moduli (GPa) = 77.55336 71.92933 79.76487
#
# Poissons Ratio (x) = 0.40571 0.23876
# Poissons Ratio (y) = 0.43743 0.09971
# Poissons Ratio (z) = 0.23214 0.08991
#
# Static dielectric constant tensor:
#      x y z
#    x 4.313560 0.000000 -0.382630 
#    y 0.000000 3.890260 0.000000 
#    z -0.382630 0.000000 4.820440 
# 
# 
# High freq. dielectric constant tensor:
#      x y z
#    x 1.840870 0.000000 0.016980 
#    y 0.000000 1.852130 0.000000 
#    z 0.016980 0.000000 1.881970 
# 
# From -- ./inp_files/87794.got.cif
#   From: 2010.06.25/outbox.cif.g09.slc.cpg/sg15_44_cif.got.tgz:87794.got - 2010.06.28 07:06:18.
