data_PCOD8134738
_publ_section_title
;
Structure prediction by ZEFSAII (Michael W. Deem and Ramdas Pophale) SiO2 
 PCOD8134738
Probable space group: C 2/C
;
_chemical_formula_sum "Si O2"
_cell_formula_units_Z 64
_cell_length_a 19.667926
_cell_length_b 9.862539
_cell_length_c 22.742855
_cell_angle_alpha 90.000000
_cell_angle_beta 53.281125
_cell_angle_gamma 90.000000
_cell_volume 3536.213382
_symmetry_space_group_name_H-M "C 2/C"
_symmetry_group_IT_number 15
_symmetry_cell_setting 'monoclinic'
loop_
_space_group_symop_operation_xyz
x,y,z
-x,y,1/2-z
-x,-y,-z
x,-y,1/2+z
1/2+x,1/2+y,z
1/2-x,1/2+y,1/2-z
1/2-x,1/2-y,-z
1/2+x,1/2-y,1/2+z
loop_
_atom_site_type_symbol
_atom_site_label
_atom_site_fract_x
_atom_site_fract_y
_atom_site_fract_z
Si Si1 0.457565 0.469562 0.833533
Si Si2 0.784402 0.385102 0.954188
Si Si3 0.774334 0.868208 0.944466
Si Si4 0.126029 0.044313 0.304285
Si Si5 0.746352 0.544986 0.346132
Si Si6 0.242604 0.233230 0.172250
Si Si7 0.637678 0.761493 0.787084
Si Si8 0.538197 0.219802 0.168269
O O1 0.500000 0.425506 0.750000
O O2 0.376081 0.378985 0.888966
O O3 0.524054 0.445124 0.852677
O O4 0.428348 0.625978 0.845103
O O5 0.731365 0.421174 0.922429
O O6 0.884509 0.377237 0.888938
O O7 0.750000 0.250000 0.000000
O O8 0.771218 0.497320 0.010208
O O9 0.737081 0.834565 0.900123
O O10 0.750000 0.750000 0.000000
O O11 0.158403 0.061623 0.354881
O O12 0.163471 0.161789 0.244229
O O13 0.153976 0.897495 0.263616
O O14 0.780311 0.391768 0.322014
O O15 0.816471 0.649189 0.286073
O O16 0.326858 0.206084 0.166839
O O17 0.537398 0.793265 0.840288
O O18 0.500000 0.172460 0.250000
#
# Coordination Sequence:
#
# PCOD8134738 Si02
#       8
#     8   8   8   8   8   8   8   8
#     4  10  19  36  62  88 109 149 205 237 274 341
#     4  12  24  38  58  86 119 155 192 235 292 349
#     4  12  24  40  56  84 124 157 185 234 302 347
#     4   9  19  36  63  86 111 149 199 243 278 335
#     4  10  20  37  56  89 118 149 190 240 293 337
#     4  10  20  37  57  86 118 153 187 237 296 343
#     4   9  19  36  63  85 112 147 199 245 277 334
#     4  10  19  36  61  88 111 146 201 245 274 334
#
# _framework density 18.098455999999999
#
# number of rings (size 3 to 8) (size 9 to 14) (size 15 to 20)
#    0.000    1.750    5.000    0.000    1.750    0.000 
#    2.250    4.375    0.000    0.000    0.000    0.000 
#    0.000    0.000    0.000    0.000    0.000    0.000 
#
# Total GULP energy -396793.191263 kJ/mol
# GULP energy per Si atom -12399.787227 kJ/mol
# Density = 1.805726 g / cm^3
# Si number density = 18.098456 Si / 1000 Ang^3
#
#
#
# Elastic Constant Matrix: (Units=GPa)
#
#
# Indices 1 2 3 4 5 6 
#
# 1 108.0098 35.9327 46.2590 0.0000 0.2762 -0.0001
# 2 35.9327 101.2710 47.8521 -0.0001 2.0563 -0.0002
# 3 46.2590 47.8521 89.2720 0.0000 -2.0563 0.0000
# 4 0.0000 -0.0001 0.0000 38.7582 0.0000 1.8888
# 5 0.2762 2.0563 -2.0563 0.0000 32.7924 0.0000
# 6 -0.0001 -0.0002 0.0000 1.8888 0.0000 26.1453
#
#
#
# Elastic Compliance Matrix: (Units=1/GPa)
#
#
# Indices 1 2 3 4 5 6 
#
# 1 0.012140 -0.001774 -0.005347 0.000000 -0.000326 0.000000
# 2 -0.001774 0.013537 -0.006365 0.000000 -0.001233 0.000000
# 3 -0.005347 -0.006365 0.017420 0.000000 0.001536 0.000000
# 4 0.000000 0.000000 0.000000 0.025892 0.000000 -0.001870
# 5 -0.000326 -0.001233 0.001536 0.000000 0.030671 0.000000
# 6 0.000000 0.000000 0.000000 -0.001870 0.000000 0.038383
#
#
# Mechanical properties :
#
#
# Convention : Reuss Voigt Hill
#
# Bulk Modulus (GPa) = 62.02164 62.07117 62.04641
# Shear Modulus (GPa) = 29.34462 30.77311 30.05887
#
# Velocity S-wave (km/s) = 4.03101 4.12796 4.07978
# Velocity P-wave (km/s) = 7.48391 7.55586 7.51997
#
# Compressibility (1/GPa) = 0.01612340
#
# Stress axis : x y z
#
# Youngs Moduli (GPa) = 82.37565 73.87366 57.40646
#
# Poissons Ratio (x) = 0.13106 0.30695
# Poissons Ratio (y) = 0.14615 0.36540
# Poissons Ratio (z) = 0.44046 0.47021
#
# Static dielectric constant tensor:
#      x y z
#    x 3.701780 0.000000 0.082240 
#    y 0.000000 3.383280 0.000000 
#    z 0.082240 0.000000 3.174040 
# 
# 
# High freq. dielectric constant tensor:
#      x y z
#    x 1.714760 0.000000 0.010100 
#    y 0.000000 1.703400 0.000000 
#    z 0.010100 0.000000 1.676640 
# 
# From -- ./inp_files/279554.got.cif
#   From: 2010.06.25/outbox.cif.g09.slc.cpg/sg15_140_cif.got.tgz:279554.got - 2010.06.28 07:06:18.
