data_PCOD8134188
_publ_section_title
;
Structure prediction by ZEFSAII (Michael W. Deem and Ramdas Pophale) SiO2 
 PCOD8134188
Probable space group: C 2/C
;
_chemical_formula_sum "Si O2"
_cell_formula_units_Z 52
_cell_length_a 19.019047
_cell_length_b 8.375204
_cell_length_c 23.777179
_cell_angle_alpha 90.000000
_cell_angle_beta 137.099016
_cell_angle_gamma 90.000000
_cell_volume 2578.229448
_symmetry_space_group_name_H-M "C 2/C"
_symmetry_group_IT_number 15
_symmetry_cell_setting 'monoclinic'
loop_
_space_group_symop_operation_xyz
x,y,z
-x,y,1/2-z
-x,-y,-z
x,-y,1/2+z
1/2+x,1/2+y,z
1/2-x,1/2+y,1/2-z
1/2-x,1/2-y,-z
1/2+x,1/2-y,1/2+z
loop_
_atom_site_type_symbol
_atom_site_label
_atom_site_fract_x
_atom_site_fract_y
_atom_site_fract_z
Si Si1 0.675082 0.008209 0.817567
Si Si2 0.593440 0.259712 0.697875
Si Si3 0.400615 0.414159 0.970395
Si Si4 0.419261 0.094996 0.916274
Si Si5 0.814265 0.335976 0.791922
Si Si6 0.018461 0.892676 0.147068
Si Si7 0.000000 0.301557 0.750000
O O1 0.795480 0.020574 0.905629
O O2 0.661146 0.924633 0.750372
O O3 0.603047 0.910012 0.818322
O O4 0.621309 0.181291 0.774821
O O5 0.529988 0.153989 0.614112
O O6 0.698990 0.275151 0.724610
O O7 0.539470 0.426206 0.677555
O O8 0.376615 0.244983 0.926926
O O9 0.500000 0.500000 0.000000
O O10 0.419701 0.388175 0.047959
O O11 0.331359 0.960915 0.853079
O O12 0.500000 0.000000 0.000000
O O13 0.888793 0.180640 0.836483
O O14 0.998647 0.802880 0.193274
#
# Coordination Sequence:
#
# PCOD8134188 Si02
#       7
#     8   8   8   8   8   8   4
#     4  10  23  39  62  85 129 165 210 251 303 384
#     4  11  21  36  64  93 123 162 206 266 321 371
#     4  12  21  39  64 102 128 156 200 276 332 370
#     4  11  21  32  56  95 138 155 186 252 342 381
#     4  10  19  35  57  97 123 160 199 254 325 380
#     4  11  22  39  64  87 129 162 214 257 305 384
#     4  10  26  46  60  86 118 186 218 240 302 376
#
# _framework density 20.168880999999999
#
# number of rings (size 3 to 8) (size 9 to 14) (size 15 to 20)
#    0.000    1.231    4.615    2.769    2.154    1.231 
#    0.000    0.000    0.000    1.846    0.000    0.000 
#    0.000    0.000    0.000    0.000    0.000    0.000 
#
# Total GULP energy -322159.587792 kJ/mol
# GULP energy per Si atom -12390.753377 kJ/mol
# Density = 2.012298 g / cm^3
# Si number density = 20.168881 Si / 1000 Ang^3
#
#
#
# Elastic Constant Matrix: (Units=GPa)
#
#
# Indices 1 2 3 4 5 6 
#
# 1 74.5507 32.2525 40.7498 0.0000 1.5201 0.0000
# 2 32.2525 111.3126 50.8154 0.0000 -5.4054 0.0000
# 3 40.7498 50.8154 126.8218 0.0000 0.9462 0.0000
# 4 0.0000 0.0000 0.0000 34.5773 0.0000 2.6362
# 5 1.5201 -5.4054 0.9462 0.0000 26.2862 0.0000
# 6 0.0000 0.0000 0.0000 2.6362 0.0000 15.5833
#
#
#
# Elastic Compliance Matrix: (Units=1/GPa)
#
#
# Indices 1 2 3 4 5 6 
#
# 1 0.017101 -0.003088 -0.004247 0.000000 -0.001471 0.000000
# 2 -0.003088 0.011708 -0.003720 0.000000 0.002720 0.000000
# 3 -0.004247 -0.003720 0.010747 0.000000 -0.000906 0.000000
# 4 0.000000 0.000000 0.000000 0.029299 0.000000 -0.004956
# 5 -0.001471 0.002720 -0.000906 0.000000 0.038720 0.000000
# 6 0.000000 0.000000 0.000000 -0.004956 0.000000 0.065010
#
#
# Mechanical properties :
#
#
# Convention : Reuss Voigt Hill
#
# Bulk Modulus (GPa) = 57.31246 62.25784 59.78515
# Shear Modulus (GPa) = 24.93667 27.88050 26.40859
#
# Velocity S-wave (km/s) = 3.52005 3.72203 3.62245
# Velocity P-wave (km/s) = 6.70813 7.02899 6.87043
#
# Compressibility (1/GPa) = 0.01744821
#
# Stress axis : x y z
#
# Youngs Moduli (GPa) = 58.47720 85.40825 93.05192
#
# Poissons Ratio (x) = 0.26372 0.39515
# Poissons Ratio (y) = 0.18056 0.34611
# Poissons Ratio (z) = 0.24833 0.31768
#
# Static dielectric constant tensor:
#      x y z
#    x 3.357340 0.000000 -0.037260 
#    y 0.000000 4.561970 0.000000 
#    z -0.037260 0.000000 4.091200 
# 
# 
# High freq. dielectric constant tensor:
#      x y z
#    x 1.735180 0.000000 -0.001490 
#    y 0.000000 1.806810 0.000000 
#    z -0.001490 0.000000 1.800070 
# 
# From -- ./inp_files/247876.got.cif
#   From: 2010.06.25/outbox.cif.g09.slc.cpg/sg15_124_cif.got.tgz:247876.got - 2010.06.28 07:06:18.
