data_PCOD8134484
_publ_section_title
;
Structure prediction by ZEFSAII (Michael W. Deem and Ramdas Pophale) SiO2 
 PCOD8134484
Probable space group: C 2/C
;
_chemical_formula_sum "Si O2"
_cell_formula_units_Z 56
_cell_length_a 9.779299
_cell_length_b 26.566901
_cell_length_c 13.754923
_cell_angle_alpha 90.000000
_cell_angle_beta 47.123831
_cell_angle_gamma 90.000000
_cell_volume 2618.831980
_symmetry_space_group_name_H-M "C 2/C"
_symmetry_group_IT_number 15
_symmetry_cell_setting 'monoclinic'
loop_
_space_group_symop_operation_xyz
x,y,z
-x,y,1/2-z
-x,-y,-z
x,-y,1/2+z
1/2+x,1/2+y,z
1/2-x,1/2+y,1/2-z
1/2-x,1/2-y,-z
1/2+x,1/2-y,1/2+z
loop_
_atom_site_type_symbol
_atom_site_label
_atom_site_fract_x
_atom_site_fract_y
_atom_site_fract_z
Si Si1 0.848801 0.794117 0.236484
Si Si2 0.569083 0.431851 0.618743
Si Si3 0.267184 0.489494 0.203763
Si Si4 0.358397 0.113581 0.405599
Si Si5 0.434176 0.612350 0.575136
Si Si6 0.091414 0.281643 0.523795
Si Si7 0.627613 0.005099 0.053512
O O1 0.646955 0.782920 0.382866
O O2 0.000000 0.803705 0.250000
O O3 0.825123 0.843040 0.181078
O O4 0.899653 0.747275 0.141398
O O5 0.500000 0.403521 0.750000
O O6 0.399539 0.463041 0.654144
O O7 0.634656 0.392370 0.504382
O O8 0.731990 0.470214 0.576795
O O9 0.387699 0.438653 0.156844
O O10 0.186372 0.494306 0.135534
O O11 0.087694 0.488670 0.363533
O O12 0.500000 0.101211 0.250000
O O13 0.152257 0.125652 0.467194
O O14 0.432184 0.161616 0.427854
O O15 0.351727 0.064635 0.478687
O O16 0.250000 0.250000 0.500000
#
# Coordination Sequence:
#
# PCOD8134484 Si02
#       7
#     8   8   8   8   8   8   8
#     4  10  20  36  56  86 123 153 180 242 309 382
#     4  11  22  35  53  80 120 163 210 254 281 347
#     4  10  19  36  55  81 112 158 213 244 300 349
#     4  12  18  30  56  84 119 158 187 234 307 375
#     4  11  20  35  56  79 116 163 204 232 305 362
#     4  10  20  32  53  87 121 148 184 236 312 385
#     4  10  19  36  57  78 117 159 198 258 298 355
#
# _framework density 21.383578
#
# number of rings (size 3 to 8) (size 9 to 14) (size 15 to 20)
#    0.000    1.429    7.143    2.143    0.000    2.286 
#    0.000    1.429    0.000    0.000    0.000    1.000 
#    0.000    0.000    0.000    0.000    0.000    0.000 
#
# Total GULP energy -347072.637425 kJ/mol
# GULP energy per Si atom -12395.451337 kJ/mol
# Density = 2.133491 g / cm^3
# Si number density = 21.383578 Si / 1000 Ang^3
#
#
#
# Elastic Constant Matrix: (Units=GPa)
#
#
# Indices 1 2 3 4 5 6 
#
# 1 40.9629 19.6731 18.8571 0.0000 -0.1974 0.0000
# 2 19.6731 121.6511 44.7443 0.0000 21.5327 0.0000
# 3 18.8571 44.7443 119.2955 0.0000 14.5644 0.0000
# 4 0.0000 0.0000 0.0000 33.1218 0.0000 6.1177
# 5 -0.1974 21.5327 14.5644 0.0000 30.8398 0.0000
# 6 0.0000 0.0000 0.0000 6.1177 0.0000 16.3496
#
#
#
# Elastic Compliance Matrix: (Units=1/GPa)
#
#
# Indices 1 2 3 4 5 6 
#
# 1 0.027988 -0.004077 -0.003464 0.000000 0.004662 0.000000
# 2 -0.004077 0.011012 -0.002700 0.000000 -0.006440 0.000000
# 3 -0.003464 -0.002700 0.010310 0.000000 -0.003006 0.000000
# 4 0.000000 0.000000 0.000000 0.032433 0.000000 -0.012136
# 5 0.004662 -0.006440 -0.003006 0.000000 0.038372 0.000000
# 6 0.000000 0.000000 0.000000 -0.012136 0.000000 0.065705
#
#
# Mechanical properties :
#
#
# Convention : Reuss Voigt Hill
#
# Bulk Modulus (GPa) = 34.68836 49.82871 42.25853
# Shear Modulus (GPa) = 23.15779 29.30457 26.23118
#
# Velocity S-wave (km/s) = 3.29442 3.70594 3.50622
# Velocity P-wave (km/s) = 5.54330 6.45484 6.01635
#
# Compressibility (1/GPa) = 0.02882812
#
# Stress axis : x y z
#
# Youngs Moduli (GPa) = 35.73021 90.80597 96.99629
#
# Poissons Ratio (x) = 0.37023 0.33599
# Poissons Ratio (y) = 0.14568 0.26186
# Poissons Ratio (z) = 0.12377 0.24515
#
# Static dielectric constant tensor:
#      x y z
#    x 3.396930 0.000000 -0.034610 
#    y 0.000000 3.932290 0.000000 
#    z -0.034610 0.000000 4.858550 
# 
# 
# High freq. dielectric constant tensor:
#      x y z
#    x 1.784870 0.000000 0.005950 
#    y 0.000000 1.824370 0.000000 
#    z 0.005950 0.000000 1.865350 
# 
# From -- ./inp_files/200747.got.cif
#   From: 2010.06.25/outbox.cif.g09.slc.cpg/sg15_101_cif.got.tgz:200747.got - 2010.06.28 07:06:18.
