data_PCOD8134105
_publ_section_title
;
Structure prediction by ZEFSAII (Michael W. Deem and Ramdas Pophale) SiO2 
 PCOD8134105
Probable space group: C 2/C
;
_chemical_formula_sum "Si O2"
_cell_formula_units_Z 48
_cell_length_a 21.094206
_cell_length_b 16.553079
_cell_length_c 9.003891
_cell_angle_alpha 90.000000
_cell_angle_beta 132.075890
_cell_angle_gamma 90.000000
_cell_volume 2333.603257
_symmetry_space_group_name_H-M "C 2/C"
_symmetry_group_IT_number 15
_symmetry_cell_setting 'monoclinic'
loop_
_space_group_symop_operation_xyz
x,y,z
-x,y,1/2-z
-x,-y,-z
x,-y,1/2+z
1/2+x,1/2+y,z
1/2-x,1/2+y,1/2-z
1/2-x,1/2-y,-z
1/2+x,1/2-y,1/2+z
loop_
_atom_site_type_symbol
_atom_site_label
_atom_site_fract_x
_atom_site_fract_y
_atom_site_fract_z
Si Si1 0.628880 0.897851 0.738822
Si Si2 0.037265 0.761806 0.151825
Si Si3 0.359432 0.725941 0.257574
Si Si4 0.297252 0.682680 0.480792
Si Si5 0.268545 0.886175 0.075123
Si Si6 0.329988 0.009427 0.930878
O O1 0.580901 0.814193 0.638607
O O2 0.603171 0.960991 0.569686
O O3 0.733812 0.893597 0.885469
O O4 0.611004 0.933239 0.874060
O O5 0.109090 0.831259 0.295486
O O6 0.000000 0.731266 0.250000
O O7 0.960519 0.793535 0.928099
O O8 0.309741 0.713381 0.333699
O O9 0.344824 0.819218 0.186308
O O10 0.320855 0.662907 0.077550
O O11 0.250000 0.750000 0.500000
O O12 0.269414 0.933849 0.233037
O O13 0.276259 0.948167 0.949820
#
# Coordination Sequence:
#
# PCOD8134105 Si02
#       6
#     8   8   8   8   8   8
#     4  10  19  35  56  81 109 147 186 221 277 339
#     4   9  18  32  54  82 111 139 181 232 281 320
#     4  10  19  35  56  83 111 147 187 238 271 330
#     4   9  16  30  56  79 107 137 184 226 269 322
#     4  10  20  35  58  79 113 147 191 226 283 326
#     4  10  20  35  57  83 111 152 184 228 276 346
#
# _framework density 20.569050000000001
#
# number of rings (size 3 to 8) (size 9 to 14) (size 15 to 20)
#    0.000    2.333    1.667    3.000    0.000    0.000 
#    0.000   10.000    0.000    6.000    0.000    0.000 
#    0.000    0.000    0.000    0.000    0.000    0.000 
#
# Total GULP energy -297365.239238 kJ/mol
# GULP energy per Si atom -12390.218302 kJ/mol
# Density = 2.052223 g / cm^3
# Si number density = 20.569050 Si / 1000 Ang^3
#
#
#
# Elastic Constant Matrix: (Units=GPa)
#
#
# Indices 1 2 3 4 5 6 
#
# 1 49.4507 -0.1574 20.5887 0.0000 -2.7585 0.0000
# 2 -0.1574 47.0264 2.9434 0.0000 -13.6238 0.0000
# 3 20.5887 2.9434 79.2908 0.0000 -2.8125 0.0000
# 4 0.0000 0.0000 0.0000 31.0735 0.0000 -8.1628
# 5 -2.7585 -13.6238 -2.8125 0.0000 38.7030 0.0000
# 6 0.0000 0.0000 0.0000 -8.1628 0.0000 22.4475
#
#
#
# Elastic Compliance Matrix: (Units=1/GPa)
#
#
# Indices 1 2 3 4 5 6 
#
# 1 0.022761 0.000881 -0.005889 0.000000 0.001504 0.000000
# 2 0.000881 0.023741 -0.000813 0.000000 0.008361 0.000000
# 3 -0.005889 -0.000813 0.014183 0.000000 0.000325 0.000000
# 4 0.000000 0.000000 0.000000 0.035581 0.000000 0.012938
# 5 0.001504 0.008361 0.000325 0.000000 0.028912 0.000000
# 6 0.000000 0.000000 0.000000 0.012938 0.000000 0.049253
#
#
# Mechanical properties :
#
#
# Convention : Reuss Voigt Hill
#
# Bulk Modulus (GPa) = 20.39162 24.72415 22.55788
# Shear Modulus (GPa) = 24.70101 28.60436 26.65268
#
# Velocity S-wave (km/s) = 3.46913 3.73319 3.60358
# Velocity P-wave (km/s) = 5.09723 5.53430 5.32025
#
# Compressibility (1/GPa) = 0.04903976
#
# Stress axis : x y z
#
# Youngs Moduli (GPa) = 43.93494 42.12198 70.50807
#
# Poissons Ratio (x) = -0.03709 0.41525
# Poissons Ratio (y) = -0.03869 0.05735
# Poissons Ratio (z) = 0.25875 0.03426
#
# Static dielectric constant tensor:
#      x y z
#    x 3.844130 0.000000 0.117240 
#    y 0.000000 3.925630 0.000000 
#    z 0.117240 0.000000 4.100900 
# 
# 
# High freq. dielectric constant tensor:
#      x y z
#    x 1.778050 0.000000 -0.016070 
#    y 0.000000 1.790260 0.000000 
#    z -0.016070 0.000000 1.809690 
# 
# From -- ./inp_files/56781.got.cif
#   From: 2010.06.25/outbox.cif.g09.slc.cpg/sg15_29_cif.got.tgz:56781.got - 2010.06.28 07:06:18.
