data_PCOD8134281
_publ_section_title
;
Structure prediction by ZEFSAII (Michael W. Deem and Ramdas Pophale) SiO2 
 PCOD8134281
Probable space group: C 2/C
;
_chemical_formula_sum "Si O2"
_cell_formula_units_Z 64
_cell_length_a 21.372405
_cell_length_b 11.544509
_cell_length_c 24.462990
_cell_angle_alpha 90.000000
_cell_angle_beta 31.410410
_cell_angle_gamma 90.000000
_cell_volume 3145.671698
_symmetry_space_group_name_H-M "C 2/C"
_symmetry_group_IT_number 15
_symmetry_cell_setting 'monoclinic'
loop_
_space_group_symop_operation_xyz
x,y,z
-x,y,1/2-z
-x,-y,-z
x,-y,1/2+z
1/2+x,1/2+y,z
1/2-x,1/2+y,1/2-z
1/2-x,1/2-y,-z
1/2+x,1/2-y,1/2+z
loop_
_atom_site_type_symbol
_atom_site_label
_atom_site_fract_x
_atom_site_fract_y
_atom_site_fract_z
Si Si1 0.552966 0.145624 0.469564
Si Si2 0.908676 0.618091 0.270088
Si Si3 0.822955 0.904010 0.791693
Si Si4 0.456350 0.304985 0.930394
Si Si5 0.513546 0.958679 0.582032
Si Si6 0.684818 0.517142 0.494165
Si Si7 0.529165 0.617570 0.789004
Si Si8 0.792220 0.602946 0.016424
O O1 0.691920 0.103509 0.361735
O O2 0.540064 0.269068 0.508519
O O3 0.497503 0.154546 0.449357
O O4 0.475311 0.060291 0.567662
O O5 0.776220 0.587129 0.388530
O O6 0.000000 0.580352 0.250000
O O7 0.930723 0.548689 0.197454
O O8 0.919105 0.753534 0.249606
O O9 0.814178 0.863372 0.862052
O O10 0.911988 0.817001 0.694050
O O11 0.875737 0.034590 0.751627
O O12 0.393629 0.429067 0.982461
O O13 0.386945 0.209281 0.944649
O O14 0.647775 0.985572 0.502786
O O15 0.599941 0.614126 0.584578
O O16 0.747503 0.429572 0.490338
O O17 0.500000 0.572528 0.750000
#
# Coordination Sequence:
#
# PCOD8134281 Si02
#       8
#     8   8   8   8   8   8   8   8
#     4   9  20  39  63  81 116 163 207 241 288 370
#     4  11  23  37  58  87 117 150 197 261 302 354
#     4   9  18  36  56  84 117 156 195 243 297 361
#     4   9  20  33  56  89 121 155 197 245 304 362
#     4   9  19  39  59  85 113 155 204 244 295 356
#     4  11  21  37  56  90 125 152 194 254 311 365
#     4  10  21  36  58  81 117 161 195 240 307 366
#     4  10  19  35  59  87 120 160 198 242 304 376
#
# _framework density 20.345416
#
# number of rings (size 3 to 8) (size 9 to 14) (size 15 to 20)
#    0.000    2.500    2.500    0.375    0.000    8.000 
#    0.000    7.500    0.000    3.000    0.000    0.000 
#    0.000    0.000    0.000    0.000    0.000    0.000 
#
# Total GULP energy -396452.677378 kJ/mol
# GULP energy per Si atom -12389.146168 kJ/mol
# Density = 2.029911 g / cm^3
# Si number density = 20.345416 Si / 1000 Ang^3
#
#
#
# Elastic Constant Matrix: (Units=GPa)
#
#
# Indices 1 2 3 4 5 6 
#
# 1 67.2413 37.0737 53.3063 -0.0002 14.7168 0.0000
# 2 37.0737 83.0450 66.0960 -0.0009 -5.8357 0.0003
# 3 53.3063 66.0960 178.4028 -0.0011 3.1876 0.0005
# 4 -0.0002 -0.0009 -0.0011 36.5916 0.0004 2.2110
# 5 14.7168 -5.8357 3.1876 0.0004 28.8304 -0.0001
# 6 0.0000 0.0003 0.0005 2.2110 -0.0001 22.7426
#
#
#
# Elastic Compliance Matrix: (Units=1/GPa)
#
#
# Indices 1 2 3 4 5 6 
#
# 1 0.026878 -0.009778 -0.004136 0.000000 -0.015242 0.000000
# 2 -0.009778 0.021149 -0.005089 0.000000 0.009835 0.000000
# 3 -0.004136 -0.005089 0.008725 0.000000 0.000116 0.000000
# 4 0.000000 0.000000 0.000000 0.027490 0.000000 -0.002673
# 5 -0.015242 0.009835 0.000116 0.000000 0.044444 0.000000
# 6 0.000000 0.000000 0.000000 -0.002673 0.000000 0.044230
#
#
# Mechanical properties :
#
#
# Convention : Reuss Voigt Hill
#
# Bulk Modulus (GPa) = 53.35048 71.29347 62.32198
# Shear Modulus (GPa) = 23.02332 29.11379 26.06856
#
# Velocity S-wave (km/s) = 3.36761 3.78693 3.58341
# Velocity P-wave (km/s) = 6.43431 7.36469 6.91517
#
# Compressibility (1/GPa) = 0.01874397
#
# Stress axis : x y z
#
# Youngs Moduli (GPa) = 37.20515 47.28404 114.61891
#
# Poissons Ratio (x) = 0.46236 0.47406
# Poissons Ratio (y) = 0.36381 0.58333
# Poissons Ratio (z) = 0.15388 0.24064
#
# Static dielectric constant tensor:
#      x y z
#    x 3.726040 0.000000 0.114550 
#    y 0.000000 3.580400 0.000000 
#    z 0.114550 0.000000 3.786390 
# 
# 
# High freq. dielectric constant tensor:
#      x y z
#    x 1.776890 0.000000 0.004130 
#    y 0.000000 1.779740 0.000000 
#    z 0.004130 0.000000 1.799590 
# 
# From -- ./inp_files/281936.got.cif
#   From: 2010.06.25/outbox.cif.g09.slc.cpg/sg15_141_cif.got.tgz:281936.got - 2010.06.28 07:06:18.
