data_PCOD8134148
_publ_section_title
;
Structure prediction by ZEFSAII (Michael W. Deem and Ramdas Pophale) SiO2 
 PCOD8134148
Probable space group: C 2/C
;
_chemical_formula_sum "Si O2"
_cell_formula_units_Z 56
_cell_length_a 13.640576
_cell_length_b 14.199971
_cell_length_c 14.126913
_cell_angle_alpha 90.000000
_cell_angle_beta 86.060587
_cell_angle_gamma 90.000000
_cell_volume 2729.858252
_symmetry_space_group_name_H-M "C 2/C"
_symmetry_group_IT_number 15
_symmetry_cell_setting 'monoclinic'
loop_
_space_group_symop_operation_xyz
x,y,z
-x,y,1/2-z
-x,-y,-z
x,-y,1/2+z
1/2+x,1/2+y,z
1/2-x,1/2+y,1/2-z
1/2-x,1/2-y,-z
1/2+x,1/2-y,1/2+z
loop_
_atom_site_type_symbol
_atom_site_label
_atom_site_fract_x
_atom_site_fract_y
_atom_site_fract_z
Si Si1 0.801016 0.990302 0.725450
Si Si2 0.585066 0.795867 0.813534
Si Si3 0.424702 0.386700 0.085043
Si Si4 0.086832 0.489529 0.314180
Si Si5 0.821149 0.366846 0.045735
Si Si6 0.129207 0.010676 0.579783
Si Si7 0.263667 0.188579 0.356463
O O1 0.807336 0.900938 0.655369
O O2 0.859723 0.075603 0.675749
O O3 0.688292 0.021214 0.749936
O O4 0.854863 0.964013 0.819337
O O5 0.500000 0.760631 0.750000
O O6 0.584280 0.726924 0.904973
O O7 0.684687 0.788507 0.746096
O O8 0.569028 0.903040 0.848960
O O9 0.536394 0.420436 0.085639
O O10 0.380782 0.421523 0.988850
O O11 0.091482 0.425986 0.409695
O O12 0.000000 0.455659 0.250000
O O13 0.722087 0.426903 0.046218
O O14 0.805419 0.274106 0.109459
O O15 0.843331 0.336572 0.935126
#
# Coordination Sequence:
#
# PCOD8134148 Si02
#       7
#     8   8   8   8   8   8   8
#     4  10  19  36  56  85 121 150 190 244 293 347
#     4  10  19  35  57  81 112 151 197 234 287 348
#     4  11  20  35  62  91 118 152 191 240 304 353
#     4   9  20  37  59  82 114 155 200 239 285 342
#     4  10  19  38  59  83 115 150 202 240 286 353
#     4  10  21  35  61  90 119 147 191 245 302 354
#     4  10  20  34  61  81 109 160 193 235 294 347
#
# _framework density 20.513884999999998
#
# number of rings (size 3 to 8) (size 9 to 14) (size 15 to 20)
#    0.000    2.000    1.429    3.857    0.000    0.000 
#    0.000   14.286    0.000    0.000    0.000    0.000 
#    0.000    0.000    0.000    0.000    0.000    0.000 
#
# Total GULP energy -347141.502924 kJ/mol
# GULP energy per Si atom -12397.910819 kJ/mol
# Density = 2.046719 g / cm^3
# Si number density = 20.513885 Si / 1000 Ang^3
#
#
#
# Elastic Constant Matrix: (Units=GPa)
#
#
# Indices 1 2 3 4 5 6 
#
# 1 65.3986 11.0371 21.4276 0.0000 19.9484 0.0000
# 2 11.0371 96.1000 43.6039 0.0000 18.1933 0.0000
# 3 21.4276 43.6039 104.8216 0.0000 28.2036 0.0000
# 4 0.0000 0.0000 0.0000 38.4558 0.0000 5.1758
# 5 19.9484 18.1933 28.2036 0.0000 26.9914 0.0000
# 6 0.0000 0.0000 0.0000 5.1758 0.0000 20.7914
#
#
#
# Elastic Compliance Matrix: (Units=1/GPa)
#
#
# Indices 1 2 3 4 5 6 
#
# 1 0.019778 0.000678 -0.000374 0.000000 -0.014683 0.000000
# 2 0.000678 0.013214 -0.004318 0.000000 -0.004896 0.000000
# 3 -0.000374 -0.004318 0.014683 0.000000 -0.012155 0.000000
# 4 0.000000 0.000000 0.000000 0.026905 0.000000 -0.006698
# 5 -0.014683 -0.004896 -0.012155 0.000000 0.063902 0.000000
# 6 0.000000 0.000000 0.000000 -0.006698 0.000000 0.049764
#
#
# Mechanical properties :
#
#
# Convention : Reuss Voigt Hill
#
# Bulk Modulus (GPa) = 25.22295 46.49525 35.85910
# Shear Modulus (GPa) = 23.86738 29.93118 26.89928
#
# Velocity S-wave (km/s) = 3.41467 3.82392 3.62508
# Velocity P-wave (km/s) = 5.27910 6.49700 5.91945
#
# Compressibility (1/GPa) = 0.03964644
#
# Stress axis : x y z
#
# Youngs Moduli (GPa) = 50.56178 75.67669 68.10409
#
# Poissons Ratio (x) = -0.05132 0.02550
# Poissons Ratio (y) = -0.03429 0.29408
# Poissons Ratio (z) = 0.01893 0.32678
#
# Static dielectric constant tensor:
#      x y z
#    x 3.634820 0.000000 0.097490 
#    y 0.000000 3.769490 0.000000 
#    z 0.097490 0.000000 3.846910 
# 
# 
# High freq. dielectric constant tensor:
#      x y z
#    x 1.786350 0.000000 0.000590 
#    y 0.000000 1.800330 0.000000 
#    z 0.000590 0.000000 1.801700 
# 
# From -- ./inp_files/153457.got.cif
#   From: 2010.06.25/outbox.cif.g09.slc.cpg/sg15_77_cif.got.tgz:153457.got - 2010.06.28 07:06:18.
