data_PCOD8134677
_publ_section_title
;
Structure prediction by ZEFSAII (Michael W. Deem and Ramdas Pophale) SiO2 
 PCOD8134677
Probable space group: C 2/C
;
_chemical_formula_sum "Si O2"
_cell_formula_units_Z 56
_cell_length_a 8.740937
_cell_length_b 30.698109
_cell_length_c 19.401985
_cell_angle_alpha 90.000000
_cell_angle_beta 149.883370
_cell_angle_gamma 90.000000
_cell_volume 2612.241919
_symmetry_space_group_name_H-M "C 2/C"
_symmetry_group_IT_number 15
_symmetry_cell_setting 'monoclinic'
loop_
_space_group_symop_operation_xyz
x,y,z
-x,y,1/2-z
-x,-y,-z
x,-y,1/2+z
1/2+x,1/2+y,z
1/2-x,1/2+y,1/2-z
1/2-x,1/2-y,-z
1/2+x,1/2-y,1/2+z
loop_
_atom_site_type_symbol
_atom_site_label
_atom_site_fract_x
_atom_site_fract_y
_atom_site_fract_z
Si Si1 0.545875 0.165260 0.957452
Si Si2 0.355062 0.926645 0.378383
Si Si3 0.850426 0.802609 0.764482
Si Si4 0.810480 0.649858 0.015096
Si Si5 0.338860 0.047317 0.017412
Si Si6 0.752211 0.295342 0.212181
Si Si7 0.306025 0.992194 0.243251
O O1 0.584551 0.113616 0.961995
O O2 0.391404 0.170485 0.971905
O O3 0.326490 0.182772 0.813452
O O4 0.870561 0.189937 0.073621
O O5 0.451344 0.956389 0.481702
O O6 0.408891 0.951185 0.328294
O O7 0.000000 0.912346 0.250000
O O8 0.588765 0.838756 0.675275
O O9 0.694235 0.755266 0.707094
O O10 0.000000 0.812659 0.750000
O O11 0.525830 0.678168 0.929558
O O12 0.744844 0.598150 0.991894
O O13 0.611570 0.034255 0.176438
O O14 0.050825 0.014175 0.915267
O O15 0.000000 0.299214 0.250000
O O16 0.500000 0.995173 0.250000
#
# Coordination Sequence:
#
# PCOD8134677 Si02
#       7
#     8   8   8   8   8   8   8
#     4  10  19  36  60  84 111 149 194 234 274 330
#     4   9  19  36  59  86 112 147 191 231 277 337
#     4   9  20  36  57  86 116 147 190 237 281 326
#     4  10  21  40  60  80 112 153 193 233 279 335
#     4  10  22  39  59  83 110 147 192 233 279 338
#     4  11  21  35  57  86 118 151 187 232 282 336
#     4  11  22  38  59  83 113 146 182 232 289 340
#
# _framework density 21.437522999999999
#
# number of rings (size 3 to 8) (size 9 to 14) (size 15 to 20)
#    0.000    2.000    0.000    4.714    0.000    3.429 
#    0.000   10.000    0.000    0.000    0.000    0.000 
#    0.000    0.000    0.000    0.000    0.000    0.000 
#
# Total GULP energy -346950.649974 kJ/mol
# GULP energy per Si atom -12391.094642 kJ/mol
# Density = 2.138873 g / cm^3
# Si number density = 21.437523 Si / 1000 Ang^3
#
#
#
# Elastic Constant Matrix: (Units=GPa)
#
#
# Indices 1 2 3 4 5 6 
#
# 1 33.6795 2.3836 27.4131 0.0449 -18.8825 -0.0266
# 2 2.3836 94.4047 55.8094 -0.0119 7.6137 0.0076
# 3 27.4131 55.8094 92.4497 -0.1819 11.9674 0.1084
# 4 0.0449 -0.0119 -0.1819 -4.0712 -0.0031 22.1287
# 5 -18.8825 7.6137 11.9674 -0.0031 11.6048 0.0004
# 6 -0.0266 0.0076 0.1084 22.1287 0.0004 12.9136
#
#
#
# Elastic Compliance Matrix: (Units=1/GPa)
#
#
# Indices 1 2 3 4 5 6 
#
# 1 -0.036501 -0.007995 0.026149 -0.000296 -0.081112 0.000219
# 2 -0.007995 0.014723 -0.004135 0.000012 -0.018405 -0.000010
# 3 0.026149 -0.004135 -0.000346 0.000058 0.045616 -0.000041
# 4 -0.000296 0.000012 0.000058 -0.023816 -0.000556 0.040810
# 5 -0.081112 -0.018405 0.045616 -0.000556 -0.080776 0.000416
# 6 0.000219 -0.000010 -0.000041 0.040810 0.000416 0.007507
#
#
# Mechanical properties :
#
#
# Convention : Reuss Voigt Hill
#
# Bulk Modulus (GPa) = 169.09449 43.52736 106.31092
# Shear Modulus (GPa) = -34.41784 13.08462 -10.66661
#
# Velocity S-wave (km/s) = -4.01121 2.47323 -2.23304
# Velocity P-wave (km/s) = 7.58920 5.33893 6.56126
#
# Compressibility (1/GPa) = 0.00591385
#
# Stress axis : x y z
#
# Youngs Moduli (GPa) = -27.39629 67.91949 -2894.02009
#
# Poissons Ratio (x) = 0.54303 75.67494
# Poissons Ratio (y) = -0.21904 -11.96642
# Poissons Ratio (z) = 0.71638 0.28084
#
# Static dielectric constant tensor:
#      x y z
#    x 3.626840 -0.000070 0.009080 
#    y -0.000070 3.905500 -0.000100 
#    z 0.009080 -0.000100 4.333960 
# 
# 
# High freq. dielectric constant tensor:
#      x y z
#    x 1.812860 0.000000 -0.006850 
#    y 0.000000 1.843680 0.000000 
#    z -0.006850 0.000000 1.848070 
# 
# From -- ./inp_files/234956.got.cif
#   From: 2010.06.25/outbox.cif.g09.slc.cpg/sg15_118_cif.got.tgz:234956.got - 2010.06.28 07:06:18.
