data_PCOD8134101
_publ_section_title
;
Structure prediction by ZEFSAII (Michael W. Deem and Ramdas Pophale) SiO2 
 PCOD8134101
Probable space group: C 2/C
;
_chemical_formula_sum "Si O2"
_cell_formula_units_Z 40
_cell_length_a 20.119302
_cell_length_b 8.707526
_cell_length_c 16.974502
_cell_angle_alpha 90.000000
_cell_angle_beta 38.848817
_cell_angle_gamma 90.000000
_cell_volume 1865.338192
_symmetry_space_group_name_H-M "C 2/C"
_symmetry_group_IT_number 15
_symmetry_cell_setting 'monoclinic'
loop_
_space_group_symop_operation_xyz
x,y,z
-x,y,1/2-z
-x,-y,-z
x,-y,1/2+z
1/2+x,1/2+y,z
1/2-x,1/2+y,1/2-z
1/2-x,1/2-y,-z
1/2+x,1/2-y,1/2+z
loop_
_atom_site_type_symbol
_atom_site_label
_atom_site_fract_x
_atom_site_fract_y
_atom_site_fract_z
Si Si1 0.841329 0.814602 0.591588
Si Si2 0.975811 0.736286 0.965787
Si Si3 0.663561 0.429656 0.510243
Si Si4 0.788197 0.529450 0.158673
Si Si5 0.645965 0.728117 0.179261
O O1 0.783756 0.651222 0.645879
O O2 0.766611 0.933293 0.707923
O O3 0.959056 0.799441 0.519552
O O4 0.846056 0.886362 0.498045
O O5 0.054422 0.707453 0.819761
O O6 0.888984 0.861440 0.020825
O O7 0.911890 0.580867 0.045741
O O8 0.600745 0.365680 0.645041
O O9 0.785775 0.377348 0.408905
O O10 0.723662 0.609065 0.149308
#
# Coordination Sequence:
#
# PCOD8134101 Si02
#       5
#     8   8   8   8   8
#     4  11  21  35  56  84 113 144 184 230 279 329
#     4  10  19  35  56  80 109 145 184 226 276 330
#     4  10  20  35  56  80 109 145 184 226 275 332
#     4  10  21  36  56  82 112 145 184 230 278 330
#     4   9  20  37  56  79 109 147 185 225 277 333
#
# _framework density 21.443832
#
# number of rings (size 3 to 8) (size 9 to 14) (size 15 to 20)
#    0.000    2.000    0.000    5.400    0.000    2.400 
#    0.000    0.000    0.000    7.200    0.000    0.000 
#    0.000    0.000    0.000    0.000    0.000    0.000 
#
# Total GULP energy -247878.296453 kJ/mol
# GULP energy per Si atom -12393.914823 kJ/mol
# Density = 2.139502 g / cm^3
# Si number density = 21.443832 Si / 1000 Ang^3
#
#
#
# Elastic Constant Matrix: (Units=GPa)
#
#
# Indices 1 2 3 4 5 6 
#
# 1 75.4546 24.6216 20.6796 0.0000 2.6654 0.0000
# 2 24.6216 86.8156 19.0066 0.0004 -5.9903 -0.0002
# 3 20.6796 19.0066 80.1581 0.0001 -10.1042 -0.0001
# 4 0.0000 0.0004 0.0001 33.6559 -0.0001 7.3100
# 5 2.6654 -5.9903 -10.1042 -0.0001 27.1238 0.0000
# 6 0.0000 -0.0002 -0.0001 7.3100 0.0000 25.0102
#
#
#
# Elastic Compliance Matrix: (Units=1/GPa)
#
#
# Indices 1 2 3 4 5 6 
#
# 1 0.015642 -0.003910 -0.003579 0.000000 -0.003734 0.000000
# 2 -0.003910 0.013201 -0.001789 0.000000 0.002633 0.000000
# 3 -0.003579 -0.001789 0.014498 0.000000 0.005357 0.000000
# 4 0.000000 0.000000 0.000000 0.031727 0.000000 -0.009273
# 5 -0.003734 0.002633 0.005357 0.000000 0.039812 0.000000
# 6 0.000000 0.000000 0.000000 -0.009273 0.000000 0.042694
#
#
# Mechanical properties :
#
#
# Convention : Reuss Voigt Hill
#
# Bulk Modulus (GPa) = 40.34861 41.22710 40.78785
# Shear Modulus (GPa) = 27.11613 29.03268 28.07440
#
# Velocity S-wave (km/s) = 3.55986 3.68352 3.62222
# Velocity P-wave (km/s) = 5.97944 6.11216 6.04616
#
# Compressibility (1/GPa) = 0.02478400
#
# Stress axis : x y z
#
# Youngs Moduli (GPa) = 63.93180 75.75135 68.97386
#
# Poissons Ratio (x) = 0.29620 0.24684
# Poissons Ratio (y) = 0.24999 0.12343
# Poissons Ratio (z) = 0.22880 0.13556
#
# Static dielectric constant tensor:
#      x y z
#    x 3.911680 0.000000 -0.080490 
#    y 0.000000 3.728740 0.000000 
#    z -0.080490 0.000000 3.882070 
# 
# 
# High freq. dielectric constant tensor:
#      x y z
#    x 1.837140 0.000000 -0.011180 
#    y 0.000000 1.826470 0.000000 
#    z -0.011180 0.000000 1.840630 
# 
# From -- ./inp_files/116553.got.cif
#   From: 2010.06.25/outbox.cif.g09.slc.cpg/sg15_59_cif.got.tgz:116553.got - 2010.06.28 07:06:18.
