data_PCOD8134868
_publ_section_title
;
Structure prediction by ZEFSAII (Michael W. Deem and Ramdas Pophale) SiO2 
 PCOD8134868
Probable space group: C 2/C
;
_chemical_formula_sum "Si O2"
_cell_formula_units_Z 60
_cell_length_a 15.067025
_cell_length_b 21.211288
_cell_length_c 13.574694
_cell_angle_alpha 90.000000
_cell_angle_beta 138.130720
_cell_angle_gamma 90.000000
_cell_volume 2895.559708
_symmetry_space_group_name_H-M "C 2/C"
_symmetry_group_IT_number 15
_symmetry_cell_setting 'monoclinic'
loop_
_space_group_symop_operation_xyz
x,y,z
-x,y,1/2-z
-x,-y,-z
x,-y,1/2+z
1/2+x,1/2+y,z
1/2-x,1/2+y,1/2-z
1/2-x,1/2-y,-z
1/2+x,1/2-y,1/2+z
loop_
_atom_site_type_symbol
_atom_site_label
_atom_site_fract_x
_atom_site_fract_y
_atom_site_fract_z
Si Si1 0.803542 0.635476 0.795097
Si Si2 0.626652 0.962700 0.297642
Si Si3 0.634477 0.105540 0.316250
Si Si4 0.825878 0.227008 0.967869
Si Si5 0.500000 0.649107 0.250000
Si Si6 0.348269 0.417110 0.159297
Si Si7 0.725328 0.556808 0.392630
Si Si8 0.599506 0.852502 0.581781
O O1 0.836579 0.568493 0.774294
O O2 0.765277 0.683897 0.677344
O O3 0.684633 0.629697 0.776732
O O4 0.940489 0.652105 0.963553
O O5 0.500000 0.932566 0.250000
O O6 0.751143 0.951934 0.471957
O O7 0.598058 0.035308 0.250041
O O8 0.500000 0.135378 0.250000
O O9 0.757157 0.104356 0.492566
O O10 0.669348 0.145187 0.247025
O O11 0.862176 0.288066 0.937397
O O12 0.750000 0.250000 0.000000
O O13 0.951324 0.189835 0.116141
O O14 0.607906 0.606502 0.284142
O O15 0.500000 0.410599 0.250000
O O16 0.316561 0.486736 0.176940
O O17 0.853037 0.585515 0.440803
#
# Coordination Sequence:
#
# PCOD8134868 Si02
#       8
#     8   8   8   8   4   8   8   8
#     4  12  24  42  69 100 132 177 230 278 337 407
#     4  10  19  36  66 101 133 165 213 274 343 396
#     4  10  22  42  66  97 133 176 225 279 330 402
#     4  12  26  44  66  98 134 175 219 282 339 406
#     4  12  22  42  62  94 142 174 206 262 352 404
#     4  11  25  45  68 100 142 178 224 284 344 401
#     4  11  22  39  67 100 138 175 211 277 348 410
#     4  12  24  42  68  97 131 181 234 276 328 404
#
# _framework density 20.721381000000001
#
# number of rings (size 3 to 8) (size 9 to 14) (size 15 to 20)
#    0.000    0.800    6.000    1.600    0.000    2.133 
#    0.000    4.000    0.000    0.000    0.000    0.000 
#    0.000    0.000    0.000    0.000    0.000    0.000 
#
# Total GULP energy -371868.644139 kJ/mol
# GULP energy per Si atom -12395.621471 kJ/mol
# Density = 2.067422 g / cm^3
# Si number density = 20.721381 Si / 1000 Ang^3
#
#
#
# Elastic Constant Matrix: (Units=GPa)
#
#
# Indices 1 2 3 4 5 6 
#
# 1 134.4867 56.0161 56.5438 0.0000 0.3223 0.0000
# 2 56.0161 80.0253 44.7489 0.0000 -8.3677 0.0000
# 3 56.5438 44.7489 118.7874 0.0000 -1.2152 0.0000
# 4 0.0000 0.0000 0.0000 29.4240 0.0000 -7.5658
# 5 0.3223 -8.3677 -1.2152 0.0000 40.9014 0.0000
# 6 0.0000 0.0000 0.0000 -7.5658 0.0000 27.7192
#
#
#
# Elastic Compliance Matrix: (Units=1/GPa)
#
#
# Indices 1 2 3 4 5 6 
#
# 1 0.011389 -0.006447 -0.003008 0.000000 -0.001498 0.000000
# 2 -0.006447 0.019873 -0.004377 0.000000 0.003986 0.000000
# 3 -0.003008 -0.004377 0.011494 0.000000 -0.000530 0.000000
# 4 0.000000 0.000000 0.000000 0.036551 0.000000 0.009976
# 5 -0.001498 0.003986 -0.000530 0.000000 0.025261 0.000000
# 6 0.000000 0.000000 0.000000 0.009976 0.000000 0.038799
#
#
# Mechanical properties :
#
#
# Convention : Reuss Voigt Hill
#
# Bulk Modulus (GPa) = 66.25894 71.99077 69.12486
# Shear Modulus (GPa) = 28.39922 31.34162 29.87042
#
# Velocity S-wave (km/s) = 3.70608 3.89334 3.80086
# Velocity P-wave (km/s) = 7.09640 7.41812 7.25904
#
# Compressibility (1/GPa) = 0.01509230
#
# Stress axis : x y z
#
# Youngs Moduli (GPa) = 87.80263 50.31953 87.00413
#
# Poissons Ratio (x) = 0.32440 0.26172
# Poissons Ratio (y) = 0.56604 0.38081
# Poissons Ratio (z) = 0.26412 0.22025
#
# Static dielectric constant tensor:
#      x y z
#    x 3.728630 0.000000 0.107890 
#    y 0.000000 3.688590 0.000000 
#    z 0.107890 0.000000 3.844700 
# 
# 
# High freq. dielectric constant tensor:
#      x y z
#    x 1.809100 0.000000 -0.002350 
#    y 0.000000 1.799010 0.000000 
#    z -0.002350 0.000000 1.816110 
# 
# From -- ./inp_files/156395.got.cif
#   From: 2010.06.25/outbox.cif.g09.slc.cpg/sg15_79_cif.got.tgz:156395.got - 2010.06.28 07:06:18.
