data_PCOD8134171
_publ_section_title
;
Structure prediction by ZEFSAII (Michael W. Deem and Ramdas Pophale) SiO2 
 PCOD8134171
Probable space group: C 2/C
;
_chemical_formula_sum "Si O2"
_cell_formula_units_Z 48
_cell_length_a 10.051220
_cell_length_b 21.619035
_cell_length_c 10.806551
_cell_angle_alpha 90.000000
_cell_angle_beta 83.946670
_cell_angle_gamma 90.000000
_cell_volume 2335.145053
_symmetry_space_group_name_H-M "C 2/C"
_symmetry_group_IT_number 15
_symmetry_cell_setting 'monoclinic'
loop_
_space_group_symop_operation_xyz
x,y,z
-x,y,1/2-z
-x,-y,-z
x,-y,1/2+z
1/2+x,1/2+y,z
1/2-x,1/2+y,1/2-z
1/2-x,1/2-y,-z
1/2+x,1/2-y,1/2+z
loop_
_atom_site_type_symbol
_atom_site_label
_atom_site_fract_x
_atom_site_fract_y
_atom_site_fract_z
Si Si1 0.159309 0.550754 0.724627
Si Si2 0.293388 0.191433 0.841576
Si Si3 0.381787 0.304039 0.681286
Si Si4 0.610186 0.858218 0.649614
Si Si5 0.462093 0.248731 0.038488
Si Si6 0.354096 0.026659 0.504990
O O1 0.203256 0.620904 0.700734
O O2 0.217079 0.510456 0.602273
O O3 0.000000 0.547222 0.750000
O O4 0.216661 0.524094 0.851642
O O5 0.355278 0.234358 0.729810
O O6 0.138844 0.209004 0.874578
O O7 0.378168 0.202609 0.958166
O O8 0.500000 0.335689 0.750000
O O9 0.250883 0.346742 0.705759
O O10 0.436295 0.296323 0.537344
O O11 0.500000 0.891120 0.750000
O O12 0.551629 0.792053 0.619612
O O13 0.636921 0.900950 0.529362
O O14 0.500000 0.000000 0.500000
#
# Coordination Sequence:
#
# PCOD8134171 Si02
#       6
#     8   8   8   8   8   8
#     4  10  19  36  56  88 125 168 210 269 319 375
#     4  10  19  35  57  85 127 165 210 253 326 387
#     4  10  21  38  54  87 126 162 202 255 327 381
#     4  12  21  35  59  92 122 156 212 268 311 382
#     4  10  20  33  55  88 118 170 205 253 321 385
#     4  10  21  36  58  92 123 162 215 267 323 363
#
# _framework density 20.555468000000001
#
# number of rings (size 3 to 8) (size 9 to 14) (size 15 to 20)
#    0.000    1.667    1.667    6.500    0.000    0.000 
#    0.000    0.000    0.000    1.000    4.333    0.000 
#    0.000    0.000    0.000    0.000    0.000    0.000 
#
# Total GULP energy -297467.658245 kJ/mol
# GULP energy per Si atom -12394.485760 kJ/mol
# Density = 2.050868 g / cm^3
# Si number density = 20.555468 Si / 1000 Ang^3
#
#
#
# Elastic Constant Matrix: (Units=GPa)
#
#
# Indices 1 2 3 4 5 6 
#
# 1 103.6052 32.3452 30.5842 0.0000 1.8000 0.0000
# 2 32.3452 85.3671 41.9519 0.0000 6.2625 0.0000
# 3 30.5842 41.9519 121.5866 0.0000 2.2027 0.0000
# 4 0.0000 0.0000 0.0000 29.3482 0.0000 -2.7865
# 5 1.8000 6.2625 2.2027 0.0000 23.3862 0.0000
# 6 0.0000 0.0000 0.0000 -2.7865 0.0000 17.9690
#
#
#
# Elastic Compliance Matrix: (Units=1/GPa)
#
#
# Indices 1 2 3 4 5 6 
#
# 1 0.011210 -0.003463 -0.001629 0.000000 0.000218 0.000000
# 2 -0.003463 0.015439 -0.004393 0.000000 -0.003454 0.000000
# 3 -0.001629 -0.004393 0.010144 0.000000 0.000346 0.000000
# 4 0.000000 0.000000 0.000000 0.034583 0.000000 0.005363
# 5 0.000218 -0.003454 0.000346 0.000000 0.043636 0.000000
# 6 0.000000 0.000000 0.000000 0.005363 0.000000 0.056483
#
#
# Mechanical properties :
#
#
# Convention : Reuss Voigt Hill
#
# Bulk Modulus (GPa) = 56.10919 57.81351 56.96135
# Shear Modulus (GPa) = 25.45755 27.85251 26.65503
#
# Velocity S-wave (km/s) = 3.52302 3.68502 3.60493
# Velocity P-wave (km/s) = 6.62606 6.80386 6.71555
#
# Compressibility (1/GPa) = 0.01782239
#
# Stress axis : x y z
#
# Youngs Moduli (GPa) = 89.20417 64.77287 98.58155
#
# Poissons Ratio (x) = 0.22431 0.16058
# Poissons Ratio (y) = 0.30891 0.43309
# Poissons Ratio (z) = 0.14531 0.28456
#
# Static dielectric constant tensor:
#      x y z
#    x 3.580680 0.000000 -0.066330 
#    y 0.000000 3.666040 0.000000 
#    z -0.066330 0.000000 4.410290 
# 
# 
# High freq. dielectric constant tensor:
#      x y z
#    x 1.769480 0.000000 -0.003470 
#    y 0.000000 1.783030 0.000000 
#    z -0.003470 0.000000 1.820740 
# 
# From -- ./inp_files/88483.got.cif
#   From: 2010.06.25/outbox.cif.g09.slc.cpg/sg15_45_cif.got.tgz:88483.got - 2010.06.28 07:06:18.
