data_PCOD8134244
_publ_section_title
;
Structure prediction by ZEFSAII (Michael W. Deem and Ramdas Pophale) SiO2 
 PCOD8134244
Probable space group: C 2/C
;
_chemical_formula_sum "Si O2"
_cell_formula_units_Z 56
_cell_length_a 8.534786
_cell_length_b 26.898981
_cell_length_c 16.582187
_cell_angle_alpha 90.000000
_cell_angle_beta 130.151029
_cell_angle_gamma 90.000000
_cell_volume 2909.786201
_symmetry_space_group_name_H-M "C 2/C"
_symmetry_group_IT_number 15
_symmetry_cell_setting 'monoclinic'
loop_
_space_group_symop_operation_xyz
x,y,z
-x,y,1/2-z
-x,-y,-z
x,-y,1/2+z
1/2+x,1/2+y,z
1/2-x,1/2+y,1/2-z
1/2-x,1/2-y,-z
1/2+x,1/2-y,1/2+z
loop_
_atom_site_type_symbol
_atom_site_label
_atom_site_fract_x
_atom_site_fract_y
_atom_site_fract_z
Si Si1 0.625032 0.148586 0.868542
Si Si2 0.547904 0.068258 0.966334
Si Si3 0.227542 0.011283 0.327379
Si Si4 0.579164 0.333380 0.547549
Si Si5 0.026495 0.730457 0.946836
Si Si6 0.169304 0.111769 0.236705
Si Si7 0.953434 0.347995 0.556081
O O1 0.500000 0.130784 0.750000
O O2 0.657894 0.101263 0.936415
O O3 0.478560 0.190885 0.860143
O O4 0.856632 0.167437 0.929797
O O5 0.433125 0.103497 0.992685
O O6 0.387762 0.032805 0.866577
O O7 0.724159 0.036588 0.069661
O O8 0.238697 0.053772 0.261636
O O9 0.000000 0.988084 0.250000
O O10 0.621953 0.278493 0.600130
O O11 0.584987 0.374083 0.620818
O O12 0.740576 0.344189 0.531828
O O13 0.007278 0.701960 0.025341
O O14 0.250000 0.750000 0.000000
O O15 0.365049 0.146036 0.319149
O O16 0.000000 0.120934 0.250000
#
# Coordination Sequence:
#
# PCOD8134244 Si02
#       7
#     8   8   8   8   8   8   8
#     4  10  21  37  54  75 108 148 186 220 265 327
#     4   9  19  36  55  78 107 141 180 223 272 333
#     4   9  17  33  59  81 101 138 183 224 275 328
#     4  11  21  34  55  84 112 140 182 230 271 317
#     4   9  19  36  56  78 108 148 186 218 265 328
#     4  10  19  35  59  81 107 143 180 223 276 331
#     4  10  20  35  55  82 114 140 176 229 276 321
#
# _framework density 19.245401000000001
#
# number of rings (size 3 to 8) (size 9 to 14) (size 15 to 20)
#    0.000    2.286    0.000    5.143    0.000    4.000 
#    0.000    7.857    0.000   12.857    0.000    0.000 
#    0.000    0.000    0.000    0.000    0.000    0.000 
#
# Total GULP energy -347028.827753 kJ/mol
# GULP energy per Si atom -12393.886705 kJ/mol
# Density = 1.920160 g / cm^3
# Si number density = 19.245401 Si / 1000 Ang^3
#
#
#
# Elastic Constant Matrix: (Units=GPa)
#
#
# Indices 1 2 3 4 5 6 
#
# 1 111.4547 27.8886 36.1043 0.0000 5.1564 0.0000
# 2 27.8886 88.1740 28.8499 0.0000 6.3307 0.0000
# 3 36.1043 28.8499 93.0710 0.0000 9.9402 0.0000
# 4 0.0000 0.0000 0.0000 26.3961 0.0000 5.8046
# 5 5.1564 6.3307 9.9402 0.0000 25.7290 0.0000
# 6 0.0000 0.0000 0.0000 5.8046 0.0000 17.0232
#
#
#
# Elastic Compliance Matrix: (Units=1/GPa)
#
#
# Indices 1 2 3 4 5 6 
#
# 1 0.010648 -0.002233 -0.003410 0.000000 -0.000267 0.000000
# 2 -0.002233 0.013158 -0.003040 0.000000 -0.001616 0.000000
# 3 -0.003410 -0.003040 0.013410 0.000000 -0.003749 0.000000
# 4 0.000000 0.000000 0.000000 0.040955 0.000000 -0.013965
# 5 -0.000267 -0.001616 -0.003749 0.000000 0.040766 0.000000
# 6 0.000000 0.000000 0.000000 -0.013965 0.000000 0.063505
#
#
# Mechanical properties :
#
#
# Convention : Reuss Voigt Hill
#
# Bulk Modulus (GPa) = 50.37656 53.15392 51.76524
# Shear Modulus (GPa) = 24.22179 27.15344 25.68761
#
# Velocity S-wave (km/s) = 3.55149 3.76028 3.65737
# Velocity P-wave (km/s) = 6.56126 6.82143 6.69261
#
# Compressibility (1/GPa) = 0.01985050
#
# Stress axis : x y z
#
# Youngs Moduli (GPa) = 93.91483 75.99863 74.57110
#
# Poissons Ratio (x) = 0.16970 0.25428
# Poissons Ratio (y) = 0.20971 0.22669
# Poissons Ratio (z) = 0.32024 0.23103
#
# Static dielectric constant tensor:
#      x y z
#    x 3.314440 0.000000 0.051030 
#    y 0.000000 3.894810 0.000000 
#    z 0.051030 0.000000 3.462670 
# 
# 
# High freq. dielectric constant tensor:
#      x y z
#    x 1.729150 0.000000 0.006090 
#    y 0.000000 1.757950 0.000000 
#    z 0.006090 0.000000 1.738850 
# 
# From -- ./inp_files/81439.got.cif
#   From: 2010.06.25/outbox.cif.g09.slc.cpg/sg15_41_cif.got.tgz:81439.got - 2010.06.28 07:06:18.
