data_PCOD8134725
_publ_section_title
;
Structure prediction by ZEFSAII (Michael W. Deem and Ramdas Pophale) SiO2 
 PCOD8134725
Probable space group: C 2/C
;
_chemical_formula_sum "Si O2"
_cell_formula_units_Z 48
_cell_length_a 8.863632
_cell_length_b 24.660756
_cell_length_c 14.092146
_cell_angle_alpha 90.000000
_cell_angle_beta 43.754228
_cell_angle_gamma 90.000000
_cell_volume 2130.242750
_symmetry_space_group_name_H-M "C 2/C"
_symmetry_group_IT_number 15
_symmetry_cell_setting 'monoclinic'
loop_
_space_group_symop_operation_xyz
x,y,z
-x,y,1/2-z
-x,-y,-z
x,-y,1/2+z
1/2+x,1/2+y,z
1/2-x,1/2+y,1/2-z
1/2-x,1/2-y,-z
1/2+x,1/2-y,1/2+z
loop_
_atom_site_type_symbol
_atom_site_label
_atom_site_fract_x
_atom_site_fract_y
_atom_site_fract_z
Si Si1 0.907540 0.740374 0.194727
Si Si2 0.542132 0.900895 0.025070
Si Si3 0.956799 0.728629 0.961099
Si Si4 0.478633 0.433018 0.915419
Si Si5 0.901473 0.617121 0.202741
Si Si6 0.719061 0.965388 0.207132
O O1 0.653149 0.752073 0.306332
O O2 0.979708 0.678437 0.167823
O O3 0.000000 0.769861 0.250000
O O4 0.991143 0.756509 0.050629
O O5 0.558659 0.836549 0.031511
O O6 0.347388 0.926611 0.175119
O O7 0.774783 0.929937 0.937613
O O8 0.497611 0.913364 0.934675
O O9 0.750000 0.750000 0.000000
O O10 0.636699 0.381709 0.827522
O O11 0.643065 0.483279 0.818906
O O12 0.383183 0.431918 0.065194
O O13 0.000000 0.586570 0.250000
O O14 0.500000 0.982609 0.250000
#
# Coordination Sequence:
#
# PCOD8134725 Si02
#       6
#     8   8   8   8   8   8
#     4  10  22  39  59  85 120 162 200 240 296 363
#     4  10  22  39  59  88 119 152 197 245 295 352
#     4  11  22  37  61  92 123 155 199 250 302 356
#     4  10  19  36  61  84 113 150 191 243 296 346
#     4  10  21  38  59  84 117 155 196 240 289 351
#     4   9  20  37  58  86 116 150 194 241 292 351
#
# _framework density 22.532641000000002
#
# number of rings (size 3 to 8) (size 9 to 14) (size 15 to 20)
#    0.000    2.000    0.000    3.000    0.000    8.667 
#    0.000    4.167    0.000    0.000    0.000    0.000 
#    0.000    0.000    0.000    0.000    0.000    0.000 
#
# Total GULP energy -297325.615930 kJ/mol
# GULP energy per Si atom -12388.567330 kJ/mol
# Density = 2.248136 g / cm^3
# Si number density = 22.532641 Si / 1000 Ang^3
#
#
#
# Elastic Constant Matrix: (Units=GPa)
#
#
# Indices 1 2 3 4 5 6 
#
# 1 107.0769 35.8008 49.0733 0.0000 28.3027 0.0000
# 2 35.8008 51.8486 38.4412 0.0000 12.3720 0.0000
# 3 49.0733 38.4412 138.8290 0.0000 16.2583 0.0000
# 4 0.0000 0.0000 0.0000 39.0151 0.0000 -1.0822
# 5 28.3027 12.3720 16.2583 0.0000 38.1876 0.0000
# 6 0.0000 0.0000 0.0000 -1.0822 0.0000 23.7486
#
#
#
# Elastic Compliance Matrix: (Units=1/GPa)
#
#
# Indices 1 2 3 4 5 6 
#
# 1 0.014681 -0.006438 -0.002502 0.000000 -0.007730 0.000000
# 2 -0.006438 0.028141 -0.005270 0.000000 -0.002102 0.000000
# 3 -0.002502 -0.005270 0.009609 0.000000 -0.000529 0.000000
# 4 0.000000 0.000000 0.000000 0.025664 0.000000 0.001169
# 5 -0.007730 -0.002102 -0.000529 0.000000 0.032822 0.000000
# 6 0.000000 0.000000 0.000000 0.001169 0.000000 0.042161
#
#
# Mechanical properties :
#
#
# Convention : Reuss Voigt Hill
#
# Bulk Modulus (GPa) = 41.64681 60.48722 51.06702
# Shear Modulus (GPa) = 26.38497 31.81954 29.10226
#
# Velocity S-wave (km/s) = 3.42565 3.76194 3.59773
# Velocity P-wave (km/s) = 5.84549 6.76551 6.32226
#
# Compressibility (1/GPa) = 0.02401144
#
# Stress axis : x y z
#
# Youngs Moduli (GPa) = 68.11359 35.53487 104.07216
#
# Poissons Ratio (x) = 0.22877 0.26035
# Poissons Ratio (y) = 0.43852 0.54850
# Poissons Ratio (z) = 0.17039 0.18728
#
# Static dielectric constant tensor:
#      x y z
#    x 4.297800 0.000000 0.267730 
#    y 0.000000 3.858370 0.000000 
#    z 0.267730 0.000000 4.317570 
# 
# 
# High freq. dielectric constant tensor:
#      x y z
#    x 1.890920 0.000000 0.009960 
#    y 0.000000 1.864720 0.000000 
#    z 0.009960 0.000000 1.905550 
# 
# From -- ./inp_files/139389.got.cif
#   From: 2010.06.25/outbox.cif.g09.slc.cpg/sg15_70_cif.got.tgz:139389.got - 2010.06.28 07:06:18.
