data_PCOD8134776
_publ_section_title
;
Structure prediction by ZEFSAII (Michael W. Deem and Ramdas Pophale) SiO2 
 PCOD8134776
Probable space group: C 2/C
;
_chemical_formula_sum "Si O2"
_cell_formula_units_Z 48
_cell_length_a 19.428587
_cell_length_b 9.338707
_cell_length_c 12.590975
_cell_angle_alpha 90.000000
_cell_angle_beta 100.765656
_cell_angle_gamma 90.000000
_cell_volume 2244.271599
_symmetry_space_group_name_H-M "C 2/C"
_symmetry_group_IT_number 15
_symmetry_cell_setting 'monoclinic'
loop_
_space_group_symop_operation_xyz
x,y,z
-x,y,1/2-z
-x,-y,-z
x,-y,1/2+z
1/2+x,1/2+y,z
1/2-x,1/2+y,1/2-z
1/2-x,1/2-y,-z
1/2+x,1/2-y,1/2+z
loop_
_atom_site_type_symbol
_atom_site_label
_atom_site_fract_x
_atom_site_fract_y
_atom_site_fract_z
Si Si1 0.055821 0.113303 0.098777
Si Si2 0.227178 0.502312 0.338579
Si Si3 0.615033 0.772001 0.804059
Si Si4 0.674947 0.309366 0.779377
Si Si5 0.981223 0.191160 0.889714
Si Si6 0.664707 0.478459 0.452757
O O1 0.102338 0.208132 0.191892
O O2 0.018770 0.978193 0.144636
O O3 0.102497 0.043622 0.017933
O O4 0.996340 0.209209 0.021067
O O5 0.151519 0.575515 0.325458
O O6 0.274098 0.578892 0.263682
O O7 0.215455 0.339356 0.300285
O O8 0.261739 0.515942 0.464370
O O9 0.542764 0.774095 0.847317
O O10 0.594502 0.749054 0.672713
O O11 0.666003 0.648320 0.864874
O O12 0.655341 0.370611 0.889310
#
# Coordination Sequence:
#
# PCOD8134776 Si02
#       6
#     8   8   8   8   8   8
#     4   9  19  36  63  92 112 153 204 243 291 353
#     4  11  24  37  60  90 122 157 196 245 303 356
#     4  10  19  36  62  84 116 159 197 241 292 349
#     4  11  22  39  59  90 123 154 196 251 298 353
#     4   9  18  35  63  83 111 156 202 236 287 350
#     4  10  20  37  62  89 118 155 198 243 299 356
#
# _framework density 21.387784
#
# number of rings (size 3 to 8) (size 9 to 14) (size 15 to 20)
#    0.000    2.000    1.667    2.000    2.333    2.667 
#    0.000    0.833   22.000    0.000    0.000    0.000 
#    0.000    0.000    0.000    0.000    0.000    0.000 
#
# Total GULP energy -297407.009226 kJ/mol
# GULP energy per Si atom -12391.958718 kJ/mol
# Density = 2.133910 g / cm^3
# Si number density = 21.387784 Si / 1000 Ang^3
#
#
#
# Elastic Constant Matrix: (Units=GPa)
#
#
# Indices 1 2 3 4 5 6 
#
# 1 38.9494 17.5928 46.3877 0.0000 15.3822 0.0000
# 2 17.5928 92.0058 51.4898 0.0000 11.8247 0.0000
# 3 46.3877 51.4898 162.3373 0.0000 46.3310 0.0000
# 4 0.0000 0.0000 0.0000 11.6207 0.0000 2.8040
# 5 15.3822 11.8247 46.3310 0.0000 42.6053 0.0000
# 6 0.0000 0.0000 0.0000 2.8040 0.0000 40.1477
#
#
#
# Elastic Compliance Matrix: (Units=1/GPa)
#
#
# Indices 1 2 3 4 5 6 
#
# 1 0.039353 -0.001612 -0.009869 0.000000 -0.003028 0.000000
# 2 -0.001612 0.013330 -0.004172 0.000000 0.001420 0.000000
# 3 -0.009869 -0.004172 0.012987 0.000000 -0.009401 0.000000
# 4 0.000000 0.000000 0.000000 0.087529 0.000000 -0.006113
# 5 -0.003028 0.001420 -0.009401 0.000000 0.034393 0.000000
# 6 0.000000 0.000000 0.000000 -0.006113 0.000000 0.025335
#
#
# Mechanical properties :
#
#
# Convention : Reuss Voigt Hill
#
# Bulk Modulus (GPa) = 29.10303 58.24814 43.67558
# Shear Modulus (GPa) = 19.55507 30.72953 25.14230
#
# Velocity S-wave (km/s) = 3.02704 3.79460 3.43234
# Velocity P-wave (km/s) = 5.08469 6.81851 6.01441
#
# Compressibility (1/GPa) = 0.03436069
#
# Stress axis : x y z
#
# Youngs Moduli (GPa) = 25.41123 75.02025 77.00231
#
# Poissons Ratio (x) = 0.12096 0.75997
# Poissons Ratio (y) = 0.04097 0.32128
# Poissons Ratio (z) = 0.25079 0.31301
#
# Static dielectric constant tensor:
#      x y z
#    x 3.729280 0.000000 0.436680 
#    y 0.000000 3.472300 0.000000 
#    z 0.436680 0.000000 4.491760 
# 
# 
# High freq. dielectric constant tensor:
#      x y z
#    x 1.827010 0.000000 0.027070 
#    y 0.000000 1.795770 0.000000 
#    z 0.027070 0.000000 1.862680 
# 
# From -- ./inp_files/166409.got.cif
#   From: 2010.06.25/outbox.cif.g09.slc.cpg/sg15_84_cif.got.tgz:166409.got - 2010.06.28 07:06:18.
