data_PCOD8134747
_publ_section_title
;
Structure prediction by ZEFSAII (Michael W. Deem and Ramdas Pophale) SiO2 
 PCOD8134747
Probable space group: C 2/C
;
_chemical_formula_sum "Si O2"
_cell_formula_units_Z 56
_cell_length_a 19.310801
_cell_length_b 7.616063
_cell_length_c 33.564097
_cell_angle_alpha 90.000000
_cell_angle_beta 142.830757
_cell_angle_gamma 90.000000
_cell_volume 2982.400592
_symmetry_space_group_name_H-M "C 2/C"
_symmetry_group_IT_number 15
_symmetry_cell_setting 'monoclinic'
loop_
_space_group_symop_operation_xyz
x,y,z
-x,y,1/2-z
-x,-y,-z
x,-y,1/2+z
1/2+x,1/2+y,z
1/2-x,1/2+y,1/2-z
1/2-x,1/2-y,-z
1/2+x,1/2-y,1/2+z
loop_
_atom_site_type_symbol
_atom_site_label
_atom_site_fract_x
_atom_site_fract_y
_atom_site_fract_z
Si Si1 0.215436 0.943273 0.569446
Si Si2 0.297552 0.929573 0.418924
Si Si3 0.819554 0.233740 0.883759
Si Si4 0.567307 0.177943 0.739573
Si Si5 0.551259 0.220797 0.450188
Si Si6 0.043050 0.612707 0.356563
Si Si7 0.460292 0.534859 0.687021
O O1 0.215985 0.775914 0.600692
O O2 0.133628 0.891971 0.494301
O O3 0.342157 0.966640 0.610352
O O4 0.170165 0.115944 0.571370
O O5 0.328963 0.059267 0.397787
O O6 0.399312 0.934732 0.498573
O O7 0.175637 0.995647 0.380264
O O8 0.702276 0.187582 0.808497
O O9 0.925377 0.205382 0.902755
O O10 0.500000 0.136414 0.750000
O O11 0.523201 0.360067 0.700402
O O12 0.553153 0.027258 0.700009
O O13 0.556626 0.134417 0.409615
O O14 0.002088 0.800539 0.321816
O O15 0.500000 0.573008 0.750000
#
# Coordination Sequence:
#
# PCOD8134747 Si02
#       7
#     8   8   8   8   8   8   8
#     4   9  21  36  64  84 110 153 198 241 290 350
#     4   9  20  36  61  85 113 152 194 245 288 349
#     4  12  20  41  60  86 119 153 202 248 284 362
#     4  11  21  37  63  87 111 154 206 243 286 352
#     4  10  24  39  56  89 126 151 191 243 313 356
#     4  11  21  40  58  87 120 153 191 254 298 352
#     4  10  19  36  61  89 111 148 208 245 283 346
#
# _framework density 18.776819
#
# number of rings (size 3 to 8) (size 9 to 14) (size 15 to 20)
#    0.857    0.857    4.286    1.714    2.000    0.000 
#    5.143    1.429    0.000    0.000    0.000    0.000 
#    0.000    0.000    0.000    0.000    0.000    0.000 
#
# Total GULP energy -346928.065855 kJ/mol
# GULP energy per Si atom -12390.288066 kJ/mol
# Density = 1.873408 g / cm^3
# Si number density = 18.776819 Si / 1000 Ang^3
#
#
#
# Elastic Constant Matrix: (Units=GPa)
#
#
# Indices 1 2 3 4 5 6 
#
# 1 57.5515 29.3461 33.2937 0.0003 5.5827 -0.0001
# 2 29.3461 67.6805 40.6191 -0.0025 2.3191 0.0022
# 3 33.2937 40.6191 109.8271 0.0000 17.2162 -0.0002
# 4 0.0003 -0.0025 0.0000 20.6778 0.0004 1.6479
# 5 5.5827 2.3191 17.2162 0.0004 23.9657 -0.0002
# 6 -0.0001 0.0022 -0.0002 1.6479 -0.0002 11.3241
#
#
#
# Elastic Compliance Matrix: (Units=1/GPa)
#
#
# Indices 1 2 3 4 5 6 
#
# 1 0.023914 -0.007882 -0.004035 -0.000001 -0.001909 0.000002
# 2 -0.007882 0.021871 -0.006373 0.000003 0.004298 -0.000005
# 3 -0.004035 -0.006373 0.014020 -0.000001 -0.008515 0.000001
# 4 -0.000001 0.000003 -0.000001 0.048928 0.000000 -0.007120
# 5 -0.001909 0.004298 -0.008515 0.000000 0.047872 0.000000
# 6 0.000002 -0.000005 0.000001 -0.007120 0.000000 0.089343
#
#
# Mechanical properties :
#
#
# Convention : Reuss Voigt Hill
#
# Bulk Modulus (GPa) = 43.05749 49.06411 46.06080
# Shear Modulus (GPa) = 17.22529 19.98022 18.60275
#
# Velocity S-wave (km/s) = 3.03210 3.26558 3.15100
# Velocity P-wave (km/s) = 5.93626 6.35654 6.14999
#
# Compressibility (1/GPa) = 0.02322476
#
# Stress axis : x y z
#
# Youngs Moduli (GPa) = 41.81570 45.72364 71.32518
#
# Poissons Ratio (x) = 0.36040 0.28781
# Poissons Ratio (y) = 0.32960 0.45456
# Poissons Ratio (z) = 0.16873 0.29140
#
# Static dielectric constant tensor:
#      x y z
#    x 3.068560 0.000000 0.199700 
#    y 0.000000 3.528670 0.000000 
#    z 0.199700 0.000000 3.520300 
# 
# 
# High freq. dielectric constant tensor:
#      x y z
#    x 1.688820 0.000000 0.023610 
#    y 0.000000 1.731600 0.000000 
#    z 0.023610 0.000000 1.735170 
# 
# From -- ./inp_files/315533.got.cif
#   From: 2010.06.25/outbox.cif.g09.slc.cpg/sg15_158_cif.got.tgz:315533.got - 2010.06.28 07:06:18.
