data_PCOD8134736
_publ_section_title
;
Structure prediction by ZEFSAII (Michael W. Deem and Ramdas Pophale) SiO2 
 PCOD8134736
Probable space group: C 2/C
;
_chemical_formula_sum "Si O2"
_cell_formula_units_Z 48
_cell_length_a 31.220296
_cell_length_b 14.813420
_cell_length_c 15.610147
_cell_angle_alpha 90.000000
_cell_angle_beta 18.003678
_cell_angle_gamma 90.000000
_cell_volume 2231.348998
_symmetry_space_group_name_H-M "C 2/C"
_symmetry_group_IT_number 15
_symmetry_cell_setting 'monoclinic'
loop_
_space_group_symop_operation_xyz
x,y,z
-x,y,1/2-z
-x,-y,-z
x,-y,1/2+z
1/2+x,1/2+y,z
1/2-x,1/2+y,1/2-z
1/2-x,1/2-y,-z
1/2+x,1/2-y,1/2+z
loop_
_atom_site_type_symbol
_atom_site_label
_atom_site_fract_x
_atom_site_fract_y
_atom_site_fract_z
Si Si1 0.187113 0.841891 0.251270
Si Si2 0.704165 0.460339 0.744994
Si Si3 0.995855 0.330136 0.659641
Si Si4 0.264766 0.850811 0.795965
Si Si5 0.498896 0.017686 0.902586
Si Si6 0.978626 0.841473 0.104067
O O1 0.188724 0.753644 0.310106
O O2 0.073105 0.831841 0.394307
O O3 0.163561 0.936074 0.347259
O O4 0.340523 0.846927 0.918486
O O5 0.701690 0.396395 0.832043
O O6 0.850974 0.456830 0.418758
O O7 0.587200 0.423485 0.902394
O O8 0.068994 0.427803 0.512552
O O9 0.058596 0.251059 0.480707
O O10 0.000000 0.296591 0.750000
O O11 0.402688 0.899436 0.563493
O O12 0.150638 0.857226 0.087068
O O13 0.500000 0.000000 0.000000
#
# Coordination Sequence:
#
# PCOD8134736 Si02
#       6
#     8   8   8   8   8   8
#     4  10  21  38  59  87 122 161 195 237 301 371
#     4  11  23  39  61  91 121 157 202 249 298 361
#     4  10  19  36  61  87 115 157 204 244 295 369
#     4  11  21  39  63  89 119 158 201 249 301 358
#     4  11  22  39  60  86 120 163 206 250 298 354
#     4  11  21  39  64  90 119 156 200 247 301 365
#
# _framework density 21.511649999999999
#
# number of rings (size 3 to 8) (size 9 to 14) (size 15 to 20)
#    0.000    1.333    0.000   10.500    0.000    0.000 
#    0.000    8.333    0.000    0.000    0.000    0.000 
#    0.000    0.000    0.000    0.000    0.000    0.000 
#
# Total GULP energy -297481.174340 kJ/mol
# GULP energy per Si atom -12395.048931 kJ/mol
# Density = 2.146269 g / cm^3
# Si number density = 21.511650 Si / 1000 Ang^3
#
#
#
# Elastic Constant Matrix: (Units=GPa)
#
#
# Indices 1 2 3 4 5 6 
#
# 1 107.2163 41.8134 6.5455 0.0000 -6.2578 0.0000
# 2 41.8134 193.4996 38.3464 0.0000 -6.8774 0.0000
# 3 6.5455 38.3464 61.3824 0.0001 -9.6348 0.0000
# 4 0.0000 0.0000 0.0001 23.4546 0.0000 -2.9782
# 5 -6.2578 -6.8774 -9.6348 0.0000 28.0239 0.0000
# 6 0.0000 0.0000 0.0000 -2.9782 0.0000 42.2519
#
#
#
# Elastic Compliance Matrix: (Units=1/GPa)
#
#
# Indices 1 2 3 4 5 6 
#
# 1 0.010292 -0.002280 0.000634 0.000000 0.001957 0.000000
# 2 -0.002280 0.006404 -0.003796 0.000000 -0.000242 0.000000
# 3 0.000634 -0.003796 0.019525 0.000000 0.005923 0.000000
# 4 0.000000 0.000000 0.000000 0.043021 0.000000 0.003032
# 5 0.001957 -0.000242 0.005923 0.000000 0.038098 0.000000
# 6 0.000000 0.000000 0.000000 0.003032 0.000000 0.023881
#
#
# Mechanical properties :
#
#
# Convention : Reuss Voigt Hill
#
# Bulk Modulus (GPa) = 39.46796 59.50099 49.48448
# Shear Modulus (GPa) = 31.14312 37.10560 34.12436
#
# Velocity S-wave (km/s) = 3.80904 4.15771 3.98718
# Velocity P-wave (km/s) = 6.14265 7.12521 6.65209
#
# Compressibility (1/GPa) = 0.02533701
#
# Stress axis : x y z
#
# Youngs Moduli (GPa) = 97.16643 156.14603 51.21734
#
# Poissons Ratio (x) = 0.35602 -0.03247
# Poissons Ratio (y) = 0.22154 0.19441
# Poissons Ratio (z) = -0.06161 0.59269
#
# Static dielectric constant tensor:
#      x y z
#    x 3.825450 0.000000 -0.198180 
#    y 0.000000 4.661900 0.000000 
#    z -0.198180 0.000000 3.561320 
# 
# 
# High freq. dielectric constant tensor:
#      x y z
#    x 1.845680 0.000000 -0.026760 
#    y 0.000000 1.876210 0.000000 
#    z -0.026760 0.000000 1.804760 
# 
# From -- ./inp_files/182413.got.cif
#   From: 2010.06.25/outbox.cif.g09.slc.cpg/sg15_92_cif.got.tgz:182413.got - 2010.06.28 07:06:18.
