data_PCOD8134009
_publ_section_title
;
Structure prediction by ZEFSAII (Michael W. Deem and Ramdas Pophale) SiO2 
 PCOD8134009
Probable space group: C 2/C
;
_chemical_formula_sum "Si O2"
_cell_formula_units_Z 64
_cell_length_a 18.036721
_cell_length_b 15.775009
_cell_length_c 14.154708
_cell_angle_alpha 90.000000
_cell_angle_beta 113.220587
_cell_angle_gamma 90.000000
_cell_volume 3701.183925
_symmetry_space_group_name_H-M "C 2/C"
_symmetry_group_IT_number 15
_symmetry_cell_setting 'monoclinic'
loop_
_space_group_symop_operation_xyz
x,y,z
-x,y,1/2-z
-x,-y,-z
x,-y,1/2+z
1/2+x,1/2+y,z
1/2-x,1/2+y,1/2-z
1/2-x,1/2-y,-z
1/2+x,1/2-y,1/2+z
loop_
_atom_site_type_symbol
_atom_site_label
_atom_site_fract_x
_atom_site_fract_y
_atom_site_fract_z
Si Si1 0.213796 0.899578 0.214770
Si Si2 0.478019 0.547056 0.342067
Si Si3 0.370671 0.776001 0.080243
Si Si4 0.700810 0.563349 0.297590
Si Si5 0.031274 0.140249 0.663977
Si Si6 0.726758 0.615761 0.511977
Si Si7 0.486695 0.289707 0.952636
Si Si8 0.329034 0.257997 0.766568
O O1 0.127937 0.868674 0.212099
O O2 0.210820 0.929565 0.103780
O O3 0.273879 0.821543 0.261731
O O4 0.251847 0.981249 0.289586
O O5 0.500000 0.580484 0.250000
O O6 0.382066 0.546123 0.298633
O O7 0.510095 0.451977 0.378431
O O8 0.514430 0.615788 0.432516
O O9 0.322558 0.864901 0.044548
O O10 0.457344 0.780327 0.071750
O O11 0.380141 0.753860 0.195802
O O12 0.319054 0.704781 0.000451
O O13 0.694273 0.559505 0.408634
O O14 0.727876 0.657601 0.276467
O O15 0.000000 0.172404 0.750000
O O16 0.000701 0.209404 0.572321
O O17 0.393571 0.269834 0.883050
#
# Coordination Sequence:
#
# PCOD8134009 Si02
#       8
#     8   8   8   8   8   8   8   8
#     4  10  19  35  52  71 103 135 163 211 245 287
#     4   9  17  28  42  71 101 123 153 198 248 307
#     4   9  16  27  51  78  98 120 158 212 256 298
#     4   9  18  30  48  74 102 128 165 202 244 299
#     4  10  21  32  44  68  97 138 170 191 239 309
#     4   9  16  29  50  76  95 126 169 199 251 296
#     4  11  17  29  50  72  99 129 153 209 261 287
#     4   9  19  32  50  80 101 123 169 204 252 304
#
# _framework density 17.291764000000001
#
# number of rings (size 3 to 8) (size 9 to 14) (size 15 to 20)
#    0.000    2.500    1.250    3.750    0.000    0.000 
#   11.250    0.625    0.000    0.750    0.000    0.000 
#    0.000    0.000    0.000    0.000    0.000    0.000 
#
# Total GULP energy -396523.422212 kJ/mol
# GULP energy per Si atom -12391.356944 kJ/mol
# Density = 1.725241 g / cm^3
# Si number density = 17.291764 Si / 1000 Ang^3
#
#
#
# Elastic Constant Matrix: (Units=GPa)
#
#
# Indices 1 2 3 4 5 6 
#
# 1 72.0669 33.7163 35.6496 0.0000 -11.9246 0.0000
# 2 33.7163 66.9097 29.0875 0.0000 -8.8285 0.0000
# 3 35.6496 29.0875 81.7898 0.0000 -13.7899 0.0000
# 4 0.0000 0.0000 0.0000 17.8047 0.0000 -3.6276
# 5 -11.9246 -8.8285 -13.7899 0.0000 23.6183 0.0000
# 6 0.0000 0.0000 0.0000 -3.6276 0.0000 22.8282
#
#
#
# Elastic Compliance Matrix: (Units=1/GPa)
#
#
# Indices 1 2 3 4 5 6 
#
# 1 0.020938 -0.007480 -0.005718 0.000000 0.004437 0.000000
# 2 -0.007480 0.020580 -0.003770 0.000000 0.001715 0.000000
# 3 -0.005718 -0.003770 0.017010 0.000000 0.005635 0.000000
# 4 0.000000 0.000000 0.000000 0.058044 0.000000 0.009224
# 5 0.004437 0.001715 0.005635 0.000000 0.048512 0.000000
# 6 0.000000 0.000000 0.000000 0.009224 0.000000 0.045271
#
#
# Mechanical properties :
#
#
# Convention : Reuss Voigt Hill
#
# Bulk Modulus (GPa) = 40.66257 46.40812 43.53535
# Shear Modulus (GPa) = 19.80304 21.00443 20.40374
#
# Velocity S-wave (km/s) = 3.38780 3.48905 3.43879
# Velocity P-wave (km/s) = 6.23454 6.56718 6.40302
#
# Compressibility (1/GPa) = 0.02459264
#
# Stress axis : x y z
#
# Youngs Moduli (GPa) = 47.75987 48.59187 58.79062
#
# Poissons Ratio (x) = 0.36345 0.33617
# Poissons Ratio (y) = 0.35722 0.22161
# Poissons Ratio (z) = 0.27310 0.18317
#
# Static dielectric constant tensor:
#      x y z
#    x 3.094780 0.000000 -0.042490 
#    y 0.000000 3.246780 0.000000 
#    z -0.042490 0.000000 3.225400 
# 
# 
# High freq. dielectric constant tensor:
#      x y z
#    x 1.640110 0.000000 -0.003320 
#    y 0.000000 1.633260 0.000000 
#    z -0.003320 0.000000 1.666980 
# 
# From -- ./inp_files/162816.got.cif
#   From: 2010.06.25/outbox.cif.g09.slc.cpg/sg15_82_cif.got.tgz:162816.got - 2010.06.28 07:06:18.
