data_PCOD8134239
_publ_section_title
;
Structure prediction by ZEFSAII (Michael W. Deem and Ramdas Pophale) SiO2 
 PCOD8134239
Probable space group: C 2/C
;
_chemical_formula_sum "Si O2"
_cell_formula_units_Z 64
_cell_length_a 12.801560
_cell_length_b 14.194158
_cell_length_c 25.963502
_cell_angle_alpha 90.000000
_cell_angle_beta 43.745869
_cell_angle_gamma 90.000000
_cell_volume 3262.146598
_symmetry_space_group_name_H-M "C 2/C"
_symmetry_group_IT_number 15
_symmetry_cell_setting 'monoclinic'
loop_
_space_group_symop_operation_xyz
x,y,z
-x,y,1/2-z
-x,-y,-z
x,-y,1/2+z
1/2+x,1/2+y,z
1/2-x,1/2+y,1/2-z
1/2-x,1/2-y,-z
1/2+x,1/2-y,1/2+z
loop_
_atom_site_type_symbol
_atom_site_label
_atom_site_fract_x
_atom_site_fract_y
_atom_site_fract_z
Si Si1 0.936126 0.415535 0.675840
Si Si2 0.308589 0.776511 0.901670
Si Si3 0.537048 0.016409 0.545739
Si Si4 0.916457 0.713327 0.927668
Si Si5 0.301058 0.657858 0.162978
Si Si6 0.590553 0.096124 0.669460
Si Si7 0.098123 0.971542 0.417035
Si Si8 0.324697 0.605649 0.964849
O O1 0.783498 0.370039 0.753794
O O2 0.035582 0.322181 0.635769
O O3 0.913657 0.464224 0.627189
O O4 0.021470 0.493043 0.680681
O O5 0.288251 0.776612 0.846775
O O6 0.307613 0.667855 0.919640
O O7 0.182231 0.833149 0.979676
O O8 0.537352 0.129380 0.550141
O O9 0.500000 0.000000 0.500000
O O10 0.700268 0.977163 0.506204
O O11 0.934841 0.672630 0.864758
O O12 0.033503 0.799560 0.887646
O O13 0.750000 0.750000 0.000000
O O14 0.306505 0.560291 0.132630
O O15 0.500000 0.136079 0.750000
O O16 0.770651 0.101468 0.614974
O O17 0.992687 0.937971 0.407285
O O18 0.000000 0.000000 0.500000
#
# Coordination Sequence:
#
# PCOD8134239 Si02
#       8
#     8   8   8   8   8   8   8   8
#     4  10  20  39  62  92 121 162 211 260 316 385
#     4  10  19  35  58  91 123 147 208 265 306 350
#     4  10  21  43  64  85 130 171 201 254 331 378
#     4  11  25  40  60  94 129 160 212 261 315 385
#     4  12  21  37  65  88 123 164 206 265 318 365
#     4  11  21  41  62  89 127 168 205 262 328 373
#     4  12  20  36  65  89 121 166 215 257 303 374
#     4  10  21  34  59  94 116 159 216 258 297 379
#
# _framework density 19.618983
#
# number of rings (size 3 to 8) (size 9 to 14) (size 15 to 20)
#    0.000    1.250    3.750    4.125    0.000    1.000 
#    2.250    0.000    0.000    0.000    0.000    0.000 
#    0.000    0.000    0.000    0.000    0.000    0.000 
#
# Total GULP energy -396549.883507 kJ/mol
# GULP energy per Si atom -12392.183860 kJ/mol
# Density = 1.957433 g / cm^3
# Si number density = 19.618983 Si / 1000 Ang^3
#
#
#
# Elastic Constant Matrix: (Units=GPa)
#
#
# Indices 1 2 3 4 5 6 
#
# 1 98.9273 13.8391 41.8839 0.0000 9.8319 0.0000
# 2 13.8391 48.2575 19.7983 0.0000 6.3018 0.0000
# 3 41.8839 19.7983 120.4216 -0.0002 12.8850 0.0001
# 4 0.0000 0.0000 -0.0002 33.2918 0.0000 -1.2063
# 5 9.8319 6.3018 12.8850 0.0000 34.2823 0.0000
# 6 0.0000 0.0000 0.0001 -1.2063 0.0000 20.4262
#
#
#
# Elastic Compliance Matrix: (Units=1/GPa)
#
#
# Indices 1 2 3 4 5 6 
#
# 1 0.012106 -0.001708 -0.003742 0.000000 -0.001751 0.000000
# 2 -0.001708 0.022728 -0.002863 0.000000 -0.002612 0.000000
# 3 -0.003742 -0.002863 0.010320 0.000000 -0.002279 0.000000
# 4 0.000000 0.000000 0.000000 0.030102 0.000000 0.001778
# 5 -0.001751 -0.002612 -0.002279 0.000000 0.031009 0.000000
# 6 0.000000 0.000000 0.000000 0.001778 0.000000 0.049062
#
#
# Mechanical properties :
#
#
# Convention : Reuss Voigt Hill
#
# Bulk Modulus (GPa) = 35.05390 46.51654 40.78522
# Shear Modulus (GPa) = 27.55402 30.40573 28.97987
#
# Velocity S-wave (km/s) = 3.75167 3.94104 3.84752
# Velocity P-wave (km/s) = 6.05581 6.66862 6.36959
#
# Compressibility (1/GPa) = 0.02852750
#
# Stress axis : x y z
#
# Youngs Moduli (GPa) = 82.60483 43.99929 96.89520
#
# Poissons Ratio (x) = 0.07513 0.36262
# Poissons Ratio (y) = 0.14105 0.27743
# Poissons Ratio (z) = 0.30914 0.12598
#
# Static dielectric constant tensor:
#      x y z
#    x 3.528580 0.000000 -0.150260 
#    y 0.000000 3.704350 0.000000 
#    z -0.150260 0.000000 4.473630 
# 
# 
# High freq. dielectric constant tensor:
#      x y z
#    x 1.751960 0.000000 0.004610 
#    y 0.000000 1.759670 0.000000 
#    z 0.004610 0.000000 1.764660 
# 
# From -- ./inp_files/293034.got.cif
#   From: 2010.06.25/outbox.cif.g09.slc.cpg/sg15_147_cif.got.tgz:293034.got - 2010.06.28 07:06:18.
