data_PCOD8134655
_publ_section_title
;
Structure prediction by ZEFSAII (Michael W. Deem and Ramdas Pophale) SiO2 
 PCOD8134655
Probable space group: C 2/C
;
_chemical_formula_sum "Si O2"
_cell_formula_units_Z 64
_cell_length_a 23.018187
_cell_length_b 11.133660
_cell_length_c 12.392871
_cell_angle_alpha 90.000000
_cell_angle_beta 70.540852
_cell_angle_gamma 90.000000
_cell_volume 2994.587993
_symmetry_space_group_name_H-M "C 2/C"
_symmetry_group_IT_number 15
_symmetry_cell_setting 'monoclinic'
loop_
_space_group_symop_operation_xyz
x,y,z
-x,y,1/2-z
-x,-y,-z
x,-y,1/2+z
1/2+x,1/2+y,z
1/2-x,1/2+y,1/2-z
1/2-x,1/2-y,-z
1/2+x,1/2-y,1/2+z
loop_
_atom_site_type_symbol
_atom_site_label
_atom_site_fract_x
_atom_site_fract_y
_atom_site_fract_z
Si Si1 0.749587 0.654533 0.596022
Si Si2 0.659122 0.520477 0.517710
Si Si3 0.025065 0.206724 0.347877
Si Si4 0.122200 0.272906 0.444613
Si Si5 0.431794 0.854131 0.516562
Si Si6 0.656375 0.320724 0.341187
Si Si7 0.061573 0.046145 0.754230
Si Si8 0.471291 0.926620 0.881691
O O1 0.750000 0.750000 0.500000
O O2 0.717687 0.536514 0.563325
O O3 0.819792 0.634795 0.593058
O O4 0.713081 0.699816 0.725071
O O5 0.646352 0.640231 0.457042
O O6 0.673641 0.412921 0.426247
O O7 0.600647 0.492515 0.629693
O O8 0.087806 0.273476 0.349442
O O9 0.000000 0.257865 0.250000
O O10 0.970429 0.233301 0.465997
O O11 0.037749 0.065672 0.339395
O O12 0.074258 0.315377 0.565487
O O13 0.363939 0.807676 0.594528
O O14 0.466655 0.930598 0.585688
O O15 0.431548 0.949159 0.417273
O O16 0.598876 0.364282 0.305644
O O17 0.000000 0.114099 0.750000
O O18 0.500000 0.907939 0.750000
#
# Coordination Sequence:
#
# PCOD8134655 Si02
#       8
#     8   8   8   8   8   8   8   8
#     4   9  22  42  62  91 121 168 217 254 310 382
#     4  10  21  37  59  93 124 154 212 263 312 376
#     4  10  19  36  59  90 132 158 189 256 316 379
#     4  10  21  41  63  87 118 167 217 253 311 383
#     4  10  23  38  57  90 126 163 208 251 316 375
#     4  11  21  38  62  92 129 159 203 274 318 371
#     4  10  21  30  56  96 125 164 191 244 329 379
#     4  10  23  40  60  85 121 169 216 259 301 377
#
# _framework density 21.371887999999998
#
# number of rings (size 3 to 8) (size 9 to 14) (size 15 to 20)
#    0.000    2.000    1.250    1.875    8.750    1.000 
#    4.500    2.500    0.000    2.250    0.000    0.000 
#    0.000    0.000    0.000    0.000    0.000    0.000 
#
# Total GULP energy -396516.273786 kJ/mol
# GULP energy per Si atom -12391.133556 kJ/mol
# Density = 2.132324 g / cm^3
# Si number density = 21.371888 Si / 1000 Ang^3
#
#
#
# Elastic Constant Matrix: (Units=GPa)
#
#
# Indices 1 2 3 4 5 6 
#
# 1 121.9145 14.6309 39.9160 0.0000 5.7210 0.0000
# 2 14.6309 64.8868 28.8053 0.0000 -4.7508 0.0000
# 3 39.9160 28.8053 103.7678 0.0000 -9.7615 0.0000
# 4 0.0000 0.0000 0.0000 30.0366 0.0000 -2.7702
# 5 5.7210 -4.7508 -9.7615 0.0000 28.3266 0.0000
# 6 0.0000 0.0000 0.0000 -2.7702 0.0000 16.4687
#
#
#
# Elastic Compliance Matrix: (Units=1/GPa)
#
#
# Indices 1 2 3 4 5 6 
#
# 1 0.009712 -0.000729 -0.003855 0.000000 -0.003412 0.000000
# 2 -0.000729 0.017679 -0.004480 0.000000 0.001568 0.000000
# 3 -0.003855 -0.004480 0.012780 0.000000 0.004431 0.000000
# 4 0.000000 0.000000 0.000000 0.033817 0.000000 0.005688
# 5 -0.003412 0.001568 0.004431 0.000000 0.037782 0.000000
# 6 0.000000 0.000000 0.000000 0.005688 0.000000 0.061678
#
#
# Mechanical properties :
#
#
# Convention : Reuss Voigt Hill
#
# Bulk Modulus (GPa) = 45.36102 50.80817 48.08459
# Shear Modulus (GPa) = 25.13534 28.78084 26.95809
#
# Velocity S-wave (km/s) = 3.43314 3.67368 3.55545
# Velocity P-wave (km/s) = 6.08161 6.46680 6.27716
#
# Compressibility (1/GPa) = 0.02204536
#
# Stress axis : x y z
#
# Youngs Moduli (GPa) = 102.96475 56.56324 78.24675
#
# Poissons Ratio (x) = 0.04121 0.30161
# Poissons Ratio (y) = 0.07501 0.35054
# Poissons Ratio (z) = 0.39689 0.25340
#
# Static dielectric constant tensor:
#      x y z
#    x 4.237610 0.000000 0.071010 
#    y 0.000000 3.612800 0.000000 
#    z 0.071010 0.000000 3.967910 
# 
# 
# High freq. dielectric constant tensor:
#      x y z
#    x 1.829020 0.000000 0.001140 
#    y 0.000000 1.818220 0.000000 
#    z 0.001140 0.000000 1.842240 
# 
# From -- ./inp_files/118009.got.cif
#   From: 2010.06.25/outbox.cif.g09.slc.cpg/sg15_60_cif.got.tgz:118009.got - 2010.06.28 07:06:18.
