data_PCOD8134568
_publ_section_title
;
Structure prediction by ZEFSAII (Michael W. Deem and Ramdas Pophale) SiO2 
 PCOD8134568
Probable space group: C 2/C
;
_chemical_formula_sum "Si O2"
_cell_formula_units_Z 48
_cell_length_a 17.784853
_cell_length_b 12.945417
_cell_length_c 11.580114
_cell_angle_alpha 90.000000
_cell_angle_beta 111.715632
_cell_angle_gamma 90.000000
_cell_volume 2476.906844
_symmetry_space_group_name_H-M "C 2/C"
_symmetry_group_IT_number 15
_symmetry_cell_setting 'monoclinic'
loop_
_space_group_symop_operation_xyz
x,y,z
-x,y,1/2-z
-x,-y,-z
x,-y,1/2+z
1/2+x,1/2+y,z
1/2-x,1/2+y,1/2-z
1/2-x,1/2-y,-z
1/2+x,1/2-y,1/2+z
loop_
_atom_site_type_symbol
_atom_site_label
_atom_site_fract_x
_atom_site_fract_y
_atom_site_fract_z
Si Si1 0.371860 0.153432 0.770553
Si Si2 0.879280 0.848460 0.059993
Si Si3 0.141933 0.881976 0.720965
Si Si4 0.244074 0.445886 0.135044
Si Si5 0.000000 0.990589 0.250000
Si Si6 0.084065 0.622193 0.462733
Si Si7 0.000000 0.515705 0.750000
O O1 0.358915 0.269731 0.718309
O O2 0.284767 0.106748 0.759834
O O3 0.417977 0.083026 0.703934
O O4 0.434840 0.153301 0.915511
O O5 0.809242 0.873164 0.111291
O O6 0.900812 0.729253 0.096363
O O7 0.955988 0.920026 0.130217
O O8 0.850359 0.869800 0.912638
O O9 0.219974 0.941694 0.815821
O O10 0.060398 0.939808 0.709860
O O11 0.165500 0.450005 0.006596
O O12 0.009079 0.559464 0.366182
#
# Coordination Sequence:
#
# PCOD8134568 Si02
#       7
#     8   8   8   8   4   8   4
#     4   9  22  35  54  79 108 143 179 219 269 318
#     4  10  19  36  58  81 110 141 179 226 265 309
#     4  10  20  37  58  75 114 145 174 225 271 312
#     4   9  21  34  56  82 105 139 189 217 265 316
#     4  10  20  34  56  88 108 140 186 208 270 334
#     4   9  21  35  55  83 106 142 181 222 263 321
#     4  12  20  36  58  76 116 144 174 218 280 316
#
# _framework density 19.379009
#
# number of rings (size 3 to 8) (size 9 to 14) (size 15 to 20)
#    1.000    1.333    0.000    2.500    2.333    0.000 
#    0.000    0.833    3.667    0.000    0.000    0.000 
#    0.000    0.000    0.000    0.000    0.000    0.000 
#
# Total GULP energy -297373.634992 kJ/mol
# GULP energy per Si atom -12390.568125 kJ/mol
# Density = 1.933490 g / cm^3
# Si number density = 19.379009 Si / 1000 Ang^3
#
#
#
# Elastic Constant Matrix: (Units=GPa)
#
#
# Indices 1 2 3 4 5 6 
#
# 1 90.8780 48.4468 8.9689 0.0000 -4.7145 0.0000
# 2 48.4468 146.4073 36.6866 0.0000 8.6166 0.0000
# 3 8.9689 36.6866 28.7155 0.0000 -1.1059 0.0000
# 4 0.0000 0.0000 0.0000 31.3416 0.0000 1.9054
# 5 -4.7145 8.6166 -1.1059 0.0000 25.3254 0.0000
# 6 0.0000 0.0000 0.0000 1.9054 0.0000 24.5057
#
#
#
# Elastic Compliance Matrix: (Units=1/GPa)
#
#
# Indices 1 2 3 4 5 6 
#
# 1 0.013960 -0.005657 0.003046 0.000000 0.004657 0.000000
# 2 -0.005657 0.012757 -0.014764 0.000000 -0.006038 0.000000
# 3 0.003046 -0.014764 0.053040 0.000000 0.007907 0.000000
# 4 0.000000 0.000000 0.000000 0.032058 0.000000 -0.002493
# 5 0.004657 -0.006038 0.007907 0.000000 0.042753 0.000000
# 6 0.000000 0.000000 0.000000 -0.002493 0.000000 0.041001
#
#
# Mechanical properties :
#
#
# Convention : Reuss Voigt Hill
#
# Bulk Modulus (GPa) = 22.21834 50.46726 36.34280
# Shear Modulus (GPa) = 20.38149 27.69443 24.03796
#
# Velocity S-wave (km/s) = 3.24656 3.78444 3.52577
# Velocity P-wave (km/s) = 5.05406 6.72270 5.94720
#
# Compressibility (1/GPa) = 0.04500786
#
# Stress axis : x y z
#
# Youngs Moduli (GPa) = 71.63126 78.38785 18.85376
#
# Poissons Ratio (x) = 0.44343 -0.05743
# Poissons Ratio (y) = 0.40521 0.27836
# Poissons Ratio (z) = -0.21820 1.15732
#
# Static dielectric constant tensor:
#      x y z
#    x 3.371150 0.000000 0.005750 
#    y 0.000000 3.616280 0.000000 
#    z 0.005750 0.000000 3.268110 
# 
# 
# High freq. dielectric constant tensor:
#      x y z
#    x 1.747880 0.000000 -0.004180 
#    y 0.000000 1.763590 0.000000 
#    z -0.004180 0.000000 1.728800 
# 
# From -- ./inp_files/104298.got.cif
#   From: 2010.06.25/outbox.cif.g09.slc.cpg/sg15_53_cif.got.tgz:104298.got - 2010.06.28 07:06:18.
