data_PCOD8134167
_publ_section_title
;
Structure prediction by ZEFSAII (Michael W. Deem and Ramdas Pophale) SiO2 
 PCOD8134167
Probable space group: C 2/C
;
_chemical_formula_sum "Si O2"
_cell_formula_units_Z 56
_cell_length_a 21.769588
_cell_length_b 13.146611
_cell_length_c 8.884328
_cell_angle_alpha 90.000000
_cell_angle_beta 81.559015
_cell_angle_gamma 90.000000
_cell_volume 2515.118674
_symmetry_space_group_name_H-M "C 2/C"
_symmetry_group_IT_number 15
_symmetry_cell_setting 'monoclinic'
loop_
_space_group_symop_operation_xyz
x,y,z
-x,y,1/2-z
-x,-y,-z
x,-y,1/2+z
1/2+x,1/2+y,z
1/2-x,1/2+y,1/2-z
1/2-x,1/2-y,-z
1/2+x,1/2-y,1/2+z
loop_
_atom_site_type_symbol
_atom_site_label
_atom_site_fract_x
_atom_site_fract_y
_atom_site_fract_z
Si Si1 0.369798 0.232178 0.310926
Si Si2 0.437840 0.858002 0.202408
Si Si3 0.059332 0.452147 0.626734
Si Si4 0.279886 0.313611 0.122270
Si Si5 0.178251 0.762531 0.863446
Si Si6 0.932860 0.927042 0.332265
Si Si7 0.151286 0.012277 0.381283
O O1 0.387241 0.116018 0.319963
O O2 0.341524 0.254657 0.156995
O O3 0.318222 0.251794 0.458379
O O4 0.429907 0.304096 0.324786
O O5 0.500000 0.805028 0.250000
O O6 0.388393 0.771532 0.182181
O O7 0.416511 0.933273 0.346501
O O8 0.452499 0.926567 0.046179
O O9 0.000000 0.430951 0.750000
O O10 0.229808 0.310998 0.274395
O O11 0.299444 0.429114 0.068748
O O12 0.250000 0.250000 0.000000
O O13 0.186937 0.882978 0.828103
O O14 0.873131 0.964818 0.262728
O O15 0.000000 0.965996 0.250000
O O16 0.913169 0.968775 0.502872
#
# Coordination Sequence:
#
# PCOD8134167 Si02
#       7
#     8   8   8   8   8   8   8
#     4   9  21  38  58  83 115 155 200 244 301 373
#     4  10  21  36  58  89 121 157 202 251 303 367
#     4  10  19  35  57  84 119 155 193 248 306 360
#     4  11  23  39  61  88 117 155 207 260 303 355
#     4  10  22  41  60  84 120 163 199 244 311 370
#     4  10  19  36  60  88 120 158 196 240 303 367
#     4  10  22  39  59  88 124 157 202 255 299 362
#
# _framework density 22.265350999999999
#
# number of rings (size 3 to 8) (size 9 to 14) (size 15 to 20)
#    0.000    2.000    0.000    3.857    0.000    4.000 
#    0.000   10.000    0.000    0.000    0.000    0.000 
#    0.000    0.000    0.000    0.000    0.000    0.000 
#
# Total GULP energy -346869.800245 kJ/mol
# GULP energy per Si atom -12388.207152 kJ/mol
# Density = 2.221467 g / cm^3
# Si number density = 22.265351 Si / 1000 Ang^3
#
#
#
# Elastic Constant Matrix: (Units=GPa)
#
#
# Indices 1 2 3 4 5 6 
#
# 1 74.7632 44.2422 21.8507 0.0000 -2.5830 0.0000
# 2 44.2422 91.1339 24.5513 0.0000 0.3981 0.0000
# 3 21.8507 24.5513 75.6287 0.0000 11.8346 0.0000
# 4 0.0000 0.0000 0.0000 22.3095 0.0000 -0.6429
# 5 -2.5830 0.3981 11.8346 0.0000 40.3919 0.0000
# 6 0.0000 0.0000 0.0000 -0.6429 0.0000 26.1913
#
#
#
# Elastic Compliance Matrix: (Units=1/GPa)
#
#
# Indices 1 2 3 4 5 6 
#
# 1 0.019479 -0.008607 -0.003188 0.000000 0.002265 0.000000
# 2 -0.008607 0.015873 -0.002678 0.000000 0.000078 0.000000
# 3 -0.003188 -0.002678 0.015763 0.000000 -0.004796 0.000000
# 4 0.000000 0.000000 0.000000 0.044856 0.000000 0.001101
# 5 0.002265 0.000078 -0.004796 0.000000 0.026307 0.000000
# 6 0.000000 0.000000 0.000000 0.001101 0.000000 0.038208
#
#
# Mechanical properties :
#
#
# Convention : Reuss Voigt Hill
#
# Bulk Modulus (GPa) = 45.10977 46.97934 46.04456
# Shear Modulus (GPa) = 25.40372 27.83732 26.62052
#
# Velocity S-wave (km/s) = 3.38146 3.53973 3.46150
# Velocity P-wave (km/s) = 5.96236 6.15238 6.05812
#
# Compressibility (1/GPa) = 0.02216815
#
# Stress axis : x y z
#
# Youngs Moduli (GPa) = 51.33701 63.00178 63.43790
#
# Poissons Ratio (x) = 0.54228 0.20224
# Poissons Ratio (y) = 0.44188 0.16989
# Poissons Ratio (z) = 0.16367 0.16872
#
# Static dielectric constant tensor:
#      x y z
#    x 3.824780 0.000000 0.003210 
#    y 0.000000 4.226190 0.000000 
#    z 0.003210 0.000000 4.127320 
# 
# 
# High freq. dielectric constant tensor:
#      x y z
#    x 1.863080 0.000000 0.008930 
#    y 0.000000 1.871680 0.000000 
#    z 0.008930 0.000000 1.882610 
# 
# From -- ./inp_files/55623.got.cif
#   From: 2010.06.25/outbox.cif.g09.slc.cpg/sg15_28_cif.got.tgz:55623.got - 2010.06.28 07:06:18.
