data_PCOD8134943
_publ_section_title
;
Structure prediction by ZEFSAII (Michael W. Deem and Ramdas Pophale) SiO2 
 PCOD8134943
Probable space group: C 2/C
;
_chemical_formula_sum "Si O2"
_cell_formula_units_Z 56
_cell_length_a 15.375715
_cell_length_b 9.729776
_cell_length_c 20.726015
_cell_angle_alpha 90.000000
_cell_angle_beta 109.423661
_cell_angle_gamma 90.000000
_cell_volume 2924.186014
_symmetry_space_group_name_H-M "C 2/C"
_symmetry_group_IT_number 15
_symmetry_cell_setting 'monoclinic'
loop_
_space_group_symop_operation_xyz
x,y,z
-x,y,1/2-z
-x,-y,-z
x,-y,1/2+z
1/2+x,1/2+y,z
1/2-x,1/2+y,1/2-z
1/2-x,1/2-y,-z
1/2+x,1/2-y,1/2+z
loop_
_atom_site_type_symbol
_atom_site_label
_atom_site_fract_x
_atom_site_fract_y
_atom_site_fract_z
Si Si1 0.637455 0.680632 0.910108
Si Si2 0.426554 0.589527 0.175404
Si Si3 0.755408 0.505272 0.178350
Si Si4 0.045088 0.690387 0.639820
Si Si5 0.711061 0.276863 0.769181
Si Si6 0.665189 0.703188 0.064709
Si Si7 0.052477 0.438452 0.828252
O O1 0.595175 0.547758 0.867678
O O2 0.740818 0.708229 0.910291
O O3 0.570513 0.804660 0.875050
O O4 0.636552 0.660220 0.986439
O O5 0.500000 0.558998 0.250000
O O6 0.466175 0.698059 0.134170
O O7 0.329915 0.645203 0.179141
O O8 0.767474 0.613800 0.240287
O O9 0.723868 0.352855 0.194382
O O10 0.678737 0.563818 0.110109
O O11 0.852487 0.486297 0.166629
O O12 0.127497 0.708883 0.710096
O O13 0.083451 0.706920 0.576533
O O14 0.005598 0.538579 0.640089
O O15 0.000000 0.398520 0.750000
#
# Coordination Sequence:
#
# PCOD8134943 Si02
#       7
#     8   8   8   8   8   8   8
#     4  10  22  38  58  80 113 150 191 231 268 333
#     4  10  20  36  58  85 113 143 181 234 289 325
#     4  10  20  35  59  81 114 145 186 229 282 339
#     4  10  19  37  58  79 115 146 178 232 290 334
#     4  10  20  34  57  87 112 146 182 235 289 335
#     4   9  22  40  57  77 115 156 187 223 280 331
#     4  11  19  34  59  86 111 140 188 237 279 329
#
# _framework density 19.150628999999999
#
# number of rings (size 3 to 8) (size 9 to 14) (size 15 to 20)
#    0.000    2.000    2.857    0.857    6.000    1.143 
#    2.571    0.714    0.000    0.000    0.000    0.000 
#    0.000    0.000    0.000    0.000    0.000    0.000 
#
# Total GULP energy -347206.208781 kJ/mol
# GULP energy per Si atom -12400.221742 kJ/mol
# Density = 1.910704 g / cm^3
# Si number density = 19.150629 Si / 1000 Ang^3
#
#
#
# Elastic Constant Matrix: (Units=GPa)
#
#
# Indices 1 2 3 4 5 6 
#
# 1 67.3556 37.1819 35.0935 0.0000 -19.1647 0.0000
# 2 37.1819 137.8225 64.0110 0.0000 -6.8259 0.0000
# 3 35.0935 64.0110 98.1162 0.0000 -15.2554 0.0000
# 4 0.0000 0.0000 0.0000 5.1353 0.0000 -7.8726
# 5 -19.1647 -6.8259 -15.2554 0.0000 28.8790 0.0000
# 6 0.0000 0.0000 0.0000 -7.8726 0.0000 28.4532
#
#
#
# Elastic Compliance Matrix: (Units=1/GPa)
#
#
# Indices 1 2 3 4 5 6 
#
# 1 0.022187 -0.003687 -0.003678 0.000000 0.011909 0.000000
# 2 -0.003687 0.011063 -0.006398 0.000000 -0.003212 0.000000
# 3 -0.003678 -0.006398 0.016415 0.000000 0.004718 0.000000
# 4 0.000000 0.000000 0.000000 0.338172 0.000000 0.093568
# 5 0.011909 -0.003212 0.004718 0.000000 0.044264 0.000000
# 6 0.000000 0.000000 0.000000 0.093568 0.000000 0.061034
#
#
# Mechanical properties :
#
#
# Convention : Reuss Voigt Hill
#
# Bulk Modulus (GPa) = 45.17161 63.98522 54.57842
# Shear Modulus (GPa) = 9.46895 23.62736 16.54815
#
# Velocity S-wave (km/s) = 2.22603 3.51631 2.94276
# Velocity P-wave (km/s) = 5.49961 7.06895 6.33307
#
# Compressibility (1/GPa) = 0.02213780
#
# Stress axis : x y z
#
# Youngs Moduli (GPa) = 45.07115 90.39180 60.91879
#
# Poissons Ratio (x) = 0.33332 0.22408
# Poissons Ratio (y) = 0.16620 0.38976
# Poissons Ratio (z) = 0.16579 0.57833
#
# Static dielectric constant tensor:
#      x y z
#    x 3.569790 0.000000 -0.221200 
#    y 0.000000 3.529530 0.000000 
#    z -0.221200 0.000000 3.420290 
# 
# 
# High freq. dielectric constant tensor:
#      x y z
#    x 1.739960 0.000000 -0.019380 
#    y 0.000000 1.747930 0.000000 
#    z -0.019380 0.000000 1.727040 
# 
# From -- ./inp_files/247027.got.cif
#   From: 2010.06.25/outbox.cif.g09.slc.cpg/sg15_124_cif.got.tgz:247027.got - 2010.06.28 07:06:18.
