data_PCOD8134919
_publ_section_title
;
Structure prediction by ZEFSAII (Michael W. Deem and Ramdas Pophale) SiO2 
 PCOD8134919
Probable space group: C 2/C
;
_chemical_formula_sum "Si O2"
_cell_formula_units_Z 44
_cell_length_a 13.106737
_cell_length_b 22.174350
_cell_length_c 12.682943
_cell_angle_alpha 90.000000
_cell_angle_beta 143.393598
_cell_angle_gamma 90.000000
_cell_volume 2198.067111
_symmetry_space_group_name_H-M "C 2/C"
_symmetry_group_IT_number 15
_symmetry_cell_setting 'monoclinic'
loop_
_space_group_symop_operation_xyz
x,y,z
-x,y,1/2-z
-x,-y,-z
x,-y,1/2+z
1/2+x,1/2+y,z
1/2-x,1/2+y,1/2-z
1/2-x,1/2-y,-z
1/2+x,1/2-y,1/2+z
loop_
_atom_site_type_symbol
_atom_site_label
_atom_site_fract_x
_atom_site_fract_y
_atom_site_fract_z
Si Si1 0.500000 0.045431 0.250000
Si Si2 0.569935 0.411713 0.593733
Si Si3 0.116222 0.204549 0.244327
Si Si4 0.553417 0.067671 0.064899
Si Si5 0.874484 0.009151 0.548496
Si Si6 0.493103 0.831014 0.123154
O O1 0.520322 0.085389 0.160516
O O2 0.672393 0.005186 0.408740
O O3 0.545314 0.340145 0.593343
O O4 0.746537 0.429927 0.798431
O O5 0.413502 0.448837 0.514597
O O6 0.585178 0.429591 0.483685
O O7 0.305636 0.189315 0.435280
O O8 0.000000 0.197114 0.250000
O O9 0.115053 0.273533 0.203132
O O10 0.447889 0.113592 0.902720
O O11 0.500000 0.000000 0.000000
O O12 0.000000 0.012097 0.750000
O O13 0.500000 0.852202 0.250000
#
# Coordination Sequence:
#
# PCOD8134919 Si02
#       6
#     4   8   8   8   8   8
#     4  10  22  38  56  86 126 148 198 248 288 362
#     4   9  20  36  57  80 121 152 189 247 297 348
#     4  10  19  37  57  83 117 150 189 246 295 348
#     4  10  21  37  58  87 118 158 195 247 298 352
#     4  10  19  37  56  84 118 156 193 242 298 351
#     4  10  21  38  58  87 116 152 196 243 299 352
#
# _framework density 20.017586000000001
#
# number of rings (size 3 to 8) (size 9 to 14) (size 15 to 20)
#    0.000    2.182    0.000    3.818    1.273    1.455 
#   26.182    0.000    2.000    3.273    0.000    0.000 
#    0.000    0.000    0.000    0.000    0.000    0.000 
#
# Total GULP energy -272666.082571 kJ/mol
# GULP energy per Si atom -12393.912844 kJ/mol
# Density = 1.997203 g / cm^3
# Si number density = 20.017586 Si / 1000 Ang^3
#
#
#
# Elastic Constant Matrix: (Units=GPa)
#
#
# Indices 1 2 3 4 5 6 
#
# 1 82.5649 50.5081 44.5570 0.0000 -1.8039 0.0000
# 2 50.5081 129.6821 33.3376 0.0000 -15.9763 0.0000
# 3 44.5570 33.3376 89.7800 0.0000 -3.1795 0.0000
# 4 0.0000 0.0000 0.0000 31.2050 0.0000 -5.8466
# 5 -1.8039 -15.9763 -3.1795 0.0000 37.2627 0.0000
# 6 0.0000 0.0000 0.0000 -5.8466 0.0000 23.8757
#
#
#
# Elastic Compliance Matrix: (Units=1/GPa)
#
#
# Indices 1 2 3 4 5 6 
#
# 1 0.019940 -0.006062 -0.007726 0.000000 -0.002293 0.000000
# 2 -0.006062 0.010819 -0.000857 0.000000 0.004272 0.000000
# 3 -0.007726 -0.000857 0.015311 0.000000 0.000565 0.000000
# 4 0.000000 0.000000 0.000000 0.033587 0.000000 0.008225
# 5 -0.002293 0.004272 0.000565 0.000000 0.028605 0.000000
# 6 0.000000 0.000000 0.000000 0.008225 0.000000 0.043898
#
#
# Mechanical properties :
#
#
# Convention : Reuss Voigt Hill
#
# Bulk Modulus (GPa) = 59.60107 62.09250 60.84679
# Shear Modulus (GPa) = 26.73172 30.04363 28.38767
#
# Velocity S-wave (km/s) = 3.65829 3.87830 3.76990
# Velocity P-wave (km/s) = 6.90530 7.15131 7.02938
#
# Compressibility (1/GPa) = 0.01677822
#
# Stress axis : x y z
#
# Youngs Moduli (GPa) = 50.15165 92.42991 65.31246
#
# Poissons Ratio (x) = 0.56034 0.50460
# Poissons Ratio (y) = 0.30404 0.05600
# Poissons Ratio (z) = 0.38747 0.07925
#
# Static dielectric constant tensor:
#      x y z
#    x 3.865510 0.000000 -0.113480 
#    y 0.000000 3.974580 0.000000 
#    z -0.113480 0.000000 3.887740 
# 
# 
# High freq. dielectric constant tensor:
#      x y z
#    x 1.770670 0.000000 0.006130 
#    y 0.000000 1.763610 0.000000 
#    z 0.006130 0.000000 1.794050 
# 
# From -- ./inp_files/91391.got.cif
#   From: 2010.06.25/outbox.cif.g09.slc.cpg/sg15_46_cif.got.tgz:91391.got - 2010.06.28 07:06:18.
