data_PCOD8134291
_publ_section_title
;
Structure prediction by ZEFSAII (Michael W. Deem and Ramdas Pophale) SiO2 
 PCOD8134291
Probable space group: C 2/C
;
_chemical_formula_sum "Si O2"
_cell_formula_units_Z 48
_cell_length_a 8.656615
_cell_length_b 27.834573
_cell_length_c 19.722451
_cell_angle_alpha 90.000000
_cell_angle_beta 30.483230
_cell_angle_gamma 90.000000
_cell_volume 2410.718811
_symmetry_space_group_name_H-M "C 2/C"
_symmetry_group_IT_number 15
_symmetry_cell_setting 'monoclinic'
loop_
_space_group_symop_operation_xyz
x,y,z
-x,y,1/2-z
-x,-y,-z
x,-y,1/2+z
1/2+x,1/2+y,z
1/2-x,1/2+y,1/2-z
1/2-x,1/2-y,-z
1/2+x,1/2-y,1/2+z
loop_
_atom_site_type_symbol
_atom_site_label
_atom_site_fract_x
_atom_site_fract_y
_atom_site_fract_z
Si Si1 0.659153 0.047635 0.506067
Si Si2 0.653767 0.057677 0.017189
Si Si3 0.166814 0.792632 0.845652
Si Si4 0.359705 0.386695 0.728472
Si Si5 0.445961 0.202258 0.847785
Si Si6 0.173136 0.111881 0.751486
O O1 0.563898 0.046384 0.463720
O O2 0.378104 0.065967 0.656647
O O3 0.938243 0.084761 0.402989
O O4 0.762869 0.995911 0.497286
O O5 0.460243 0.084808 0.147993
O O6 0.932207 0.093198 0.897322
O O7 0.500000 0.788273 0.750000
O O8 0.177636 0.833086 0.784164
O O9 0.090722 0.742122 0.840751
O O10 0.912994 0.803990 0.999342
O O11 0.500000 0.382375 0.750000
O O12 0.500000 0.217607 0.750000
O O13 0.622218 0.152883 0.793878
O O14 0.000000 0.131346 0.750000
#
# Coordination Sequence:
#
# PCOD8134291 Si02
#       6
#     8   8   8   8   8   8
#     4   9  16  32  52  87 124 157 198 247 284 333
#     4   9  18  28  56  89 120 157 202 239 288 339
#     4  11  25  44  64  88 118 152 194 243 296 356
#     4  10  19  35  59  89 122 157 195 245 293 341
#     4  11  25  44  64  88 118 152 194 243 296 356
#     4  10  19  35  59  89 122 157 195 245 293 341
#
# _framework density 19.911072999999998
#
# number of rings (size 3 to 8) (size 9 to 14) (size 15 to 20)
#    0.000    2.000    1.667    2.000    2.333    4.667 
#    0.000    0.000    0.000    6.000    0.000    0.000 
#    0.000    0.000    0.000    0.000    0.000    0.000 
#
# Total GULP energy -297549.964649 kJ/mol
# GULP energy per Si atom -12397.915194 kJ/mol
# Density = 1.986575 g / cm^3
# Si number density = 19.911073 Si / 1000 Ang^3
#
#
#
# Elastic Constant Matrix: (Units=GPa)
#
#
# Indices 1 2 3 4 5 6 
#
# 1 54.9424 24.5571 43.4748 0.0023 -14.1687 0.0026
# 2 24.5571 93.2065 25.9930 0.0032 -12.2696 0.0038
# 3 43.4748 25.9930 126.3051 0.0029 -17.9743 -0.0017
# 4 0.0023 0.0032 0.0029 7.2145 -0.0013 -26.0571
# 5 -14.1687 -12.2696 -17.9743 -0.0013 28.2616 0.0000
# 6 0.0026 0.0038 -0.0017 -26.0571 0.0000 -4.2664
#
#
#
# Elastic Compliance Matrix: (Units=1/GPa)
#
#
# Indices 1 2 3 4 5 6 
#
# 1 0.028148 -0.004288 -0.007766 0.000002 0.007311 0.000001
# 2 -0.004288 0.012418 -0.000680 0.000001 0.002809 0.000001
# 3 -0.007766 -0.000680 0.011143 -0.000002 0.002898 0.000000
# 4 0.000002 0.000001 -0.000002 0.006011 0.000001 -0.036713
# 5 0.007311 0.002809 0.002898 0.000001 0.042112 -0.000001
# 6 0.000001 0.000001 0.000000 -0.036713 -0.000001 -0.010165
#
#
# Mechanical properties :
#
#
# Convention : Reuss Voigt Hill
#
# Bulk Modulus (GPa) = 38.10797 51.38932 44.74864
# Shear Modulus (GPa) = 40.36144 18.27055 29.31599
#
# Velocity S-wave (km/s) = 4.50720 3.03249 3.84128
# Velocity P-wave (km/s) = 6.80199 6.17469 6.49592
#
# Compressibility (1/GPa) = 0.02624123
#
# Stress axis : x y z
#
# Youngs Moduli (GPa) = 35.52698 80.52827 89.74495
#
# Poissons Ratio (x) = 0.34530 0.69693
# Poissons Ratio (y) = 0.15234 0.06102
# Poissons Ratio (z) = 0.27589 0.05475
#
# Static dielectric constant tensor:
#      x y z
#    x 3.222880 0.000000 -0.101140 
#    y 0.000000 3.738020 0.000000 
#    z -0.101140 0.000000 3.881780 
# 
# 
# High freq. dielectric constant tensor:
#      x y z
#    x 1.729740 0.000000 -0.011810 
#    y 0.000000 1.793040 0.000000 
#    z -0.011810 0.000000 1.793980 
# 
# From -- ./inp_files/194182.got.cif
#   From: 2010.06.25/outbox.cif.g09.slc.cpg/sg15_98_cif.got.tgz:194182.got - 2010.06.28 07:06:18.
