data_PCOD8134693
_publ_section_title
;
Structure prediction by ZEFSAII (Michael W. Deem and Ramdas Pophale) SiO2 
 PCOD8134693
Probable space group: C 2/C
;
_chemical_formula_sum "Si O2"
_cell_formula_units_Z 56
_cell_length_a 18.045652
_cell_length_b 14.052314
_cell_length_c 12.503010
_cell_angle_alpha 90.000000
_cell_angle_beta 63.817170
_cell_angle_gamma 90.000000
_cell_volume 2845.224475
_symmetry_space_group_name_H-M "C 2/C"
_symmetry_group_IT_number 15
_symmetry_cell_setting 'monoclinic'
loop_
_space_group_symop_operation_xyz
x,y,z
-x,y,1/2-z
-x,-y,-z
x,-y,1/2+z
1/2+x,1/2+y,z
1/2-x,1/2+y,1/2-z
1/2-x,1/2-y,-z
1/2+x,1/2-y,1/2+z
loop_
_atom_site_type_symbol
_atom_site_label
_atom_site_fract_x
_atom_site_fract_y
_atom_site_fract_z
Si Si1 0.370517 0.624348 0.813366
Si Si2 0.194665 0.423647 0.480813
Si Si3 0.878205 0.745627 0.596960
Si Si4 0.012727 0.906961 0.065292
Si Si5 0.038841 0.599523 0.840037
Si Si6 0.700519 0.178184 0.186560
Si Si7 0.604092 0.074740 0.417666
O O1 0.282563 0.571580 0.862934
O O2 0.421855 0.580506 0.879600
O O3 0.422093 0.614001 0.671455
O O4 0.345981 0.735372 0.845096
O O5 0.134238 0.338681 0.481554
O O6 0.205793 0.410273 0.600989
O O7 0.153764 0.524938 0.482861
O O8 0.953510 0.817557 0.523532
O O9 0.899760 0.690485 0.694320
O O10 0.793451 0.801495 0.663757
O O11 0.000000 0.000000 0.000000
O O12 0.082518 0.500011 0.837912
O O13 0.000000 0.590476 0.750000
O O14 0.974433 0.622059 0.976814
O O15 0.654811 0.156401 0.326247
#
# Coordination Sequence:
#
# PCOD8134693 Si02
#       7
#     8   8   8   8   8   8   8
#     4  10  21  37  58  85 112 158 199 234 297 343
#     4  10  19  36  60  87 117 146 196 256 294 338
#     4  10  20  38  58  82 114 158 193 239 299 345
#     4  11  22  37  56  84 118 152 197 240 279 351
#     4  10  21  41  55  84 120 150 186 242 296 351
#     4  11  19  38  63  87 115 152 198 247 289 357
#     4  10  22  34  63  90 112 148 198 240 300 349
#
# _framework density 19.682102
#
# number of rings (size 3 to 8) (size 9 to 14) (size 15 to 20)
#    0.000    1.714    2.857    2.571    2.000    0.000 
#    5.143    0.714    0.000    0.000    0.000    0.000 
#    0.000    0.000    0.000    0.000    0.000    0.000 
#
# Total GULP energy -347009.212432 kJ/mol
# GULP energy per Si atom -12393.186158 kJ/mol
# Density = 1.963730 g / cm^3
# Si number density = 19.682102 Si / 1000 Ang^3
#
#
#
# Elastic Constant Matrix: (Units=GPa)
#
#
# Indices 1 2 3 4 5 6 
#
# 1 94.9417 37.9895 34.8723 0.0000 3.6958 0.0000
# 2 37.9895 55.2078 21.0344 0.0000 10.0834 0.0000
# 3 34.8723 21.0344 62.6988 0.0000 -4.4064 0.0000
# 4 0.0000 0.0000 0.0000 26.1334 0.0000 -0.8748
# 5 3.6958 10.0834 -4.4064 0.0000 33.6853 0.0000
# 6 0.0000 0.0000 0.0000 -0.8748 0.0000 23.1475
#
#
#
# Elastic Compliance Matrix: (Units=1/GPa)
#
#
# Indices 1 2 3 4 5 6 
#
# 1 0.016342 -0.008944 -0.006083 0.000000 0.000089 0.000000
# 2 -0.008944 0.027547 -0.004822 0.000000 -0.007895 0.000000
# 3 -0.006083 -0.004822 0.021294 0.000000 0.004896 0.000000
# 4 0.000000 0.000000 0.000000 0.038314 0.000000 0.001448
# 5 0.000089 -0.007895 0.004896 0.000000 0.032681 0.000000
# 6 0.000000 0.000000 0.000000 0.001448 0.000000 0.043256
#
#
# Mechanical properties :
#
#
# Convention : Reuss Voigt Hill
#
# Bulk Modulus (GPa) = 39.23656 44.51563 41.87610
# Shear Modulus (GPa) = 21.96577 24.52337 23.24457
#
# Velocity S-wave (km/s) = 3.34432 3.53366 3.44030
# Velocity P-wave (km/s) = 5.90687 6.27020 6.09125
#
# Compressibility (1/GPa) = 0.02548644
#
# Stress axis : x y z
#
# Youngs Moduli (GPa) = 61.19072 36.30119 46.96144
#
# Poissons Ratio (x) = 0.32469 0.28564
# Poissons Ratio (y) = 0.54730 0.22644
# Poissons Ratio (z) = 0.37219 0.17504
#
# Static dielectric constant tensor:
#      x y z
#    x 3.731870 0.000000 -0.182780 
#    y 0.000000 3.422190 0.000000 
#    z -0.182780 0.000000 3.463090 
# 
# 
# High freq. dielectric constant tensor:
#      x y z
#    x 1.775380 0.000000 -0.014220 
#    y 0.000000 1.747190 0.000000 
#    z -0.014220 0.000000 1.756220 
# 
# From -- ./inp_files/105293.got.cif
#   From: 2010.06.25/outbox.cif.g09.slc.cpg/sg15_53_cif.got.tgz:105293.got - 2010.06.28 07:06:18.
