data_PCOD8134833
_publ_section_title
;
Structure prediction by ZEFSAII (Michael W. Deem and Ramdas Pophale) SiO2 
 PCOD8134833
Probable space group: C 2/C
;
_chemical_formula_sum "Si O2"
_cell_formula_units_Z 56
_cell_length_a 25.476839
_cell_length_b 16.605371
_cell_length_c 9.188131
_cell_angle_alpha 90.000000
_cell_angle_beta 42.894694
_cell_angle_gamma 90.000000
_cell_volume 2645.739521
_symmetry_space_group_name_H-M "C 2/C"
_symmetry_group_IT_number 15
_symmetry_cell_setting 'monoclinic'
loop_
_space_group_symop_operation_xyz
x,y,z
-x,y,1/2-z
-x,-y,-z
x,-y,1/2+z
1/2+x,1/2+y,z
1/2-x,1/2+y,1/2-z
1/2-x,1/2-y,-z
1/2+x,1/2-y,1/2+z
loop_
_atom_site_type_symbol
_atom_site_label
_atom_site_fract_x
_atom_site_fract_y
_atom_site_fract_z
Si Si1 0.099737 0.402514 0.737314
Si Si2 0.587148 0.525341 0.340199
Si Si3 0.838800 0.540692 0.075845
Si Si4 0.029653 0.180753 0.350559
Si Si5 0.836591 0.925243 0.540312
Si Si6 0.924728 0.226006 0.802118
Si Si7 0.044416 0.639657 0.811714
O O1 0.128271 0.451981 0.536558
O O2 0.142536 0.433697 0.796402
O O3 0.116315 0.308615 0.667362
O O4 0.007108 0.405491 0.959292
O O5 0.500000 0.500000 0.500000
O O6 0.595023 0.615170 0.255272
O O7 0.604806 0.527764 0.474261
O O8 0.648698 0.464123 0.146616
O O9 0.748976 0.554174 0.234044
O O10 0.875425 0.595343 0.874193
O O11 0.064392 0.269055 0.313446
O O12 0.000000 0.167986 0.250000
O O13 0.954148 0.172970 0.605830
O O14 0.857161 0.829719 0.508213
O O15 0.000000 0.242283 0.750000
O O16 0.000000 0.637495 0.750000
#
# Coordination Sequence:
#
# PCOD8134833 Si02
#       7
#     8   8   8   8   8   8   8
#     4  10  23  42  70  91 127 172 220 267 312 392
#     4  12  22  40  64  90 124 173 220 262 313 381
#     4  11  23  44  61  98 132 167 217 259 340 381
#     4  10  19  36  63  94 117 156 223 263 308 366
#     4  12  25  41  63  95 138 168 210 273 326 396
#     4  11  22  43  66  97 127 168 219 268 325 379
#     4   8  18  37  64  90 119 160 210 266 304 375
#
# _framework density 21.166105999999999
#
# number of rings (size 3 to 8) (size 9 to 14) (size 15 to 20)
#    0.000    1.429    2.857    3.429    0.000    4.571 
#    2.571    0.714    0.000    0.000    0.000    0.000 
#    0.000    0.000    0.000    0.000    0.000    0.000 
#
# Total GULP energy -346943.007811 kJ/mol
# GULP energy per Si atom -12390.821708 kJ/mol
# Density = 2.111793 g / cm^3
# Si number density = 21.166106 Si / 1000 Ang^3
#
#
#
# Elastic Constant Matrix: (Units=GPa)
#
#
# Indices 1 2 3 4 5 6 
#
# 1 66.9554 34.2564 33.3852 0.0000 8.1366 0.0000
# 2 34.2564 131.0838 50.7257 0.0000 -8.8371 0.0000
# 3 33.3852 50.7257 111.3656 0.0000 -12.4954 0.0000
# 4 0.0000 0.0000 0.0000 34.1108 0.0000 9.7320
# 5 8.1366 -8.8371 -12.4954 0.0000 37.2864 0.0000
# 6 0.0000 0.0000 0.0000 9.7320 0.0000 18.8909
#
#
#
# Elastic Compliance Matrix: (Units=1/GPa)
#
#
# Indices 1 2 3 4 5 6 
#
# 1 0.020299 -0.003787 -0.005152 0.000000 -0.007053 0.000000
# 2 -0.003787 0.009991 -0.003177 0.000000 0.002130 0.000000
# 3 -0.005152 -0.003177 0.012482 0.000000 0.004554 0.000000
# 4 0.000000 0.000000 0.000000 0.034368 0.000000 -0.017705
# 5 -0.007053 0.002130 0.004554 0.000000 0.030390 0.000000
# 6 0.000000 0.000000 0.000000 -0.017705 0.000000 0.062057
#
#
# Mechanical properties :
#
#
# Convention : Reuss Voigt Hill
#
# Bulk Modulus (GPa) = 53.93369 60.68216 57.30793
# Shear Modulus (GPa) = 25.00050 30.79345 27.89698
#
# Velocity S-wave (km/s) = 3.44053 3.81838 3.63437
# Velocity P-wave (km/s) = 6.42802 6.94059 6.68922
#
# Compressibility (1/GPa) = 0.01854129
#
# Stress axis : x y z
#
# Youngs Moduli (GPa) = 49.26458 100.08855 80.11658
#
# Poissons Ratio (x) = 0.37899 0.41274
# Poissons Ratio (y) = 0.18654 0.25451
# Poissons Ratio (z) = 0.25380 0.31796
#
# Static dielectric constant tensor:
#      x y z
#    x 3.507560 0.000000 0.228760 
#    y 0.000000 4.204820 0.000000 
#    z 0.228760 0.000000 3.960830 
# 
# 
# High freq. dielectric constant tensor:
#      x y z
#    x 1.803010 0.000000 0.024870 
#    y 0.000000 1.845770 0.000000 
#    z 0.024870 0.000000 1.827350 
# 
# From -- ./inp_files/62683.got.cif
#   From: 2010.06.25/outbox.cif.g09.slc.cpg/sg15_32_cif.got.tgz:62683.got - 2010.06.28 07:06:18.
