data_PCOD8134412
_publ_section_title
;
Structure prediction by ZEFSAII (Michael W. Deem and Ramdas Pophale) SiO2 
 PCOD8134412
Probable space group: C 2/C
;
_chemical_formula_sum "Si O2"
_cell_formula_units_Z 48
_cell_length_a 12.357120
_cell_length_b 16.854211
_cell_length_c 12.012507
_cell_angle_alpha 90.000000
_cell_angle_beta 111.627314
_cell_angle_gamma 90.000000
_cell_volume 2325.711683
_symmetry_space_group_name_H-M "C 2/C"
_symmetry_group_IT_number 15
_symmetry_cell_setting 'monoclinic'
loop_
_space_group_symop_operation_xyz
x,y,z
-x,y,1/2-z
-x,-y,-z
x,-y,1/2+z
1/2+x,1/2+y,z
1/2-x,1/2+y,1/2-z
1/2-x,1/2-y,-z
1/2+x,1/2-y,1/2+z
loop_
_atom_site_type_symbol
_atom_site_label
_atom_site_fract_x
_atom_site_fract_y
_atom_site_fract_z
Si Si1 0.383560 0.794653 0.261531
Si Si2 0.736789 0.447139 0.614178
Si Si3 0.025182 0.875410 0.641853
Si Si4 0.770826 0.875575 0.464202
Si Si5 0.875330 0.402176 0.463421
Si Si6 0.627094 0.078782 0.118195
O O1 0.500000 0.832755 0.250000
O O2 0.404043 0.703180 0.297395
O O3 0.280774 0.805108 0.131854
O O4 0.346348 0.836483 0.361193
O O5 0.602171 0.430099 0.590798
O O6 0.751687 0.541398 0.607544
O O7 0.771607 0.402266 0.513950
O O8 0.818327 0.410368 0.739964
O O9 0.000000 0.920878 0.750000
O O10 0.906519 0.856357 0.531991
O O11 0.707685 0.877125 0.559157
O O12 0.882880 0.485749 0.405750
O O13 0.998868 0.382685 0.568487
#
# Coordination Sequence:
#
# PCOD8134412 Si02
#       6
#     8   8   8   8   8   8
#     4  11  23  40  64  92 125 167 207 256 317 369
#     4  11  22  39  63  94 127 163 208 261 310 369
#     4  11  25  41  62  90 126 171 208 250 310 383
#     4  11  22  41  66  92 125 161 213 262 303 371
#     4  10  21  35  61  95 124 160 203 263 308 362
#     4  10  19  35  63  92 125 157 207 260 309 357
#
# _framework density 20.638843000000001
#
# number of rings (size 3 to 8) (size 9 to 14) (size 15 to 20)
#    0.000    1.333    5.000    1.000    0.000    4.667 
#    0.000    0.833    0.000    0.000    0.000    0.000 
#    0.000    0.000    0.000    0.000    0.000    0.000 
#
# Total GULP energy -297653.683083 kJ/mol
# GULP energy per Si atom -12402.236795 kJ/mol
# Density = 2.059187 g / cm^3
# Si number density = 20.638843 Si / 1000 Ang^3
#
#
#
# Elastic Constant Matrix: (Units=GPa)
#
#
# Indices 1 2 3 4 5 6 
#
# 1 111.5409 9.4844 27.1971 0.0000 -8.8415 0.0000
# 2 9.4844 35.9384 10.3587 0.0000 -13.0985 0.0000
# 3 27.1971 10.3587 99.1607 0.0000 1.3246 0.0000
# 4 0.0000 0.0000 0.0000 17.2665 0.0000 3.9271
# 5 -8.8415 -13.0985 1.3246 0.0000 44.7161 0.0000
# 6 0.0000 0.0000 0.0000 3.9271 0.0000 23.8780
#
#
#
# Elastic Compliance Matrix: (Units=1/GPa)
#
#
# Indices 1 2 3 4 5 6 
#
# 1 0.009834 -0.001245 -0.002589 0.000000 0.001656 0.000000
# 2 -0.001245 0.032482 -0.003177 0.000000 0.009363 0.000000
# 3 -0.002589 -0.003177 0.011150 0.000000 -0.001773 0.000000
# 4 0.000000 0.000000 0.000000 0.060166 0.000000 -0.009895
# 5 0.001656 0.009363 -0.001773 0.000000 0.025486 0.000000
# 6 0.000000 0.000000 0.000000 -0.009895 0.000000 0.043507
#
#
# Mechanical properties :
#
#
# Convention : Reuss Voigt Hill
#
# Bulk Modulus (GPa) = 25.35247 37.85784 31.60515
# Shear Modulus (GPa) = 23.83269 30.47875 27.15572
#
# Velocity S-wave (km/s) = 3.40185 3.84704 3.63127
# Velocity P-wave (km/s) = 5.26694 6.17380 5.73831
#
# Compressibility (1/GPa) = 0.03944389
#
# Stress axis : x y z
#
# Youngs Moduli (GPa) = 101.68983 30.78618 89.68348
#
# Poissons Ratio (x) = 0.03834 0.23221
# Poissons Ratio (y) = 0.12663 0.28490
# Poissons Ratio (z) = 0.26330 0.09780
#
# Static dielectric constant tensor:
#      x y z
#    x 3.911550 0.000000 -0.051810 
#    y 0.000000 3.426450 0.000000 
#    z -0.051810 0.000000 3.808610 
# 
# 
# High freq. dielectric constant tensor:
#      x y z
#    x 1.808400 0.000000 0.001980 
#    y 0.000000 1.781160 0.000000 
#    z 0.001980 0.000000 1.817930 
# 
# From -- ./inp_files/87232.got.cif
#   From: 2010.06.25/outbox.cif.g09.slc.cpg/sg15_44_cif.got.tgz:87232.got - 2010.06.28 07:06:18.
