data_PCOD8134622
_publ_section_title
;
Structure prediction by ZEFSAII (Michael W. Deem and Ramdas Pophale) SiO2 
 PCOD8134622
Probable space group: C 2/C
;
_chemical_formula_sum "Si O2"
_cell_formula_units_Z 48
_cell_length_a 30.845722
_cell_length_b 8.849335
_cell_length_c 8.807356
_cell_angle_alpha 90.000000
_cell_angle_beta 91.171999
_cell_angle_gamma 90.000000
_cell_volume 2403.589305
_symmetry_space_group_name_H-M "C 2/C"
_symmetry_group_IT_number 15
_symmetry_cell_setting 'monoclinic'
loop_
_space_group_symop_operation_xyz
x,y,z
-x,y,1/2-z
-x,-y,-z
x,-y,1/2+z
1/2+x,1/2+y,z
1/2-x,1/2+y,1/2-z
1/2-x,1/2-y,-z
1/2+x,1/2-y,1/2+z
loop_
_atom_site_type_symbol
_atom_site_label
_atom_site_fract_x
_atom_site_fract_y
_atom_site_fract_z
Si Si1 0.797043 0.311038 0.537470
Si Si2 0.545652 0.081728 0.980373
Si Si3 0.333172 0.949178 0.822923
Si Si4 0.619205 0.386169 0.479466
Si Si5 0.910128 0.359681 0.316810
Si Si6 0.398449 0.307810 0.364774
O O1 0.750000 0.250000 0.500000
O O2 0.799209 0.370133 0.708698
O O3 0.805068 0.461370 0.441981
O O4 0.831732 0.176895 0.511986
O O5 0.551832 0.127232 0.804528
O O6 0.554844 0.233056 0.083293
O O7 0.500000 0.000000 0.000000
O O8 0.580542 0.956875 0.031241
O O9 0.361663 0.815172 0.896172
O O10 0.365458 0.071870 0.744071
O O11 0.593237 0.308561 0.617043
O O12 0.598809 0.356854 0.311344
O O13 0.615256 0.561586 0.518572
#
# Coordination Sequence:
#
# PCOD8134622 Si02
#       6
#     8   8   8   8   8   8
#     4  10  21  36  56  86 119 154 199 249 293 342
#     4  11  21  35  58  87 114 147 189 239 292 346
#     4   9  19  37  57  79 111 154 195 232 287 353
#     4  10  21  37  60  87 118 158 200 240 294 357
#     4  10  19  36  59  82 112 151 192 233 284 358
#     4  10  20  37  58  85 115 154 199 241 290 360
#
# _framework density 19.970134999999999
#
# number of rings (size 3 to 8) (size 9 to 14) (size 15 to 20)
#    0.000    2.000    0.000    6.500    0.000    4.000 
#    0.000    2.500    0.000    4.000    0.000    0.000 
#    0.000    0.000    0.000    0.000    0.000    0.000 
#
# Total GULP energy -297338.188050 kJ/mol
# GULP energy per Si atom -12389.091169 kJ/mol
# Density = 1.992468 g / cm^3
# Si number density = 19.970135 Si / 1000 Ang^3
#
#
#
# Elastic Constant Matrix: (Units=GPa)
#
#
# Indices 1 2 3 4 5 6 
#
# 1 92.0017 56.9241 52.4082 0.0000 5.5992 0.0000
# 2 56.9241 141.0819 59.4909 0.0000 4.2406 0.0000
# 3 52.4082 59.4909 109.1301 0.0000 -2.0577 0.0000
# 4 0.0000 0.0000 0.0000 38.3723 0.0000 -2.2162
# 5 5.5992 4.2406 -2.0577 0.0000 26.9356 0.0000
# 6 0.0000 0.0000 0.0000 -2.2162 0.0000 33.2790
#
#
#
# Elastic Compliance Matrix: (Units=1/GPa)
#
#
# Indices 1 2 3 4 5 6 
#
# 1 0.017116 -0.004302 -0.005937 0.000000 -0.003334 0.000000
# 2 -0.004302 0.010377 -0.003610 0.000000 -0.001015 0.000000
# 3 -0.005937 -0.003610 0.014037 0.000000 0.002875 0.000000
# 4 0.000000 0.000000 0.000000 0.026161 0.000000 0.001742
# 5 -0.003334 -0.001015 0.002875 0.000000 0.038198 0.000000
# 6 0.000000 0.000000 0.000000 0.001742 0.000000 0.030165
#
#
# Mechanical properties :
#
#
# Convention : Reuss Voigt Hill
#
# Bulk Modulus (GPa) = 72.30184 75.54000 73.92092
# Shear Modulus (GPa) = 29.69768 31.27675 30.48722
#
# Velocity S-wave (km/s) = 3.86048 3.96179 3.91146
# Velocity P-wave (km/s) = 7.49364 7.67048 7.58258
#
# Compressibility (1/GPa) = 0.01383091
#
# Stress axis : x y z
#
# Youngs Moduli (GPa) = 58.42327 96.37052 71.24155
#
# Poissons Ratio (x) = 0.41461 0.42299
# Poissons Ratio (y) = 0.25135 0.25716
# Poissons Ratio (z) = 0.34689 0.34787
#
# Static dielectric constant tensor:
#      x y z
#    x 3.430080 0.000000 0.293960 
#    y 0.000000 3.754010 0.000000 
#    z 0.293960 0.000000 3.721120 
# 
# 
# High freq. dielectric constant tensor:
#      x y z
#    x 1.749000 0.000000 0.012190 
#    y 0.000000 1.785080 0.000000 
#    z 0.012190 0.000000 1.788980 
# 
# From -- ./inp_files/68555.got.cif
#   From: 2010.06.25/outbox.cif.g09.slc.cpg/sg15_35_cif.got.tgz:68555.got - 2010.06.28 07:06:18.
