data_PCOD8134884
_publ_section_title
;
Structure prediction by ZEFSAII (Michael W. Deem and Ramdas Pophale) SiO2 
 PCOD8134884
Probable space group: C 2/C
;
_chemical_formula_sum "Si O2"
_cell_formula_units_Z 52
_cell_length_a 21.139185
_cell_length_b 9.894818
_cell_length_c 17.037518
_cell_angle_alpha 90.000000
_cell_angle_beta 137.859709
_cell_angle_gamma 90.000000
_cell_volume 2391.064996
_symmetry_space_group_name_H-M "C 2/C"
_symmetry_group_IT_number 15
_symmetry_cell_setting 'monoclinic'
loop_
_space_group_symop_operation_xyz
x,y,z
-x,y,1/2-z
-x,-y,-z
x,-y,1/2+z
1/2+x,1/2+y,z
1/2-x,1/2+y,1/2-z
1/2-x,1/2-y,-z
1/2+x,1/2-y,1/2+z
loop_
_atom_site_type_symbol
_atom_site_label
_atom_site_fract_x
_atom_site_fract_y
_atom_site_fract_z
Si Si1 0.216383 0.006963 0.618902
Si Si2 0.961118 0.060552 0.128932
Si Si3 0.893830 0.667487 0.582437
Si Si4 0.698052 0.731062 0.345197
Si Si5 0.684286 0.232967 0.362434
Si Si6 0.500000 0.922762 0.750000
Si Si7 0.127226 0.975120 0.203761
O O1 0.267811 0.864156 0.658574
O O2 0.157240 0.038414 0.642286
O O3 0.148949 0.020160 0.480452
O O4 0.294890 0.123152 0.688857
O O5 0.968533 0.222974 0.117062
O O6 0.000000 0.018977 0.250000
O O7 0.014360 0.966241 0.113111
O O8 0.799877 0.654608 0.444462
O O9 0.859283 0.745297 0.628567
O O10 0.945233 0.522659 0.638832
O O11 0.639548 0.630604 0.238822
O O12 0.750000 0.250000 0.500000
O O13 0.580113 0.173083 0.285947
O O14 0.678791 0.373495 0.311045
#
# Coordination Sequence:
#
# PCOD8134884 Si02
#       7
#     8   8   8   8   8   4   8
#     4  11  25  44  64  94 140 173 216 278 350 405
#     4  11  21  38  69  96 120 166 235 273 320 397
#     4  10  19  36  67  99 114 166 225 282 313 383
#     4  10  20  39  68  90 127 168 225 267 325 399
#     4  12  28  43  69 102 138 181 226 285 350 405
#     4  12  22  40  66 100 136 166 230 282 342 394
#     4  12  24  42  65  97 133 179 219 274 344 406
#
# _framework density 21.747630999999998
#
# number of rings (size 3 to 8) (size 9 to 14) (size 15 to 20)
#    0.000    0.923    3.846    3.231    5.385    0.000 
#    0.000    0.000    0.000    3.692    0.000    0.000 
#    0.000    0.000    0.000    0.000    0.000    0.000 
#
# Total GULP energy -322090.155176 kJ/mol
# GULP energy per Si atom -12388.082891 kJ/mol
# Density = 2.169813 g / cm^3
# Si number density = 21.747631 Si / 1000 Ang^3
#
#
#
# Elastic Constant Matrix: (Units=GPa)
#
#
# Indices 1 2 3 4 5 6 
#
# 1 89.3632 33.2232 32.9586 0.0000 5.2380 0.0000
# 2 33.2232 99.6869 32.2079 0.0000 8.8506 0.0000
# 3 32.9586 32.2079 45.0582 0.0000 -0.7368 0.0000
# 4 0.0000 0.0000 0.0000 11.1302 0.0000 25.1181
# 5 5.2380 8.8506 -0.7368 0.0000 23.5443 0.0000
# 6 0.0000 0.0000 0.0000 25.1181 0.0000 28.6032
#
#
#
# Elastic Compliance Matrix: (Units=1/GPa)
#
#
# Indices 1 2 3 4 5 6 
#
# 1 0.015849 -0.001600 -0.010503 0.000000 -0.003253 0.000000
# 2 -0.001600 0.013874 -0.008831 0.000000 -0.005136 0.000000
# 3 -0.010503 -0.008831 0.036299 0.000000 0.006792 0.000000
# 4 0.000000 0.000000 0.000000 -0.091513 0.000000 0.080363
# 5 -0.003253 -0.005136 0.006792 0.000000 0.045340 0.000000
# 6 0.000000 0.000000 0.000000 0.080363 0.000000 -0.035610
#
#
# Mechanical properties :
#
#
# Convention : Reuss Voigt Hill
#
# Bulk Modulus (GPa) = 41.39861 47.87643 44.63752
# Shear Modulus (GPa) = 146.37486 21.70344 84.03915
#
# Velocity S-wave (km/s) = 8.21293 3.16249 6.22309
# Velocity P-wave (km/s) = 10.44096 5.94958 8.49738
#
# Compressibility (1/GPa) = 0.02415540
#
# Stress axis : x y z
#
# Youngs Moduli (GPa) = 63.09365 72.07870 27.54874
#
# Poissons Ratio (x) = 0.11533 0.28934
# Poissons Ratio (y) = 0.10095 0.24327
# Poissons Ratio (z) = 0.66266 0.63650
#
# Static dielectric constant tensor:
#      x y z
#    x 4.189500 0.000000 0.432270 
#    y 0.000000 4.055410 0.000000 
#    z 0.432270 0.000000 3.891900 
# 
# 
# High freq. dielectric constant tensor:
#      x y z
#    x 1.851020 0.000000 0.030880 
#    y 0.000000 1.861680 0.000000 
#    z 0.030880 0.000000 1.842870 
# 
# From -- ./inp_files/214346.got.cif
#   From: 2010.06.25/outbox.cif.g09.slc.cpg/sg15_108_cif.got.tgz:214346.got - 2010.06.28 07:06:18.
