data_PCOD8134729
_publ_section_title
;
Structure prediction by ZEFSAII (Michael W. Deem and Ramdas Pophale) SiO2 
 PCOD8134729
Probable space group: C 2/C
;
_chemical_formula_sum "Si O2"
_cell_formula_units_Z 40
_cell_length_a 12.124061
_cell_length_b 8.975079
_cell_length_c 17.150150
_cell_angle_alpha 90.000000
_cell_angle_beta 89.897522
_cell_angle_gamma 90.000000
_cell_volume 1866.180388
_symmetry_space_group_name_H-M "C 2/C"
_symmetry_group_IT_number 15
_symmetry_cell_setting 'monoclinic'
loop_
_space_group_symop_operation_xyz
x,y,z
-x,y,1/2-z
-x,-y,-z
x,-y,1/2+z
1/2+x,1/2+y,z
1/2-x,1/2+y,1/2-z
1/2-x,1/2-y,-z
1/2+x,1/2-y,1/2+z
loop_
_atom_site_type_symbol
_atom_site_label
_atom_site_fract_x
_atom_site_fract_y
_atom_site_fract_z
Si Si1 0.243822 0.792101 0.680431
Si Si2 0.852820 0.547926 0.920227
Si Si3 0.899921 0.494246 0.099733
Si Si4 0.261371 0.746719 0.908034
Si Si5 0.879134 0.919044 0.287239
O O1 0.191567 0.707699 0.606046
O O2 0.352873 0.880103 0.655963
O O3 0.282621 0.673264 0.743920
O O4 0.151497 0.905869 0.713854
O O5 0.772872 0.419951 0.883669
O O6 0.971835 0.514992 0.883787
O O7 0.863846 0.541653 0.012925
O O8 0.849714 0.332532 0.122649
O O9 0.367401 0.648779 0.875896
O O10 0.250000 0.750000 0.000000
O O11 0.000000 0.896550 0.250000
#
# Coordination Sequence:
#
# PCOD8134729 Si02
#       5
#     8   8   8   8   8
#     4  11  23  37  57  84 117 153 197 244 292 354
#     4  10  19  36  61  86 116 153 192 241 297 351
#     4   9  20  37  59  87 116 151 194 240 295 354
#     4   9  19  38  61  85 116 153 196 244 293 351
#     4  11  24  40  59  87 120 159 201 246 302 357
#
# _framework density 21.434153999999999
#
# number of rings (size 3 to 8) (size 9 to 14) (size 15 to 20)
#    0.000    2.000    0.000    3.000    0.000    4.800 
#    0.000    1.000    0.000   21.600    0.000    0.000 
#    0.000    0.000    0.000    0.000    0.000    0.000 
#
# Total GULP energy -247815.518872 kJ/mol
# GULP energy per Si atom -12390.775944 kJ/mol
# Density = 2.138537 g / cm^3
# Si number density = 21.434154 Si / 1000 Ang^3
#
#
#
# Elastic Constant Matrix: (Units=GPa)
#
#
# Indices 1 2 3 4 5 6 
#
# 1 74.8448 31.1816 50.2761 0.0000 -22.6911 0.0000
# 2 31.1816 133.3222 38.0083 0.0000 0.7102 0.0000
# 3 50.2761 38.0083 62.4091 0.0000 -21.4636 0.0000
# 4 0.0000 0.0000 0.0000 33.3035 0.0000 -8.7751
# 5 -22.6911 0.7102 -21.4636 0.0000 34.9702 0.0000
# 6 0.0000 0.0000 0.0000 -8.7751 0.0000 27.2711
#
#
#
# Elastic Compliance Matrix: (Units=1/GPa)
#
#
# Indices 1 2 3 4 5 6 
#
# 1 0.030136 -0.000951 -0.021506 0.000000 0.006374 0.000000
# 2 -0.000951 0.009712 -0.006881 0.000000 -0.005038 0.000000
# 3 -0.021506 -0.006881 0.041560 0.000000 0.011694 0.000000
# 4 0.000000 0.000000 0.000000 0.032808 0.000000 0.010557
# 5 0.006374 -0.005038 0.011694 0.000000 0.040011 0.000000
# 6 0.000000 0.000000 0.000000 0.010557 0.000000 0.040066
#
#
# Mechanical properties :
#
#
# Convention : Reuss Voigt Hill
#
# Bulk Modulus (GPa) = 43.99017 56.61199 50.30108
# Shear Modulus (GPa) = 19.19045 29.18297 24.18671
#
# Velocity S-wave (km/s) = 2.99544 3.69388 3.36284
# Velocity P-wave (km/s) = 5.70364 6.68299 6.21264
#
# Compressibility (1/GPa) = 0.02273235
#
# Stress axis : x y z
#
# Youngs Moduli (GPa) = 33.18290 102.97035 24.06145
#
# Poissons Ratio (x) = 0.09795 0.51746
# Poissons Ratio (y) = 0.03156 0.16556
# Poissons Ratio (z) = 0.71362 0.70851
#
# Static dielectric constant tensor:
#      x y z
#    x 3.759100 0.000000 -0.348170 
#    y 0.000000 4.260410 0.000000 
#    z -0.348170 0.000000 3.918370 
# 
# 
# High freq. dielectric constant tensor:
#      x y z
#    x 1.823910 0.000000 -0.028340 
#    y 0.000000 1.855080 0.000000 
#    z -0.028340 0.000000 1.843150 
# 
# From -- ./inp_files/195076.got.cif
#   From: 2010.06.25/outbox.cif.g09.slc.cpg/sg15_98_cif.got.tgz:195076.got - 2010.06.28 07:06:18.
