data_PCOD8134037
_publ_section_title
;
Structure prediction by ZEFSAII (Michael W. Deem and Ramdas Pophale) SiO2 
 PCOD8134037
Probable space group: C 2/C
;
_chemical_formula_sum "Si O2"
_cell_formula_units_Z 64
_cell_length_a 21.326820
_cell_length_b 11.017929
_cell_length_c 13.585442
_cell_angle_alpha 90.000000
_cell_angle_beta 74.110031
_cell_angle_gamma 90.000000
_cell_volume 3070.292614
_symmetry_space_group_name_H-M "C 2/C"
_symmetry_group_IT_number 15
_symmetry_cell_setting 'monoclinic'
loop_
_space_group_symop_operation_xyz
x,y,z
-x,y,1/2-z
-x,-y,-z
x,-y,1/2+z
1/2+x,1/2+y,z
1/2-x,1/2+y,1/2-z
1/2-x,1/2-y,-z
1/2+x,1/2-y,1/2+z
loop_
_atom_site_type_symbol
_atom_site_label
_atom_site_fract_x
_atom_site_fract_y
_atom_site_fract_z
Si Si1 0.687651 0.641491 0.746085
Si Si2 0.955657 0.794083 0.683457
Si Si3 0.791037 0.456224 0.345229
Si Si4 0.457588 0.571377 0.677456
Si Si5 0.647963 0.897827 0.839397
Si Si6 0.954029 0.745241 0.009212
Si Si7 0.749854 0.506048 0.561535
Si Si8 0.149576 0.787285 0.619648
O O1 0.727911 0.559270 0.804868
O O2 0.617515 0.582798 0.761728
O O3 0.685587 0.778311 0.785185
O O4 0.724058 0.628355 0.625550
O O5 0.882148 0.788029 0.755833
O O6 0.000000 0.738785 0.750000
O O7 0.976846 0.715584 0.576598
O O8 0.976534 0.932073 0.650646
O O9 0.851667 0.510230 0.254783
O O10 0.769750 0.546138 0.442663
O O11 0.807740 0.333729 0.397208
O O12 0.500000 0.624001 0.750000
O O13 0.471775 0.643966 0.572311
O O14 0.575194 0.864505 0.910747
O O15 0.686052 0.955582 0.912863
O O16 0.901161 0.785029 0.949341
O O17 0.693449 0.404612 0.586170
#
# Coordination Sequence:
#
# PCOD8134037 Si02
#       8
#     8   8   8   8   8   8   8   8
#     4  10  21  36  57  85 120 150 186 233 282 350
#     4   9  19  33  56  89 117 146 192 238 277 338
#     4  11  22  35  60  85 114 154 189 236 283 345
#     4  10  19  35  53  86 121 153 182 230 288 343
#     4  10  21  37  56  84 117 151 191 229 287 350
#     4  10  20  36  61  80 115 152 193 235 288 334
#     4  11  19  35  57  85 119 148 186 233 294 335
#     4  11  19  36  59  89 113 146 192 238 287 339
#
# _framework density 20.844916999999999
#
# number of rings (size 3 to 8) (size 9 to 14) (size 15 to 20)
#    0.000    1.750    3.750    2.250    0.000    0.500 
#    2.250    0.625   11.000    9.000    0.000    0.000 
#    0.000    0.000    0.000    0.000    0.000    0.000 
#
# Total GULP energy -396459.251119 kJ/mol
# GULP energy per Si atom -12389.351597 kJ/mol
# Density = 2.079747 g / cm^3
# Si number density = 20.844917 Si / 1000 Ang^3
#
#
#
# Elastic Constant Matrix: (Units=GPa)
#
#
# Indices 1 2 3 4 5 6 
#
# 1 55.7482 -0.3303 41.0598 0.0000 -2.2901 0.0000
# 2 -0.3303 32.0134 18.3595 0.0000 0.4763 0.0000
# 3 41.0598 18.3595 143.1001 0.0000 -7.0539 0.0000
# 4 0.0000 0.0000 0.0000 22.8133 0.0000 -4.6616
# 5 -2.2901 0.4763 -7.0539 0.0000 30.2212 0.0000
# 6 0.0000 0.0000 0.0000 -4.6616 0.0000 18.9647
#
#
#
# Elastic Compliance Matrix: (Units=1/GPa)
#
#
# Indices 1 2 3 4 5 6 
#
# 1 0.023305 0.004399 -0.007251 0.000000 0.000004 0.000000
# 2 0.004399 0.034621 -0.005781 0.000000 -0.001562 0.000000
# 3 -0.007251 -0.005781 0.009902 0.000000 0.001853 0.000000
# 4 0.000000 0.000000 0.000000 0.046152 0.000000 0.011344
# 5 0.000004 -0.001562 0.001853 0.000000 0.033547 0.000000
# 6 0.000000 0.000000 0.000000 0.011344 0.000000 0.055518
#
#
# Mechanical properties :
#
#
# Convention : Reuss Voigt Hill
#
# Bulk Modulus (GPa) = 19.77815 38.78219 29.28017
# Shear Modulus (GPa) = 21.08248 25.85136 23.46692
#
# Velocity S-wave (km/s) = 3.18370 3.52543 3.35891
# Velocity P-wave (km/s) = 4.79827 5.93440 5.39632
#
# Compressibility (1/GPa) = 0.05056085
#
# Stress axis : x y z
#
# Youngs Moduli (GPa) = 42.91015 28.88431 100.99344
#
# Poissons Ratio (x) = -0.12705 0.73230
# Poissons Ratio (y) = -0.18875 0.58383
# Poissons Ratio (z) = 0.31114 0.16698
#
# Static dielectric constant tensor:
#      x y z
#    x 3.643710 0.000000 -0.209790 
#    y 0.000000 3.533130 0.000000 
#    z -0.209790 0.000000 4.238490 
# 
# 
# High freq. dielectric constant tensor:
#      x y z
#    x 1.797190 0.000000 -0.012280 
#    y 0.000000 1.782100 0.000000 
#    z -0.012280 0.000000 1.840100 
# 
# From -- ./inp_files/117572.got.cif
#   From: 2010.06.25/outbox.cif.g09.slc.cpg/sg15_59_cif.got.tgz:117572.got - 2010.06.28 07:06:18.
