data_PCOD8134350
_publ_section_title
;
Structure prediction by ZEFSAII (Michael W. Deem and Ramdas Pophale) SiO2 
 PCOD8134350
Probable space group: C 2/C
;
_chemical_formula_sum "Si O2"
_cell_formula_units_Z 60
_cell_length_a 28.208885
_cell_length_b 10.919115
_cell_length_c 8.892342
_cell_angle_alpha 90.000000
_cell_angle_beta 109.151995
_cell_angle_gamma 90.000000
_cell_volume 2587.385691
_symmetry_space_group_name_H-M "C 2/C"
_symmetry_group_IT_number 15
_symmetry_cell_setting 'monoclinic'
loop_
_space_group_symop_operation_xyz
x,y,z
-x,y,1/2-z
-x,-y,-z
x,-y,1/2+z
1/2+x,1/2+y,z
1/2-x,1/2+y,1/2-z
1/2-x,1/2-y,-z
1/2+x,1/2-y,1/2+z
loop_
_atom_site_type_symbol
_atom_site_label
_atom_site_fract_x
_atom_site_fract_y
_atom_site_fract_z
Si Si1 0.815468 0.786626 0.918165
Si Si2 0.391600 0.530170 0.633598
Si Si3 0.205164 0.656764 0.297438
Si Si4 0.500000 0.636309 0.750000
Si Si5 0.458168 0.828812 0.905020
Si Si6 0.140282 0.418579 0.202214
Si Si7 0.367131 0.335448 0.391571
Si Si8 0.070618 0.487775 0.377340
O O1 0.764551 0.862031 0.834326
O O2 0.829462 0.707041 0.786529
O O3 0.861079 0.877250 0.996845
O O4 0.807385 0.690054 0.044182
O O5 0.451269 0.552392 0.679963
O O6 0.380141 0.390356 0.569169
O O7 0.372655 0.548114 0.784196
O O8 0.178651 0.530805 0.228557
O O9 0.187282 0.771059 0.172550
O O10 0.496472 0.720822 0.898171
O O11 0.403105 0.772183 0.868359
O O12 0.458011 0.923937 0.766941
O O13 0.469567 0.898781 0.075270
O O14 0.113409 0.409738 0.336581
O O15 0.096922 0.429683 0.031673
#
# Coordination Sequence:
#
# PCOD8134350 Si02
#       8
#     8   8   8   4   8   8   8   8
#     4  10  22  38  59  90 126 167 214 257 322 386
#     4  10  23  40  65  89 126 171 210 265 315 380
#     4  10  20  37  61  88 125 171 203 262 325 381
#     4  10  22  42  66  94 124 168 222 264 332 368
#     4  10  21  38  64  90 127 162 209 272 312 385
#     4  11  18  36  60  88 121 170 203 255 320 386
#     4  10  20  41  61  91 126 164 212 265 317 377
#     4  10  19  35  61  88 119 164 204 249 327 368
#
# _framework density 23.189430000000002
#
# number of rings (size 3 to 8) (size 9 to 14) (size 15 to 20)
#    0.000    1.867    4.000    1.600    1.867    3.733 
#    0.000    0.667    0.000   10.400    0.000    0.000 
#    0.000    0.000    0.000    0.000    0.000    0.000 
#
# Total GULP energy -371866.089711 kJ/mol
# GULP energy per Si atom -12395.536324 kJ/mol
# Density = 2.313665 g / cm^3
# Si number density = 23.189430 Si / 1000 Ang^3
#
#
#
# Elastic Constant Matrix: (Units=GPa)
#
#
# Indices 1 2 3 4 5 6 
#
# 1 83.2897 11.7464 8.5399 0.0000 8.5626 0.0000
# 2 11.7464 50.4884 17.4478 0.0000 -0.6510 0.0000
# 3 8.5399 17.4478 61.3413 0.0000 -11.8833 0.0000
# 4 0.0000 0.0000 0.0000 39.6863 0.0000 -3.1943
# 5 8.5626 -0.6510 -11.8833 0.0000 24.9451 0.0000
# 6 0.0000 0.0000 0.0000 -3.1943 0.0000 18.2831
#
#
#
# Elastic Compliance Matrix: (Units=1/GPa)
#
#
# Indices 1 2 3 4 5 6 
#
# 1 0.013150 -0.002353 -0.002256 0.000000 -0.005650 0.000000
# 2 -0.002353 0.022546 -0.006406 0.000000 -0.001656 0.000000
# 3 -0.002256 -0.006406 0.020443 0.000000 0.010346 0.000000
# 4 0.000000 0.000000 0.000000 0.025557 0.000000 0.004465
# 5 -0.005650 -0.001656 0.010346 0.000000 0.046913 0.000000
# 6 0.000000 0.000000 0.000000 0.004465 0.000000 0.055475
#
#
# Mechanical properties :
#
#
# Convention : Reuss Voigt Hill
#
# Bulk Modulus (GPa) = 29.31757 30.06528 29.69143
# Shear Modulus (GPa) = 22.99015 27.07527 25.03271
#
# Velocity S-wave (km/s) = 3.15208 3.42068 3.28912
# Velocity P-wave (km/s) = 5.09093 5.34739 5.22074
#
# Compressibility (1/GPa) = 0.03410924
#
# Stress axis : x y z
#
# Youngs Moduli (GPa) = 76.04405 44.35290 48.91715
#
# Poissons Ratio (x) = 0.10435 0.11036
# Poissons Ratio (y) = 0.17891 0.31338
# Poissons Ratio (z) = 0.17157 0.28414
#
# Static dielectric constant tensor:
#      x y z
#    x 4.254650 0.000000 -0.196370 
#    y 0.000000 4.012320 0.000000 
#    z -0.196370 0.000000 4.193970 
# 
# 
# High freq. dielectric constant tensor:
#      x y z
#    x 1.917940 0.000000 -0.006270 
#    y 0.000000 1.907420 0.000000 
#    z -0.006270 0.000000 1.902500 
# 
# From -- ./inp_files/69406.got.cif
#   From: 2010.06.25/outbox.cif.g09.slc.cpg/sg15_35_cif.got.tgz:69406.got - 2010.06.28 07:06:18.
