data_PCOD8134669
_publ_section_title
;
Structure prediction by ZEFSAII (Michael W. Deem and Ramdas Pophale) SiO2 
 PCOD8134669
Probable space group: C 2/C
;
_chemical_formula_sum "Si O2"
_cell_formula_units_Z 56
_cell_length_a 24.360243
_cell_length_b 21.312004
_cell_length_c 18.049418
_cell_angle_alpha 90.000000
_cell_angle_beta 17.333958
_cell_angle_gamma 90.000000
_cell_volume 2791.893996
_symmetry_space_group_name_H-M "C 2/C"
_symmetry_group_IT_number 15
_symmetry_cell_setting 'monoclinic'
loop_
_space_group_symop_operation_xyz
x,y,z
-x,y,1/2-z
-x,-y,-z
x,-y,1/2+z
1/2+x,1/2+y,z
1/2-x,1/2+y,1/2-z
1/2-x,1/2-y,-z
1/2+x,1/2-y,1/2+z
loop_
_atom_site_type_symbol
_atom_site_label
_atom_site_fract_x
_atom_site_fract_y
_atom_site_fract_z
Si Si1 0.505983 0.482138 0.325372
Si Si2 0.455229 0.163789 0.669488
Si Si3 0.797343 0.244825 0.251433
Si Si4 0.184188 0.964778 0.237347
Si Si5 0.592909 0.373143 0.702996
Si Si6 0.892708 0.168651 0.603702
Si Si7 0.626966 0.960954 0.890737
O O1 0.500000 0.453739 0.250000
O O2 0.682039 0.461318 0.149832
O O3 0.514576 0.556821 0.310967
O O4 0.325820 0.455928 0.597402
O O5 0.616549 0.202611 0.502139
O O6 0.338528 0.208568 0.766022
O O7 0.543637 0.107670 0.507963
O O8 0.314639 0.133347 0.910536
O O9 0.770485 0.284537 0.210340
O O10 0.973821 0.200176 0.007132
O O11 0.195547 0.895114 0.254943
O O12 0.354850 0.003920 0.052331
O O13 0.000000 0.000000 0.500000
O O14 0.500000 0.342748 0.750000
O O15 0.528073 0.336504 0.858474
O O16 0.500000 0.000000 0.000000
#
# Coordination Sequence:
#
# PCOD8134669 Si02
#       7
#     8   8   8   8   8   8   8
#     4  10  21  37  58  86 113 149 190 245 304 351
#     4  11  23  36  55  83 119 160 197 235 279 341
#     4  10  23  36  52  81 117 162 205 226 273 339
#     4  10  19  36  60  80 109 153 199 239 300 347
#     4  11  20  34  55  80 122 159 192 232 284 334
#     4  11  20  37  54  80 116 157 198 237 280 345
#     4  11  20  36  60  87 113 152 197 248 298 342
#
# _framework density 20.058067999999999
#
# number of rings (size 3 to 8) (size 9 to 14) (size 15 to 20)
#    0.000    1.429    4.286    4.286    0.000    4.000 
#    0.000    2.143    0.000    0.000    0.000   16.000 
#    0.000    0.000    0.000    0.000    0.000    0.000 
#
# Total GULP energy -347005.237203 kJ/mol
# GULP energy per Si atom -12393.044186 kJ/mol
# Density = 2.001242 g / cm^3
# Si number density = 20.058068 Si / 1000 Ang^3
#
#
#
# Elastic Constant Matrix: (Units=GPa)
#
#
# Indices 1 2 3 4 5 6 
#
# 1 139.9951 31.3487 28.8004 -0.0009 -16.4864 -0.0037
# 2 31.3487 110.6410 34.7473 -0.0230 -5.5905 0.0176
# 3 28.8004 34.7473 48.7827 -0.0410 -11.2460 0.0823
# 4 -0.0009 -0.0230 -0.0410 25.7263 0.0118 -9.9615
# 5 -16.4864 -5.5905 -11.2460 0.0118 29.5806 -0.0185
# 6 -0.0037 0.0176 0.0823 -9.9615 -0.0185 24.0271
#
#
#
# Elastic Compliance Matrix: (Units=1/GPa)
#
#
# Indices 1 2 3 4 5 6 
#
# 1 0.008489 -0.001161 -0.003447 -0.000002 0.003201 0.000016
# 2 -0.001161 0.011831 -0.008084 0.000006 -0.001484 0.000020
# 3 -0.003447 -0.008084 0.030139 0.000002 0.008009 -0.000091
# 4 -0.000002 0.000006 0.000002 0.046304 -0.000006 0.019197
# 5 0.003201 -0.001484 0.008009 -0.000006 0.038355 0.000001
# 6 0.000016 0.000020 -0.000091 0.019197 0.000001 0.049579
#
#
# Mechanical properties :
#
#
# Convention : Reuss Voigt Hill
#
# Bulk Modulus (GPa) = 39.87986 54.35685 47.11836
# Shear Modulus (GPa) = 22.88975 29.50164 26.19569
#
# Velocity S-wave (km/s) = 3.38179 3.83928 3.61777
# Velocity P-wave (km/s) = 5.93077 6.84193 6.40258
#
# Compressibility (1/GPa) = 0.02507531
#
# Stress axis : x y z
#
# Youngs Moduli (GPa) = 117.79642 84.52408 33.18007
#
# Poissons Ratio (x) = 0.09814 0.11437
# Poissons Ratio (y) = 0.13677 0.26822
# Poissons Ratio (z) = 0.40603 0.68328
#
# Static dielectric constant tensor:
#      x y z
#    x 4.050180 0.030760 0.157290 
#    y 0.030760 5.721150 -0.049110 
#    z 0.157290 -0.049110 2.509100 
# 
# 
# High freq. dielectric constant tensor:
#      x y z
#    x 1.790880 -0.000010 -0.038200 
#    y -0.000010 1.786290 0.000020 
#    z -0.038200 0.000020 1.743050 
# 
# From -- ./inp_files/220154.got.cif
#   From: 2010.06.25/outbox.cif.g09.slc.cpg/sg15_111_cif.got.tgz:220154.got - 2010.06.28 07:06:18.
