data_PCOD8134039
_publ_section_title
;
Structure prediction by ZEFSAII (Michael W. Deem and Ramdas Pophale) SiO2 
 PCOD8134039
Probable space group: C 2/C
;
_chemical_formula_sum "Si O2"
_cell_formula_units_Z 48
_cell_length_a 10.988732
_cell_length_b 7.398341
_cell_length_c 25.668199
_cell_angle_alpha 90.000000
_cell_angle_beta 111.134714
_cell_angle_gamma 90.000000
_cell_volume 1946.416217
_symmetry_space_group_name_H-M "C 2/C"
_symmetry_group_IT_number 15
_symmetry_cell_setting 'monoclinic'
loop_
_space_group_symop_operation_xyz
x,y,z
-x,y,1/2-z
-x,-y,-z
x,-y,1/2+z
1/2+x,1/2+y,z
1/2-x,1/2+y,1/2-z
1/2-x,1/2-y,-z
1/2+x,1/2-y,1/2+z
loop_
_atom_site_type_symbol
_atom_site_label
_atom_site_fract_x
_atom_site_fract_y
_atom_site_fract_z
Si Si1 0.053251 0.751869 0.524597
Si Si2 0.954822 0.951920 0.075513
Si Si3 0.116743 0.615708 0.731897
Si Si4 0.289507 0.816761 0.828678
Si Si5 0.312542 0.897701 0.941099
Si Si6 0.985589 0.015578 0.191925
O O1 0.150148 0.607225 0.564517
O O2 0.064344 0.932274 0.561333
O O3 0.903681 0.676586 0.501438
O O4 0.093723 0.791847 0.470020
O O5 0.838868 0.098359 0.066995
O O6 0.007345 0.891005 0.142684
O O7 0.251860 0.643352 0.786619
O O8 0.129639 0.466511 0.689947
O O9 0.000000 0.546434 0.750000
O O10 0.084627 0.814394 0.704106
O O11 0.353024 0.774686 0.895504
O O12 0.159854 0.911343 0.831008
O O13 0.000000 0.909586 0.250000
#
# Coordination Sequence:
#
# PCOD8134039 Si02
#       6
#     8   8   8   8   8   8
#     4  10  21  33  53  77 101 135 173 209 251 299
#     4  10  19  35  54  75 102 135 171 209 251 300
#     4   9  18  34  51  74 101 132 170 208 250 302
#     4   9  18  33  54  73 102 137 167 209 256 299
#     4  10  20  35  51  75 105 132 167 213 256 297
#     4   8  17  32  53  74 100 132 164 205 252 297
#
# _framework density 24.660708
#
# number of rings (size 3 to 8) (size 9 to 14) (size 15 to 20)
#    0.000    3.000    0.000    2.000    0.000    2.667 
#    0.000    6.667    0.000    0.000    0.000    0.000 
#    0.000    0.000    0.000    0.000    0.000    0.000 
#
# Total GULP energy -297332.120342 kJ/mol
# GULP energy per Si atom -12388.838348 kJ/mol
# Density = 2.460458 g / cm^3
# Si number density = 24.660708 Si / 1000 Ang^3
#
#
#
# Elastic Constant Matrix: (Units=GPa)
#
#
# Indices 1 2 3 4 5 6 
#
# 1 17.1133 -2.2211 23.9893 0.0000 -2.6092 0.0000
# 2 -2.2211 54.9883 24.5445 0.0000 -14.8432 0.0000
# 3 23.9893 24.5445 150.3510 0.0000 -17.7307 0.0000
# 4 0.0000 0.0000 0.0000 46.1643 0.0000 -7.5552
# 5 -2.6092 -14.8432 -17.7307 0.0000 23.1892 0.0000
# 6 0.0000 0.0000 0.0000 -7.5552 0.0000 15.0725
#
#
#
# Elastic Compliance Matrix: (Units=1/GPa)
#
#
# Indices 1 2 3 4 5 6 
#
# 1 0.080220 0.010909 -0.013950 0.000000 0.005342 0.000000
# 2 0.010909 0.024101 -0.004079 0.000000 0.013535 0.000000
# 3 -0.013950 -0.004079 0.009947 0.000000 0.003425 0.000000
# 4 0.000000 0.000000 0.000000 0.023598 0.000000 0.011828
# 5 0.005342 0.013535 0.003425 0.000000 0.055007 0.000000
# 6 0.000000 0.000000 0.000000 0.011828 0.000000 0.072275
#
#
# Mechanical properties :
#
#
# Convention : Reuss Voigt Hill
#
# Bulk Modulus (GPa) = 9.99725 35.00868 22.50296
# Shear Modulus (GPa) = 15.98822 28.62786 22.30804
#
# Velocity S-wave (km/s) = 2.54899 3.41085 3.01092
# Velocity P-wave (km/s) = 3.56733 5.45333 4.60786
#
# Compressibility (1/GPa) = 0.10002750
#
# Stress axis : x y z
#
# Youngs Moduli (GPa) = 12.46566 41.49285 100.53558
#
# Poissons Ratio (x) = -0.45265 1.40252
# Poissons Ratio (y) = -0.13599 0.41006
# Poissons Ratio (z) = 0.17390 0.16924
#
# Static dielectric constant tensor:
#      x y z
#    x 4.446910 0.000000 0.097590 
#    y 0.000000 3.872650 0.000000 
#    z 0.097590 0.000000 4.959650 
# 
# 
# High freq. dielectric constant tensor:
#      x y z
#    x 1.988050 0.000000 0.000140 
#    y 0.000000 1.948060 0.000000 
#    z 0.000140 0.000000 1.998610 
# 
# From -- ./inp_files/267814.got.cif
#   From: 2010.06.25/outbox.cif.g09.slc.cpg/sg15_134_cif.got.tgz:267814.got - 2010.06.28 07:06:18.
