data_PCOD8134737
_publ_section_title
;
Structure prediction by ZEFSAII (Michael W. Deem and Ramdas Pophale) SiO2 
 PCOD8134737
Probable space group: C 2/C
;
_chemical_formula_sum "Si O2"
_cell_formula_units_Z 52
_cell_length_a 10.989407
_cell_length_b 15.390050
_cell_length_c 18.682463
_cell_angle_alpha 90.000000
_cell_angle_beta 130.280491
_cell_angle_gamma 90.000000
_cell_volume 2410.513103
_symmetry_space_group_name_H-M "C 2/C"
_symmetry_group_IT_number 15
_symmetry_cell_setting 'monoclinic'
loop_
_space_group_symop_operation_xyz
x,y,z
-x,y,1/2-z
-x,-y,-z
x,-y,1/2+z
1/2+x,1/2+y,z
1/2-x,1/2+y,1/2-z
1/2-x,1/2-y,-z
1/2+x,1/2-y,1/2+z
loop_
_atom_site_type_symbol
_atom_site_label
_atom_site_fract_x
_atom_site_fract_y
_atom_site_fract_z
Si Si1 0.790682 0.243567 0.415482
Si Si2 0.130593 0.934164 0.918713
Si Si3 0.500000 0.838758 0.250000
Si Si4 0.848191 0.810738 0.779058
Si Si5 0.631453 0.815653 0.565564
Si Si6 0.602210 0.372302 0.421530
Si Si7 0.681141 0.623382 0.587365
O O1 0.784152 0.204392 0.334256
O O2 0.631606 0.300419 0.370601
O O3 0.797846 0.160068 0.470904
O O4 0.939307 0.310034 0.488155
O O5 0.296321 0.887869 0.960080
O O6 0.977710 0.888976 0.823605
O O7 0.149932 0.035035 0.906312
O O8 0.105090 0.933104 0.995168
O O9 0.565811 0.777834 0.211618
O O10 0.637741 0.904979 0.327999
O O11 0.698299 0.834831 0.671306
O O12 0.695123 0.722209 0.563846
O O13 0.418237 0.378999 0.376504
#
# Coordination Sequence:
#
# PCOD8134737 Si02
#       7
#     8   8   4   8   8   8   8
#     4  10  22  43  60  85 124 174 199 241 303 378
#     4  12  19  36  64  90 115 157 203 263 297 348
#     4  10  20  36  60  96 108 152 208 252 294 362
#     4  11  19  35  65  88 119 155 207 255 299 353
#     4  10  20  36  61  93 117 158 208 256 299 359
#     4  10  23  38  61  86 124 163 203 236 315 367
#     4  10  19  36  61  87 117 156 198 245 300 362
#
# _framework density 21.57217
#
# number of rings (size 3 to 8) (size 9 to 14) (size 15 to 20)
#    0.000    1.538    6.154    1.846    0.000    0.615 
#    0.000   23.077    0.000    0.000    0.000    0.000 
#    0.000    0.000    0.000    0.000    0.000    0.000 
#
# Total GULP energy -322213.287048 kJ/mol
# GULP energy per Si atom -12392.818733 kJ/mol
# Density = 2.152307 g / cm^3
# Si number density = 21.572170 Si / 1000 Ang^3
#
#
#
# Elastic Constant Matrix: (Units=GPa)
#
#
# Indices 1 2 3 4 5 6 
#
# 1 76.6292 8.8650 16.4361 0.0000 -8.3746 0.0000
# 2 8.8650 78.0879 6.4123 0.0000 -6.2778 0.0000
# 3 16.4361 6.4123 67.8282 0.0000 3.0452 0.0000
# 4 0.0000 0.0000 0.0000 11.2073 0.0000 -2.9924
# 5 -8.3746 -6.2778 3.0452 0.0000 33.0807 0.0000
# 6 0.0000 0.0000 0.0000 -2.9924 0.0000 26.6900
#
#
#
# Elastic Compliance Matrix: (Units=1/GPa)
#
#
# Indices 1 2 3 4 5 6 
#
# 1 0.014341 -0.001035 -0.003546 0.000000 0.003761 0.000000
# 2 -0.001035 0.013203 -0.001103 0.000000 0.002345 0.000000
# 3 -0.003546 -0.001103 0.015822 0.000000 -0.002563 0.000000
# 4 0.000000 0.000000 0.000000 0.091981 0.000000 0.010313
# 5 0.003761 0.002345 -0.002563 0.000000 0.031862 0.000000
# 6 0.000000 0.000000 0.000000 0.010313 0.000000 0.038623
#
#
# Mechanical properties :
#
#
# Convention : Reuss Voigt Hill
#
# Bulk Modulus (GPa) = 31.25134 31.77466 31.51300
# Shear Modulus (GPa) = 21.94277 26.91773 24.43025
#
# Velocity S-wave (km/s) = 3.19279 3.53625 3.36890
# Velocity P-wave (km/s) = 5.30190 5.60668 5.45642
#
# Compressibility (1/GPa) = 0.03199862
#
# Stress axis : x y z
#
# Youngs Moduli (GPa) = 69.72949 75.74256 63.20408
#
# Poissons Ratio (x) = 0.07836 0.22413
# Poissons Ratio (y) = 0.07214 0.06970
# Poissons Ratio (z) = 0.24727 0.08352
#
# Static dielectric constant tensor:
#      x y z
#    x 3.990330 0.000000 0.104110 
#    y 0.000000 3.636160 0.000000 
#    z 0.104110 0.000000 4.023350 
# 
# 
# High freq. dielectric constant tensor:
#      x y z
#    x 1.850920 0.000000 -0.004740 
#    y 0.000000 1.813800 0.000000 
#    z -0.004740 0.000000 1.832170 
# 
# From -- ./inp_files/238846.got.cif
#   From: 2010.06.25/outbox.cif.g09.slc.cpg/sg15_120_cif.got.tgz:238846.got - 2010.06.28 07:06:18.
