data_PCOD8134699
_publ_section_title
;
Structure prediction by ZEFSAII (Michael W. Deem and Ramdas Pophale) SiO2 
 PCOD8134699
Probable space group: C 2/C
;
_chemical_formula_sum "Si O2"
_cell_formula_units_Z 48
_cell_length_a 6.285323
_cell_length_b 22.014948
_cell_length_c 16.632914
_cell_angle_alpha 90.000000
_cell_angle_beta 106.809726
_cell_angle_gamma 90.000000
_cell_volume 2203.171202
_symmetry_space_group_name_H-M "C 2/C"
_symmetry_group_IT_number 15
_symmetry_cell_setting 'monoclinic'
loop_
_space_group_symop_operation_xyz
x,y,z
-x,y,1/2-z
-x,-y,-z
x,-y,1/2+z
1/2+x,1/2+y,z
1/2-x,1/2+y,1/2-z
1/2-x,1/2-y,-z
1/2+x,1/2-y,1/2+z
loop_
_atom_site_type_symbol
_atom_site_label
_atom_site_fract_x
_atom_site_fract_y
_atom_site_fract_z
Si Si1 0.681817 0.981923 0.334924
Si Si2 0.588084 0.121965 0.613256
Si Si3 0.964434 0.559307 0.046583
Si Si4 0.500000 0.801746 0.750000
Si Si5 0.444350 0.750303 0.335307
Si Si6 0.815510 0.133265 0.167203
Si Si7 0.500000 0.427037 0.250000
O O1 0.500000 0.000673 0.250000
O O2 0.606062 0.922155 0.375859
O O3 0.912991 0.969240 0.314118
O O4 0.697604 0.040617 0.396475
O O5 0.646204 0.108521 0.525728
O O6 0.496256 0.190972 0.605060
O O7 0.803417 0.114969 0.693938
O O8 0.212686 0.580779 0.100468
O O9 0.000000 0.500000 0.000000
O O10 0.318361 0.760648 0.685060
O O11 0.394633 0.843234 0.806588
O O12 0.500000 0.766558 0.250000
O O13 0.580204 0.689014 0.374113
O O14 0.000000 0.107423 0.250000
#
# Coordination Sequence:
#
# PCOD8134699 Si02
#       7
#     8   8   8   4   8   8   4
#     4   9  20  38  58  86 117 164 210 254 304 364
#     4  10  20  36  60  91 130 154 204 256 312 366
#     4  10  22  41  58  89 129 156 201 268 299 358
#     4   8  17  34  58  88 118 152 208 245 288 362
#     4   9  17  33  60  90 117 163 203 249 301 367
#     4   9  20  39  62  87 114 164 207 245 307 366
#     4  10  19  36  60  88 118 172 208 243 320 372
#
# _framework density 21.786778000000002
#
# number of rings (size 3 to 8) (size 9 to 14) (size 15 to 20)
#    0.000    3.000    0.000    2.000    1.167    2.667 
#   13.500    7.500    0.000    0.000    0.000    0.000 
#    0.000    0.000    0.000    0.000    0.000    0.000 
#
# Total GULP energy -297393.515419 kJ/mol
# GULP energy per Si atom -12391.396476 kJ/mol
# Density = 2.173719 g / cm^3
# Si number density = 21.786778 Si / 1000 Ang^3
#
#
#
# Elastic Constant Matrix: (Units=GPa)
#
#
# Indices 1 2 3 4 5 6 
#
# 1 114.4674 39.8177 27.8170 0.0000 -4.9301 0.0000
# 2 39.8177 122.8321 58.7834 0.0000 2.9584 0.0000
# 3 27.8170 58.7834 96.7538 0.0000 -0.4365 0.0000
# 4 0.0000 0.0000 0.0000 36.2889 0.0000 7.2939
# 5 -4.9301 2.9584 -0.4365 0.0000 26.5570 0.0000
# 6 0.0000 0.0000 0.0000 7.2939 0.0000 19.4958
#
#
#
# Elastic Compliance Matrix: (Units=1/GPa)
#
#
# Indices 1 2 3 4 5 6 
#
# 1 0.010077 -0.002731 -0.001228 0.000000 0.002155 0.000000
# 2 -0.002731 0.012270 -0.006679 0.000000 -0.001984 0.000000
# 3 -0.001228 -0.006679 0.014750 0.000000 0.000758 0.000000
# 4 0.000000 0.000000 0.000000 0.029797 0.000000 -0.011148
# 5 0.002155 -0.001984 0.000758 0.000000 0.038288 0.000000
# 6 0.000000 0.000000 0.000000 -0.011148 0.000000 0.055464
#
#
# Mechanical properties :
#
#
# Convention : Reuss Voigt Hill
#
# Bulk Modulus (GPa) = 63.20469 65.20994 64.20732
# Shear Modulus (GPa) = 26.70984 30.31070 28.51027
#
# Velocity S-wave (km/s) = 3.50518 3.73398 3.62139
# Velocity P-wave (km/s) = 6.74205 6.97037 6.85716
#
# Compressibility (1/GPa) = 0.01582161
#
# Stress axis : x y z
#
# Youngs Moduli (GPa) = 99.23267 81.49673 67.79706
#
# Poissons Ratio (x) = 0.22254 0.08329
# Poissons Ratio (y) = 0.27097 0.45281
# Poissons Ratio (z) = 0.12191 0.54430
#
# Static dielectric constant tensor:
#      x y z
#    x 4.016610 0.000000 -0.145890 
#    y 0.000000 4.010920 0.000000 
#    z -0.145890 0.000000 4.364570 
# 
# 
# High freq. dielectric constant tensor:
#      x y z
#    x 1.844080 0.000000 -0.007600 
#    y 0.000000 1.855390 0.000000 
#    z -0.007600 0.000000 1.836780 
# 
# From -- ./inp_files/185325.got.cif
#   From: 2010.06.25/outbox.cif.g09.slc.cpg/sg15_93_cif.got.tgz:185325.got - 2010.06.28 07:06:18.
