data_PCOD8134865
_publ_section_title
;
Structure prediction by ZEFSAII (Michael W. Deem and Ramdas Pophale) SiO2 
 PCOD8134865
Probable space group: C 2/C
;
_chemical_formula_sum "Si O2"
_cell_formula_units_Z 56
_cell_length_a 9.408554
_cell_length_b 22.908161
_cell_length_c 15.245319
_cell_angle_alpha 90.000000
_cell_angle_beta 61.102975
_cell_angle_gamma 90.000000
_cell_volume 2876.740091
_symmetry_space_group_name_H-M "C 2/C"
_symmetry_group_IT_number 15
_symmetry_cell_setting 'monoclinic'
loop_
_space_group_symop_operation_xyz
x,y,z
-x,y,1/2-z
-x,-y,-z
x,-y,1/2+z
1/2+x,1/2+y,z
1/2-x,1/2+y,1/2-z
1/2-x,1/2-y,-z
1/2+x,1/2-y,1/2+z
loop_
_atom_site_type_symbol
_atom_site_label
_atom_site_fract_x
_atom_site_fract_y
_atom_site_fract_z
Si Si1 0.234769 0.354667 0.564103
Si Si2 0.500000 0.925715 0.750000
Si Si3 0.500000 0.477701 0.250000
Si Si4 0.668541 0.973153 0.866149
Si Si5 0.047237 0.594591 0.960580
Si Si6 0.016120 0.126225 0.875707
Si Si7 0.844593 0.762421 0.338826
Si Si8 0.861026 0.669114 0.725998
O O1 0.143770 0.365177 0.499417
O O2 0.424001 0.376303 0.497810
O O3 0.234059 0.284312 0.572120
O O4 0.150821 0.386387 0.671414
O O5 0.559651 0.966758 0.811145
O O6 0.644801 0.524025 0.215535
O O7 0.510604 0.435838 0.162508
O O8 0.635431 0.032933 0.926804
O O9 0.630945 0.919203 0.944446
O O10 0.045713 0.624076 0.865910
O O11 0.208702 0.139306 0.823044
O O12 0.914498 0.176924 0.856226
O O13 0.706591 0.776089 0.307756
O O14 0.000000 0.729686 0.250000
O O15 0.000000 0.691671 0.750000
#
# Coordination Sequence:
#
# PCOD8134865 Si02
#       8
#     8   4   4   8   8   8   8   8
#     4  11  19  38  64  90 116 152 206 245 284 359
#     4  10  24  37  58  90 120 155 194 248 302 352
#     4  12  18  39  58  84 120 155 200 252 284 344
#     4  10  21  37  58  84 118 157 200 245 295 338
#     4  10  20  36  61  85 116 158 200 239 293 351
#     4  11  19  35  61  90 113 153 205 242 283 354
#     4  10  19  36  65  91 114 154 198 246 294 351
#     4  11  22  38  58  91 123 153 195 247 304 355
#
# _framework density 19.466479
#
# number of rings (size 3 to 8) (size 9 to 14) (size 15 to 20)
#    0.000    1.429    7.143    0.429    1.000    0.000 
#    2.571    1.429    1.571    0.000    0.000    0.000 
#    0.000    0.000    0.000    0.000    0.000    0.000 
#
# Total GULP energy -346900.261713 kJ/mol
# GULP energy per Si atom -12389.295061 kJ/mol
# Density = 1.942217 g / cm^3
# Si number density = 19.466479 Si / 1000 Ang^3
#
#
#
# Elastic Constant Matrix: (Units=GPa)
#
#
# Indices 1 2 3 4 5 6 
#
# 1 113.7127 48.3556 47.0745 0.0000 -13.0142 0.0000
# 2 48.3556 73.7597 47.9722 0.0000 -11.7279 0.0000
# 3 47.0745 47.9722 135.7831 0.0000 -25.6795 0.0000
# 4 0.0000 0.0000 0.0000 36.6029 0.0000 2.9069
# 5 -13.0142 -11.7279 -25.6795 0.0000 25.1421 0.0000
# 6 0.0000 0.0000 0.0000 2.9069 0.0000 17.5035
#
#
#
# Elastic Compliance Matrix: (Units=1/GPa)
#
#
# Indices 1 2 3 4 5 6 
#
# 1 0.012605 -0.006962 -0.001600 0.000000 0.001643 0.000000
# 2 -0.006962 0.021556 -0.004935 0.000000 0.001411 0.000000
# 3 -0.001600 -0.004935 0.011243 0.000000 0.008353 0.000000
# 4 0.000000 0.000000 0.000000 0.027685 0.000000 -0.004598
# 5 0.001643 0.001411 0.008353 0.000000 0.049814 0.000000
# 6 0.000000 0.000000 0.000000 -0.004598 0.000000 0.057895
#
#
# Mechanical properties :
#
#
# Convention : Reuss Voigt Hill
#
# Bulk Modulus (GPa) = 54.31897 67.78445 61.05171
# Shear Modulus (GPa) = 23.37239 27.83989 25.60614
#
# Velocity S-wave (km/s) = 3.46880 3.78583 3.63077
# Velocity P-wave (km/s) = 6.63384 7.34893 7.00052
#
# Compressibility (1/GPa) = 0.01840978
#
# Stress axis : x y z
#
# Youngs Moduli (GPa) = 79.33444 46.39126 88.94800
#
# Poissons Ratio (x) = 0.32297 0.14227
# Poissons Ratio (y) = 0.55232 0.43898
# Poissons Ratio (z) = 0.12690 0.22895
#
# Static dielectric constant tensor:
#      x y z
#    x 3.293770 0.000000 -0.500660 
#    y 0.000000 3.393130 0.000000 
#    z -0.500660 0.000000 4.480770 
# 
# 
# High freq. dielectric constant tensor:
#      x y z
#    x 1.716820 0.000000 -0.020790 
#    y 0.000000 1.745280 0.000000 
#    z -0.020790 0.000000 1.784630 
# 
# From -- ./inp_files/192911.got.cif
#   From: 2010.06.25/outbox.cif.g09.slc.cpg/sg15_97_cif.got.tgz:192911.got - 2010.06.28 07:06:18.
