data_PCOD8134932
_publ_section_title
;
Structure prediction by ZEFSAII (Michael W. Deem and Ramdas Pophale) SiO2 
 PCOD8134932
Probable space group: C 2/C
;
_chemical_formula_sum "Si O2"
_cell_formula_units_Z 44
_cell_length_a 27.793702
_cell_length_b 10.810376
_cell_length_c 14.217375
_cell_angle_alpha 90.000000
_cell_angle_beta 34.259403
_cell_angle_gamma 90.000000
_cell_volume 2404.745756
_symmetry_space_group_name_H-M "C 2/C"
_symmetry_group_IT_number 15
_symmetry_cell_setting 'monoclinic'
loop_
_space_group_symop_operation_xyz
x,y,z
-x,y,1/2-z
-x,-y,-z
x,-y,1/2+z
1/2+x,1/2+y,z
1/2-x,1/2+y,1/2-z
1/2-x,1/2-y,-z
1/2+x,1/2-y,1/2+z
loop_
_atom_site_type_symbol
_atom_site_label
_atom_site_fract_x
_atom_site_fract_y
_atom_site_fract_z
Si Si1 0.500000 0.279731 0.750000
Si Si2 0.157372 0.613452 0.447156
Si Si3 0.781592 0.586750 0.527661
Si Si4 0.295866 0.661501 0.353857
Si Si5 0.146904 0.292738 0.766157
Si Si6 0.512291 0.365893 0.936021
O O1 0.582388 0.191949 0.616783
O O2 0.502065 0.367732 0.838857
O O3 0.158615 0.472719 0.486576
O O4 0.248036 0.677213 0.330302
O O5 0.147867 0.609759 0.350418
O O6 0.718228 0.480838 0.588513
O O7 0.843630 0.633783 0.345555
O O8 0.724182 0.697628 0.660167
O O9 0.250000 0.750000 0.500000
O O10 0.395889 0.689489 0.183571
O O11 0.056761 0.224229 0.906503
O O12 0.500000 0.500000 0.000000
#
# Coordination Sequence:
#
# PCOD8134932 Si02
#       6
#     4   8   8   8   8   8
#     4  10  20  36  60  78 118 150 194 232 286 348
#     4   9  20  36  55  83 112 157 188 229 293 348
#     4   9  20  38  55  87 118 148 194 241 286 345
#     4  10  19  37  57  82 121 146 192 238 284 343
#     4  10  20  37  63  82 118 156 190 243 293 338
#     4  11  19  37  58  88 111 151 195 236 286 342
#
# _framework density 18.297153000000002
#
# number of rings (size 3 to 8) (size 9 to 14) (size 15 to 20)
#    1.091    1.091    3.636    0.000    0.000    1.455 
#    3.273   10.000    0.000    0.000    0.000    0.000 
#    0.000    0.000    0.000    0.000    0.000    0.000 
#
# Total GULP energy -272619.318806 kJ/mol
# GULP energy per Si atom -12391.787218 kJ/mol
# Density = 1.825551 g / cm^3
# Si number density = 18.297153 Si / 1000 Ang^3
#
#
#
# Elastic Constant Matrix: (Units=GPa)
#
#
# Indices 1 2 3 4 5 6 
#
# 1 87.6912 45.2655 64.0861 0.0000 -13.2821 0.0000
# 2 45.2655 89.4931 48.4206 0.0000 11.0229 0.0000
# 3 64.0861 48.4206 135.5648 0.0000 -3.6471 0.0000
# 4 0.0000 0.0000 0.0000 26.1909 0.0000 3.2901
# 5 -13.2821 11.0229 -3.6471 0.0000 29.0826 0.0000
# 6 0.0000 0.0000 0.0000 3.2901 0.0000 39.3389
#
#
#
# Elastic Compliance Matrix: (Units=1/GPa)
#
#
# Indices 1 2 3 4 5 6 
#
# 1 0.024002 -0.009783 -0.007483 0.000000 0.013731 0.000000
# 2 -0.009783 0.018922 -0.002455 0.000000 -0.011948 0.000000
# 3 -0.007483 -0.002455 0.011764 0.000000 -0.001012 0.000000
# 4 0.000000 0.000000 0.000000 0.038587 0.000000 -0.003227
# 5 0.013731 -0.011948 -0.001012 0.000000 0.045057 0.000000
# 6 0.000000 0.000000 0.000000 -0.003227 0.000000 0.025690
#
#
# Mechanical properties :
#
#
# Convention : Reuss Voigt Hill
#
# Bulk Modulus (GPa) = 65.59186 69.81039 67.70113
# Shear Modulus (GPa) = 23.97555 29.25429 26.61492
#
# Velocity S-wave (km/s) = 3.62379 4.00289 3.81805
# Velocity P-wave (km/s) = 7.30993 7.72015 7.51784
#
# Compressibility (1/GPa) = 0.01524579
#
# Stress axis : x y z
#
# Youngs Moduli (GPa) = 41.66351 52.84785 85.00684
#
# Poissons Ratio (x) = 0.51700 0.63610
# Poissons Ratio (y) = 0.40758 0.20872
# Poissons Ratio (z) = 0.31176 0.12976
#
# Static dielectric constant tensor:
#      x y z
#    x 3.350500 0.000000 -0.170160 
#    y 0.000000 3.242960 0.000000 
#    z -0.170160 0.000000 3.539150 
# 
# 
# High freq. dielectric constant tensor:
#      x y z
#    x 1.698210 0.000000 -0.005370 
#    y 0.000000 1.697360 0.000000 
#    z -0.005370 0.000000 1.716540 
# 
# From -- ./inp_files/181501.got.cif
#   From: 2010.06.25/outbox.cif.g09.slc.cpg/sg15_91_cif.got.tgz:181501.got - 2010.06.28 07:06:18.
