data_PCOD8134135
_publ_section_title
;
Structure prediction by ZEFSAII (Michael W. Deem and Ramdas Pophale) SiO2 
 PCOD8134135
Probable space group: C 2/C
;
_chemical_formula_sum "Si O2"
_cell_formula_units_Z 56
_cell_length_a 9.754546
_cell_length_b 30.794016
_cell_length_c 19.630296
_cell_angle_alpha 90.000000
_cell_angle_beta 31.293575
_cell_angle_gamma 90.000000
_cell_volume 3062.821314
_symmetry_space_group_name_H-M "C 2/C"
_symmetry_group_IT_number 15
_symmetry_cell_setting 'monoclinic'
loop_
_space_group_symop_operation_xyz
x,y,z
-x,y,1/2-z
-x,-y,-z
x,-y,1/2+z
1/2+x,1/2+y,z
1/2-x,1/2+y,1/2-z
1/2-x,1/2-y,-z
1/2+x,1/2-y,1/2+z
loop_
_atom_site_type_symbol
_atom_site_label
_atom_site_fract_x
_atom_site_fract_y
_atom_site_fract_z
Si Si1 0.805926 0.462751 0.923835
Si Si2 0.474931 0.869535 0.841022
Si Si3 0.958680 0.740166 0.693684
Si Si4 0.593276 0.810036 0.012775
Si Si5 0.524266 0.611577 0.160641
Si Si6 0.932793 0.289680 0.936027
Si Si7 0.114542 0.974662 0.852724
O O1 0.833544 0.412202 0.931711
O O2 0.684837 0.464813 0.900407
O O3 0.101692 0.484213 0.804264
O O4 0.595648 0.485729 0.063863
O O5 0.500000 0.873420 0.750000
O O6 0.764219 0.862708 0.749447
O O7 0.323168 0.826894 0.931012
O O8 0.721526 0.774074 0.793113
O O9 0.000000 0.717541 0.750000
O O10 0.205963 0.770666 0.575993
O O11 0.925121 0.701212 0.652502
O O12 0.413063 0.807997 0.021546
O O13 0.725183 0.857749 0.962262
O O14 0.500000 0.600289 0.250000
O O15 0.539378 0.566569 0.112828
O O16 0.750000 0.250000 0.000000
#
# Coordination Sequence:
#
# PCOD8134135 Si02
#       7
#     8   8   8   8   8   8   8
#     4   9  17  35  56  85 112 143 189 238 288 340
#     4  11  20  34  56  84 110 144 198 237 273 346
#     4   9  19  35  52  76 103 144 188 235 281 328
#     4  10  19  35  57  75 110 146 187 243 276 330
#     4  11  18  35  59  84 109 148 195 232 281 347
#     4  11  23  34  53  83 112 152 193 235 289 333
#     4   9  18  33  58  84 112 145 187 236 291 343
#
# _framework density 18.283795999999999
#
# number of rings (size 3 to 8) (size 9 to 14) (size 15 to 20)
#    0.000    2.000    5.714    0.429    2.000    1.143 
#    0.000    4.286    3.143    0.000    0.000    0.000 
#    0.000    0.000    0.000    0.000    0.000    0.000 
#
# Total GULP energy -346927.998951 kJ/mol
# GULP energy per Si atom -12390.285677 kJ/mol
# Density = 1.824218 g / cm^3
# Si number density = 18.283796 Si / 1000 Ang^3
#
#
#
# Elastic Constant Matrix: (Units=GPa)
#
#
# Indices 1 2 3 4 5 6 
#
# 1 74.6358 48.6899 30.3075 0.0003 1.1262 -0.0001
# 2 48.6899 135.8192 56.5720 -0.0001 3.3639 0.0000
# 3 30.3075 56.5720 65.8652 0.0005 8.1798 -0.0002
# 4 0.0003 -0.0001 0.0005 52.4907 -0.0003 -0.2795
# 5 1.1262 3.3639 8.1798 -0.0003 20.2476 0.0001
# 6 -0.0001 0.0000 -0.0002 -0.2795 0.0001 32.6432
#
#
#
# Elastic Compliance Matrix: (Units=1/GPa)
#
#
# Indices 1 2 3 4 5 6 
#
# 1 0.018297 -0.004685 -0.004596 0.000000 0.001617 0.000000
# 2 -0.004685 0.012756 -0.009022 0.000000 0.001786 0.000000
# 3 -0.004596 -0.009022 0.026140 0.000000 -0.008806 0.000000
# 4 0.000000 0.000000 0.000000 0.019052 0.000000 0.000163
# 5 0.001617 0.001786 -0.008806 0.000000 0.052559 0.000000
# 6 0.000000 0.000000 0.000000 0.000163 0.000000 0.030636
#
#
# Mechanical properties :
#
#
# Convention : Reuss Voigt Hill
#
# Bulk Modulus (GPa) = 48.57587 60.82879 54.70233
# Shear Modulus (GPa) = 24.64168 30.45969 27.55068
#
# Velocity S-wave (km/s) = 3.67513 4.08602 3.88601
# Velocity P-wave (km/s) = 6.68088 7.45669 7.07942
#
# Compressibility (1/GPa) = 0.02058635
#
# Stress axis : x y z
#
# Youngs Moduli (GPa) = 54.65514 78.39469 38.25511
#
# Poissons Ratio (x) = 0.36726 0.17582
# Poissons Ratio (y) = 0.25605 0.34515
# Poissons Ratio (z) = 0.25120 0.70730
#
# Static dielectric constant tensor:
#      x y z
#    x 3.468680 0.000000 0.158740 
#    y 0.000000 3.388190 0.000000 
#    z 0.158740 0.000000 3.440030 
# 
# 
# High freq. dielectric constant tensor:
#      x y z
#    x 1.711920 0.000000 0.002170 
#    y 0.000000 1.701790 0.000000 
#    z 0.002170 0.000000 1.681330 
# 
# From -- ./inp_files/139305.got.cif
#   From: 2010.06.25/outbox.cif.g09.slc.cpg/sg15_70_cif.got.tgz:139305.got - 2010.06.28 07:06:18.
