data_PCOD8134673
_publ_section_title
;
Structure prediction by ZEFSAII (Michael W. Deem and Ramdas Pophale) SiO2 
 PCOD8134673
Probable space group: C 2/C
;
_chemical_formula_sum "Si O2"
_cell_formula_units_Z 48
_cell_length_a 5.003495
_cell_length_b 31.511829
_cell_length_c 17.528452
_cell_angle_alpha 90.000000
_cell_angle_beta 62.820525
_cell_angle_gamma 90.000000
_cell_volume 2458.530981
_symmetry_space_group_name_H-M "C 2/C"
_symmetry_group_IT_number 15
_symmetry_cell_setting 'monoclinic'
loop_
_space_group_symop_operation_xyz
x,y,z
-x,y,1/2-z
-x,-y,-z
x,-y,1/2+z
1/2+x,1/2+y,z
1/2-x,1/2+y,1/2-z
1/2-x,1/2-y,-z
1/2+x,1/2-y,1/2+z
loop_
_atom_site_type_symbol
_atom_site_label
_atom_site_fract_x
_atom_site_fract_y
_atom_site_fract_z
Si Si1 0.370158 0.314678 0.848906
Si Si2 0.950566 0.122334 0.966266
Si Si3 0.774801 0.401128 0.568035
Si Si4 0.845891 0.993337 0.939240
Si Si5 0.850432 0.067402 0.691669
Si Si6 0.706434 0.708858 0.454104
O O1 0.500000 0.301928 0.750000
O O2 0.403024 0.365313 0.859917
O O3 0.503749 0.287201 0.903120
O O4 0.024891 0.305185 0.882255
O O5 0.073842 0.108320 0.868874
O O6 0.635669 0.099922 0.031870
O O7 0.924941 0.173241 0.971849
O O8 0.215875 0.107925 0.987250
O O9 0.627522 0.446974 0.604089
O O10 0.992803 0.025396 0.861012
O O11 0.500000 0.000000 0.000000
O O12 0.000000 0.000000 0.000000
O O13 0.500000 0.059078 0.750000
O O14 0.000000 0.079961 0.750000
O O15 0.750000 0.750000 0.500000
#
# Coordination Sequence:
#
# PCOD8134673 Si02
#       6
#     8   8   8   8   8   8
#     4  10  21  37  61  91 123 150 188 257 306 338
#     4  10  20  38  59  80 112 155 194 236 289 361
#     4  10  19  36  60  83 108 157 199 228 292 367
#     4  12  21  37  60  82 114 160 204 242 289 355
#     4  12  24  37  55  85 119 150 196 250 294 334
#     4  10  21  39  64  89 116 158 204 233 292 378
#
# _framework density 19.523852000000002
#
# number of rings (size 3 to 8) (size 9 to 14) (size 15 to 20)
#    0.000    1.333    3.333    3.000    0.000    0.667 
#    0.000    5.833    0.000    0.000    0.000    0.000 
#    0.000    0.000    0.000    0.000    0.000    0.000 
#
# Total GULP energy -297451.692807 kJ/mol
# GULP energy per Si atom -12393.820534 kJ/mol
# Density = 1.947941 g / cm^3
# Si number density = 19.523852 Si / 1000 Ang^3
#
#
#
# Elastic Constant Matrix: (Units=GPa)
#
#
# Indices 1 2 3 4 5 6 
#
# 1 97.4666 5.8924 23.6248 0.0000 -2.1346 0.0000
# 2 5.8924 105.2647 39.6113 0.0000 -0.6042 0.0000
# 3 23.6248 39.6113 110.3979 0.0000 3.2113 0.0000
# 4 0.0000 0.0000 0.0000 24.4505 0.0000 4.4204
# 5 -2.1346 -0.6042 3.2113 0.0000 32.2068 0.0000
# 6 0.0000 0.0000 0.0000 4.4204 0.0000 24.3222
#
#
#
# Elastic Compliance Matrix: (Units=1/GPa)
#
#
# Indices 1 2 3 4 5 6 
#
# 1 0.010860 0.000327 -0.002470 0.000000 0.000972 0.000000
# 2 0.000327 0.011004 -0.004037 0.000000 0.000631 0.000000
# 3 -0.002470 -0.004037 0.011074 0.000000 -0.001344 0.000000
# 4 0.000000 0.000000 0.000000 0.042288 0.000000 -0.007686
# 5 0.000972 0.000631 -0.001344 0.000000 0.031260 0.000000
# 6 0.000000 0.000000 0.000000 -0.007686 0.000000 0.042512
#
#
# Mechanical properties :
#
#
# Convention : Reuss Voigt Hill
#
# Bulk Modulus (GPa) = 48.59151 50.15401 49.37276
# Shear Modulus (GPa) = 29.72362 32.46262 31.09312
#
# Velocity S-wave (km/s) = 3.90606 4.08206 3.99503
# Velocity P-wave (km/s) = 6.72944 6.92546 6.82816
#
# Compressibility (1/GPa) = 0.02057973
#
# Stress axis : x y z
#
# Youngs Moduli (GPa) = 92.08059 90.87455 90.30089
#
# Poissons Ratio (x) = -0.02971 0.22301
# Poissons Ratio (y) = -0.03011 0.36451
# Poissons Ratio (z) = 0.22740 0.36683
#
# Static dielectric constant tensor:
#      x y z
#    x 3.920710 0.000000 0.120120 
#    y 0.000000 3.926250 0.000000 
#    z 0.120120 0.000000 3.463110 
# 
# 
# High freq. dielectric constant tensor:
#      x y z
#    x 1.786300 0.000000 0.006840 
#    y 0.000000 1.757620 0.000000 
#    z 0.006840 0.000000 1.740840 
# 
# From -- ./inp_files/130609.got.cif
#   From: 2010.06.25/outbox.cif.g09.slc.cpg/sg15_66_cif.got.tgz:130609.got - 2010.06.28 07:06:18.
