data_PCOD8134683
_publ_section_title
;
Structure prediction by ZEFSAII (Michael W. Deem and Ramdas Pophale) SiO2 
 PCOD8134683
Probable space group: C 2/C
;
_chemical_formula_sum "Si O2"
_cell_formula_units_Z 56
_cell_length_a 17.842603
_cell_length_b 22.740513
_cell_length_c 14.334979
_cell_angle_alpha 90.000000
_cell_angle_beta 27.594821
_cell_angle_gamma 90.000000
_cell_volume 2694.256978
_symmetry_space_group_name_H-M "C 2/C"
_symmetry_group_IT_number 15
_symmetry_cell_setting 'monoclinic'
loop_
_space_group_symop_operation_xyz
x,y,z
-x,y,1/2-z
-x,-y,-z
x,-y,1/2+z
1/2+x,1/2+y,z
1/2-x,1/2+y,1/2-z
1/2-x,1/2-y,-z
1/2+x,1/2-y,1/2+z
loop_
_atom_site_type_symbol
_atom_site_label
_atom_site_fract_x
_atom_site_fract_y
_atom_site_fract_z
Si Si1 0.176377 0.394122 0.036454
Si Si2 0.015080 0.053233 0.365279
Si Si3 0.520520 0.316412 0.335056
Si Si4 0.772086 0.751754 0.263928
Si Si5 0.378722 0.564365 0.045198
Si Si6 0.752332 0.649328 0.852460
Si Si7 0.093442 0.367179 0.923847
O O1 0.204367 0.344171 0.085184
O O2 0.000000 0.424910 0.250000
O O3 0.329769 0.439195 0.875637
O O4 0.178737 0.365542 0.931575
O O5 0.088210 0.045800 0.386251
O O6 0.907200 0.111308 0.484538
O O7 0.911242 0.995267 0.450143
O O8 0.500000 0.299650 0.250000
O O9 0.396991 0.280561 0.535422
O O10 0.693084 0.295628 0.186655
O O11 0.500192 0.386018 0.372257
O O12 0.774827 0.787110 0.163370
O O13 0.904503 0.699605 0.115567
O O14 0.192760 0.588440 0.245722
O O15 0.904491 0.615112 0.635606
#
# Coordination Sequence:
#
# PCOD8134683 Si02
#       7
#     8   8   8   8   8   8   8
#     4   9  20  36  55  86 120 154 185 234 287 340
#     4  10  19  36  60  86 116 153 198 233 282 349
#     4  11  22  38  60  83 112 149 196 247 292 339
#     4  11  21  38  57  84 114 154 192 239 292 350
#     4   9  20  37  59  83 115 155 193 238 290 338
#     4  11  20  34  59  84 118 153 194 234 284 349
#     4   9  20  37  56  83 121 153 194 233 288 342
#
# _framework density 20.784953000000002
#
# number of rings (size 3 to 8) (size 9 to 14) (size 15 to 20)
#    0.000    2.000    2.857    0.857    0.000    2.286 
#    0.000    2.857    0.000    2.571    0.000    0.000 
#    0.000    0.000    0.000    0.000    0.000    0.000 
#
# Total GULP energy -346942.649914 kJ/mol
# GULP energy per Si atom -12390.808925 kJ/mol
# Density = 2.073765 g / cm^3
# Si number density = 20.784953 Si / 1000 Ang^3
#
#
#
# Elastic Constant Matrix: (Units=GPa)
#
#
# Indices 1 2 3 4 5 6 
#
# 1 45.7338 15.9227 15.5792 0.0143 10.6204 -0.0034
# 2 15.9227 102.2430 52.7270 0.0029 2.9484 -0.0360
# 3 15.5792 52.7270 107.4652 0.0589 -9.6369 -0.0694
# 4 0.0143 0.0029 0.0589 24.4037 -0.0228 -3.0488
# 5 10.6204 2.9484 -9.6369 -0.0228 27.5577 0.0238
# 6 -0.0034 -0.0360 -0.0694 -3.0488 0.0238 16.1702
#
#
#
# Elastic Compliance Matrix: (Units=1/GPa)
#
#
# Indices 1 2 3 4 5 6 
#
# 1 0.026489 -0.001723 -0.004020 -0.000017 -0.011430 -0.000002
# 2 -0.001723 0.013595 -0.006702 0.000014 -0.003134 0.000008
# 3 -0.004020 -0.006702 0.013813 -0.000020 0.007097 0.000029
# 4 -0.000017 0.000014 -0.000020 0.041966 0.000026 0.007912
# 5 -0.011430 -0.003134 0.007097 0.000026 0.043510 -0.000038
# 6 -0.000002 0.000008 0.000029 0.007912 -0.000038 0.063334
#
#
# Mechanical properties :
#
#
# Convention : Reuss Voigt Hill
#
# Bulk Modulus (GPa) = 34.47256 47.09997 40.78626
# Shear Modulus (GPa) = 21.07346 25.04053 23.05700
#
# Velocity S-wave (km/s) = 3.18760 3.47471 3.33425
# Velocity P-wave (km/s) = 5.49264 6.22960 5.87269
#
# Compressibility (1/GPa) = 0.02900858
#
# Stress axis : x y z
#
# Youngs Moduli (GPa) = 37.75140 73.55412 72.39695
#
# Poissons Ratio (x) = 0.12670 0.29103
# Poissons Ratio (y) = 0.06503 0.48519
# Poissons Ratio (z) = 0.15176 0.49295
#
# Static dielectric constant tensor:
#      x y z
#    x 3.611470 -0.000110 -0.020080 
#    y -0.000110 3.723390 0.000170 
#    z -0.020080 0.000170 4.073700 
# 
# 
# High freq. dielectric constant tensor:
#      x y z
#    x 1.803700 -0.000010 -0.002950 
#    y -0.000010 1.790530 0.000020 
#    z -0.002950 0.000020 1.820810 
# 
# From -- ./inp_files/163737.got.cif
#   From: 2010.06.25/outbox.cif.g09.slc.cpg/sg15_82_cif.got.tgz:163737.got - 2010.06.28 07:06:18.
