data_PCOD8134645
_publ_section_title
;
Structure prediction by ZEFSAII (Michael W. Deem and Ramdas Pophale) SiO2 
 PCOD8134645
Probable space group: C 2/C
;
_chemical_formula_sum "Si O2"
_cell_formula_units_Z 60
_cell_length_a 12.515344
_cell_length_b 15.201709
_cell_length_c 15.847618
_cell_angle_alpha 90.000000
_cell_angle_beta 91.163676
_cell_angle_gamma 90.000000
_cell_volume 3014.460669
_symmetry_space_group_name_H-M "C 2/C"
_symmetry_group_IT_number 15
_symmetry_cell_setting 'monoclinic'
loop_
_space_group_symop_operation_xyz
x,y,z
-x,y,1/2-z
-x,-y,-z
x,-y,1/2+z
1/2+x,1/2+y,z
1/2-x,1/2+y,1/2-z
1/2-x,1/2-y,-z
1/2+x,1/2-y,1/2+z
loop_
_atom_site_type_symbol
_atom_site_label
_atom_site_fract_x
_atom_site_fract_y
_atom_site_fract_z
Si Si1 0.500000 0.542901 0.250000
Si Si2 0.014816 0.883617 0.570053
Si Si3 0.612994 0.747468 0.790569
Si Si4 0.127672 0.731811 0.487037
Si Si5 0.830406 0.961004 0.468552
Si Si6 0.381548 0.945689 0.719263
Si Si7 0.303366 0.426393 0.274215
Si Si8 0.886991 0.462172 0.521740
O O1 0.487812 0.606300 0.329677
O O2 0.399751 0.479703 0.233811
O O3 0.053864 0.786551 0.549118
O O4 0.896724 0.894622 0.528431
O O5 0.102574 0.948938 0.532245
O O6 0.500000 0.719437 0.750000
O O7 0.594953 0.749566 0.890306
O O8 0.648558 0.844378 0.756319
O O9 0.698985 0.672834 0.764006
O O10 0.250000 0.750000 0.500000
O O11 0.111530 0.633273 0.519210
O O12 0.816871 0.919811 0.375393
O O13 0.714627 0.979298 0.510393
O O14 0.500000 0.970127 0.750000
O O15 0.371251 0.951984 0.620078
O O16 0.301856 0.018882 0.756374
O O17 0.000000 0.500000 0.500000
#
# Coordination Sequence:
#
# PCOD8134645 Si02
#       8
#     4   8   8   8   8   8   8   8
#     4  10  22  32  56  88 120 150 186 250 304 340
#     4  10  20  36  58  88 120 147 197 246 298 347
#     4  10  20  36  61  89 113 154 206 237 285 357
#     4  11  22  37  62  90 115 156 205 244 290 356
#     4   9  19  35  60  88 116 153 194 246 293 351
#     4   9  21  38  57  84 119 155 193 242 286 349
#     4  10  19  36  59  87 121 151 198 240 300 346
#     4  10  21  39  60  83 119 156 197 241 295 357
#
# _framework density 19.904057999999999
#
# number of rings (size 3 to 8) (size 9 to 14) (size 15 to 20)
#    0.000    2.133    2.000    0.800    5.600    2.133 
#    0.000    3.333    2.933    0.000    0.000    0.000 
#    0.000    0.000    0.000    0.000    0.000    0.000 
#
# Total GULP energy -371926.476356 kJ/mol
# GULP energy per Si atom -12397.549212 kJ/mol
# Density = 1.985876 g / cm^3
# Si number density = 19.904058 Si / 1000 Ang^3
#
#
#
# Elastic Constant Matrix: (Units=GPa)
#
#
# Indices 1 2 3 4 5 6 
#
# 1 161.2301 77.8225 28.3111 0.0000 -1.3171 0.0000
# 2 77.8225 131.0473 25.9348 0.0000 -10.7842 0.0000
# 3 28.3111 25.9348 46.1364 0.0000 1.9435 0.0000
# 4 0.0000 0.0000 0.0000 49.7917 0.0000 -31.5527
# 5 -1.3171 -10.7842 1.9435 0.0000 28.5375 0.0000
# 6 0.0000 0.0000 0.0000 -31.5527 0.0000 61.4004
#
#
#
# Elastic Compliance Matrix: (Units=1/GPa)
#
#
# Indices 1 2 3 4 5 6 
#
# 1 0.009056 -0.004943 -0.002726 0.000000 -0.001264 0.000000
# 2 -0.004943 0.011665 -0.003711 0.000000 0.004433 0.000000
# 3 -0.002726 -0.003711 0.025571 0.000000 -0.003270 0.000000
# 4 0.000000 0.000000 0.000000 0.029782 0.000000 0.015305
# 5 -0.001264 0.004433 -0.003270 0.000000 0.036881 0.000000
# 6 0.000000 0.000000 0.000000 0.015305 0.000000 0.024151
#
#
# Mechanical properties :
#
#
# Convention : Reuss Voigt Hill
#
# Bulk Modulus (GPa) = 42.49170 66.95006 54.72088
# Shear Modulus (GPa) = 29.81317 41.70229 35.75773
#
# Velocity S-wave (km/s) = 3.87440 4.58226 4.24312
# Velocity P-wave (km/s) = 6.43500 7.85529 7.18035
#
# Compressibility (1/GPa) = 0.02353401
#
# Stress axis : x y z
#
# Youngs Moduli (GPa) = 110.41968 85.72406 39.10637
#
# Poissons Ratio (x) = 0.42371 0.10659
# Poissons Ratio (y) = 0.54578 0.14513
# Poissons Ratio (z) = 0.30096 0.31813
#
# Static dielectric constant tensor:
#      x y z
#    x 3.662140 0.000000 0.222250 
#    y 0.000000 3.678930 0.000000 
#    z 0.222250 0.000000 3.502810 
# 
# 
# High freq. dielectric constant tensor:
#      x y z
#    x 1.778220 0.000000 0.015640 
#    y 0.000000 1.769630 0.000000 
#    z 0.015640 0.000000 1.765880 
# 
# From -- ./inp_files/197864.got.cif
#   From: 2010.06.25/outbox.cif.g09.slc.cpg/sg15_99_cif.got.tgz:197864.got - 2010.06.28 07:06:18.
