data_PCOD8134268
_publ_section_title
;
Structure prediction by ZEFSAII (Michael W. Deem and Ramdas Pophale) SiO2 
 PCOD8134268
Probable space group: C 2/C
;
_chemical_formula_sum "Si O2"
_cell_formula_units_Z 60
_cell_length_a 18.190529
_cell_length_b 12.863051
_cell_length_c 30.157635
_cell_angle_alpha 90.000000
_cell_angle_beta 26.892463
_cell_angle_gamma 90.000000
_cell_volume 3191.757515
_symmetry_space_group_name_H-M "C 2/C"
_symmetry_group_IT_number 15
_symmetry_cell_setting 'monoclinic'
loop_
_space_group_symop_operation_xyz
x,y,z
-x,y,1/2-z
-x,-y,-z
x,-y,1/2+z
1/2+x,1/2+y,z
1/2-x,1/2+y,1/2-z
1/2-x,1/2-y,-z
1/2+x,1/2-y,1/2+z
loop_
_atom_site_type_symbol
_atom_site_label
_atom_site_fract_x
_atom_site_fract_y
_atom_site_fract_z
Si Si1 0.729065 0.161749 0.596350
Si Si2 0.624862 0.607819 0.771434
Si Si3 0.031689 0.922936 0.598618
Si Si4 0.500000 0.524990 0.750000
Si Si5 0.566974 0.010169 0.862160
Si Si6 0.761161 0.110846 0.429721
Si Si7 0.625953 0.142118 0.747169
Si Si8 0.215393 0.300213 0.773862
O O1 0.841115 0.079879 0.510076
O O2 0.803368 0.278665 0.554227
O O3 0.717636 0.115170 0.651993
O O4 0.555505 0.176617 0.666589
O O5 0.517850 0.541803 0.864375
O O6 0.545632 0.600379 0.765802
O O7 0.807515 0.562774 0.671163
O O8 0.630963 0.727663 0.782486
O O9 0.110502 0.870891 0.599747
O O10 0.873977 0.857349 0.668939
O O11 0.652814 0.451482 0.656324
O O12 0.616842 0.044342 0.785280
O O13 0.580298 0.885702 0.859538
O O14 0.387046 0.044167 0.971372
O O15 0.728687 0.235125 0.713591
#
# Coordination Sequence:
#
# PCOD8134268 Si02
#       8
#     8   8   8   4   8   8   8   8
#     4  11  19  31  60  89 114 140 186 244 279 331
#     4   9  21  38  59  79 117 151 188 235 281 337
#     4  10  19  35  59  85 114 149 185 228 290 339
#     4  10  22  38  54  84 114 148 192 244 274 332
#     4  10  21  37  59  83 116 151 187 231 285 344
#     4  11  20  34  59  88 116 141 190 237 290 331
#     4  10  20  34  56  89 113 142 189 234 284 330
#     4  10  20  40  56  80 117 159 183 227 289 337
#
# _framework density 18.798418999999999
#
# number of rings (size 3 to 8) (size 9 to 14) (size 15 to 20)
#    0.000    1.867    2.667    2.800    3.733    0.533 
#    2.400   10.000    0.000    0.000    0.000    0.000 
#    0.000    0.000    0.000    0.000    0.000    0.000 
#
# Total GULP energy -371961.673125 kJ/mol
# GULP energy per Si atom -12398.722437 kJ/mol
# Density = 1.875563 g / cm^3
# Si number density = 18.798419 Si / 1000 Ang^3
#
#
#
# Elastic Constant Matrix: (Units=GPa)
#
#
# Indices 1 2 3 4 5 6 
#
# 1 88.4373 39.1515 38.1994 -0.0010 5.7531 0.0003
# 2 39.1515 95.9350 41.5860 -0.0004 -0.4880 -0.0003
# 3 38.1994 41.5860 111.8669 -0.0063 12.0538 0.0007
# 4 -0.0010 -0.0004 -0.0063 15.5192 0.0009 -6.9555
# 5 5.7531 -0.4880 12.0538 0.0009 20.8807 -0.0005
# 6 0.0003 -0.0003 0.0007 -6.9555 -0.0005 23.5050
#
#
#
# Elastic Compliance Matrix: (Units=1/GPa)
#
#
# Indices 1 2 3 4 5 6 
#
# 1 0.014896 -0.004770 -0.003049 0.000000 -0.002456 0.000000
# 2 -0.004770 0.014151 -0.004062 -0.000002 0.003990 0.000000
# 3 -0.003049 -0.004062 0.012167 0.000005 -0.006278 0.000001
# 4 0.000000 -0.000002 0.000005 0.074289 -0.000006 0.021983
# 5 -0.002456 0.003990 -0.006278 -0.000006 0.052285 0.000000
# 6 0.000000 0.000000 0.000001 0.021983 0.000000 0.049049
#
#
# Mechanical properties :
#
#
# Convention : Reuss Voigt Hill
#
# Bulk Modulus (GPa) = 57.29693 59.34588 58.32141
# Shear Modulus (GPa) = 20.29093 23.80114 22.04604
#
# Velocity S-wave (km/s) = 3.28898 3.56212 3.42827
# Velocity P-wave (km/s) = 6.70589 6.96825 6.83833
#
# Compressibility (1/GPa) = 0.01745294
#
# Stress axis : x y z
#
# Youngs Moduli (GPa) = 67.13348 70.66454 82.19175
#
# Poissons Ratio (x) = 0.33707 0.25057
# Poissons Ratio (y) = 0.32022 0.33385
# Poissons Ratio (z) = 0.20467 0.28702
#
# Static dielectric constant tensor:
#      x y z
#    x 3.446220 0.000000 -0.057250 
#    y 0.000000 3.341010 0.000000 
#    z -0.057250 0.000000 3.413680 
# 
# 
# High freq. dielectric constant tensor:
#      x y z
#    x 1.723840 0.000000 -0.003260 
#    y 0.000000 1.714160 0.000000 
#    z -0.003260 0.000000 1.724710 
# 
# From -- ./inp_files/316059.got.cif
#   From: 2010.06.25/outbox.cif.g09.slc.cpg/sg15_159_cif.got.tgz:316059.got - 2010.06.28 07:06:18.
