data_PCOD8134206
_publ_section_title
;
Structure prediction by ZEFSAII (Michael W. Deem and Ramdas Pophale) SiO2 
 PCOD8134206
Probable space group: C 2/C
;
_chemical_formula_sum "Si O2"
_cell_formula_units_Z 56
_cell_length_a 9.395903
_cell_length_b 17.136750
_cell_length_c 30.263450
_cell_angle_alpha 90.000000
_cell_angle_beta 142.974841
_cell_angle_gamma 90.000000
_cell_volume 2934.278967
_symmetry_space_group_name_H-M "C 2/C"
_symmetry_group_IT_number 15
_symmetry_cell_setting 'monoclinic'
loop_
_space_group_symop_operation_xyz
x,y,z
-x,y,1/2-z
-x,-y,-z
x,-y,1/2+z
1/2+x,1/2+y,z
1/2-x,1/2+y,1/2-z
1/2-x,1/2-y,-z
1/2+x,1/2-y,1/2+z
loop_
_atom_site_type_symbol
_atom_site_label
_atom_site_fract_x
_atom_site_fract_y
_atom_site_fract_z
Si Si1 0.707293 0.034794 0.836688
Si Si2 0.614993 0.247860 0.420855
Si Si3 0.878083 0.542825 0.407745
Si Si4 0.030745 0.407689 0.853429
Si Si5 0.291382 0.416318 0.073916
Si Si6 0.619683 0.199143 0.824158
Si Si7 0.048995 0.147376 0.209903
O O1 0.500000 0.020899 0.750000
O O2 0.674594 0.114381 0.859268
O O3 0.960727 0.041961 0.875931
O O4 0.713016 0.960911 0.871224
O O5 0.750000 0.250000 0.500000
O O6 0.665221 0.169851 0.404659
O O7 0.674345 0.324800 0.406768
O O8 0.343254 0.247572 0.367038
O O9 0.822211 0.455719 0.410916
O O10 0.648532 0.595077 0.363010
O O11 0.926004 0.540601 0.367522
O O12 0.111598 0.576814 0.488512
O O13 0.811354 0.385695 0.766751
O O14 0.500000 0.168960 0.750000
O O15 0.459828 0.262266 0.811273
O O16 0.000000 0.152590 0.250000
#
# Coordination Sequence:
#
# PCOD8134206 Si02
#       7
#     8   8   8   8   8   8   8
#     4  10  22  35  54  85 115 146 178 241 290 331
#     4  11  18  33  55  83 106 147 189 225 264 339
#     4  10  19  35  58  83 105 151 189 231 268 334
#     4  11  20  34  60  83 111 143 194 230 280 331
#     4  10  21  35  57  80 117 144 188 228 283 326
#     4   9  15  31  52  75 103 137 187 224 264 317
#     4   9  15  30  54  80 100 137 188 231 258 324
#
# _framework density 19.084755000000001
#
# number of rings (size 3 to 8) (size 9 to 14) (size 15 to 20)
#    0.000    2.000    5.714    0.857    0.000    0.571 
#    0.000    0.000    6.286    1.714    0.000    0.000 
#    0.000    0.000    0.000    0.000    0.000    0.000 
#
# Total GULP energy -346868.041557 kJ/mol
# GULP energy per Si atom -12388.144341 kJ/mol
# Density = 1.904132 g / cm^3
# Si number density = 19.084755 Si / 1000 Ang^3
#
#
#
# Elastic Constant Matrix: (Units=GPa)
#
#
# Indices 1 2 3 4 5 6 
#
# 1 41.7545 37.8210 11.4878 0.0000 0.3195 0.0001
# 2 37.8210 133.3614 19.6007 0.0000 -9.6720 0.0000
# 3 11.4878 19.6007 89.2656 0.0001 15.0511 -0.0003
# 4 0.0000 0.0000 0.0001 25.1898 0.0001 -4.7834
# 5 0.3195 -9.6720 15.0511 0.0001 16.9306 0.0000
# 6 0.0001 0.0000 -0.0003 -4.7834 0.0000 21.0506
#
#
#
# Elastic Compliance Matrix: (Units=1/GPa)
#
#
# Indices 1 2 3 4 5 6 
#
# 1 0.032964 -0.009505 -0.001335 0.000000 -0.004866 0.000000
# 2 -0.009505 0.011262 -0.002782 0.000000 0.009086 0.000000
# 3 -0.001335 -0.002782 0.014408 0.000000 -0.014373 0.000000
# 4 0.000000 0.000000 0.000000 0.041489 0.000000 0.009428
# 5 -0.004866 0.009086 -0.014373 0.000000 0.077124 0.000000
# 6 0.000000 0.000000 0.000000 0.009428 0.000000 0.049647
#
#
# Mechanical properties :
#
#
# Convention : Reuss Voigt Hill
#
# Bulk Modulus (GPa) = 31.85605 44.68895 38.27250
# Shear Modulus (GPa) = 18.89644 25.66566 22.28105
#
# Velocity S-wave (km/s) = 3.15005 3.67116 3.42055
# Velocity P-wave (km/s) = 5.47344 6.43714 5.97475
#
# Compressibility (1/GPa) = 0.03139121
#
# Stress axis : x y z
#
# Youngs Moduli (GPa) = 30.33649 88.79576 69.40376
#
# Poissons Ratio (x) = 0.84401 0.09263
# Poissons Ratio (y) = 0.28835 0.19305
# Poissons Ratio (z) = 0.04049 0.24699
#
# Static dielectric constant tensor:
#      x y z
#    x 2.960350 0.000000 0.278200 
#    y 0.000000 3.837050 0.000000 
#    z 0.278200 0.000000 3.524530 
# 
# 
# High freq. dielectric constant tensor:
#      x y z
#    x 1.676760 0.000000 0.029940 
#    y 0.000000 1.764170 0.000000 
#    z 0.029940 0.000000 1.748450 
# 
# From -- ./inp_files/190911.got.cif
#   From: 2010.06.25/outbox.cif.g09.slc.cpg/sg15_96_cif.got.tgz:190911.got - 2010.06.28 07:06:18.
