data_PCOD8134596
_publ_section_title
;
Structure prediction by ZEFSAII (Michael W. Deem and Ramdas Pophale) SiO2 
 PCOD8134596
Probable space group: C 2/C
;
_chemical_formula_sum "Si O2"
_cell_formula_units_Z 56
_cell_length_a 16.476013
_cell_length_b 8.704317
_cell_length_c 27.484313
_cell_angle_alpha 90.000000
_cell_angle_beta 42.804070
_cell_angle_gamma 90.000000
_cell_volume 2678.286105
_symmetry_space_group_name_H-M "C 2/C"
_symmetry_group_IT_number 15
_symmetry_cell_setting 'monoclinic'
loop_
_space_group_symop_operation_xyz
x,y,z
-x,y,1/2-z
-x,-y,-z
x,-y,1/2+z
1/2+x,1/2+y,z
1/2-x,1/2+y,1/2-z
1/2-x,1/2-y,-z
1/2+x,1/2-y,1/2+z
loop_
_atom_site_type_symbol
_atom_site_label
_atom_site_fract_x
_atom_site_fract_y
_atom_site_fract_z
Si Si1 0.851378 0.923466 0.586843
Si Si2 0.760628 0.985054 0.444857
Si Si3 0.954756 0.722830 0.455184
Si Si4 0.602505 0.412809 0.745168
Si Si5 0.511515 0.520759 0.105298
Si Si6 0.363732 0.714328 0.814924
Si Si7 0.190054 0.722294 0.396342
O O1 0.894948 0.837479 0.520137
O O2 0.724367 0.853970 0.659141
O O3 0.953089 0.901533 0.583452
O O4 0.834257 0.100886 0.581111
O O5 0.642261 0.903219 0.519217
O O6 0.837357 0.862379 0.379390
O O7 0.844893 0.046554 0.451662
O O8 0.723762 0.132616 0.430130
O O9 0.070421 0.640830 0.427600
O O10 0.001970 0.833664 0.390907
O O11 0.500000 0.392247 0.750000
O O12 0.553095 0.398018 0.820994
O O13 0.660431 0.581700 0.714098
O O14 0.704826 0.286951 0.690192
O O15 0.500000 0.774364 0.750000
#
# Coordination Sequence:
#
# PCOD8134596 Si02
#       7
#     8   8   8   8   8   8   8
#     4  10  23  36  57  86 121 153 186 234 295 341
#     4  10  19  36  64  82 108 154 196 234 279 339
#     4  10  22  39  58  86 115 156 192 231 285 348
#     4  10  19  36  61  83 111 151 193 239 290 332
#     4  11  19  36  60  84 114 147 189 240 285 337
#     4   9  17  37  58  77 113 153 193 230 282 342
#     4  10  19  36  58  85 116 148 188 242 286 334
#
# _framework density 20.908894
#
# number of rings (size 3 to 8) (size 9 to 14) (size 15 to 20)
#    0.000    2.000    4.286    2.571    0.000    2.857 
#    0.000    2.857    0.000   10.286    0.000    0.000 
#    0.000    0.000    0.000    0.000    0.000    0.000 
#
# Total GULP energy -346966.982173 kJ/mol
# GULP energy per Si atom -12391.677935 kJ/mol
# Density = 2.086130 g / cm^3
# Si number density = 20.908894 Si / 1000 Ang^3
#
#
#
# Elastic Constant Matrix: (Units=GPa)
#
#
# Indices 1 2 3 4 5 6 
#
# 1 129.0567 44.2701 25.2217 -0.0001 -25.6385 0.0000
# 2 44.2701 49.5482 20.9232 -0.0001 -13.6126 0.0000
# 3 25.2217 20.9232 65.6181 0.0000 -22.4446 0.0001
# 4 -0.0001 -0.0001 0.0000 33.4933 0.0000 -10.0301
# 5 -25.6385 -13.6126 -22.4446 0.0000 39.5868 -0.0001
# 6 0.0000 0.0000 0.0001 -10.0301 -0.0001 25.3507
#
#
#
# Elastic Compliance Matrix: (Units=1/GPa)
#
#
# Indices 1 2 3 4 5 6 
#
# 1 0.011843 -0.009341 -0.000061 0.000000 0.004424 0.000000
# 2 -0.009341 0.031423 -0.005958 0.000000 0.001378 0.000000
# 3 -0.000061 -0.005958 0.020406 0.000000 0.009482 0.000000
# 4 0.000000 0.000000 0.000000 0.033870 0.000000 0.013401
# 5 0.004424 0.001378 0.009482 0.000000 0.033976 0.000000
# 6 0.000000 0.000000 0.000000 0.013401 0.000000 0.044749
#
#
# Mechanical properties :
#
#
# Convention : Reuss Voigt Hill
#
# Bulk Modulus (GPa) = 30.34601 47.22811 38.78706
# Shear Modulus (GPa) = 22.93902 29.94001 26.43952
#
# Velocity S-wave (km/s) = 3.31583 3.78819 3.55985
# Velocity P-wave (km/s) = 5.40413 6.46300 5.95714
#
# Compressibility (1/GPa) = 0.03295326
#
# Stress axis : x y z
#
# Youngs Moduli (GPa) = 84.43505 31.82428 49.00543
#
# Poissons Ratio (x) = 0.29726 0.00297
# Poissons Ratio (y) = 0.78869 0.29197
# Poissons Ratio (z) = 0.00512 0.18961
#
# Static dielectric constant tensor:
#      x y z
#    x 3.908310 0.000000 -0.331710 
#    y 0.000000 3.602790 0.000000 
#    z -0.331710 0.000000 4.017480 
# 
# 
# High freq. dielectric constant tensor:
#      x y z
#    x 1.822630 0.000000 -0.021120 
#    y 0.000000 1.791070 0.000000 
#    z -0.021120 0.000000 1.816370 
# 
# From -- ./inp_files/315480.got.cif
#   From: 2010.06.25/outbox.cif.g09.slc.cpg/sg15_158_cif.got.tgz:315480.got - 2010.06.28 07:06:18.
