data_PCOD8134176
_publ_section_title
;
Structure prediction by ZEFSAII (Michael W. Deem and Ramdas Pophale) SiO2 
 PCOD8134176
Probable space group: C 2/C
;
_chemical_formula_sum "Si O2"
_cell_formula_units_Z 64
_cell_length_a 21.341637
_cell_length_b 18.702301
_cell_length_c 18.442259
_cell_angle_alpha 90.000000
_cell_angle_beta 27.272923
_cell_angle_gamma 90.000000
_cell_volume 3373.028322
_symmetry_space_group_name_H-M "C 2/C"
_symmetry_group_IT_number 15
_symmetry_cell_setting 'monoclinic'
loop_
_space_group_symop_operation_xyz
x,y,z
-x,y,1/2-z
-x,-y,-z
x,-y,1/2+z
1/2+x,1/2+y,z
1/2-x,1/2+y,1/2-z
1/2-x,1/2-y,-z
1/2+x,1/2-y,1/2+z
loop_
_atom_site_type_symbol
_atom_site_label
_atom_site_fract_x
_atom_site_fract_y
_atom_site_fract_z
Si Si1 0.143382 0.804027 0.141352
Si Si2 0.332917 0.732058 0.197562
Si Si3 0.603411 0.693255 0.843875
Si Si4 0.777636 0.556665 0.666461
Si Si5 0.779990 0.595844 0.111778
Si Si6 0.352730 0.069933 0.884121
Si Si7 0.634063 0.085562 0.080162
Si Si8 0.404057 0.116162 0.680276
O O1 0.115872 0.778038 0.250422
O O2 0.000000 0.809358 0.250000
O O3 0.250000 0.750000 0.000000
O O4 0.219052 0.879615 0.057384
O O5 0.197429 0.755547 0.295320
O O6 0.298670 0.666694 0.285011
O O7 0.389963 0.799128 0.183595
O O8 0.446372 0.702506 0.026321
O O9 0.647938 0.610177 0.802676
O O10 0.723511 0.475097 0.711849
O O11 0.878233 0.573361 0.494325
O O12 0.860435 0.569050 0.655669
O O13 0.751535 0.591860 0.054064
O O14 0.940094 0.597211 0.964474
O O15 0.500000 0.105103 0.750000
O O16 0.309561 0.095653 0.847673
O O17 0.364321 0.984670 0.872063
O O18 0.500000 0.128885 0.250000
#
# Coordination Sequence:
#
# PCOD8134176 Si02
#       8
#     8   8   8   8   8   8   8   8
#     4  11  22  37  55  78 112 150 191 226 282 348
#     4  11  21  37  60  81 118 148 190 238 289 337
#     4  10  22  40  54  85 115 150 186 242 283 335
#     4   9  20  36  59  82 116 145 193 236 283 344
#     4  10  19  35  58  85 110 156 188 234 288 340
#     4   8  17  34  57  83 113 143 189 237 278 340
#     4   9  18  36  58  81 112 145 181 239 287 329
#     4  10  19  35  57  86 116 146 194 233 285 345
#
# _framework density 18.974048
#
# number of rings (size 3 to 8) (size 9 to 14) (size 15 to 20)
#    0.000    2.250    1.250    2.250    0.000    3.000 
#    6.750    0.000    5.500    0.000    0.000    0.000 
#    0.000    0.000    0.000    0.000    0.000    0.000 
#
# Total GULP energy -396553.106223 kJ/mol
# GULP energy per Si atom -12392.284569 kJ/mol
# Density = 1.893086 g / cm^3
# Si number density = 18.974048 Si / 1000 Ang^3
#
#
#
# Elastic Constant Matrix: (Units=GPa)
#
#
# Indices 1 2 3 4 5 6 
#
# 1 95.0858 36.8732 33.6852 -0.0007 22.6061 0.0021
# 2 36.8732 104.9653 43.4907 -0.0006 21.0195 0.0016
# 3 33.6852 43.4907 84.3115 0.0028 14.0396 -0.0005
# 4 -0.0007 -0.0006 0.0028 20.6439 0.0004 25.1736
# 5 22.6061 21.0195 14.0396 0.0004 33.8750 -0.0012
# 6 0.0021 0.0016 -0.0005 25.1736 -0.0012 -7.4566
#
#
#
# Elastic Compliance Matrix: (Units=1/GPa)
#
#
# Indices 1 2 3 4 5 6 
#
# 1 0.014172 -0.002236 -0.003400 -0.000001 -0.006661 0.000002
# 2 -0.002236 0.013423 -0.005255 -0.000001 -0.004659 0.000001
# 3 -0.003400 -0.005255 0.016121 0.000000 -0.001152 -0.000002
# 4 -0.000001 -0.000001 0.000000 0.009467 0.000002 0.031961
# 5 -0.006661 -0.004659 -0.001152 0.000002 0.037334 -0.000002
# 6 0.000002 0.000001 -0.000002 0.031961 -0.000002 -0.026210
#
#
# Mechanical properties :
#
#
# Convention : Reuss Voigt Hill
#
# Bulk Modulus (GPa) = 45.58824 56.94009 51.26417
# Shear Modulus (GPa) = 53.53368 20.76670 37.15019
#
# Velocity S-wave (km/s) = 5.31746 3.31188 4.42967
# Velocity P-wave (km/s) = 7.85998 6.68576 7.29653
#
# Compressibility (1/GPa) = 0.02193548
#
# Stress axis : x y z
#
# Youngs Moduli (GPa) = 70.56237 74.50154 62.02929
#
# Poissons Ratio (x) = 0.16659 0.21087
# Poissons Ratio (y) = 0.15778 0.32594
# Poissons Ratio (z) = 0.23988 0.39148
#
# Static dielectric constant tensor:
#      x y z
#    x 4.875180 -0.000110 -1.203810 
#    y -0.000110 3.714330 0.000120 
#    z -1.203810 0.000120 5.089040 
# 
# 
# High freq. dielectric constant tensor:
#      x y z
#    x 1.729430 0.000000 0.021210 
#    y 0.000000 1.739520 0.000000 
#    z 0.021210 0.000000 1.732240 
# 
# From -- ./inp_files/216156.got.cif
#   From: 2010.06.25/outbox.cif.g09.slc.cpg/sg15_109_cif.got.tgz:216156.got - 2010.06.28 07:06:18.
