data_PCOD8134939
_publ_section_title
;
Structure prediction by ZEFSAII (Michael W. Deem and Ramdas Pophale) SiO2 
 PCOD8134939
Probable space group: C 2/C
;
_chemical_formula_sum "Si O2"
_cell_formula_units_Z 60
_cell_length_a 24.214903
_cell_length_b 21.203286
_cell_length_c 8.405821
_cell_angle_alpha 90.000000
_cell_angle_beta 42.157971
_cell_angle_gamma 90.000000
_cell_volume 2896.697239
_symmetry_space_group_name_H-M "C 2/C"
_symmetry_group_IT_number 15
_symmetry_cell_setting 'monoclinic'
loop_
_space_group_symop_operation_xyz
x,y,z
-x,y,1/2-z
-x,-y,-z
x,-y,1/2+z
1/2+x,1/2+y,z
1/2-x,1/2+y,1/2-z
1/2-x,1/2-y,-z
1/2+x,1/2-y,1/2+z
loop_
_atom_site_type_symbol
_atom_site_label
_atom_site_fract_x
_atom_site_fract_y
_atom_site_fract_z
Si Si1 0.416450 0.290868 0.517023
Si Si2 0.008052 0.715039 0.548638
Si Si3 0.761925 0.086898 0.901732
Si Si4 0.327038 0.508877 0.490108
Si Si5 0.000000 0.508192 0.750000
Si Si6 0.669880 0.287031 0.113851
Si Si7 0.577842 0.565069 0.477772
Si Si8 0.423365 0.913026 0.675603
O O1 0.422825 0.245783 0.659676
O O2 0.339478 0.281250 0.560234
O O3 0.419597 0.361947 0.570834
O O4 0.500000 0.272540 0.250000
O O5 0.086386 0.761341 0.368890
O O6 0.020733 0.649193 0.428711
O O7 0.000000 0.699314 0.750000
O O8 0.788880 0.069708 0.662799
O O9 0.822149 0.140258 0.846366
O O10 0.669210 0.112048 0.104206
O O11 0.763609 0.022791 0.002602
O O12 0.410692 0.528989 0.215248
O O13 0.345434 0.454203 0.577316
O O14 0.942809 0.464045 0.766965
O O15 0.063046 0.552789 0.521462
O O16 0.750000 0.250000 0.000000
O O17 0.500000 0.545234 0.750000
#
# Coordination Sequence:
#
# PCOD8134939 Si02
#       8
#     8   8   8   8   4   8   8   8
#     4   9  21  39  61  87 123 164 204 261 318 371
#     4  11  24  41  65  92 127 168 217 263 319 383
#     4  11  22  40  62  91 128 165 206 257 320 376
#     4  10  22  36  60  89 126 163 204 251 315 376
#     4  10  24  40  66  98 118 162 208 266 322 382
#     4  11  22  41  66  89 123 168 215 263 320 381
#     4  10  19  37  57  87 122 158 209 254 300 360
#     4  11  22  42  66  91 125 157 212 260 322 381
#
# _framework density 20.713246999999999
#
# number of rings (size 3 to 8) (size 9 to 14) (size 15 to 20)
#    0.000    1.600    3.333    1.200    4.667    0.000 
#    0.000    0.667    5.867    0.000    0.000    0.000 
#    0.000    0.000    0.000    0.000    0.000    0.000 
#
# Total GULP energy -371763.844831 kJ/mol
# GULP energy per Si atom -12392.128161 kJ/mol
# Density = 2.066610 g / cm^3
# Si number density = 20.713247 Si / 1000 Ang^3
#
#
#
# Elastic Constant Matrix: (Units=GPa)
#
#
# Indices 1 2 3 4 5 6 
#
# 1 96.3681 40.4447 30.7552 0.0000 5.7583 0.0000
# 2 40.4447 108.4041 34.3104 0.0000 9.0394 0.0000
# 3 30.7552 34.3104 81.1771 0.0000 7.9654 0.0000
# 4 0.0000 0.0000 0.0000 7.9145 0.0000 -45.0636
# 5 5.7583 9.0394 7.9654 0.0000 28.6720 0.0000
# 6 0.0000 0.0000 0.0000 -45.0636 0.0000 -57.0912
#
#
#
# Elastic Compliance Matrix: (Units=1/GPa)
#
#
# Indices 1 2 3 4 5 6 
#
# 1 0.013046 -0.003782 -0.003294 0.000000 -0.000513 0.000000
# 2 -0.003782 0.011878 -0.003387 0.000000 -0.002044 0.000000
# 3 -0.003294 -0.003387 0.015244 0.000000 -0.002506 0.000000
# 4 0.000000 0.000000 0.000000 0.022997 0.000000 -0.018152
# 5 -0.000513 -0.002044 -0.002506 0.000000 0.036321 0.000000
# 6 0.000000 0.000000 0.000000 -0.018152 0.000000 -0.003188
#
#
# Mechanical properties :
#
#
# Convention : Reuss Voigt Hill
#
# Bulk Modulus (GPa) = 51.96820 55.21889 53.59354
# Shear Modulus (GPa) = 40.44064 7.92832 24.18448
#
# Velocity S-wave (km/s) = 4.42340 1.95856 3.42070
# Velocity P-wave (km/s) = 7.15768 5.64192 6.44452
#
# Compressibility (1/GPa) = 0.01924254
#
# Stress axis : x y z
#
# Youngs Moduli (GPa) = 76.65164 84.18726 65.59925
#
# Poissons Ratio (x) = 0.31841 0.21607
# Poissons Ratio (y) = 0.28990 0.22218
# Poissons Ratio (z) = 0.25248 0.28514
#
# Static dielectric constant tensor:
#      x y z
#    x 3.978180 0.000000 0.297560 
#    y 0.000000 3.775350 0.000000 
#    z 0.297560 0.000000 3.631350 
# 
# 
# High freq. dielectric constant tensor:
#      x y z
#    x 1.810360 0.000000 0.014520 
#    y 0.000000 1.820850 0.000000 
#    z 0.014520 0.000000 1.787140 
# 
# From -- ./inp_files/63497.got.cif
#   From: 2010.06.25/outbox.cif.g09.slc.cpg/sg15_32_cif.got.tgz:63497.got - 2010.06.28 07:06:18.
