data_PCOD8134059
_publ_section_title
;
Structure prediction by ZEFSAII (Michael W. Deem and Ramdas Pophale) SiO2 
 PCOD8134059
Probable space group: C 2/C
;
_chemical_formula_sum "Si O2"
_cell_formula_units_Z 52
_cell_length_a 14.074610
_cell_length_b 22.554962
_cell_length_c 10.911669
_cell_angle_alpha 90.000000
_cell_angle_beta 51.952088
_cell_angle_gamma 90.000000
_cell_volume 2727.833229
_symmetry_space_group_name_H-M "C 2/C"
_symmetry_group_IT_number 15
_symmetry_cell_setting 'monoclinic'
loop_
_space_group_symop_operation_xyz
x,y,z
-x,y,1/2-z
-x,-y,-z
x,-y,1/2+z
1/2+x,1/2+y,z
1/2-x,1/2+y,1/2-z
1/2-x,1/2-y,-z
1/2+x,1/2-y,1/2+z
loop_
_atom_site_type_symbol
_atom_site_label
_atom_site_fract_x
_atom_site_fract_y
_atom_site_fract_z
Si Si1 0.692410 0.754869 0.229332
Si Si2 0.000000 0.820978 0.750000
Si Si3 0.150044 0.436829 0.353559
Si Si4 0.768431 0.128746 0.544266
Si Si5 0.625276 0.934152 0.944583
Si Si6 0.862719 0.326567 0.720540
Si Si7 0.136896 0.323931 0.510433
O O1 0.569703 0.721045 0.291422
O O2 0.719135 0.804339 0.105536
O O3 0.797543 0.706253 0.158897
O O4 0.697680 0.784073 0.359152
O O5 0.090664 0.863954 0.602682
O O6 0.248839 0.413181 0.177674
O O7 0.185345 0.502005 0.372228
O O8 0.151382 0.393344 0.468435
O O9 0.015129 0.438865 0.402789
O O10 0.695907 0.098814 0.493991
O O11 0.638471 0.896608 0.809025
O O12 0.803502 0.315457 0.902211
O O13 0.998558 0.303761 0.619622
#
# Coordination Sequence:
#
# PCOD8134059 Si02
#       7
#     8   4   8   8   8   8   8
#     4  11  22  36  57  83 119 158 194 243 286 348
#     4  12  24  36  58  88 120 164 200 234 298 358
#     4   9  21  36  59  85 113 147 193 243 301 345
#     4  11  23  38  59  87 119 153 200 246 295 355
#     4  10  20  36  58  87 114 149 187 247 300 345
#     4  10  19  35  54  84 115 149 187 241 291 348
#     4   9  20  34  56  82 114 146 190 236 301 344
#
# _framework density 19.062747999999999
#
# number of rings (size 3 to 8) (size 9 to 14) (size 15 to 20)
#    0.000    1.846    1.538    2.308    8.615    0.000 
#    0.000    0.769    0.000    0.000    0.000    0.000 
#    0.000    0.000    0.000    0.000    0.000    0.000 
#
# Total GULP energy -322265.219336 kJ/mol
# GULP energy per Si atom -12394.816128 kJ/mol
# Density = 1.901936 g / cm^3
# Si number density = 19.062748 Si / 1000 Ang^3
#
#
#
# Elastic Constant Matrix: (Units=GPa)
#
#
# Indices 1 2 3 4 5 6 
#
# 1 92.5495 47.7629 32.6707 0.0000 7.4614 0.0000
# 2 47.7629 123.1972 46.1330 0.0000 0.2559 0.0000
# 3 32.6707 46.1330 102.3056 0.0000 -1.7818 0.0000
# 4 0.0000 0.0000 0.0000 21.3841 0.0000 -1.7584
# 5 7.4614 0.2559 -1.7818 0.0000 23.5782 0.0000
# 6 0.0000 0.0000 0.0000 -1.7584 0.0000 28.4738
#
#
#
# Elastic Compliance Matrix: (Units=1/GPa)
#
#
# Indices 1 2 3 4 5 6 
#
# 1 0.014503 -0.004630 -0.002626 0.000000 -0.004738 0.000000
# 2 -0.004630 0.011248 -0.003575 0.000000 0.001073 0.000000
# 3 -0.002626 -0.003575 0.012257 0.000000 0.001796 0.000000
# 4 0.000000 0.000000 0.000000 0.047002 0.000000 0.002903
# 5 -0.004738 0.001073 0.001796 0.000000 0.044035 0.000000
# 6 0.000000 0.000000 0.000000 0.002903 0.000000 0.035299
#
#
# Mechanical properties :
#
#
# Convention : Reuss Voigt Hill
#
# Bulk Modulus (GPa) = 61.17603 63.46504 62.32053
# Shear Modulus (GPa) = 26.11554 27.45295 26.78425
#
# Velocity S-wave (km/s) = 3.70534 3.79903 3.75248
# Velocity P-wave (km/s) = 7.10406 7.25317 7.17900
#
# Compressibility (1/GPa) = 0.01634627
#
# Stress axis : x y z
#
# Youngs Moduli (GPa) = 68.94960 88.90102 81.58698
#
# Poissons Ratio (x) = 0.41157 0.21429
# Poissons Ratio (y) = 0.31920 0.29169
# Poissons Ratio (z) = 0.18109 0.31784
#
# Static dielectric constant tensor:
#      x y z
#    x 3.310640 0.000000 0.189760 
#    y 0.000000 3.634600 0.000000 
#    z 0.189760 0.000000 3.641060 
# 
# 
# High freq. dielectric constant tensor:
#      x y z
#    x 1.723330 0.000000 0.019360 
#    y 0.000000 1.746050 0.000000 
#    z 0.019360 0.000000 1.738530 
# 
# From -- ./inp_files/99700.got.cif
#   From: 2010.06.25/outbox.cif.g09.slc.cpg/sg15_50_cif.got.tgz:99700.got - 2010.06.28 07:06:18.
