data_PCOD8134332
_publ_section_title
;
Structure prediction by ZEFSAII (Michael W. Deem and Ramdas Pophale) SiO2 
 PCOD8134332
Probable space group: C 2/C
;
_chemical_formula_sum "Si O2"
_cell_formula_units_Z 60
_cell_length_a 18.532758
_cell_length_b 8.226836
_cell_length_c 23.086554
_cell_angle_alpha 90.000000
_cell_angle_beta 121.744528
_cell_angle_gamma 90.000000
_cell_volume 2993.343273
_symmetry_space_group_name_H-M "C 2/C"
_symmetry_group_IT_number 15
_symmetry_cell_setting 'monoclinic'
loop_
_space_group_symop_operation_xyz
x,y,z
-x,y,1/2-z
-x,-y,-z
x,-y,1/2+z
1/2+x,1/2+y,z
1/2-x,1/2+y,1/2-z
1/2-x,1/2-y,-z
1/2+x,1/2-y,1/2+z
loop_
_atom_site_type_symbol
_atom_site_label
_atom_site_fract_x
_atom_site_fract_y
_atom_site_fract_z
Si Si1 0.178507 0.058540 0.321679
Si Si2 0.000000 0.068744 0.750000
Si Si3 0.181894 0.337386 0.114104
Si Si4 0.704975 0.657702 0.594291
Si Si5 0.657923 0.546039 0.180407
Si Si6 0.818424 0.858814 0.994799
Si Si7 0.506444 0.355016 0.377403
Si Si8 0.937694 0.383166 0.938678
O O1 0.222292 0.891069 0.362917
O O2 0.196226 0.048136 0.260469
O O3 0.078917 0.053237 0.292268
O O4 0.217821 0.213403 0.372154
O O5 0.993639 0.183912 0.803707
O O6 0.142200 0.247073 0.041393
O O7 0.136583 0.501799 0.115332
O O8 0.173882 0.227128 0.166414
O O9 0.707684 0.576370 0.658990
O O10 0.720698 0.524881 0.549691
O O11 0.611952 0.743279 0.545072
O O12 0.557479 0.502609 0.134727
O O13 0.750000 0.750000 0.000000
O O14 0.896716 0.908251 0.069044
O O15 0.485353 0.192387 0.403857
O O16 0.000000 0.500000 0.000000
#
# Coordination Sequence:
#
# PCOD8134332 Si02
#       8
#     8   4   8   8   8   8   8   8
#     4  10  19  38  57  86 118 153 200 237 298 358
#     4  10  22  40  60  80 120 172 196 236 292 372
#     4  10  20  34  60  88 117 146 195 250 300 352
#     4   9  21  35  59  89 118 152 198 252 297 357
#     4   9  19  34  61  87 115 156 187 250 299 354
#     4  11  22  38  57  86 117 162 198 243 300 363
#     4  10  21  38  60  84 118 156 203 238 304 361
#     4  10  19  35  60  93 121 146 192 257 309 345
#
# _framework density 20.044477000000001
#
# number of rings (size 3 to 8) (size 9 to 14) (size 15 to 20)
#    0.000    2.133    1.333    1.600    1.867    2.667 
#    0.000   10.000    0.000    4.000    0.000    0.000 
#    0.000    0.000    0.000    0.000    0.000    0.000 
#
# Total GULP energy -371733.043488 kJ/mol
# GULP energy per Si atom -12391.101450 kJ/mol
# Density = 1.999885 g / cm^3
# Si number density = 20.044477 Si / 1000 Ang^3
#
#
#
# Elastic Constant Matrix: (Units=GPa)
#
#
# Indices 1 2 3 4 5 6 
#
# 1 89.0046 47.1884 40.8619 0.0000 9.4547 0.0000
# 2 47.1884 119.2148 47.6207 0.0000 0.3173 0.0000
# 3 40.8619 47.6207 100.6599 0.0000 7.5405 0.0000
# 4 0.0000 0.0000 0.0000 29.1341 0.0000 -4.5114
# 5 9.4547 0.3173 7.5405 0.0000 31.3233 0.0000
# 6 0.0000 0.0000 0.0000 -4.5114 0.0000 21.6772
#
#
#
# Elastic Compliance Matrix: (Units=1/GPa)
#
#
# Indices 1 2 3 4 5 6 
#
# 1 0.015965 -0.004728 -0.003958 0.000000 -0.003818 0.000000
# 2 -0.004728 0.011780 -0.003820 0.000000 0.002228 0.000000
# 3 -0.003958 -0.003820 0.013500 0.000000 -0.002016 0.000000
# 4 0.000000 0.000000 0.000000 0.035467 0.000000 0.007381
# 5 -0.003818 0.002228 -0.002016 0.000000 0.033540 0.000000
# 6 0.000000 0.000000 0.000000 0.007381 0.000000 0.047668
#
#
# Mechanical properties :
#
#
# Convention : Reuss Voigt Hill
#
# Bulk Modulus (GPa) = 61.60934 64.46901 63.03918
# Shear Modulus (GPa) = 26.54734 27.97412 27.26073
#
# Velocity S-wave (km/s) = 3.64321 3.73983 3.69183
# Velocity P-wave (km/s) = 6.96422 7.13311 7.04917
#
# Compressibility (1/GPa) = 0.01623131
#
# Stress axis : x y z
#
# Youngs Moduli (GPa) = 62.63777 84.89044 74.07650
#
# Poissons Ratio (x) = 0.40137 0.29319
# Poissons Ratio (y) = 0.29616 0.28300
# Poissons Ratio (z) = 0.24792 0.32432
#
# Static dielectric constant tensor:
#      x y z
#    x 3.680990 0.000000 0.076420 
#    y 0.000000 3.738660 0.000000 
#    z 0.076420 0.000000 3.729570 
# 
# 
# High freq. dielectric constant tensor:
#      x y z
#    x 1.775050 0.000000 0.005200 
#    y 0.000000 1.774430 0.000000 
#    z 0.005200 0.000000 1.786900 
# 
# From -- ./inp_files/276573.got.cif
#   From: 2010.06.25/outbox.cif.g09.slc.cpg/sg15_139_cif.got.tgz:276573.got - 2010.06.28 07:06:18.
