data_PCOD8134870
_publ_section_title
;
Structure prediction by ZEFSAII (Michael W. Deem and Ramdas Pophale) SiO2 
 PCOD8134870
Probable space group: C 2/C
;
_chemical_formula_sum "Si O2"
_cell_formula_units_Z 48
_cell_length_a 26.765937
_cell_length_b 16.653512
_cell_length_c 5.308539
_cell_angle_alpha 90.000000
_cell_angle_beta 81.558138
_cell_angle_gamma 90.000000
_cell_volume 2340.626873
_symmetry_space_group_name_H-M "C 2/C"
_symmetry_group_IT_number 15
_symmetry_cell_setting 'monoclinic'
loop_
_space_group_symop_operation_xyz
x,y,z
-x,y,1/2-z
-x,-y,-z
x,-y,1/2+z
1/2+x,1/2+y,z
1/2-x,1/2+y,1/2-z
1/2-x,1/2-y,-z
1/2+x,1/2-y,1/2+z
loop_
_atom_site_type_symbol
_atom_site_label
_atom_site_fract_x
_atom_site_fract_y
_atom_site_fract_z
Si Si1 0.297484 0.681946 0.225334
Si Si2 0.000000 0.552511 0.250000
Si Si3 0.578995 0.171375 0.335812
Si Si4 0.127036 0.050511 0.398943
Si Si5 0.814748 0.279415 0.706356
Si Si6 0.000000 0.291927 0.250000
Si Si7 0.951994 0.174971 0.898538
O O1 0.318736 0.592223 0.172855
O O2 0.237249 0.671880 0.289902
O O3 0.320315 0.718551 0.466368
O O4 0.314043 0.734541 0.974438
O O5 0.050384 0.609137 0.170552
O O6 0.000000 0.500000 0.500000
O O7 0.639059 0.155825 0.328554
O O8 0.547301 0.155475 0.616548
O O9 0.578940 0.267801 0.271035
O O10 0.083863 0.118057 0.412622
O O11 0.120292 0.012025 0.678993
O O12 0.019588 0.239378 0.459055
O O13 0.000000 0.124452 0.750000
#
# Coordination Sequence:
#
# PCOD8134870 Si02
#       7
#     8   4   8   8   8   4   8
#     4  10  21  41  60 101 119 158 215 276 310 374
#     4  12  27  42  60  95 134 160 204 258 345 398
#     4  11  21  40  65  94 122 173 209 270 311 383
#     4  12  26  40  60  89 136 175 200 262 329 373
#     4  10  21  37  73  90 120 153 225 273 303 364
#     4  10  19  36  66  89 124 156 222 266 301 358
#     4  10  22  37  62  90 120 169 226 257 299 375
#
# _framework density 20.507325999999999
#
# number of rings (size 3 to 8) (size 9 to 14) (size 15 to 20)
#    0.000    1.333    4.167    2.500    4.667    0.667 
#    0.000    1.667    0.000    0.000    0.000    0.000 
#    0.000    0.000    0.000    0.000    0.000    0.000 
#
# Total GULP energy -297329.818108 kJ/mol
# GULP energy per Si atom -12388.742421 kJ/mol
# Density = 2.046065 g / cm^3
# Si number density = 20.507326 Si / 1000 Ang^3
#
#
#
# Elastic Constant Matrix: (Units=GPa)
#
#
# Indices 1 2 3 4 5 6 
#
# 1 150.6468 43.0007 37.0475 0.0000 -19.6998 0.0000
# 2 43.0007 70.4112 26.3889 0.0000 -13.2236 0.0000
# 3 37.0475 26.3889 117.0612 0.0000 -8.0866 0.0000
# 4 0.0000 0.0000 0.0000 38.0391 0.0000 -7.0148
# 5 -19.6998 -13.2236 -8.0866 0.0000 29.5816 0.0000
# 6 0.0000 0.0000 0.0000 -7.0148 0.0000 31.8431
#
#
#
# Elastic Compliance Matrix: (Units=1/GPa)
#
#
# Indices 1 2 3 4 5 6 
#
# 1 0.008635 -0.004019 -0.001584 0.000000 0.003521 0.000000
# 2 -0.004019 0.018541 -0.002569 0.000000 0.004910 0.000000
# 3 -0.001584 -0.002569 0.009653 0.000000 0.000436 0.000000
# 4 0.000000 0.000000 0.000000 0.027402 0.000000 0.006036
# 5 0.003521 0.004910 0.000436 0.000000 0.038464 0.000000
# 6 0.000000 0.000000 0.000000 0.006036 0.000000 0.032734
#
#
# Mechanical properties :
#
#
# Convention : Reuss Voigt Hill
#
# Bulk Modulus (GPa) = 48.81098 61.22147 55.01622
# Shear Modulus (GPa) = 31.52587 35.33824 33.43206
#
# Velocity S-wave (km/s) = 3.92509 4.15565 4.04202
# Velocity P-wave (km/s) = 6.66297 7.27627 6.97637
#
# Compressibility (1/GPa) = 0.02048720
#
# Stress axis : x y z
#
# Youngs Moduli (GPa) = 115.80710 53.93348 103.59572
#
# Poissons Ratio (x) = 0.21674 0.16406
# Poissons Ratio (y) = 0.46539 0.26611
# Poissons Ratio (z) = 0.18340 0.13854
#
# Static dielectric constant tensor:
#      x y z
#    x 3.986620 0.000000 -0.217920 
#    y 0.000000 3.552620 0.000000 
#    z -0.217920 0.000000 4.094630 
# 
# 
# High freq. dielectric constant tensor:
#      x y z
#    x 1.811980 0.000000 -0.006010 
#    y 0.000000 1.764020 0.000000 
#    z -0.006010 0.000000 1.821180 
# 
# From -- ./inp_files/16991.got.cif
#   From: 2010.06.25/outbox.cif.g09.slc.cpg/sg15_9_cif.got.tgz:16991.got - 2010.06.28 07:06:18.
