data_PCOD8134780
_publ_section_title
;
Structure prediction by ZEFSAII (Michael W. Deem and Ramdas Pophale) SiO2 
 PCOD8134780
Probable space group: C 2/C
;
_chemical_formula_sum "Si O2"
_cell_formula_units_Z 56
_cell_length_a 14.355173
_cell_length_b 15.093380
_cell_length_c 17.824702
_cell_angle_alpha 90.000000
_cell_angle_beta 45.993215
_cell_angle_gamma 90.000000
_cell_volume 2777.804225
_symmetry_space_group_name_H-M "C 2/C"
_symmetry_group_IT_number 15
_symmetry_cell_setting 'monoclinic'
loop_
_space_group_symop_operation_xyz
x,y,z
-x,y,1/2-z
-x,-y,-z
x,-y,1/2+z
1/2+x,1/2+y,z
1/2-x,1/2+y,1/2-z
1/2-x,1/2-y,-z
1/2+x,1/2-y,1/2+z
loop_
_atom_site_type_symbol
_atom_site_label
_atom_site_fract_x
_atom_site_fract_y
_atom_site_fract_z
Si Si1 0.586935 0.751551 0.393095
Si Si2 0.502810 0.597647 0.969436
Si Si3 0.289228 0.153696 0.790681
Si Si4 0.591545 0.669279 0.628050
Si Si5 0.493507 0.019048 0.838992
Si Si6 0.390802 0.153893 0.470890
Si Si7 0.870717 0.696947 0.902620
O O1 0.594922 0.653041 0.422353
O O2 0.721090 0.781460 0.277086
O O3 0.549307 0.816515 0.482859
O O4 0.489712 0.756730 0.377577
O O5 0.646809 0.634894 0.899958
O O6 0.457172 0.602846 0.909531
O O7 0.500000 0.500000 0.000000
O O8 0.367534 0.065259 0.720297
O O9 0.371345 0.201642 0.811367
O O10 0.500000 0.654976 0.750000
O O11 0.584299 0.771170 0.605690
O O12 0.737122 0.640437 0.566902
O O13 0.500000 0.984718 0.750000
O O14 0.377677 0.091026 0.916674
O O15 0.465145 0.935676 0.907720
O O16 0.750000 0.750000 0.000000
#
# Coordination Sequence:
#
# PCOD8134780 Si02
#       7
#     8   8   8   8   8   8   8
#     4  10  21  40  61  89 120 158 202 249 304 363
#     4  11  24  41  63  92 124 161 201 253 310 366
#     4  10  21  40  61  89 123 153 205 250 300 372
#     4  10  22  40  61  87 127 165 199 251 308 366
#     4   9  20  35  62  90 114 159 201 252 297 359
#     4  10  21  38  62  91 121 160 208 249 302 363
#     4  10  19  36  62  86 121 159 192 252 306 353
#
# _framework density 20.159808999999999
#
# number of rings (size 3 to 8) (size 9 to 14) (size 15 to 20)
#    0.000    2.000    1.429    2.571    4.000    2.286 
#    7.714    4.286    0.000    0.857    0.000    0.000 
#    0.000    0.000    0.000    0.000    0.000    0.000 
#
# Total GULP energy -346952.717507 kJ/mol
# GULP energy per Si atom -12391.168482 kJ/mol
# Density = 2.011392 g / cm^3
# Si number density = 20.159809 Si / 1000 Ang^3
#
#
#
# Elastic Constant Matrix: (Units=GPa)
#
#
# Indices 1 2 3 4 5 6 
#
# 1 76.2207 18.1456 29.5849 0.0000 8.8026 0.0000
# 2 18.1456 111.3782 57.5105 0.0000 15.0067 0.0000
# 3 29.5849 57.5105 105.4304 0.0000 13.2680 0.0000
# 4 0.0000 0.0000 0.0000 28.3117 0.0000 -1.4329
# 5 8.8026 15.0067 13.2680 0.0000 31.7052 0.0000
# 6 0.0000 0.0000 0.0000 -1.4329 0.0000 22.0601
#
#
#
# Elastic Compliance Matrix: (Units=1/GPa)
#
#
# Indices 1 2 3 4 5 6 
#
# 1 0.014913 -0.000133 -0.003799 0.000000 -0.002488 0.000000
# 2 -0.000133 0.012822 -0.006542 0.000000 -0.003294 0.000000
# 3 -0.003799 -0.006542 0.014353 0.000000 -0.001855 0.000000
# 4 0.000000 0.000000 0.000000 0.035438 0.000000 0.002302
# 5 -0.002488 -0.003294 -0.001855 0.000000 0.034567 0.000000
# 6 0.000000 0.000000 0.000000 0.002302 0.000000 0.045480
#
#
# Mechanical properties :
#
#
# Convention : Reuss Voigt Hill
#
# Bulk Modulus (GPa) = 47.30408 55.94567 51.62488
# Shear Modulus (GPa) = 26.94413 28.93462 27.93937
#
# Velocity S-wave (km/s) = 3.65982 3.79260 3.72680
# Velocity P-wave (km/s) = 6.43230 6.85490 6.64696
#
# Compressibility (1/GPa) = 0.02113983
#
# Stress axis : x y z
#
# Youngs Moduli (GPa) = 67.05368 77.99031 69.67017
#
# Poissons Ratio (x) = 0.01034 0.26471
# Poissons Ratio (y) = 0.00889 0.45581
# Poissons Ratio (z) = 0.25477 0.51025
#
# Static dielectric constant tensor:
#      x y z
#    x 3.782780 0.000000 -0.040530 
#    y 0.000000 3.523530 0.000000 
#    z -0.040530 0.000000 4.333910 
# 
# 
# High freq. dielectric constant tensor:
#      x y z
#    x 1.791140 0.000000 0.010270 
#    y 0.000000 1.766420 0.000000 
#    z 0.010270 0.000000 1.793500 
# 
# From -- ./inp_files/205328.got.cif
#   From: 2010.06.25/outbox.cif.g09.slc.cpg/sg15_103_cif.got.tgz:205328.got - 2010.06.28 07:06:18.
