data_PCOD8134537
_publ_section_title
;
Structure prediction by ZEFSAII (Michael W. Deem and Ramdas Pophale) SiO2 
 PCOD8134537
Probable space group: C 2/C
;
_chemical_formula_sum "Si O2"
_cell_formula_units_Z 56
_cell_length_a 21.683984
_cell_length_b 24.920210
_cell_length_c 5.232996
_cell_angle_alpha 90.000000
_cell_angle_beta 89.953302
_cell_angle_gamma 90.000000
_cell_volume 2827.750152
_symmetry_space_group_name_H-M "C 2/C"
_symmetry_group_IT_number 15
_symmetry_cell_setting 'monoclinic'
loop_
_space_group_symop_operation_xyz
x,y,z
-x,y,1/2-z
-x,-y,-z
x,-y,1/2+z
1/2+x,1/2+y,z
1/2-x,1/2+y,1/2-z
1/2-x,1/2-y,-z
1/2+x,1/2-y,1/2+z
loop_
_atom_site_type_symbol
_atom_site_label
_atom_site_fract_x
_atom_site_fract_y
_atom_site_fract_z
Si Si1 0.630600 0.187136 0.273544
Si Si2 0.863691 0.020389 0.248710
Si Si3 0.186414 0.197548 0.755840
Si Si4 0.187453 0.353565 0.273386
Si Si5 0.772587 0.474203 0.223384
Si Si6 0.000000 0.190828 0.250000
Si Si7 0.368919 0.354802 0.744231
Si Si8 0.500000 0.237580 0.250000
O O1 0.671990 0.240149 0.282502
O O2 0.647382 0.150992 0.517351
O O3 0.558655 0.200035 0.290669
O O4 0.643137 0.153923 0.016231
O O5 0.852254 0.083114 0.218359
O O6 0.900677 0.004916 0.507631
O O7 0.799656 0.988070 0.283658
O O8 0.259417 0.191549 0.715161
O O9 0.149244 0.174370 0.516375
O O10 0.168409 0.168172 0.017496
O O11 0.220509 0.410674 0.283088
O O12 0.804669 0.499363 0.474425
O O13 0.941447 0.152693 0.292529
O O14 0.010377 0.226683 0.499695
#
# Coordination Sequence:
#
# PCOD8134537 Si02
#       8
#     8   8   8   8   8   4   8   4
#     4  12  24  41  61  94 124 167 205 257 310 374
#     4  10  20  35  55  83 116 157 209 254 305 355
#     4  12  22  39  60  92 133 164 196 260 315 381
#     4  12  24  38  62  96 130 159 206 257 320 377
#     4  10  19  36  57  85 120 161 197 243 307 378
#     4  12  22  42  62  91 118 173 230 252 290 358
#     4  12  22  38  64  90 122 175 219 253 303 363
#     4  12  24  46  66  83 130 169 218 252 298 362
#
# _framework density 19.803730999999999
#
# number of rings (size 3 to 8) (size 9 to 14) (size 15 to 20)
#    0.000    0.571    2.857    8.571    0.000    0.000 
#    0.000    0.714    0.000    0.000    0.000   10.000 
#    0.000    0.000    0.000    0.000    0.000    0.000 
#
# Total GULP energy -347259.971936 kJ/mol
# GULP energy per Si atom -12402.141855 kJ/mol
# Density = 1.975866 g / cm^3
# Si number density = 19.803731 Si / 1000 Ang^3
#
#
#
# Elastic Constant Matrix: (Units=GPa)
#
#
# Indices 1 2 3 4 5 6 
#
# 1 86.0798 21.2231 5.5773 0.0000 -1.5906 0.0000
# 2 21.2231 76.7999 11.7253 0.0000 0.0456 0.0000
# 3 5.5773 11.7253 140.8981 0.0000 -2.1099 0.0000
# 4 0.0000 0.0000 0.0000 -59.1418 0.0000 -23.6244
# 5 -1.5906 0.0456 -2.1099 0.0000 20.5491 0.0000
# 6 0.0000 0.0000 0.0000 -23.6244 0.0000 6.6811
#
#
#
# Elastic Compliance Matrix: (Units=1/GPa)
#
#
# Indices 1 2 3 4 5 6 
#
# 1 0.012491 -0.003423 -0.000195 0.000000 0.000954 0.000000
# 2 -0.003423 0.014127 -0.001046 0.000000 -0.000404 0.000000
# 3 -0.000195 -0.001046 0.007203 0.000000 0.000727 0.000000
# 4 0.000000 0.000000 0.000000 -0.007009 0.000000 -0.024783
# 5 0.000954 -0.000404 0.000727 0.000000 0.048813 0.000000
# 6 0.000000 0.000000 0.000000 -0.024783 0.000000 0.062043
#
#
# Mechanical properties :
#
#
# Convention : Reuss Voigt Hill
#
# Bulk Modulus (GPa) = 40.82852 42.31435 41.57144
# Shear Modulus (GPa) = 32.22468 11.30114 21.76291
#
# Velocity S-wave (km/s) = 4.03824 2.39143 3.31861
# Velocity P-wave (km/s) = 6.51187 5.38874 5.97675
#
# Compressibility (1/GPa) = 0.02449268
#
# Stress axis : x y z
#
# Youngs Moduli (GPa) = 80.05588 70.78827 138.83099
#
# Poissons Ratio (x) = 0.24228 0.02712
# Poissons Ratio (y) = 0.27400 0.14524
# Poissons Ratio (z) = 0.01564 0.07406
#
# Static dielectric constant tensor:
#      x y z
#    x 3.345550 0.000000 0.005980 
#    y 0.000000 3.477050 0.000000 
#    z 0.005980 0.000000 5.064110 
# 
# 
# High freq. dielectric constant tensor:
#      x y z
#    x 1.736400 0.000000 0.001050 
#    y 0.000000 1.767210 0.000000 
#    z 0.001050 0.000000 1.812760 
# 
# From -- ./inp_files/13734.got.cif
#   From: 2010.06.25/outbox.cif.g09.slc.cpg/sg15_7_cif.got.tgz:13734.got - 2010.06.28 07:06:18.
