data_PCOD8134603
_publ_section_title
;
Structure prediction by ZEFSAII (Michael W. Deem and Ramdas Pophale) SiO2 
 PCOD8134603
Probable space group: C 2/C
;
_chemical_formula_sum "Si O2"
_cell_formula_units_Z 52
_cell_length_a 17.320651
_cell_length_b 11.530427
_cell_length_c 13.725557
_cell_angle_alpha 90.000000
_cell_angle_beta 108.885687
_cell_angle_gamma 90.000000
_cell_volume 2593.624085
_symmetry_space_group_name_H-M "C 2/C"
_symmetry_group_IT_number 15
_symmetry_cell_setting 'monoclinic'
loop_
_space_group_symop_operation_xyz
x,y,z
-x,y,1/2-z
-x,-y,-z
x,-y,1/2+z
1/2+x,1/2+y,z
1/2-x,1/2+y,1/2-z
1/2-x,1/2-y,-z
1/2+x,1/2-y,1/2+z
loop_
_atom_site_type_symbol
_atom_site_label
_atom_site_fract_x
_atom_site_fract_y
_atom_site_fract_z
Si Si1 0.200661 0.222222 0.076409
Si Si2 0.687503 0.594245 0.407194
Si Si3 0.000000 0.793133 0.250000
Si Si4 0.246017 0.672634 0.867644
Si Si5 0.348015 0.814090 0.780278
Si Si6 0.308079 0.045459 0.834563
Si Si7 0.439251 0.445832 0.052577
O O1 0.263495 0.178163 0.184545
O O2 0.156546 0.342289 0.094258
O O3 0.250000 0.250000 0.000000
O O4 0.131936 0.125498 0.031269
O O5 0.744009 0.610961 0.525092
O O6 0.684361 0.716972 0.350062
O O7 0.725189 0.492941 0.355606
O O8 0.598018 0.552848 0.401558
O O9 0.921614 0.713225 0.237664
O O10 0.987873 0.866658 0.147802
O O11 0.332749 0.716251 0.857156
O O12 0.207865 0.576621 0.783631
O O13 0.367052 0.933526 0.847694
O O14 0.500000 0.500000 0.000000
#
# Coordination Sequence:
#
# PCOD8134603 Si02
#       7
#     8   8   4   8   8   8   8
#     4  11  20  41  65  89 122 167 213 250 316 395
#     4  10  19  36  58  86 123 160 194 258 317 357
#     4  12  24  40  58  90 130 166 206 270 322 372
#     4   9  19  34  58  89 117 152 212 252 296 382
#     4  10  21  38  62  88 125 162 215 258 312 377
#     4  10  20  34  62  90 111 165 211 250 298 379
#     4  12  25  39  64  95 128 162 206 266 327 375
#
# _framework density 20.049166
#
# number of rings (size 3 to 8) (size 9 to 14) (size 15 to 20)
#    0.000    1.538    3.077    2.769    0.000    4.923 
#    0.000    2.308    0.000    0.000    0.000    0.000 
#    0.000    0.000    0.000    0.000    0.000    0.000 
#
# Total GULP energy -322261.368046 kJ/mol
# GULP energy per Si atom -12394.668002 kJ/mol
# Density = 2.000353 g / cm^3
# Si number density = 20.049166 Si / 1000 Ang^3
#
#
#
# Elastic Constant Matrix: (Units=GPa)
#
#
# Indices 1 2 3 4 5 6 
#
# 1 123.1831 45.8381 32.3995 0.0000 -17.2855 0.0000
# 2 45.8381 87.7028 27.0221 0.0000 -7.8814 0.0000
# 3 32.3995 27.0221 85.0269 0.0000 -11.5012 0.0000
# 4 0.0000 0.0000 0.0000 40.5242 0.0000 -13.1666
# 5 -17.2855 -7.8814 -11.5012 0.0000 33.1883 0.0000
# 6 0.0000 0.0000 0.0000 -13.1666 0.0000 32.4362
#
#
#
# Elastic Compliance Matrix: (Units=1/GPa)
#
#
# Indices 1 2 3 4 5 6 
#
# 1 0.010987 -0.004730 -0.002163 0.000000 0.003850 0.000000
# 2 -0.004730 0.014767 -0.002885 0.000000 0.000043 0.000000
# 3 -0.002163 -0.002885 0.013909 0.000000 0.003009 0.000000
# 4 0.000000 0.000000 0.000000 0.028426 0.000000 0.011539
# 5 0.003850 0.000043 0.003009 0.000000 0.033189 0.000000
# 6 0.000000 0.000000 0.000000 0.011539 0.000000 0.035513
#
#
# Mechanical properties :
#
#
# Convention : Reuss Voigt Hill
#
# Bulk Modulus (GPa) = 49.73167 56.27027 53.00097
# Shear Modulus (GPa) = 30.66560 33.93995 32.30277
#
# Velocity S-wave (km/s) = 3.91515 4.11887 4.01830
# Velocity P-wave (km/s) = 6.73027 7.12371 6.92978
#
# Compressibility (1/GPa) = 0.02010791
#
# Stress axis : x y z
#
# Youngs Moduli (GPa) = 91.01502 67.71795 71.89681
#
# Poissons Ratio (x) = 0.32032 0.15549
# Poissons Ratio (y) = 0.43052 0.20741
# Poissons Ratio (z) = 0.19683 0.19535
#
# Static dielectric constant tensor:
#      x y z
#    x 3.474740 0.000000 -0.303990 
#    y 0.000000 3.955850 0.000000 
#    z -0.303990 0.000000 3.811950 
# 
# 
# High freq. dielectric constant tensor:
#      x y z
#    x 1.752640 0.000000 -0.043160 
#    y 0.000000 1.801810 0.000000 
#    z -0.043160 0.000000 1.781690 
# 
# From -- ./inp_files/152685.got.cif
#   From: 2010.06.25/outbox.cif.g09.slc.cpg/sg15_77_cif.got.tgz:152685.got - 2010.06.28 07:06:18.
