data_PCOD8134927
_publ_section_title
;
Structure prediction by ZEFSAII (Michael W. Deem and Ramdas Pophale) SiO2 
 PCOD8134927
Probable space group: C 2/C
;
_chemical_formula_sum "Si O2"
_cell_formula_units_Z 28
_cell_length_a 6.308574
_cell_length_b 14.749374
_cell_length_c 18.242160
_cell_angle_alpha 90.000000
_cell_angle_beta 58.764998
_cell_angle_gamma 90.000000
_cell_volume 1451.347342
_symmetry_space_group_name_H-M "C 2/C"
_symmetry_group_IT_number 15
_symmetry_cell_setting 'monoclinic'
loop_
_space_group_symop_operation_xyz
x,y,z
-x,y,1/2-z
-x,-y,-z
x,-y,1/2+z
1/2+x,1/2+y,z
1/2-x,1/2+y,1/2-z
1/2-x,1/2-y,-z
1/2+x,1/2-y,1/2+z
loop_
_atom_site_type_symbol
_atom_site_label
_atom_site_fract_x
_atom_site_fract_y
_atom_site_fract_z
Si Si1 0.000000 0.875013 0.250000
Si Si2 0.588342 0.310930 0.391090
Si Si3 0.570034 0.124994 0.036712
Si Si4 0.488491 0.939049 0.391024
O O1 0.946774 0.812222 0.189815
O O2 0.766107 0.937804 0.310035
O O3 0.618481 0.204622 0.404195
O O4 0.352348 0.344151 0.478993
O O5 0.818296 0.374971 0.371137
O O6 0.581137 0.045337 0.095815
O O7 0.461234 0.094179 0.978862
#
# Coordination Sequence:
#
# PCOD8134927 Si02
#       4
#     4   8   8   8
#     4  10  22  36  48  82 118 144 194 220 288 350
#     4  10  19  37  57  81 114 148 185 243 279 334
#     4   9  20  35  60  86 102 146 202 226 284 345
#     4  10  19  37  57  81 114 148 185 243 279 334
#
# _framework density 19.292418000000001
#
# number of rings (size 3 to 8) (size 9 to 14) (size 15 to 20)
#    0.000    2.286    0.000    2.571    0.000    0.000 
#   10.286    0.000    0.000    0.000    0.000    0.000 
#    0.000    0.000    0.000    0.000    0.000    0.000 
#
# Total GULP energy -173541.726726 kJ/mol
# GULP energy per Si atom -12395.837623 kJ/mol
# Density = 1.924851 g / cm^3
# Si number density = 19.292418 Si / 1000 Ang^3
#
#
#
# Elastic Constant Matrix: (Units=GPa)
#
#
# Indices 1 2 3 4 5 6 
#
# 1 95.1728 52.8315 36.1658 0.0000 -0.2326 0.0000
# 2 52.8315 167.6450 62.2348 0.0000 -0.2197 0.0000
# 3 36.1658 62.2348 107.3513 0.0000 -0.2283 0.0000
# 4 0.0000 0.0000 0.0000 8.5118 0.0000 -0.0147
# 5 -0.2326 -0.2197 -0.2283 0.0000 9.1292 0.0000
# 6 0.0000 0.0000 0.0000 -0.0147 0.0000 24.4164
#
#
#
# Elastic Compliance Matrix: (Units=1/GPa)
#
#
# Indices 1 2 3 4 5 6 
#
# 1 0.013286 -0.003218 -0.002610 0.000000 0.000196 0.000000
# 2 -0.003218 0.008380 -0.003774 0.000000 0.000025 0.000000
# 3 -0.002610 -0.003774 0.012383 0.000000 0.000152 0.000000
# 4 0.000000 0.000000 0.000000 0.117484 0.000000 0.000071
# 5 0.000196 0.000025 0.000152 0.000000 0.109548 0.000000
# 6 0.000000 0.000000 0.000000 0.000071 0.000000 0.040956
#
#
# Mechanical properties :
#
#
# Convention : Reuss Voigt Hill
#
# Bulk Modulus (GPa) = 67.36319 74.73702 71.05011
# Shear Modulus (GPa) = 15.32853 23.00727 19.16790
#
# Velocity S-wave (km/s) = 2.82181 3.45709 3.15548
# Velocity P-wave (km/s) = 6.75348 7.39989 7.08407
#
# Compressibility (1/GPa) = 0.01484490
#
# Stress axis : x y z
#
# Youngs Moduli (GPa) = 75.26917 119.33036 80.75698
#
# Poissons Ratio (x) = 0.38396 0.21078
# Poissons Ratio (y) = 0.24219 0.30479
# Poissons Ratio (z) = 0.19646 0.45037
#
# Static dielectric constant tensor:
#      x y z
#    x 3.415610 0.000000 -0.000700 
#    y 0.000000 3.719030 0.000000 
#    z -0.000700 0.000000 3.544150 
# 
# 
# High freq. dielectric constant tensor:
#      x y z
#    x 1.742630 0.000000 -0.000010 
#    y 0.000000 1.751740 0.000000 
#    z -0.000010 0.000000 1.752230 
# 
# From -- ./inp_files/127949.got.cif
#   From: 2010.06.25/outbox.cif.g09.slc.cpg/sg15_64_cif.got.tgz:127949.got - 2010.06.28 07:06:18.
