data_PCOD8134442
_publ_section_title
;
Structure prediction by ZEFSAII (Michael W. Deem and Ramdas Pophale) SiO2 
 PCOD8134442
Probable space group: C 2/C
;
_chemical_formula_sum "Si O2"
_cell_formula_units_Z 52
_cell_length_a 15.223265
_cell_length_b 11.323945
_cell_length_c 24.078225
_cell_angle_alpha 90.000000
_cell_angle_beta 37.030712
_cell_angle_gamma 90.000000
_cell_volume 2499.780101
_symmetry_space_group_name_H-M "C 2/C"
_symmetry_group_IT_number 15
_symmetry_cell_setting 'monoclinic'
loop_
_space_group_symop_operation_xyz
x,y,z
-x,y,1/2-z
-x,-y,-z
x,-y,1/2+z
1/2+x,1/2+y,z
1/2-x,1/2+y,1/2-z
1/2-x,1/2-y,-z
1/2+x,1/2-y,1/2+z
loop_
_atom_site_type_symbol
_atom_site_label
_atom_site_fract_x
_atom_site_fract_y
_atom_site_fract_z
Si Si1 0.908499 0.122101 0.899732
Si Si2 0.000000 0.766808 0.250000
Si Si3 0.773847 0.578032 0.336550
Si Si4 0.087159 0.672214 0.022866
Si Si5 0.457701 0.753092 0.077950
Si Si6 0.983924 0.457818 0.144176
Si Si7 0.693603 0.424798 0.477330
O O1 0.956367 0.205416 0.926147
O O2 0.021924 0.147904 0.792413
O O3 0.756123 0.152200 0.948020
O O4 0.902004 0.989127 0.926046
O O5 0.861610 0.679224 0.326047
O O6 0.653707 0.643797 0.359615
O O7 0.685628 0.499869 0.424908
O O8 0.878372 0.495193 0.247452
O O9 0.995586 0.566424 0.095986
O O10 0.049937 0.680499 0.976995
O O11 0.415877 0.846937 0.146361
O O12 0.622528 0.703547 0.003569
O O13 0.138189 0.415259 0.090606
#
# Coordination Sequence:
#
# PCOD8134442 Si02
#       7
#     8   4   8   8   8   8   8
#     4  10  19  35  66  92 119 160 215 254 311 363
#     4  12  18  38  68  92 122 164 216 272 300 362
#     4  12  22  39  66  93 120 168 220 260 304 374
#     4  10  19  38  61  92 123 162 208 259 304 374
#     4  12  25  39  64  96 127 165 214 260 314 380
#     4  11  24  42  64  94 131 167 206 262 324 367
#     4  11  23  43  65  90 131 174 205 252 322 389
#
# _framework density 20.801829000000001
#
# number of rings (size 3 to 8) (size 9 to 14) (size 15 to 20)
#    0.000    0.923    6.154    2.308    0.000    2.462 
#    0.000    0.000    6.769    0.000    0.000    0.000 
#    0.000    0.000    0.000    0.000    0.000    0.000 
#
# Total GULP energy -322372.540032 kJ/mol
# GULP energy per Si atom -12398.943847 kJ/mol
# Density = 2.075448 g / cm^3
# Si number density = 20.801829 Si / 1000 Ang^3
#
#
#
# Elastic Constant Matrix: (Units=GPa)
#
#
# Indices 1 2 3 4 5 6 
#
# 1 87.8159 39.3021 17.5768 0.0000 11.7471 0.0000
# 2 39.3021 68.3171 27.5796 0.0000 15.3078 0.0000
# 3 17.5768 27.5796 61.6671 -0.0002 17.0451 0.0001
# 4 0.0000 0.0000 -0.0002 24.1720 0.0001 -4.5488
# 5 11.7471 15.3078 17.0451 0.0001 30.0145 0.0000
# 6 0.0000 0.0000 0.0001 -4.5488 0.0000 24.4403
#
#
#
# Elastic Compliance Matrix: (Units=1/GPa)
#
#
# Indices 1 2 3 4 5 6 
#
# 1 0.015414 -0.008433 -0.000170 0.000000 -0.001636 0.000000
# 2 -0.008433 0.023253 -0.006679 0.000000 -0.004766 0.000000
# 3 -0.000170 -0.006679 0.021697 0.000000 -0.008849 0.000000
# 4 0.000000 0.000000 0.000000 0.042872 0.000000 0.007979
# 5 -0.001636 -0.004766 -0.008849 0.000000 0.041414 0.000000
# 6 0.000000 0.000000 0.000000 0.007979 0.000000 0.042401
#
#
# Mechanical properties :
#
#
# Convention : Reuss Voigt Hill
#
# Bulk Modulus (GPa) = 33.55458 42.96855 38.26157
# Shear Modulus (GPa) = 21.97344 24.61479 23.29411
#
# Velocity S-wave (km/s) = 3.25364 3.44364 3.34999
# Velocity P-wave (km/s) = 5.50277 6.04256 5.77897
#
# Compressibility (1/GPa) = 0.02980219
#
# Stress axis : x y z
#
# Youngs Moduli (GPa) = 64.87494 43.00544 46.08838
#
# Poissons Ratio (x) = 0.36264 0.00784
# Poissons Ratio (y) = 0.54706 0.30780
# Poissons Ratio (z) = 0.01104 0.28722
#
# Static dielectric constant tensor:
#      x y z
#    x 3.811220 0.000000 0.064380 
#    y 0.000000 3.735920 0.000000 
#    z 0.064380 0.000000 3.724390 
# 
# 
# High freq. dielectric constant tensor:
#      x y z
#    x 1.815700 0.000000 0.008540 
#    y 0.000000 1.804030 0.000000 
#    z 0.008540 0.000000 1.804890 
# 
# From -- ./inp_files/243793.got.cif
#   From: 2010.06.25/outbox.cif.g09.slc.cpg/sg15_122_cif.got.tgz:243793.got - 2010.06.28 07:06:18.
