data_PCOD8134074
_publ_section_title
;
Structure prediction by ZEFSAII (Michael W. Deem and Ramdas Pophale) SiO2 
 PCOD8134074
Probable space group: C 2/C
;
_chemical_formula_sum "Si O2"
_cell_formula_units_Z 40
_cell_length_a 5.163080
_cell_length_b 17.863103
_cell_length_c 25.107465
_cell_angle_alpha 90.000000
_cell_angle_beta 59.587358
_cell_angle_gamma 90.000000
_cell_volume 1997.001426
_symmetry_space_group_name_H-M "C 2/C"
_symmetry_group_IT_number 15
_symmetry_cell_setting 'monoclinic'
loop_
_space_group_symop_operation_xyz
x,y,z
-x,y,1/2-z
-x,-y,-z
x,-y,1/2+z
1/2+x,1/2+y,z
1/2-x,1/2+y,1/2-z
1/2-x,1/2-y,-z
1/2+x,1/2-y,1/2+z
loop_
_atom_site_type_symbol
_atom_site_label
_atom_site_fract_x
_atom_site_fract_y
_atom_site_fract_z
Si Si1 0.841995 0.287069 0.710978
Si Si2 0.943461 0.619455 0.409942
Si Si3 0.728245 0.596547 0.023655
Si Si4 0.301437 0.970146 0.091558
Si Si5 0.343767 0.387392 0.211075
O O1 0.500000 0.313731 0.750000
O O2 0.865117 0.199831 0.694862
O O3 0.000000 0.307301 0.750000
O O4 0.000601 0.330898 0.647286
O O5 0.591861 0.628103 0.460710
O O6 0.129660 0.646931 0.442861
O O7 0.040747 0.533232 0.387230
O O8 0.687827 0.510613 0.048964
O O9 0.954712 0.593995 0.949533
O O10 0.012332 0.933506 0.148253
O O11 0.500000 0.406093 0.250000
O O12 0.000000 0.414119 0.250000
#
# Coordination Sequence:
#
# PCOD8134074 Si02
#       5
#     8   8   8   8   8
#     4  10  21  39  55  76 113 153 181 229 278 326
#     4  10  19  35  55  82 106 141 187 220 275 331
#     4   9  20  34  58  81 111 142 175 229 287 315
#     4   9  21  36  58  79 115 139 181 229 276 326
#     4  10  23  38  56  79 112 149 186 222 280 329
#
# _framework density 20.030031999999999
#
# number of rings (size 3 to 8) (size 9 to 14) (size 15 to 20)
#    1.200    1.200    0.000    1.800    2.800    0.800 
#    0.000    2.000    0.000    0.000    0.000    0.000 
#    0.000    0.000    0.000    0.000    0.000    0.000 
#
# Total GULP energy -247879.602160 kJ/mol
# GULP energy per Si atom -12393.980108 kJ/mol
# Density = 1.998444 g / cm^3
# Si number density = 20.030032 Si / 1000 Ang^3
#
#
#
# Elastic Constant Matrix: (Units=GPa)
#
#
# Indices 1 2 3 4 5 6 
#
# 1 140.3849 21.6586 42.6058 0.0000 -25.1745 0.0000
# 2 21.6586 29.8795 39.9271 0.0000 -4.3445 0.0000
# 3 42.6058 39.9271 124.2763 0.0000 -29.7223 0.0000
# 4 0.0000 0.0000 0.0000 -306.6330 0.0000 238.4032
# 5 -25.1745 -4.3445 -29.7223 0.0000 32.9827 0.0000
# 6 0.0000 0.0000 0.0000 238.4032 0.0000 -323.2432
#
#
#
# Elastic Compliance Matrix: (Units=1/GPa)
#
#
# Indices 1 2 3 4 5 6 
#
# 1 0.009127 -0.006264 0.000449 0.000000 0.006546 0.000000
# 2 -0.006264 0.066780 -0.023387 0.000000 -0.017060 0.000000
# 3 0.000449 -0.023387 0.018804 0.000000 0.014208 0.000000
# 4 0.000000 0.000000 0.000000 -0.007645 0.000000 -0.005639
# 5 0.006546 -0.017060 0.014208 0.000000 0.045871 0.000000
# 6 0.000000 0.000000 0.000000 -0.005639 0.000000 -0.007252
#
#
# Mechanical properties :
#
#
# Convention : Reuss Voigt Hill
#
# Bulk Modulus (GPa) = 27.54358 55.88043 41.71200
# Shear Modulus (GPa) = 25.48519 -106.68875 -40.60178
#
# Velocity S-wave (km/s) = 3.57087 -7.30616 -4.50716
# Velocity P-wave (km/s) = 5.54820 6.57377 2.49319
#
# Compressibility (1/GPa) = 0.03630610
#
# Stress axis : x y z
#
# Youngs Moduli (GPa) = 109.56119 14.97463 53.17905
#
# Poissons Ratio (x) = 0.09380 -0.02388
# Poissons Ratio (y) = 0.68632 1.24372
# Poissons Ratio (z) = -0.04919 0.35022
#
# Static dielectric constant tensor:
#      x y z
#    x 3.797830 0.000000 -0.317280 
#    y 0.000000 3.277390 0.000000 
#    z -0.317280 0.000000 3.743850 
# 
# 
# High freq. dielectric constant tensor:
#      x y z
#    x 1.791780 0.000000 -0.011180 
#    y 0.000000 1.742430 0.000000 
#    z -0.011180 0.000000 1.780980 
# 
# From -- ./inp_files/260983.got.cif
#   From: 2010.06.25/outbox.cif.g09.slc.cpg/sg15_131_cif.got.tgz:260983.got - 2010.06.28 07:06:18.
