data_PCOD8134946
_publ_section_title
;
Structure prediction by ZEFSAII (Michael W. Deem and Ramdas Pophale) SiO2 
 PCOD8134946
Probable space group: C 2/C
;
_chemical_formula_sum "Si O2"
_cell_formula_units_Z 40
_cell_length_a 9.852597
_cell_length_b 21.520760
_cell_length_c 9.795199
_cell_angle_alpha 90.000000
_cell_angle_beta 95.872942
_cell_angle_gamma 90.000000
_cell_volume 2066.027418
_symmetry_space_group_name_H-M "C 2/C"
_symmetry_group_IT_number 15
_symmetry_cell_setting 'monoclinic'
loop_
_space_group_symop_operation_xyz
x,y,z
-x,y,1/2-z
-x,-y,-z
x,-y,1/2+z
1/2+x,1/2+y,z
1/2-x,1/2+y,1/2-z
1/2-x,1/2-y,-z
1/2+x,1/2-y,1/2+z
loop_
_atom_site_type_symbol
_atom_site_label
_atom_site_fract_x
_atom_site_fract_y
_atom_site_fract_z
Si Si1 0.217451 0.865624 0.538801
Si Si2 0.596072 0.519647 0.889287
Si Si3 0.988288 0.318147 0.904884
Si Si4 0.233786 0.104249 0.349653
Si Si5 0.472246 0.709304 0.092524
O O1 0.177074 0.916470 0.422039
O O2 0.366481 0.838979 0.519730
O O3 0.206878 0.895871 0.686226
O O4 0.110324 0.809308 0.527090
O O5 0.500000 0.527653 0.750000
O O6 0.709890 0.466137 0.891096
O O7 0.500000 0.500000 0.000000
O O8 0.889102 0.377724 0.898106
O O9 0.000000 0.293306 0.750000
O O10 0.918222 0.266342 0.994837
O O11 0.131925 0.151591 0.416630
O O12 0.500000 0.732309 0.250000
#
# Coordination Sequence:
#
# PCOD8134946 Si02
#       5
#     8   8   8   8   8
#     4  10  21  38  59  85 115 148 187 236 280 330
#     4  12  21  39  63  86 108 147 195 233 278 339
#     4  10  22  38  57  84 117 151 187 229 285 336
#     4  10  20  38  60  82 116 152 182 233 289 327
#     4  10  19  37  58  81 117 153 188 231 276 330
#
# _framework density 19.360828000000001
#
# number of rings (size 3 to 8) (size 9 to 14) (size 15 to 20)
#    0.000    1.600    4.000    1.800    0.000    1.600 
#    3.600    0.000    0.000    0.000    0.000    0.000 
#    0.000    0.000    0.000    0.000    0.000    0.000 
#
# Total GULP energy -248006.888168 kJ/mol
# GULP energy per Si atom -12400.344408 kJ/mol
# Density = 1.931676 g / cm^3
# Si number density = 19.360828 Si / 1000 Ang^3
#
#
#
# Elastic Constant Matrix: (Units=GPa)
#
#
# Indices 1 2 3 4 5 6 
#
# 1 99.8790 31.9828 28.2029 0.0000 4.9337 0.0000
# 2 31.9828 103.6100 55.0769 0.0000 6.5726 0.0000
# 3 28.2029 55.0769 85.2160 0.0000 5.2976 0.0000
# 4 0.0000 0.0000 0.0000 32.3803 0.0000 3.4801
# 5 4.9337 6.5726 5.2976 0.0000 20.7752 0.0000
# 6 0.0000 0.0000 0.0000 3.4801 0.0000 25.9656
#
#
#
# Elastic Compliance Matrix: (Units=1/GPa)
#
#
# Indices 1 2 3 4 5 6 
#
# 1 0.011436 -0.002246 -0.002244 0.000000 -0.001433 0.000000
# 2 -0.002246 0.015250 -0.008989 0.000000 -0.001999 0.000000
# 3 -0.002244 -0.008989 0.018368 0.000000 -0.001307 0.000000
# 4 0.000000 0.000000 0.000000 0.031334 0.000000 -0.004200
# 5 -0.001433 -0.001999 -0.001307 0.000000 0.049440 0.000000
# 6 0.000000 0.000000 0.000000 -0.004200 0.000000 0.039075
#
#
# Mechanical properties :
#
#
# Convention : Reuss Voigt Hill
#
# Bulk Modulus (GPa) = 55.25954 57.69224 56.47589
# Shear Modulus (GPa) = 25.26604 27.38704 26.32654
#
# Velocity S-wave (km/s) = 3.61641 3.76514 3.69152
# Velocity P-wave (km/s) = 6.78541 6.98318 6.88501
#
# Compressibility (1/GPa) = 0.01809642
#
# Stress axis : x y z
#
# Youngs Moduli (GPa) = 87.44461 65.57375 54.44155
#
# Poissons Ratio (x) = 0.14731 0.12216
# Poissons Ratio (y) = 0.19644 0.48936
# Poissons Ratio (z) = 0.19621 0.58942
#
# Static dielectric constant tensor:
#      x y z
#    x 3.592230 0.000000 0.040770 
#    y 0.000000 3.771420 0.000000 
#    z 0.040770 0.000000 3.542810 
# 
# 
# High freq. dielectric constant tensor:
#      x y z
#    x 1.758800 0.000000 -0.001550 
#    y 0.000000 1.747070 0.000000 
#    z -0.001550 0.000000 1.745790 
# 
# From -- ./inp_files/23424.got.cif
#   From: 2010.06.25/outbox.cif.g09.slc.cpg/sg15_12_cif.got.tgz:23424.got - 2010.06.28 07:06:18.
