data_PCOD8134275
_publ_section_title
;
Structure prediction by ZEFSAII (Michael W. Deem and Ramdas Pophale) SiO2 
 PCOD8134275
Probable space group: C 2/C
;
_chemical_formula_sum "Si O2"
_cell_formula_units_Z 48
_cell_length_a 14.810120
_cell_length_b 13.739486
_cell_length_c 26.361901
_cell_angle_alpha 90.000000
_cell_angle_beta 27.178204
_cell_angle_gamma 90.000000
_cell_volume 2450.154236
_symmetry_space_group_name_H-M "C 2/C"
_symmetry_group_IT_number 15
_symmetry_cell_setting 'monoclinic'
loop_
_space_group_symop_operation_xyz
x,y,z
-x,y,1/2-z
-x,-y,-z
x,-y,1/2+z
1/2+x,1/2+y,z
1/2-x,1/2+y,1/2-z
1/2-x,1/2-y,-z
1/2+x,1/2-y,1/2+z
loop_
_atom_site_type_symbol
_atom_site_label
_atom_site_fract_x
_atom_site_fract_y
_atom_site_fract_z
Si Si1 0.513596 0.345400 0.127337
Si Si2 0.342064 0.737080 0.146568
Si Si3 0.509325 0.434781 0.864810
Si Si4 0.828352 0.417553 0.629268
Si Si5 0.891221 0.580568 0.985528
Si Si6 0.673124 0.228899 0.959298
O O1 0.334522 0.270876 0.227982
O O2 0.430792 0.452722 0.157682
O O3 0.658215 0.344604 0.104245
O O4 0.644362 0.316994 0.013030
O O5 0.419292 0.629892 0.123290
O O6 0.524822 0.810772 0.059434
O O7 0.264403 0.731833 0.127355
O O8 0.619644 0.393509 0.759664
O O9 0.273207 0.427916 0.975944
O O10 0.791231 0.447591 0.589557
O O11 0.930079 0.504255 0.611142
O O12 0.963640 0.323149 0.560788
#
# Coordination Sequence:
#
# PCOD8134275 Si02
#       6
#     8   8   8   8   8   8
#     4  11  22  38  63  85 116 158 202 242 289 354
#     4  11  23  38  59  88 123 152 192 250 299 353
#     4  12  22  36  60  88 118 156 194 241 306 353
#     4  10  19  35  59  86 115 147 201 246 288 346
#     4  10  21  35  56  88 117 149 193 249 295 347
#     4  10  22  40  59  87 117 154 201 244 291 345
#
# _framework density 19.590603999999999
#
# number of rings (size 3 to 8) (size 9 to 14) (size 15 to 20)
#    0.000    1.333    5.000    1.500    0.000    2.000 
#    0.000    0.000    0.000    0.000    0.000    0.000 
#    0.000    0.000    0.000    0.000    0.000    0.000 
#
# Total GULP energy -297594.249967 kJ/mol
# GULP energy per Si atom -12399.760415 kJ/mol
# Density = 1.954601 g / cm^3
# Si number density = 19.590604 Si / 1000 Ang^3
#
#
#
# Elastic Constant Matrix: (Units=GPa)
#
#
# Indices 1 2 3 4 5 6 
#
# 1 85.8061 44.1829 16.4930 0.0028 1.9131 -0.0012
# 2 44.1829 82.3142 23.6203 -0.0022 2.8833 -0.0011
# 3 16.4930 23.6203 59.2415 0.0088 4.8107 -0.0045
# 4 0.0028 -0.0022 0.0088 26.8750 -0.0023 -2.2077
# 5 1.9131 2.8833 4.8107 -0.0023 28.2835 -0.0005
# 6 -0.0012 -0.0011 -0.0045 -2.2077 -0.0005 33.2607
#
#
#
# Elastic Compliance Matrix: (Units=1/GPa)
#
#
# Indices 1 2 3 4 5 6 
#
# 1 0.016178 -0.008345 -0.001173 -0.000002 -0.000044 0.000000
# 2 -0.008345 0.018029 -0.004828 0.000004 -0.000452 0.000000
# 3 -0.001173 -0.004828 0.019353 -0.000007 -0.002720 0.000002
# 4 -0.000002 0.000004 -0.000007 0.037413 0.000004 0.002483
# 5 -0.000044 -0.000452 -0.002720 0.000004 0.035868 0.000000
# 6 0.000000 0.000000 0.000002 0.002483 0.000000 0.030230
#
#
# Mechanical properties :
#
#
# Convention : Reuss Voigt Hill
#
# Bulk Modulus (GPa) = 40.21517 43.99491 42.10504
# Shear Modulus (GPa) = 25.76602 27.22156 26.49379
#
# Velocity S-wave (km/s) = 3.63054 3.73167 3.68145
# Velocity P-wave (km/s) = 6.17630 6.40883 6.29364
#
# Compressibility (1/GPa) = 0.02486624
#
# Stress axis : x y z
#
# Youngs Moduli (GPa) = 61.81296 55.46473 51.67253
#
# Poissons Ratio (x) = 0.46288 0.06061
# Poissons Ratio (y) = 0.51586 0.24950
# Poissons Ratio (z) = 0.07250 0.26781
#
# Static dielectric constant tensor:
#      x y z
#    x 3.493960 0.000000 0.046970 
#    y 0.000000 3.388410 0.000010 
#    z 0.046970 0.000010 3.542810 
# 
# 
# High freq. dielectric constant tensor:
#      x y z
#    x 1.747440 0.000000 -0.006610 
#    y 0.000000 1.751760 0.000000 
#    z -0.006610 0.000000 1.765380 
# 
# From -- ./inp_files/96175.got.cif
#   From: 2010.06.25/outbox.cif.g09.slc.cpg/sg15_49_cif.got.tgz:96175.got - 2010.06.28 07:06:18.
