data_PCOD8134394
_publ_section_title
;
Structure prediction by ZEFSAII (Michael W. Deem and Ramdas Pophale) SiO2 
 PCOD8134394
Probable space group: C 2/C
;
_chemical_formula_sum "Si O2"
_cell_formula_units_Z 40
_cell_length_a 22.341176
_cell_length_b 8.683999
_cell_length_c 27.475917
_cell_angle_alpha 90.000000
_cell_angle_beta 160.015832
_cell_angle_gamma 90.000000
_cell_volume 1821.796333
_symmetry_space_group_name_H-M "C 2/C"
_symmetry_group_IT_number 15
_symmetry_cell_setting 'monoclinic'
loop_
_space_group_symop_operation_xyz
x,y,z
-x,y,1/2-z
-x,-y,-z
x,-y,1/2+z
1/2+x,1/2+y,z
1/2-x,1/2+y,1/2-z
1/2-x,1/2-y,-z
1/2+x,1/2-y,1/2+z
loop_
_atom_site_type_symbol
_atom_site_label
_atom_site_fract_x
_atom_site_fract_y
_atom_site_fract_z
Si Si1 0.360417 0.087514 0.424898
Si Si2 0.671795 0.592678 0.993180
Si Si3 0.376208 0.648211 0.699858
Si Si4 0.476147 0.712793 0.371437
Si Si5 0.901423 0.630492 0.624765
O O1 0.472482 0.216653 0.537874
O O2 0.224134 0.156154 0.281633
O O3 0.500000 0.000000 0.500000
O O4 0.255666 0.987408 0.385268
O O5 0.510569 0.685074 0.846471
O O6 0.608369 0.431001 0.966696
O O7 0.765560 0.697975 0.105025
O O8 0.821175 0.543758 0.067228
O O9 0.500000 0.591770 0.750000
O O10 0.477150 0.843740 0.329536
O O11 0.750000 0.750000 0.500000
O O12 0.000000 0.672778 0.750000
#
# Coordination Sequence:
#
# PCOD8134394 Si02
#       5
#     8   8   8   8   8
#     4  11  26  45  66  93 128 172 218 267 320 383
#     4  10  22  37  61  96 130 166 206 261 322 378
#     4  11  23  40  61  95 132 164 207 267 324 371
#     4  10  22  43  66  91 126 173 220 262 317 389
#     4  10  19  35  62  95 125 161 209 261 315 375
#
# _framework density 21.956351999999999
#
# number of rings (size 3 to 8) (size 9 to 14) (size 15 to 20)
#    0.000    1.600    0.000    4.800    0.000   13.600 
#    0.000    2.000    0.000    0.000    0.000    0.000 
#    0.000    0.000    0.000    0.000    0.000    0.000 
#
# Total GULP energy -247854.970995 kJ/mol
# GULP energy per Si atom -12392.748550 kJ/mol
# Density = 2.190638 g / cm^3
# Si number density = 21.956352 Si / 1000 Ang^3
#
#
#
# Elastic Constant Matrix: (Units=GPa)
#
#
# Indices 1 2 3 4 5 6 
#
# 1 81.4276 45.0410 55.2011 0.0187 10.2107 -0.0073
# 2 45.0410 114.4053 83.3298 0.0295 -12.9234 0.0019
# 3 55.2011 83.3298 177.8140 0.1064 -11.4405 -0.0163
# 4 0.0187 0.0295 0.1064 44.4634 -0.0087 -11.0802
# 5 10.2107 -12.9234 -11.4405 -0.0087 36.6353 -0.0022
# 6 -0.0073 0.0019 -0.0163 -11.0802 -0.0022 37.1187
#
#
#
# Elastic Compliance Matrix: (Units=1/GPa)
#
#
# Indices 1 2 3 4 5 6 
#
# 1 0.019080 -0.005709 -0.003796 0.000004 -0.008517 0.000003
# 2 -0.005709 0.015266 -0.005034 0.000005 0.005404 -0.000002
# 3 -0.003796 -0.005034 0.009302 -0.000017 0.002187 -0.000001
# 4 0.000004 0.000005 -0.000017 0.024298 0.000001 0.007253
# 5 -0.008517 0.005404 0.002187 0.000001 0.032259 0.000001
# 6 0.000003 -0.000002 -0.000001 0.007253 0.000001 0.029106
#
#
# Mechanical properties :
#
#
# Convention : Reuss Voigt Hill
#
# Bulk Modulus (GPa) = 68.63414 82.31009 75.47212
# Shear Modulus (GPa) = 30.62886 36.31513 33.47200
#
# Velocity S-wave (km/s) = 3.73901 4.07131 3.90869
# Velocity P-wave (km/s) = 7.06877 7.72465 7.40397
#
# Compressibility (1/GPa) = 0.01457001
#
# Stress axis : x y z
#
# Youngs Moduli (GPa) = 52.41085 65.50693 107.50373
#
# Poissons Ratio (x) = 0.37399 0.40806
# Poissons Ratio (y) = 0.29922 0.54116
# Poissons Ratio (z) = 0.19894 0.32976
#
# Static dielectric constant tensor:
#      x y z
#    x 3.606790 -0.000310 0.101920 
#    y -0.000310 4.247870 -0.000040 
#    z 0.101920 -0.000040 4.311670 
# 
# 
# High freq. dielectric constant tensor:
#      x y z
#    x 1.821820 0.000000 -0.010620 
#    y 0.000000 1.861780 -0.000010 
#    z -0.010620 -0.000010 1.895410 
# 
# From -- ./inp_files/318526.got.cif
#   From: 2010.06.25/outbox.cif.g09.slc.cpg/sg15_160_cif.got.tgz:318526.got - 2010.06.28 07:06:18.
