data_PCOD8134869
_publ_section_title
;
Structure prediction by ZEFSAII (Michael W. Deem and Ramdas Pophale) SiO2 
 PCOD8134869
Probable space group: C 2/C
;
_chemical_formula_sum "Si O2"
_cell_formula_units_Z 64
_cell_length_a 7.810081
_cell_length_b 21.535917
_cell_length_c 19.744720
_cell_angle_alpha 90.000000
_cell_angle_beta 73.289849
_cell_angle_gamma 90.000000
_cell_volume 3180.766781
_symmetry_space_group_name_H-M "C 2/C"
_symmetry_group_IT_number 15
_symmetry_cell_setting 'monoclinic'
loop_
_space_group_symop_operation_xyz
x,y,z
-x,y,1/2-z
-x,-y,-z
x,-y,1/2+z
1/2+x,1/2+y,z
1/2-x,1/2+y,1/2-z
1/2-x,1/2-y,-z
1/2+x,1/2-y,1/2+z
loop_
_atom_site_type_symbol
_atom_site_label
_atom_site_fract_x
_atom_site_fract_y
_atom_site_fract_z
Si Si1 0.975257 0.412779 0.178256
Si Si2 0.556983 0.136068 0.533636
Si Si3 0.641091 0.389397 0.914468
Si Si4 0.371310 0.651672 0.826099
Si Si5 0.661777 0.752388 0.436902
Si Si6 0.322816 0.427283 0.445397
Si Si7 0.992529 0.558477 0.174787
Si Si8 0.794897 0.067088 0.402588
O O1 0.771559 0.397938 0.184798
O O2 0.018632 0.485192 0.172367
O O3 0.000000 0.383942 0.250000
O O4 0.102411 0.382347 0.106425
O O5 0.526326 0.210504 0.534721
O O6 0.369057 0.106627 0.530998
O O7 0.714118 0.114575 0.466838
O O8 0.621418 0.315781 0.915041
O O9 0.505409 0.415858 0.872450
O O10 0.844346 0.409293 0.881361
O O11 0.582793 0.420195 0.992626
O O12 0.500000 0.670237 0.750000
O O13 0.288257 0.714658 0.866193
O O14 0.455107 0.609638 0.877646
O O15 0.750000 0.750000 0.500000
O O16 0.279301 0.497412 0.430814
O O17 0.807339 0.575642 0.157348
O O18 0.000000 0.584999 0.250000
#
# Coordination Sequence:
#
# PCOD8134869 Si02
#       8
#     8   8   8   8   8   8   8   8
#     4   9  19  37  59  87 125 161 194 257 323 368
#     4  10  19  36  66  83 123 165 205 259 313 352
#     4  12  24  37  66  92 124 166 212 250 312 378
#     4  10  21  36  66  91 118 163 209 258 310 362
#     4  10  19  41  61  84 124 168 209 257 301 369
#     4  10  19  38  60  93 128 158 194 265 315 368
#     4  11  23  41  60  87 127 170 199 256 328 367
#     4  12  22  38  63  96 124 159 212 259 307 385
#
# _framework density 20.120934999999999
#
# number of rings (size 3 to 8) (size 9 to 14) (size 15 to 20)
#    0.000    1.750    6.250    1.500    0.000    4.500 
#    0.000    0.000   13.750    0.000    0.000    0.000 
#    0.000    0.000    0.000    0.000    0.000    0.000 
#
# Total GULP energy -396539.710925 kJ/mol
# GULP energy per Si atom -12391.865966 kJ/mol
# Density = 2.007514 g / cm^3
# Si number density = 20.120935 Si / 1000 Ang^3
#
#
#
# Elastic Constant Matrix: (Units=GPa)
#
#
# Indices 1 2 3 4 5 6 
#
# 1 70.5955 31.5555 25.8124 0.0000 19.2066 0.0000
# 2 31.5555 106.9059 30.3985 0.0000 6.7331 0.0000
# 3 25.8124 30.3985 122.7315 0.0000 19.4641 0.0000
# 4 0.0000 0.0000 0.0000 24.0076 0.0000 1.0796
# 5 19.2066 6.7331 19.4641 0.0000 33.3483 0.0000
# 6 0.0000 0.0000 0.0000 1.0796 0.0000 18.8102
#
#
#
# Elastic Compliance Matrix: (Units=1/GPa)
#
#
# Indices 1 2 3 4 5 6 
#
# 1 0.019337 -0.004716 -0.001414 0.000000 -0.009359 0.000000
# 2 -0.004716 0.011225 -0.002049 0.000000 0.001646 0.000000
# 3 -0.001414 -0.002049 0.009652 0.000000 -0.004405 0.000000
# 4 0.000000 0.000000 0.000000 0.041761 0.000000 -0.002397
# 5 -0.009359 0.001646 -0.004405 0.000000 0.037615 0.000000
# 6 0.000000 0.000000 0.000000 -0.002397 0.000000 0.053300
#
#
# Mechanical properties :
#
#
# Convention : Reuss Voigt Hill
#
# Bulk Modulus (GPa) = 41.92262 52.86286 47.39274
# Shear Modulus (GPa) = 25.35484 29.39766 27.37625
#
# Velocity S-wave (km/s) = 3.55367 3.82651 3.69261
# Velocity P-wave (km/s) = 6.14155 6.77145 6.46418
#
# Compressibility (1/GPa) = 0.02385347
#
# Stress axis : x y z
#
# Youngs Moduli (GPa) = 51.71527 89.08576 103.61049
#
# Poissons Ratio (x) = 0.42013 0.14656
# Poissons Ratio (y) = 0.24389 0.21235
# Poissons Ratio (z) = 0.07315 0.18258
#
# Static dielectric constant tensor:
#      x y z
#    x 3.479400 0.000000 0.223670 
#    y 0.000000 3.809930 0.000000 
#    z 0.223670 0.000000 4.210460 
# 
# 
# High freq. dielectric constant tensor:
#      x y z
#    x 1.764210 0.000000 0.017300 
#    y 0.000000 1.782780 0.000000 
#    z 0.017300 0.000000 1.789630 
# 
# From -- ./inp_files/233485.got.cif
#   From: 2010.06.25/outbox.cif.g09.slc.cpg/sg15_117_cif.got.tgz:233485.got - 2010.06.28 07:06:18.
