data_PCOD8134516
_publ_section_title
;
Structure prediction by ZEFSAII (Michael W. Deem and Ramdas Pophale) SiO2 
 PCOD8134516
Probable space group: C 2/C
;
_chemical_formula_sum "Si O2"
_cell_formula_units_Z 40
_cell_length_a 22.412873
_cell_length_b 6.126749
_cell_length_c 15.147349
_cell_angle_alpha 90.000000
_cell_angle_beta 129.098194
_cell_angle_gamma 90.000000
_cell_volume 1614.221278
_symmetry_space_group_name_H-M "C 2/C"
_symmetry_group_IT_number 15
_symmetry_cell_setting 'monoclinic'
loop_
_space_group_symop_operation_xyz
x,y,z
-x,y,1/2-z
-x,-y,-z
x,-y,1/2+z
1/2+x,1/2+y,z
1/2-x,1/2+y,1/2-z
1/2-x,1/2-y,-z
1/2+x,1/2-y,1/2+z
loop_
_atom_site_type_symbol
_atom_site_label
_atom_site_fract_x
_atom_site_fract_y
_atom_site_fract_z
Si Si1 0.426943 0.800356 0.849323
Si Si2 0.916094 0.543691 0.004323
Si Si3 0.272285 0.047814 0.144146
Si Si4 0.236952 0.541637 0.057450
Si Si5 0.162690 0.107857 0.193548
O O1 0.363520 0.968509 0.750850
O O2 0.400120 0.549786 0.819766
O O3 0.442540 0.841482 0.968447
O O4 0.509586 0.844450 0.878602
O O5 0.855673 0.453345 0.019576
O O6 0.876995 0.709740 0.900204
O O7 0.263224 0.302191 0.111213
O O8 0.221638 0.981187 0.183095
O O9 0.243224 0.913369 0.028199
O O10 0.284974 0.699450 0.172928
#
# Coordination Sequence:
#
# PCOD8134516 Si02
#       5
#     8   8   8   8   8
#     4  10  20  34  54  79 109 144 180 223 274 326
#     4  10  20  34  54  79 109 144 180 223 274 326
#     4   9  18  33  56  82 107 142 185 226 273 329
#     4   9  18  33  56  82 107 142 185 226 273 329
#     4  10  19  36  57  78 108 144 184 226 271 328
#
# _framework density 24.779748000000001
#
# number of rings (size 3 to 8) (size 9 to 14) (size 15 to 20)
#    0.000    2.400    2.000    0.600    0.000    0.800 
#    0.000    4.000    0.000    6.000    0.000    0.000 
#    0.000    0.000    0.000    0.000    0.000    0.000 
#
# Total GULP energy -247914.483232 kJ/mol
# GULP energy per Si atom -12395.724162 kJ/mol
# Density = 2.472335 g / cm^3
# Si number density = 24.779748 Si / 1000 Ang^3
#
#
#
# Elastic Constant Matrix: (Units=GPa)
#
#
# Indices 1 2 3 4 5 6 
#
# 1 120.1163 9.5231 69.3343 0.0000 21.6252 0.0000
# 2 9.5231 57.9020 30.6980 0.0000 -0.1887 0.0000
# 3 69.3343 30.6980 124.1932 0.0000 6.5821 0.0000
# 4 0.0000 0.0000 0.0000 43.8503 0.0000 -0.6246
# 5 21.6252 -0.1887 6.5821 0.0000 48.7522 0.0000
# 6 0.0000 0.0000 0.0000 -0.6246 0.0000 32.5055
#
#
#
# Elastic Compliance Matrix: (Units=1/GPa)
#
#
# Indices 1 2 3 4 5 6 
#
# 1 0.013552 0.001872 -0.007766 0.000000 -0.004955 0.000000
# 2 0.001872 0.020161 -0.006032 0.000000 0.000062 0.000000
# 3 -0.007766 -0.006032 0.013796 0.000000 0.001559 0.000000
# 4 0.000000 0.000000 0.000000 0.022811 0.000000 0.000438
# 5 -0.004955 0.000062 0.001559 0.000000 0.022500 0.000000
# 6 0.000000 0.000000 0.000000 0.000438 0.000000 0.030772
#
#
# Mechanical properties :
#
#
# Convention : Reuss Voigt Hill
#
# Bulk Modulus (GPa) = 42.27009 57.92471 50.09740
# Shear Modulus (GPa) = 32.19003 37.86533 35.02768
#
# Velocity S-wave (km/s) = 3.60814 3.91330 3.76381
# Velocity P-wave (km/s) = 5.86972 6.62157 6.25694
#
# Compressibility (1/GPa) = 0.02365739
#
# Stress axis : x y z
#
# Youngs Moduli (GPa) = 73.79250 49.60135 72.48650
#
# Poissons Ratio (x) = -0.09286 0.56290
# Poissons Ratio (y) = -0.13815 0.43722
# Poissons Ratio (z) = 0.57305 0.29918
#
# Static dielectric constant tensor:
#      x y z
#    x 4.565960 0.000000 0.041490 
#    y 0.000000 4.916950 0.000000 
#    z 0.041490 0.000000 4.844710 
# 
# 
# High freq. dielectric constant tensor:
#      x y z
#    x 1.960140 0.000000 0.005280 
#    y 0.000000 2.030300 0.000000 
#    z 0.005280 0.000000 1.993730 
# 
# From -- ./inp_files/165620.got.cif
#   From: 2010.06.25/outbox.cif.g09.slc.cpg/sg15_83_cif.got.tgz:165620.got - 2010.06.28 07:06:18.
