data_PCOD8134405
_publ_section_title
;
Structure prediction by ZEFSAII (Michael W. Deem and Ramdas Pophale) SiO2 
 PCOD8134405
Probable space group: C 2/C
;
_chemical_formula_sum "Si O2"
_cell_formula_units_Z 48
_cell_length_a 18.568755
_cell_length_b 7.630367
_cell_length_c 17.915621
_cell_angle_alpha 90.000000
_cell_angle_beta 112.270137
_cell_angle_gamma 90.000000
_cell_volume 2349.054173
_symmetry_space_group_name_H-M "C 2/C"
_symmetry_group_IT_number 15
_symmetry_cell_setting 'monoclinic'
loop_
_space_group_symop_operation_xyz
x,y,z
-x,y,1/2-z
-x,-y,-z
x,-y,1/2+z
1/2+x,1/2+y,z
1/2-x,1/2+y,1/2-z
1/2-x,1/2-y,-z
1/2+x,1/2-y,1/2+z
loop_
_atom_site_type_symbol
_atom_site_label
_atom_site_fract_x
_atom_site_fract_y
_atom_site_fract_z
Si Si1 0.480833 0.355127 0.156204
Si Si2 0.821034 0.614521 0.593417
Si Si3 0.806623 0.766648 0.092110
Si Si4 0.491510 0.247270 0.660044
Si Si5 0.053909 0.546502 0.090636
Si Si6 0.722480 0.083937 0.092050
O O1 0.500000 0.313982 0.250000
O O2 0.389833 0.344683 0.101529
O O3 0.507987 0.551183 0.144783
O O4 0.524608 0.217880 0.121518
O O5 0.821951 0.424646 0.635114
O O6 0.905487 0.685887 0.604360
O O7 0.775269 0.745554 0.631562
O O8 0.779259 0.584006 0.498261
O O9 0.766968 0.904485 0.134278
O O10 0.750000 0.750000 0.000000
O O11 0.500000 0.216184 0.750000
O O12 0.554370 0.124544 0.643526
O O13 0.140389 0.592985 0.099588
O O14 0.000000 0.500000 0.000000
#
# Coordination Sequence:
#
# PCOD8134405 Si02
#       6
#     8   8   8   8   8   8
#     4  11  24  42  67  91 130 175 213 257 327 395
#     4  10  19  37  62  86 118 169 200 252 310 373
#     4  10  19  35  63  90 117 164 213 253 308 380
#     4  11  23  41  66  89 125 172 212 250 323 394
#     4  12  23  40  63  99 124 159 214 279 312 363
#     4  10  21  36  58  92 125 148 210 260 309 362
#
# _framework density 20.433755999999999
#
# number of rings (size 3 to 8) (size 9 to 14) (size 15 to 20)
#    0.000    1.333    5.000    1.500    0.000    2.000 
#    0.000    1.667    0.000    0.000    0.000    0.000 
#    0.000    0.000    0.000    0.000    0.000    0.000 
#
# Total GULP energy -297480.629126 kJ/mol
# GULP energy per Si atom -12395.026214 kJ/mol
# Density = 2.038725 g / cm^3
# Si number density = 20.433756 Si / 1000 Ang^3
#
#
#
# Elastic Constant Matrix: (Units=GPa)
#
#
# Indices 1 2 3 4 5 6 
#
# 1 134.1891 55.9271 12.3290 0.0000 -14.6874 0.0000
# 2 55.9271 183.8927 43.8319 0.0000 -24.3455 0.0000
# 3 12.3290 43.8319 41.9107 0.0000 -9.3799 0.0000
# 4 0.0000 0.0000 0.0000 20.5117 0.0000 4.2113
# 5 -14.6874 -24.3455 -9.3799 0.0000 21.5075 0.0000
# 6 0.0000 0.0000 0.0000 4.2113 0.0000 25.3522
#
#
#
# Elastic Compliance Matrix: (Units=1/GPa)
#
#
# Indices 1 2 3 4 5 6 
#
# 1 0.008765 -0.002350 0.000691 0.000000 0.003627 0.000000
# 2 -0.002350 0.008494 -0.007092 0.000000 0.004917 0.000000
# 3 0.000691 -0.007092 0.032561 0.000000 0.006645 0.000000
# 4 0.000000 0.000000 0.000000 0.050474 0.000000 -0.008384
# 5 0.003627 0.004917 0.006645 0.000000 0.057436 0.000000
# 6 0.000000 0.000000 0.000000 -0.008384 0.000000 0.040837
#
#
# Mechanical properties :
#
#
# Convention : Reuss Voigt Hill
#
# Bulk Modulus (GPa) = 30.94177 64.90760 47.92468
# Shear Modulus (GPa) = 22.04186 30.00126 26.02156
#
# Velocity S-wave (km/s) = 3.28792 3.83589 3.57243
# Velocity P-wave (km/s) = 5.43960 7.17305 6.36560
#
# Compressibility (1/GPa) = 0.03231877
#
# Stress axis : x y z
#
# Youngs Moduli (GPa) = 114.08754 117.72959 30.71187
#
# Poissons Ratio (x) = 0.27671 -0.02123
# Poissons Ratio (y) = 0.26815 0.21779
# Poissons Ratio (z) = -0.07887 0.83488
#
# Static dielectric constant tensor:
#      x y z
#    x 3.547440 0.000000 0.114020 
#    y 0.000000 4.747800 0.000000 
#    z 0.114020 0.000000 3.404740 
# 
# 
# High freq. dielectric constant tensor:
#      x y z
#    x 1.795490 0.000000 0.020480 
#    y 0.000000 1.833100 0.000000 
#    z 0.020480 0.000000 1.760820 
# 
# From -- ./inp_files/208671.got.cif
#   From: 2010.06.25/outbox.cif.g09.slc.cpg/sg15_105_cif.got.tgz:208671.got - 2010.06.28 07:06:18.
