data_PCOD8134798
_publ_section_title
;
Structure prediction by ZEFSAII (Michael W. Deem and Ramdas Pophale) SiO2 
 PCOD8134798
Probable space group: C 2/C
;
_chemical_formula_sum "Si O2"
_cell_formula_units_Z 44
_cell_length_a 16.112516
_cell_length_b 14.456873
_cell_length_c 21.832391
_cell_angle_alpha 90.000000
_cell_angle_beta 156.334285
_cell_angle_gamma 90.000000
_cell_volume 2041.343844
_symmetry_space_group_name_H-M "C 2/C"
_symmetry_group_IT_number 15
_symmetry_cell_setting 'monoclinic'
loop_
_space_group_symop_operation_xyz
x,y,z
-x,y,1/2-z
-x,-y,-z
x,-y,1/2+z
1/2+x,1/2+y,z
1/2-x,1/2+y,1/2-z
1/2-x,1/2-y,-z
1/2+x,1/2-y,1/2+z
loop_
_atom_site_type_symbol
_atom_site_label
_atom_site_fract_x
_atom_site_fract_y
_atom_site_fract_z
Si Si1 0.951032 0.198344 0.581870
Si Si2 0.503445 0.334246 0.817668
Si Si3 0.824016 0.574086 0.809550
Si Si4 0.500000 0.758992 0.750000
Si Si5 0.094963 0.629583 0.105657
Si Si6 0.087058 0.376480 0.369409
O O1 0.712613 0.179471 0.398528
O O2 0.097459 0.120856 0.649359
O O3 0.986735 0.195152 0.679669
O O4 0.009528 0.302329 0.599922
O O5 0.500000 0.385980 0.750000
O O6 0.285315 0.320973 0.702047
O O7 0.585966 0.232691 0.860969
O O8 0.667590 0.399041 0.964674
O O9 0.812669 0.463509 0.802675
O O10 0.969345 0.596518 0.851045
O O11 0.917464 0.611544 0.936134
O O12 0.000000 0.427151 0.250000
#
# Coordination Sequence:
#
# PCOD8134798 Si02
#       6
#     8   8   8   4   8   8
#     4  11  22  46  68  94 136 174 220 283 316 399
#     4  10  19  36  62  91 125 165 204 255 319 390
#     4  11  23  42  66  98 130 171 222 263 329 393
#     4  10  24  42  70  96 126 186 224 260 340 370
#     4  11  23  41  68  97 127 176 217 266 328 391
#     4  10  21  36  62  93 127 160 201 263 327 377
#
# _framework density 21.554428000000001
#
# number of rings (size 3 to 8) (size 9 to 14) (size 15 to 20)
#    0.000    1.455    5.455    0.000    0.000    1.455 
#    9.818    1.818    0.000    0.000    0.000    0.000 
#    0.000    0.000    0.000    0.000    0.000    0.000 
#
# Total GULP energy -272546.137477 kJ/mol
# GULP energy per Si atom -12388.460794 kJ/mol
# Density = 2.150537 g / cm^3
# Si number density = 21.554428 Si / 1000 Ang^3
#
#
#
# Elastic Constant Matrix: (Units=GPa)
#
#
# Indices 1 2 3 4 5 6 
#
# 1 86.2220 26.2625 23.5089 0.0007 -0.2145 0.0019
# 2 26.2625 71.7257 40.3189 0.0187 -2.7277 -0.0032
# 3 23.5089 40.3189 118.0273 -0.0115 17.0053 -0.0624
# 4 0.0007 0.0187 -0.0115 18.4449 0.0197 1.0026
# 5 -0.2145 -2.7277 17.0053 0.0197 44.2649 0.0136
# 6 0.0019 -0.0032 -0.0624 1.0026 0.0136 37.8601
#
#
#
# Elastic Compliance Matrix: (Units=1/GPa)
#
#
# Indices 1 2 3 4 5 6 
#
# 1 0.013196 -0.004107 -0.001268 0.000003 0.000298 -0.000003
# 2 -0.004107 0.019069 -0.006206 -0.000026 0.003539 -0.000009
# 3 -0.001268 -0.006206 0.011540 0.000018 -0.004822 0.000020
# 4 0.000003 -0.000026 0.000018 0.054294 -0.000032 -0.001438
# 5 0.000298 0.003539 -0.004822 -0.000032 0.024663 -0.000016
# 6 -0.000003 -0.000009 0.000020 -0.001438 -0.000016 0.026451
#
#
# Mechanical properties :
#
#
# Convention : Reuss Voigt Hill
#
# Bulk Modulus (GPa) = 48.44585 50.68395 49.56490
# Shear Modulus (GPa) = 27.89306 32.50632 30.19969
#
# Velocity S-wave (km/s) = 3.60123 3.88764 3.74717
# Velocity P-wave (km/s) = 6.31004 6.61189 6.46273
#
# Compressibility (1/GPa) = 0.02064160
#
# Stress axis : x y z
#
# Youngs Moduli (GPa) = 75.78318 52.44099 86.65543
#
# Poissons Ratio (x) = 0.21539 0.10989
# Poissons Ratio (y) = 0.31127 0.53778
# Poissons Ratio (z) = 0.09610 0.32545
#
# Static dielectric constant tensor:
#      x y z
#    x 3.843550 0.000090 -0.806220 
#    y 0.000090 3.588260 0.000360 
#    z -0.806220 0.000360 2.304740 
# 
# 
# High freq. dielectric constant tensor:
#      x y z
#    x 1.854490 0.000000 0.004120 
#    y 0.000000 1.804140 -0.000010 
#    z 0.004120 -0.000010 1.866200 
# 
# From -- ./inp_files/47209.got.cif
#   From: 2010.06.25/outbox.cif.g09.slc.cpg/sg15_24_cif.got.tgz:47209.got - 2010.06.28 07:06:18.
