data_PCOD8134623
_publ_section_title
;
Structure prediction by ZEFSAII (Michael W. Deem and Ramdas Pophale) SiO2 
 PCOD8134623
Probable space group: C 2/C
;
_chemical_formula_sum "Si O2"
_cell_formula_units_Z 56
_cell_length_a 6.759271
_cell_length_b 29.156775
_cell_length_c 13.563962
_cell_angle_alpha 90.000000
_cell_angle_beta 89.480807
_cell_angle_gamma 90.000000
_cell_volume 2673.056128
_symmetry_space_group_name_H-M "C 2/C"
_symmetry_group_IT_number 15
_symmetry_cell_setting 'monoclinic'
loop_
_space_group_symop_operation_xyz
x,y,z
-x,y,1/2-z
-x,-y,-z
x,-y,1/2+z
1/2+x,1/2+y,z
1/2-x,1/2+y,1/2-z
1/2-x,1/2-y,-z
1/2+x,1/2-y,1/2+z
loop_
_atom_site_type_symbol
_atom_site_label
_atom_site_fract_x
_atom_site_fract_y
_atom_site_fract_z
Si Si1 0.590088 0.517896 0.645052
Si Si2 0.000000 0.174975 0.250000
Si Si3 0.119565 0.406450 0.414138
Si Si4 0.029150 0.235259 0.514929
Si Si5 0.500000 0.834827 0.250000
Si Si6 0.558009 0.365442 0.953483
Si Si7 0.771854 0.744324 0.834886
Si Si8 0.224920 0.054293 0.000750
O O1 0.500000 0.503760 0.750000
O O2 0.731770 0.562405 0.651690
O O3 0.397609 0.526994 0.580328
O O4 0.721429 0.476357 0.600138
O O5 0.921610 0.142638 0.163416
O O6 0.818219 0.208349 0.279144
O O7 0.237172 0.386082 0.507110
O O8 0.038881 0.366174 0.344974
O O9 0.945798 0.437674 0.459899
O O10 0.250000 0.250000 0.500000
O O11 0.004817 0.181138 0.508031
O O12 0.906842 0.261757 0.431846
O O13 0.954534 0.247716 0.625986
O O14 0.688409 0.800965 0.231737
O O15 0.371233 0.397126 0.975332
#
# Coordination Sequence:
#
# PCOD8134623 Si02
#       8
#     8   4   8   8   4   8   8   8
#     4  10  22  40  65  90 120 161 198 245 315 367
#     4   9  20  40  60  82 122 160 210 254 300 359
#     4  11  22  39  62  93 122 157 201 252 309 369
#     4  10  19  36  59  82 118 162 204 251 308 360
#     4  11  20  36  64  92 124 156 206 256 310 367
#     4  10  22  38  60  86 120 159 202 250 305 355
#     4   9  20  37  56  84 119 163 201 255 309 357
#     4  10  22  41  63  88 127 157 198 256 303 372
#
# _framework density 20.949804
#
# number of rings (size 3 to 8) (size 9 to 14) (size 15 to 20)
#    0.000    2.000    0.000    3.000    1.000    3.429 
#    0.000   17.143    0.000    0.000    0.000    0.000 
#    0.000    0.000    0.000    0.000    0.000    0.000 
#
# Total GULP energy -347200.062687 kJ/mol
# GULP energy per Si atom -12400.002239 kJ/mol
# Density = 2.090212 g / cm^3
# Si number density = 20.949804 Si / 1000 Ang^3
#
#
#
# Elastic Constant Matrix: (Units=GPa)
#
#
# Indices 1 2 3 4 5 6 
#
# 1 108.3148 26.6455 44.1427 0.0000 -24.0397 0.0000
# 2 26.6455 91.9366 37.5054 0.0000 -5.3554 0.0000
# 3 44.1427 37.5054 116.3438 0.0000 -26.6593 0.0000
# 4 0.0000 0.0000 0.0000 40.6838 0.0000 -2.7840
# 5 -24.0397 -5.3554 -26.6593 0.0000 32.4681 0.0000
# 6 0.0000 0.0000 0.0000 -2.7840 0.0000 22.2259
#
#
#
# Elastic Compliance Matrix: (Units=1/GPa)
#
#
# Indices 1 2 3 4 5 6 
#
# 1 0.012240 -0.002176 -0.002400 0.000000 0.006733 0.000000
# 2 -0.002176 0.012974 -0.003985 0.000000 -0.002744 0.000000
# 3 -0.002400 -0.003985 0.012604 0.000000 0.007915 0.000000
# 4 0.000000 0.000000 0.000000 0.024792 0.000000 0.003106
# 5 0.006733 -0.002744 0.007915 0.000000 0.041831 0.000000
# 6 0.000000 0.000000 0.000000 0.003106 0.000000 0.045382
#
#
# Mechanical properties :
#
#
# Convention : Reuss Voigt Hill
#
# Bulk Modulus (GPa) = 48.31968 59.24249 53.78108
# Shear Modulus (GPa) = 28.76140 32.96234 30.86187
#
# Velocity S-wave (km/s) = 3.70925 3.97091 3.84231
# Velocity P-wave (km/s) = 6.43889 7.02594 6.73881
#
# Compressibility (1/GPa) = 0.02069550
#
# Stress axis : x y z
#
# Youngs Moduli (GPa) = 81.69868 77.07848 79.33959
#
# Poissons Ratio (x) = 0.16775 0.19038
# Poissons Ratio (y) = 0.17781 0.31619
# Poissons Ratio (z) = 0.19604 0.30718
#
# Static dielectric constant tensor:
#      x y z
#    x 3.728510 0.000000 -0.111610 
#    y 0.000000 2.299820 0.000000 
#    z -0.111610 0.000000 3.716810 
# 
# 
# High freq. dielectric constant tensor:
#      x y z
#    x 1.813430 0.000000 -0.012110 
#    y 0.000000 1.825820 0.000000 
#    z -0.012110 0.000000 1.823400 
# 
# From -- ./inp_files/130815.got.cif
#   From: 2010.06.25/outbox.cif.g09.slc.cpg/sg15_66_cif.got.tgz:130815.got - 2010.06.28 07:06:18.
