data_PCOD8134390
_publ_section_title
;
Structure prediction by ZEFSAII (Michael W. Deem and Ramdas Pophale) SiO2 
 PCOD8134390
Probable space group: C 2/C
;
_chemical_formula_sum "Si O2"
_cell_formula_units_Z 56
_cell_length_a 8.831224
_cell_length_b 19.929069
_cell_length_c 16.259576
_cell_angle_alpha 90.000000
_cell_angle_beta 111.969244
_cell_angle_gamma 90.000000
_cell_volume 2653.854476
_symmetry_space_group_name_H-M "C 2/C"
_symmetry_group_IT_number 15
_symmetry_cell_setting 'monoclinic'
loop_
_space_group_symop_operation_xyz
x,y,z
-x,y,1/2-z
-x,-y,-z
x,-y,1/2+z
1/2+x,1/2+y,z
1/2-x,1/2+y,1/2-z
1/2-x,1/2-y,-z
1/2+x,1/2-y,1/2+z
loop_
_atom_site_type_symbol
_atom_site_label
_atom_site_fract_x
_atom_site_fract_y
_atom_site_fract_z
Si Si1 0.325045 0.882731 0.349178
Si Si2 0.000000 0.805017 0.250000
Si Si3 0.869070 0.097699 0.960893
Si Si4 0.059414 0.971392 0.630351
Si Si5 0.747858 0.029172 0.176631
Si Si6 0.000000 0.296836 0.250000
Si Si7 0.414445 0.125706 0.473580
Si Si8 0.839445 0.239777 0.873278
O O1 0.441196 0.841757 0.312929
O O2 0.399451 0.880030 0.456922
O O3 0.143122 0.853402 0.311925
O O4 0.334430 0.958634 0.319284
O O5 0.940703 0.754783 0.309438
O O6 0.889465 0.168117 0.920267
O O7 0.862863 0.039078 0.891512
O O8 0.701957 0.098737 0.977950
O O9 0.024518 0.083879 0.052458
O O10 0.181422 0.940564 0.723560
O O11 0.887904 0.987903 0.638912
O O12 0.614763 0.081169 0.113955
O O13 0.852804 0.251570 0.185583
O O14 0.382885 0.203291 0.447012
#
# Coordination Sequence:
#
# PCOD8134390 Si02
#       8
#     8   4   8   8   8   4   8   8
#     4  11  21  40  63  91 116 164 205 265 302 374
#     4  10  24  42  68  82 118 166 218 248 314 376
#     4  10  19  35  62  94 122 161 204 260 300 364
#     4   9  19  36  61  92 126 162 214 246 309 361
#     4  10  20  37  59  89 126 167 201 256 303 369
#     4  10  22  36  66  94 120 158 208 248 316 360
#     4  11  24  37  61  92 130 159 206 253 319 362
#     4  11  22  42  62  93 125 165 203 257 304 381
#
# _framework density 21.101382999999998
#
# number of rings (size 3 to 8) (size 9 to 14) (size 15 to 20)
#    0.000    1.714    1.429    4.286    0.000    2.857 
#    2.571    0.714    6.286    0.000    0.000    0.000 
#    0.000    0.000    0.000    0.000    0.000    0.000 
#
# Total GULP energy -347189.550198 kJ/mol
# GULP energy per Si atom -12399.626793 kJ/mol
# Density = 2.105336 g / cm^3
# Si number density = 21.101383 Si / 1000 Ang^3
#
#
#
# Elastic Constant Matrix: (Units=GPa)
#
#
# Indices 1 2 3 4 5 6 
#
# 1 78.7867 26.4487 49.8686 0.0000 11.3527 0.0000
# 2 26.4487 56.9064 32.2405 0.0000 13.3080 0.0000
# 3 49.8686 32.2405 153.1243 0.0000 27.4358 0.0000
# 4 0.0000 0.0000 0.0000 29.4601 0.0000 0.9894
# 5 11.3527 13.3080 27.4358 0.0000 36.5030 0.0000
# 6 0.0000 0.0000 0.0000 0.9894 0.0000 14.5613
#
#
#
# Elastic Compliance Matrix: (Units=1/GPa)
#
#
# Indices 1 2 3 4 5 6 
#
# 1 0.017400 -0.005535 -0.004499 0.000000 -0.000012 0.000000
# 2 -0.005535 0.022455 -0.002042 0.000000 -0.004930 0.000000
# 3 -0.004499 -0.002042 0.009293 0.000000 -0.004841 0.000000
# 4 0.000000 0.000000 0.000000 0.034022 0.000000 -0.002312
# 5 -0.000012 -0.004930 -0.004841 0.000000 0.032835 0.000000
# 6 0.000000 0.000000 0.000000 -0.002312 0.000000 0.068832
#
#
# Mechanical properties :
#
#
# Convention : Reuss Voigt Hill
#
# Bulk Modulus (GPa) = 40.00660 56.21477 48.11068
# Shear Modulus (GPa) = 23.00727 28.12218 25.56473
#
# Velocity S-wave (km/s) = 3.30558 3.65460 3.48446
# Velocity P-wave (km/s) = 5.79392 6.67130 6.24803
#
# Compressibility (1/GPa) = 0.02499588
#
# Stress axis : x y z
#
# Youngs Moduli (GPa) = 57.47052 44.53299 107.60516
#
# Poissons Ratio (x) = 0.24651 0.48414
# Poissons Ratio (y) = 0.31812 0.21972
# Poissons Ratio (z) = 0.25857 0.09093
#
# Static dielectric constant tensor:
#      x y z
#    x 3.779710 0.000000 0.094670 
#    y 0.000000 3.577080 0.000000 
#    z 0.094670 0.000000 4.272330 
# 
# 
# High freq. dielectric constant tensor:
#      x y z
#    x 1.809730 0.000000 0.003700 
#    y 0.000000 1.808970 0.000000 
#    z 0.003700 0.000000 1.851080 
# 
# From -- ./inp_files/191086.got.cif
#   From: 2010.06.25/outbox.cif.g09.slc.cpg/sg15_96_cif.got.tgz:191086.got - 2010.06.28 07:06:18.
