data_PCOD8134457
_publ_section_title
;
Structure prediction by ZEFSAII (Michael W. Deem and Ramdas Pophale) SiO2 
 PCOD8134457
Probable space group: C 2/C
;
_chemical_formula_sum "Si O2"
_cell_formula_units_Z 64
_cell_length_a 27.837765
_cell_length_b 16.913220
_cell_length_c 9.593597
_cell_angle_alpha 90.000000
_cell_angle_beta 123.782722
_cell_angle_gamma 90.000000
_cell_volume 3754.245642
_symmetry_space_group_name_H-M "C 2/C"
_symmetry_group_IT_number 15
_symmetry_cell_setting 'monoclinic'
loop_
_space_group_symop_operation_xyz
x,y,z
-x,y,1/2-z
-x,-y,-z
x,-y,1/2+z
1/2+x,1/2+y,z
1/2-x,1/2+y,1/2-z
1/2-x,1/2-y,-z
1/2+x,1/2-y,1/2+z
loop_
_atom_site_type_symbol
_atom_site_label
_atom_site_fract_x
_atom_site_fract_y
_atom_site_fract_z
Si Si1 0.310009 0.216246 0.761752
Si Si2 0.761365 0.587636 0.234539
Si Si3 0.654547 0.316886 0.457549
Si Si4 0.957034 0.914669 0.305492
Si Si5 0.262485 0.067149 0.563221
Si Si6 0.037268 0.091879 0.172893
Si Si7 0.344531 0.331350 0.580942
Si Si8 0.192014 0.749085 0.228045
O O1 0.311620 0.126898 0.705517
O O2 0.310347 0.273094 0.628812
O O3 0.252176 0.225149 0.757611
O O4 0.359117 0.245361 0.952872
O O5 0.767157 0.559939 0.403835
O O6 0.809981 0.653726 0.277461
O O7 0.696759 0.620840 0.102623
O O8 0.775025 0.516850 0.151784
O O9 0.596580 0.360427 0.320033
O O10 0.686315 0.281852 0.374093
O O11 0.000000 0.924972 0.250000
O O12 0.993630 0.874360 0.486944
O O13 0.938646 0.003468 0.321602
O O14 0.197567 0.093046 0.503087
O O15 0.092868 0.147396 0.261123
O O16 0.000000 0.095774 0.250000
O O17 0.355989 0.288447 0.450361
#
# Coordination Sequence:
#
# PCOD8134457 Si02
#       8
#     8   8   8   8   8   8   8   8
#     4  10  19  36  51  71 101 141 170 214 256 306
#     4  11  22  34  49  77 106 136 172 209 253 314
#     4  11  21  34  53  74 104 144 179 208 256 302
#     4  10  21  36  49  76 108 136 176 220 250 292
#     4  11  22  33  51  76 104 137 174 206 257 314
#     4  10  21  35  52  73 105 139 176 220 255 284
#     4  11  18  36  55  69 102 146 177 206 256 311
#     4  10  20  34  51  74 105 132 179 216 250 305
#
# _framework density 17.047366
#
# number of rings (size 3 to 8) (size 9 to 14) (size 15 to 20)
#    0.000    1.500    3.750    4.500    5.250    0.000 
#    4.500    0.000    0.000    0.000    0.000    0.000 
#    0.000   20.000    0.000    0.000    0.000    0.000 
#
# Total GULP energy -396560.471509 kJ/mol
# GULP energy per Si atom -12392.514735 kJ/mol
# Density = 1.700857 g / cm^3
# Si number density = 17.047366 Si / 1000 Ang^3
#
#
#
# Elastic Constant Matrix: (Units=GPa)
#
#
# Indices 1 2 3 4 5 6 
#
# 1 38.3846 26.4043 24.6099 0.0000 -0.0543 0.0000
# 2 26.4043 94.5207 54.2091 0.0000 -0.2757 0.0000
# 3 24.6099 54.2091 132.4135 0.0000 -7.0287 0.0000
# 4 0.0000 0.0000 0.0000 35.4330 0.0000 -4.9688
# 5 -0.0543 -0.2757 -7.0287 0.0000 35.6761 0.0000
# 6 0.0000 0.0000 0.0000 -4.9688 0.0000 24.1632
#
#
#
# Elastic Compliance Matrix: (Units=1/GPa)
#
#
# Indices 1 2 3 4 5 6 
#
# 1 0.033210 -0.007475 -0.003145 0.000000 -0.000627 0.000000
# 2 -0.007475 0.015545 -0.005022 0.000000 -0.000881 0.000000
# 3 -0.003145 -0.005022 0.010298 0.000000 0.001985 0.000000
# 4 0.000000 0.000000 0.000000 0.029060 0.000000 0.005976
# 5 -0.000627 -0.000881 0.001985 0.000000 0.028413 0.000000
# 6 0.000000 0.000000 0.000000 0.005976 0.000000 0.042614
#
#
# Mechanical properties :
#
#
# Convention : Reuss Voigt Hill
#
# Bulk Modulus (GPa) = 36.01132 52.86281 44.43706
# Shear Modulus (GPa) = 25.03996 29.72750 27.38373
#
# Velocity S-wave (km/s) = 3.83671 4.18043 4.01226
# Velocity P-wave (km/s) = 6.38727 7.37415 6.89838
#
# Compressibility (1/GPa) = 0.02776905
#
# Stress axis : x y z
#
# Youngs Moduli (GPa) = 30.11156 64.32848 97.10779
#
# Poissons Ratio (x) = 0.48086 0.30543
# Poissons Ratio (y) = 0.22509 0.48763
# Poissons Ratio (z) = 0.09471 0.32303
#
# Static dielectric constant tensor:
#      x y z
#    x 2.860710 0.000000 -0.171010 
#    y 0.000000 3.416850 0.000000 
#    z -0.171010 0.000000 3.689430 
# 
# 
# High freq. dielectric constant tensor:
#      x y z
#    x 1.622890 0.000000 -0.026800 
#    y 0.000000 1.645850 0.000000 
#    z -0.026800 0.000000 1.681120 
# 
# From -- ./inp_files/69949.got.cif
#   From: 2010.06.25/outbox.cif.g09.slc.cpg/sg15_35_cif.got.tgz:69949.got - 2010.06.28 07:06:18.
