data_PCOD8134246
_publ_section_title
;
Structure prediction by ZEFSAII (Michael W. Deem and Ramdas Pophale) SiO2 
 PCOD8134246
Probable space group: C 2/C
;
_chemical_formula_sum "Si O2"
_cell_formula_units_Z 56
_cell_length_a 12.097814
_cell_length_b 24.164262
_cell_length_c 16.016388
_cell_angle_alpha 90.000000
_cell_angle_beta 140.952311
_cell_angle_gamma 90.000000
_cell_volume 2949.598003
_symmetry_space_group_name_H-M "C 2/C"
_symmetry_group_IT_number 15
_symmetry_cell_setting 'monoclinic'
loop_
_space_group_symop_operation_xyz
x,y,z
-x,y,1/2-z
-x,-y,-z
x,-y,1/2+z
1/2+x,1/2+y,z
1/2-x,1/2+y,1/2-z
1/2-x,1/2-y,-z
1/2+x,1/2-y,1/2+z
loop_
_atom_site_type_symbol
_atom_site_label
_atom_site_fract_x
_atom_site_fract_y
_atom_site_fract_z
Si Si1 0.944677 0.633412 0.479978
Si Si2 0.604606 0.065686 0.438849
Si Si3 0.359054 0.152159 0.735333
Si Si4 0.799827 0.958812 0.607741
Si Si5 0.386212 0.429079 0.481802
Si Si6 0.748561 0.547484 0.146554
Si Si7 0.695687 0.732073 0.372635
O O1 0.813963 0.580727 0.399968
O O2 0.833045 0.689822 0.411883
O O3 0.071086 0.621717 0.473696
O O4 0.071424 0.637951 0.632915
O O5 0.419220 0.040276 0.302450
O O6 0.714218 0.079491 0.419126
O O7 0.706863 0.018606 0.550626
O O8 0.500000 0.132204 0.750000
O O9 0.181656 0.118617 0.618433
O O10 0.310404 0.215990 0.693117
O O11 0.802678 0.923855 0.523949
O O12 0.000000 0.969769 0.750000
O O13 0.326806 0.487070 0.410859
O O14 0.596552 0.420322 0.607524
O O15 0.500000 0.705296 0.250000
O O16 0.750000 0.750000 0.500000
#
# Coordination Sequence:
#
# PCOD8134246 Si02
#       7
#     8   8   8   8   8   8   8
#     4  12  22  36  58  87 119 155 194 245 309 359
#     4  10  22  36  55  81 122 159 193 236 287 360
#     4  11  21  37  58  86 115 155 189 247 317 357
#     4  11  21  33  55  89 123 153 196 240 295 359
#     4  10  19  35  59  81 116 156 194 240 292 358
#     4   9  20  37  55  85 115 158 200 234 286 351
#     4  11  21  38  58  86 118 148 197 252 311 361
#
# _framework density 18.985638000000002
#
# number of rings (size 3 to 8) (size 9 to 14) (size 15 to 20)
#    0.000    1.429    4.286    2.571    2.000    4.571 
#    0.000    0.000    0.000    0.857    0.000    0.000 
#    0.000    0.000    0.000    0.000    0.000    0.000 
#
# Total GULP energy -346991.851247 kJ/mol
# GULP energy per Si atom -12392.566116 kJ/mol
# Density = 1.894243 g / cm^3
# Si number density = 18.985638 Si / 1000 Ang^3
#
#
#
# Elastic Constant Matrix: (Units=GPa)
#
#
# Indices 1 2 3 4 5 6 
#
# 1 46.2875 52.5333 -0.2470 0.0000 3.1455 0.0000
# 2 52.5333 61.2992 35.9347 0.0000 2.6304 0.0000
# 3 -0.2470 35.9347 92.5064 0.0000 9.3143 0.0001
# 4 0.0000 0.0000 0.0000 31.9595 0.0000 6.8775
# 5 3.1455 2.6304 9.3143 0.0000 27.5799 0.0000
# 6 0.0000 0.0000 0.0001 6.8775 0.0000 16.5116
#
#
#
# Elastic Compliance Matrix: (Units=1/GPa)
#
#
# Indices 1 2 3 4 5 6 
#
# 1 -0.077477 0.086393 -0.035018 0.000000 0.012423 0.000000
# 2 0.086393 -0.075194 0.030756 0.000000 -0.013068 0.000000
# 3 -0.035018 0.030756 -0.001385 0.000000 0.001528 0.000000
# 4 0.000000 0.000000 0.000000 0.034370 0.000000 -0.014316
# 5 0.012423 -0.013068 0.001528 0.000000 0.035572 0.000000
# 6 0.000000 0.000000 0.000000 -0.014316 0.000000 0.066527
#
#
# Mechanical properties :
#
#
# Convention : Reuss Voigt Hill
#
# Bulk Modulus (GPa) = 97.97493 41.83722 69.90607
# Shear Modulus (GPa) = -28.01937 22.66834 -2.67552
#
# Velocity S-wave (km/s) = -3.84581 3.45914 -1.18840
# Velocity P-wave (km/s) = 5.65654 6.16752 5.91755
#
# Compressibility (1/GPa) = 0.01020669
#
# Stress axis : x y z
#
# Youngs Moduli (GPa) = -12.90702 -13.29891 -722.15299
#
# Poissons Ratio (x) = 1.14893 -25.28803
# Poissons Ratio (y) = 1.11507 22.21068
# Poissons Ratio (z) = -0.45197 0.40902
#
# Static dielectric constant tensor:
#      x y z
#    x 3.975540 0.000000 -0.033150 
#    y 0.000000 3.268730 0.000000 
#    z -0.033150 0.000000 3.851600 
# 
# 
# High freq. dielectric constant tensor:
#      x y z
#    x 1.726670 0.000000 0.006360 
#    y 0.000000 1.709610 0.000000 
#    z 0.006360 0.000000 1.759100 
# 
# From -- ./inp_files/148571.got.cif
#   From: 2010.06.25/outbox.cif.g09.slc.cpg/sg15_75_cif.got.tgz:148571.got - 2010.06.28 07:06:18.
