data_PCOD8134460
_publ_section_title
;
Structure prediction by ZEFSAII (Michael W. Deem and Ramdas Pophale) SiO2 
 PCOD8134460
Probable space group: C 2/C
;
_chemical_formula_sum "Si O2"
_cell_formula_units_Z 64
_cell_length_a 17.480486
_cell_length_b 26.457782
_cell_length_c 13.525070
_cell_angle_alpha 90.000000
_cell_angle_beta 33.360738
_cell_angle_gamma 90.000000
_cell_volume 3439.829485
_symmetry_space_group_name_H-M "C 2/C"
_symmetry_group_IT_number 15
_symmetry_cell_setting 'monoclinic'
loop_
_space_group_symop_operation_xyz
x,y,z
-x,y,1/2-z
-x,-y,-z
x,-y,1/2+z
1/2+x,1/2+y,z
1/2-x,1/2+y,1/2-z
1/2-x,1/2-y,-z
1/2+x,1/2-y,1/2+z
loop_
_atom_site_type_symbol
_atom_site_label
_atom_site_fract_x
_atom_site_fract_y
_atom_site_fract_z
Si Si1 0.106760 0.201967 0.215981
Si Si2 0.283831 0.897265 0.262580
Si Si3 0.545609 0.389274 0.903322
Si Si4 0.384981 0.814523 0.300599
Si Si5 0.557263 0.436843 0.089483
Si Si6 0.924092 0.445811 0.928097
Si Si7 0.316829 0.511851 0.293278
Si Si8 0.807871 0.504043 0.289739
O O1 0.097049 0.166493 0.322021
O O2 0.067955 0.259210 0.290376
O O3 0.000000 0.181061 0.250000
O O4 0.257290 0.196051 0.009025
O O5 0.353781 0.848778 0.238713
O O6 0.119120 0.892015 0.433033
O O7 0.317735 0.944078 0.299582
O O8 0.346382 0.905240 0.083222
O O9 0.629665 0.430767 0.744478
O O10 0.587545 0.395451 0.973142
O O11 0.500000 0.838665 0.250000
O O12 0.500000 0.409753 0.250000
O O13 0.450151 0.476525 0.158516
O O14 0.695187 0.466652 0.979322
O O15 0.000000 0.420903 0.750000
O O16 0.040291 0.471778 0.870756
O O17 0.816221 0.489212 0.001496
O O18 0.259480 0.509118 0.245087
#
# Coordination Sequence:
#
# PCOD8134460 Si02
#       8
#     8   8   8   8   8   8   8   8
#     4  10  21  39  60  88 113 142 185 237 295 348
#     4  11  20  38  60  80 112 155 192 226 280 344
#     4  11  20  36  61  84 108 151 196 229 276 339
#     4  10  23  39  59  87 116 140 184 243 295 340
#     4  11  20  33  54  84 117 152 186 231 270 325
#     4  11  23  36  53  83 122 158 186 227 278 330
#     4  10  19  36  52  79 114 150 191 232 263 323
#     4  10  20  34  51  78 117 149 190 228 270 317
#
# _framework density 18.605571999999999
#
# number of rings (size 3 to 8) (size 9 to 14) (size 15 to 20)
#    0.000    1.500    5.000    3.000    0.000    6.000 
#    0.000    0.000    0.000    0.750    0.000    1.750 
#    0.000    0.000    0.000    0.000    0.000    0.000 
#
# Total GULP energy -396473.713397 kJ/mol
# GULP energy per Si atom -12389.803544 kJ/mol
# Density = 1.856323 g / cm^3
# Si number density = 18.605572 Si / 1000 Ang^3
#
#
#
# Elastic Constant Matrix: (Units=GPa)
#
#
# Indices 1 2 3 4 5 6 
#
# 1 77.6468 42.6614 31.9101 0.0317 -5.6027 -0.0098
# 2 42.6614 102.1688 36.6283 0.0058 10.2508 -0.0014
# 3 31.9101 36.6283 92.8201 0.0345 -3.3609 -0.0141
# 4 0.0317 0.0058 0.0345 24.3533 -0.0282 0.6797
# 5 -5.6027 10.2508 -3.3609 -0.0282 38.5554 0.0154
# 6 -0.0098 -0.0014 -0.0141 0.6797 0.0154 26.5911
#
#
#
# Elastic Compliance Matrix: (Units=1/GPa)
#
#
# Indices 1 2 3 4 5 6 
#
# 1 0.018366 -0.006849 -0.003460 -0.000013 0.004188 0.000002
# 2 -0.006849 0.014427 -0.003525 0.000005 -0.005138 -0.000001
# 3 -0.003460 -0.003525 0.013412 -0.000012 0.001603 0.000005
# 4 -0.000013 0.000005 -0.000012 0.041092 0.000026 -0.001050
# 5 0.004188 -0.005138 0.001603 0.000026 0.028051 -0.000015
# 6 0.000002 -0.000001 0.000005 -0.001050 -0.000015 0.037633
#
#
# Mechanical properties :
#
#
# Convention : Reuss Voigt Hill
#
# Bulk Modulus (GPa) = 53.94198 55.00392 54.47295
# Shear Modulus (GPa) = 26.76300 28.66235 27.71268
#
# Velocity S-wave (km/s) = 3.79679 3.92921 3.86357
# Velocity P-wave (km/s) = 6.94810 7.08606 7.01742
#
# Compressibility (1/GPa) = 0.01853844
#
# Stress axis : x y z
#
# Youngs Moduli (GPa) = 54.44948 69.31682 74.56130
#
# Poissons Ratio (x) = 0.47473 0.25795
# Poissons Ratio (y) = 0.37290 0.26279
# Poissons Ratio (z) = 0.18837 0.24431
#
# Static dielectric constant tensor:
#      x y z
#    x 3.444130 0.000040 -0.112770 
#    y 0.000040 3.502850 0.000030 
#    z -0.112770 0.000030 3.957660 
# 
# 
# High freq. dielectric constant tensor:
#      x y z
#    x 1.727040 0.000000 -0.017390 
#    y 0.000000 1.681730 0.000000 
#    z -0.017390 0.000000 1.737800 
# 
# From -- ./inp_files/164233.got.cif
#   From: 2010.06.25/outbox.cif.g09.slc.cpg/sg15_83_cif.got.tgz:164233.got - 2010.06.28 07:06:18.
