data_PCOD8134226
_publ_section_title
;
Structure prediction by ZEFSAII (Michael W. Deem and Ramdas Pophale) SiO2 
 PCOD8134226
Probable space group: C 2/C
;
_chemical_formula_sum "Si O2"
_cell_formula_units_Z 48
_cell_length_a 9.559820
_cell_length_b 23.017092
_cell_length_c 22.890187
_cell_angle_alpha 90.000000
_cell_angle_beta 151.955834
_cell_angle_gamma 90.000000
_cell_volume 2368.033440
_symmetry_space_group_name_H-M "C 2/C"
_symmetry_group_IT_number 15
_symmetry_cell_setting 'monoclinic'
loop_
_space_group_symop_operation_xyz
x,y,z
-x,y,1/2-z
-x,-y,-z
x,-y,1/2+z
1/2+x,1/2+y,z
1/2-x,1/2+y,1/2-z
1/2-x,1/2-y,-z
1/2+x,1/2-y,1/2+z
loop_
_atom_site_type_symbol
_atom_site_label
_atom_site_fract_x
_atom_site_fract_y
_atom_site_fract_z
Si Si1 0.184497 0.611413 0.762320
Si Si2 0.356558 0.001263 0.134327
Si Si3 0.856769 0.280568 0.323362
Si Si4 0.513630 0.282807 0.519190
Si Si5 0.237881 0.613876 0.457417
Si Si6 0.178786 0.294348 0.654270
O O1 0.275549 0.657403 0.745521
O O2 0.487053 0.588901 0.903589
O O3 0.000000 0.639391 0.750000
O O4 0.000116 0.559000 0.663449
O O5 0.500000 0.008862 0.250000
O O6 0.451994 0.058382 0.133828
O O7 0.000000 0.000000 0.000000
O O8 0.704479 0.230062 0.229239
O O9 0.205048 0.290501 0.438900
O O10 0.796844 0.261130 0.368601
O O11 0.660363 0.345709 0.560511
O O12 0.477081 0.254470 0.442377
O O13 0.021209 0.648721 0.420299
O O14 0.500000 0.312549 0.750000
#
# Coordination Sequence:
#
# PCOD8134226 Si02
#       6
#     8   8   8   8   8   8
#     4  11  19  39  61  86 128 166 196 262 316 375
#     4  11  22  38  61  95 125 162 214 263 319 371
#     4  10  19  35  58  86 126 159 199 244 318 382
#     4  10  20  34  57  91 120 161 197 248 318 386
#     4  12  22  38  62  90 128 163 209 264 323 380
#     4  10  22  40  56  85 125 164 203 262 319 375
#
# _framework density 20.269984999999998
#
# number of rings (size 3 to 8) (size 9 to 14) (size 15 to 20)
#    0.000    1.333    6.667    1.000    2.333    0.000 
#    3.000    0.000    0.000    4.000    0.000    0.000 
#    0.000    0.000    0.000    0.000    0.000    0.000 
#
# Total GULP energy -297424.818738 kJ/mol
# GULP energy per Si atom -12392.700781 kJ/mol
# Density = 2.022385 g / cm^3
# Si number density = 20.269985 Si / 1000 Ang^3
#
#
#
# Elastic Constant Matrix: (Units=GPa)
#
#
# Indices 1 2 3 4 5 6 
#
# 1 42.1272 25.8134 22.0228 0.0071 -13.9572 -0.0056
# 2 25.8134 110.2754 37.7693 0.0085 7.4866 -0.0056
# 3 22.0228 37.7693 105.7441 0.0017 -2.5901 0.0010
# 4 0.0071 0.0085 0.0017 38.2106 -0.0025 3.6668
# 5 -13.9572 7.4866 -2.5901 -0.0025 17.5955 -0.0115
# 6 -0.0056 -0.0056 0.0010 3.6668 -0.0115 19.0500
#
#
#
# Elastic Compliance Matrix: (Units=1/GPa)
#
#
# Indices 1 2 3 4 5 6 
#
# 1 0.047938 -0.012604 -0.004435 -0.000007 0.042735 0.000038
# 2 -0.012604 0.014095 -0.002812 -0.000001 -0.016409 -0.000009
# 3 -0.004435 -0.002812 0.011369 0.000001 -0.000648 -0.000003
# 4 -0.000007 -0.000001 0.000001 0.026663 -0.000004 -0.005132
# 5 0.042735 -0.016409 -0.000648 -0.000004 0.097617 0.000067
# 6 0.000038 -0.000009 -0.000003 -0.005132 0.000067 0.053481
#
#
# Mechanical properties :
#
#
# Convention : Reuss Voigt Hill
#
# Bulk Modulus (GPa) = 29.67253 47.70641 38.68947
# Shear Modulus (GPa) = 16.55089 26.47399 21.51244
#
# Velocity S-wave (km/s) = 2.86058 3.61788 3.26129
# Velocity P-wave (km/s) = 5.05777 6.40614 5.77147
#
# Compressibility (1/GPa) = 0.03370121
#
# Stress axis : x y z
#
# Youngs Moduli (GPa) = 20.86035 70.94508 87.95956
#
# Poissons Ratio (x) = 0.89416 0.39013
# Poissons Ratio (y) = 0.26291 0.24731
# Poissons Ratio (z) = 0.09252 0.19947
#
# Static dielectric constant tensor:
#      x y z
#    x 3.567460 -0.000050 -0.045900 
#    y -0.000050 4.142190 0.000000 
#    z -0.045900 0.000000 4.073690 
# 
# 
# High freq. dielectric constant tensor:
#      x y z
#    x 1.752520 0.000000 0.008450 
#    y 0.000000 1.785130 0.000000 
#    z 0.008450 0.000000 1.813500 
# 
# From -- ./inp_files/234333.got.cif
#   From: 2010.06.25/outbox.cif.g09.slc.cpg/sg15_118_cif.got.tgz:234333.got - 2010.06.28 07:06:18.
