data_PCOD8134146
_publ_section_title
;
Structure prediction by ZEFSAII (Michael W. Deem and Ramdas Pophale) SiO2 
 PCOD8134146
Probable space group: C 2/C
;
_chemical_formula_sum "Si O2"
_cell_formula_units_Z 48
_cell_length_a 7.713276
_cell_length_b 26.355899
_cell_length_c 19.258730
_cell_angle_alpha 90.000000
_cell_angle_beta 40.978824
_cell_angle_gamma 90.000000
_cell_volume 2567.453293
_symmetry_space_group_name_H-M "C 2/C"
_symmetry_group_IT_number 15
_symmetry_cell_setting 'monoclinic'
loop_
_space_group_symop_operation_xyz
x,y,z
-x,y,1/2-z
-x,-y,-z
x,-y,1/2+z
1/2+x,1/2+y,z
1/2-x,1/2+y,1/2-z
1/2-x,1/2-y,-z
1/2+x,1/2-y,1/2+z
loop_
_atom_site_type_symbol
_atom_site_label
_atom_site_fract_x
_atom_site_fract_y
_atom_site_fract_z
Si Si1 0.394950 0.313024 0.016673
Si Si2 0.403113 0.683937 0.672509
Si Si3 0.174590 0.926170 0.476684
Si Si4 0.639974 0.779831 0.383646
Si Si5 0.798664 0.001132 0.159300
Si Si6 0.237162 0.083043 0.726056
O O1 0.354034 0.296440 0.109425
O O2 0.471278 0.372415 0.990764
O O3 0.145358 0.304574 0.042154
O O4 0.627228 0.277757 0.916156
O O5 0.712060 0.684604 0.603394
O O6 0.276834 0.722528 0.766707
O O7 0.256645 0.628873 0.719923
O O8 0.485748 0.919258 0.399708
O O9 0.015911 0.954432 0.586779
O O10 0.154915 0.959336 0.413626
O O11 0.500000 0.023537 0.250000
O O12 0.835882 0.971486 0.220076
O O13 0.000000 0.100654 0.750000
#
# Coordination Sequence:
#
# PCOD8134146 Si02
#       6
#     8   8   8   8   8   8
#     4  11  20  35  58  78 113 154 180 236 292 323
#     4  11  19  36  55  81 113 144 189 240 272 335
#     4  10  19  35  57  81 106 145 191 225 280 344
#     4  10  22  33  53  87 109 140 197 231 273 347
#     4   9  20  35  55  82 109 141 187 232 276 341
#     4  11  19  33  59  83 111 144 187 236 279 334
#
# _framework density 18.695568999999999
#
# number of rings (size 3 to 8) (size 9 to 14) (size 15 to 20)
#    0.000    1.667    5.000    1.000    0.000    0.667 
#    3.000    0.000    0.000    2.000    0.000    0.000 
#    0.000    0.000    0.000    0.000    0.000    0.000 
#
# Total GULP energy -297381.329888 kJ/mol
# GULP energy per Si atom -12390.888745 kJ/mol
# Density = 1.865302 g / cm^3
# Si number density = 18.695569 Si / 1000 Ang^3
#
#
#
# Elastic Constant Matrix: (Units=GPa)
#
#
# Indices 1 2 3 4 5 6 
#
# 1 60.6010 25.0907 22.6910 0.0001 -10.5699 -0.0001
# 2 25.0907 111.6493 66.6042 -0.0001 -5.1773 0.0000
# 3 22.6910 66.6042 95.2219 0.0000 -4.8158 -0.0001
# 4 0.0001 -0.0001 0.0000 44.8262 -0.0001 -0.3638
# 5 -10.5699 -5.1773 -4.8158 -0.0001 25.9468 0.0000
# 6 -0.0001 0.0000 -0.0001 -0.3638 0.0000 16.2811
#
#
#
# Elastic Compliance Matrix: (Units=1/GPa)
#
#
# Indices 1 2 3 4 5 6 
#
# 1 0.019758 -0.002603 -0.002530 0.000000 0.007060 0.000000
# 2 -0.002603 0.015743 -0.010384 0.000000 0.000154 0.000000
# 3 -0.002530 -0.010384 0.018383 0.000000 0.000309 0.000000
# 4 0.000000 0.000000 0.000000 0.022312 0.000000 0.000499
# 5 0.007060 0.000154 0.000309 0.000000 0.041504 0.000000
# 6 0.000000 0.000000 0.000000 0.000499 0.000000 0.061432
#
#
# Mechanical properties :
#
#
# Convention : Reuss Voigt Hill
#
# Bulk Modulus (GPa) = 43.76367 55.13821 49.45094
# Shear Modulus (GPa) = 22.95850 27.61658 25.28754
#
# Velocity S-wave (km/s) = 3.50811 3.84757 3.68175
# Velocity P-wave (km/s) = 6.31415 7.02105 6.67696
#
# Compressibility (1/GPa) = 0.02285000
#
# Stress axis : x y z
#
# Youngs Moduli (GPa) = 50.61235 63.51997 54.39727
#
# Poissons Ratio (x) = 0.16537 0.13764
# Poissons Ratio (y) = 0.13176 0.56484
# Poissons Ratio (z) = 0.12806 0.65956
#
# Static dielectric constant tensor:
#      x y z
#    x 3.400250 0.000000 -0.177690 
#    y 0.000000 3.524820 0.000000 
#    z -0.177690 0.000000 3.581080 
# 
# 
# High freq. dielectric constant tensor:
#      x y z
#    x 1.718960 0.000000 -0.009450 
#    y 0.000000 1.717470 0.000000 
#    z -0.009450 0.000000 1.711640 
# 
# From -- ./inp_files/79282.got.cif
#   From: 2010.06.25/outbox.cif.g09.slc.cpg/sg15_40_cif.got.tgz:79282.got - 2010.06.28 07:06:18.
