data_PCOD8134422
_publ_section_title
;
Structure prediction by ZEFSAII (Michael W. Deem and Ramdas Pophale) SiO2 
 PCOD8134422
Probable space group: C 2/C
;
_chemical_formula_sum "Si O2"
_cell_formula_units_Z 64
_cell_length_a 27.236241
_cell_length_b 12.736629
_cell_length_c 16.479378
_cell_angle_alpha 90.000000
_cell_angle_beta 31.279198
_cell_angle_gamma 90.000000
_cell_volume 2968.141309
_symmetry_space_group_name_H-M "C 2/C"
_symmetry_group_IT_number 15
_symmetry_cell_setting 'monoclinic'
loop_
_space_group_symop_operation_xyz
x,y,z
-x,y,1/2-z
-x,-y,-z
x,-y,1/2+z
1/2+x,1/2+y,z
1/2-x,1/2+y,1/2-z
1/2-x,1/2-y,-z
1/2+x,1/2-y,1/2+z
loop_
_atom_site_type_symbol
_atom_site_label
_atom_site_fract_x
_atom_site_fract_y
_atom_site_fract_z
Si Si1 0.840413 0.315989 0.570624
Si Si2 0.884381 0.481256 0.815879
Si Si3 0.284843 0.651449 0.997735
Si Si4 0.347709 0.271215 0.585245
Si Si5 0.146561 0.290432 0.133938
Si Si6 0.985760 0.853645 0.866680
Si Si7 0.100112 0.459000 0.517467
Si Si8 0.514395 0.413914 0.324707
O O1 0.728275 0.303641 0.739438
O O2 0.874016 0.312433 0.430870
O O3 0.896540 0.214049 0.526987
O O4 0.870698 0.429679 0.565545
O O5 0.875759 0.598917 0.792953
O O6 0.865906 0.467752 0.937575
O O7 0.989932 0.438289 0.654760
O O8 0.804822 0.425354 0.874190
O O9 0.373323 0.603682 0.821589
O O10 0.250000 0.750000 0.000000
O O11 0.312007 0.683946 0.050015
O O12 0.350137 0.144960 0.587239
O O13 0.449855 0.324630 0.459572
O O14 0.078597 0.204027 0.269748
O O15 0.250000 0.250000 0.000000
O O16 0.000000 0.860708 0.750000
O O17 0.981497 0.972710 0.906449
O O18 0.500000 0.405382 0.250000
#
# Coordination Sequence:
#
# PCOD8134422 Si02
#       8
#     8   8   8   8   8   8   8   8
#     4  10  22  38  59  84 114 156 190 234 294 349
#     4  10  19  35  64  87 109 148 202 246 278 342
#     4  11  20  36  58  88 115 148 197 240 284 337
#     4  11  23  37  58  84 119 156 188 237 297 347
#     4  10  19  36  62  87 112 145 192 240 286 335
#     4   9  17  36  57  81 110 146 191 232 274 340
#     4  10  20  38  60  84 114 153 199 237 289 353
#     4   9  20  34  56  84 112 150 193 234 283 344
#
# _framework density 21.562315999999999
#
# number of rings (size 3 to 8) (size 9 to 14) (size 15 to 20)
#    0.000    2.000    2.500    1.500    5.250    1.000 
#    0.000    3.125    0.000    3.000    0.000    0.000 
#    0.000    0.000    0.000    0.000    0.000    0.000 
#
# Total GULP energy -396464.836236 kJ/mol
# GULP energy per Si atom -12389.526132 kJ/mol
# Density = 2.151324 g / cm^3
# Si number density = 21.562316 Si / 1000 Ang^3
#
#
#
# Elastic Constant Matrix: (Units=GPa)
#
#
# Indices 1 2 3 4 5 6 
#
# 1 36.3481 13.1226 6.1716 0.0000 -25.2490 0.0000
# 2 13.1226 170.3262 42.6096 0.0000 -15.4424 0.0000
# 3 6.1716 42.6096 91.7139 0.0000 -24.1979 0.0000
# 4 0.0000 0.0000 0.0000 36.2031 0.0000 -17.1129
# 5 -25.2490 -15.4424 -24.1979 0.0000 31.3169 0.0000
# 6 0.0000 0.0000 0.0000 -17.1129 0.0000 25.7255
#
#
#
# Elastic Compliance Matrix: (Units=1/GPa)
#
#
# Indices 1 2 3 4 5 6 
#
# 1 0.075233 -0.003152 0.015067 0.000000 0.070743 0.000000
# 2 -0.003152 0.006807 -0.003435 0.000000 -0.001839 0.000000
# 3 0.015067 -0.003435 0.017891 0.000000 0.024277 0.000000
# 4 0.000000 0.000000 0.000000 0.040291 0.000000 0.026802
# 5 0.070743 -0.001839 0.024277 0.000000 0.106819 0.000000
# 6 0.000000 0.000000 0.000000 0.026802 0.000000 0.056701
#
#
# Mechanical properties :
#
#
# Convention : Reuss Voigt Hill
#
# Bulk Modulus (GPa) = 8.55510 46.91064 27.73287
# Shear Modulus (GPa) = 15.34941 34.41473 24.88207
#
# Velocity S-wave (km/s) = 2.67097 3.99940 3.40069
# Velocity P-wave (km/s) = 3.67265 6.56735 5.32064
#
# Compressibility (1/GPa) = 0.11688938
#
# Stress axis : x y z
#
# Youngs Moduli (GPa) = 13.29212 146.91655 55.89398
#
# Poissons Ratio (x) = 0.46301 -0.84213
# Poissons Ratio (y) = 0.04189 0.19202
# Poissons Ratio (z) = -0.20027 0.50472
#
# Static dielectric constant tensor:
#      x y z
#    x 3.533290 0.000000 -0.252970 
#    y 0.000000 4.140310 0.000000 
#    z -0.252970 0.000000 3.300030 
# 
# 
# High freq. dielectric constant tensor:
#      x y z
#    x 1.808350 0.000000 -0.035260 
#    y 0.000000 1.869830 0.000000 
#    z -0.035260 0.000000 1.833280 
# 
# From -- ./inp_files/225140.got.cif
#   From: 2010.06.25/outbox.cif.g09.slc.cpg/sg15_113_cif.got.tgz:225140.got - 2010.06.28 07:06:18.
