data_PCOD8134351
_publ_section_title
;
Structure prediction by ZEFSAII (Michael W. Deem and Ramdas Pophale) SiO2 
 PCOD8134351
Probable space group: C 2/C
;
_chemical_formula_sum "Si O2"
_cell_formula_units_Z 48
_cell_length_a 8.686956
_cell_length_b 21.399026
_cell_length_c 14.773616
_cell_angle_alpha 90.000000
_cell_angle_beta 62.802132
_cell_angle_gamma 90.000000
_cell_volume 2442.653471
_symmetry_space_group_name_H-M "C 2/C"
_symmetry_group_IT_number 15
_symmetry_cell_setting 'monoclinic'
loop_
_space_group_symop_operation_xyz
x,y,z
-x,y,1/2-z
-x,-y,-z
x,-y,1/2+z
1/2+x,1/2+y,z
1/2-x,1/2+y,1/2-z
1/2-x,1/2-y,-z
1/2+x,1/2-y,1/2+z
loop_
_atom_site_type_symbol
_atom_site_label
_atom_site_fract_x
_atom_site_fract_y
_atom_site_fract_z
Si Si1 0.731063 0.529254 0.066516
Si Si2 0.350743 0.653034 0.497536
Si Si3 0.219186 0.626887 0.823606
Si Si4 0.474532 0.768918 0.357791
Si Si5 0.474075 0.412912 0.389381
Si Si6 0.518145 0.989955 0.349673
O O1 0.552259 0.488623 0.109747
O O2 0.823878 0.523200 0.139449
O O3 0.705640 0.603529 0.063854
O O4 0.841493 0.500551 0.952766
O O5 0.457237 0.709360 0.425923
O O6 0.186847 0.683044 0.593078
O O7 0.480481 0.612900 0.524646
O O8 0.371949 0.610124 0.714819
O O9 0.290038 0.615720 0.906174
O O10 0.055765 0.584020 0.841251
O O11 0.153388 0.697585 0.837585
O O12 0.500000 0.744346 0.250000
O O13 0.500000 0.013662 0.250000
#
# Coordination Sequence:
#
# PCOD8134351 Si02
#       6
#     8   8   8   8   8   8
#     4  10  21  37  59  94 124 150 198 251 299 357
#     4  11  22  38  62  87 120 157 200 248 296 351
#     4  10  19  37  63  86 114 160 206 236 289 364
#     4  11  22  40  62  81 115 165 204 241 292 359
#     4  10  21  36  62  93 117 152 196 252 301 346
#     4  10  19  35  61  88 123 162 190 238 302 364
#
# _framework density 19.650760999999999
#
# number of rings (size 3 to 8) (size 9 to 14) (size 15 to 20)
#    0.000    1.667    3.333    2.000    0.000    0.667 
#    9.000    0.000    0.000    0.000    0.000    0.000 
#    0.000    0.000    0.000    0.000    0.000    0.000 
#
# Total GULP energy -297430.661690 kJ/mol
# GULP energy per Si atom -12392.944237 kJ/mol
# Density = 1.960603 g / cm^3
# Si number density = 19.650761 Si / 1000 Ang^3
#
#
#
# Elastic Constant Matrix: (Units=GPa)
#
#
# Indices 1 2 3 4 5 6 
#
# 1 80.1498 44.0087 42.6825 0.0000 11.8954 0.0000
# 2 44.0087 109.5360 40.4104 0.0000 -1.3568 0.0000
# 3 42.6825 40.4104 89.8629 0.0000 10.3196 0.0000
# 4 0.0000 0.0000 0.0000 26.3826 0.0000 -10.0647
# 5 11.8954 -1.3568 10.3196 0.0000 38.2378 0.0000
# 6 0.0000 0.0000 0.0000 -10.0647 0.0000 23.8526
#
#
#
# Elastic Compliance Matrix: (Units=1/GPa)
#
#
# Indices 1 2 3 4 5 6 
#
# 1 0.019566 -0.005616 -0.006239 0.000000 -0.004602 0.000000
# 2 -0.005616 0.012675 -0.003390 0.000000 0.003112 0.000000
# 3 -0.006239 -0.003390 0.015899 0.000000 -0.002470 0.000000
# 4 0.000000 0.000000 0.000000 0.045176 0.000000 0.019062
# 5 -0.004602 0.003112 -0.002470 0.000000 0.028361 0.000000
# 6 0.000000 0.000000 0.000000 0.019062 0.000000 0.049968
#
#
# Mechanical properties :
#
#
# Convention : Reuss Voigt Hill
#
# Bulk Modulus (GPa) = 56.65638 59.30576 57.98107
# Shear Modulus (GPa) = 24.03633 27.85775 25.94704
#
# Velocity S-wave (km/s) = 3.50119 3.76924 3.63769
# Velocity P-wave (km/s) = 6.72597 7.01344 6.87121
#
# Compressibility (1/GPa) = 0.01765026
#
# Stress axis : x y z
#
# Youngs Moduli (GPa) = 51.10868 78.89592 62.89523
#
# Poissons Ratio (x) = 0.44311 0.39242
# Poissons Ratio (y) = 0.28704 0.21318
# Poissons Ratio (z) = 0.31888 0.26742
#
# Static dielectric constant tensor:
#      x y z
#    x 3.855490 0.000000 0.129620 
#    y 0.000000 3.447020 0.000000 
#    z 0.129620 0.000000 3.589450 
# 
# 
# High freq. dielectric constant tensor:
#      x y z
#    x 1.769700 0.000000 0.003860 
#    y 0.000000 1.748840 0.000000 
#    z 0.003860 0.000000 1.760920 
# 
# From -- ./inp_files/135506.got.cif
#   From: 2010.06.25/outbox.cif.g09.slc.cpg/sg15_68_cif.got.tgz:135506.got - 2010.06.28 07:06:18.
