data_PCOD8134850
_publ_section_title
;
Structure prediction by ZEFSAII (Michael W. Deem and Ramdas Pophale) SiO2 
 PCOD8134850
Probable space group: C 2/C
;
_chemical_formula_sum "Si O2"
_cell_formula_units_Z 64
_cell_length_a 9.987035
_cell_length_b 17.836728
_cell_length_c 18.928964
_cell_angle_alpha 90.000000
_cell_angle_beta 102.935199
_cell_angle_gamma 90.000000
_cell_volume 3286.363857
_symmetry_space_group_name_H-M "C 2/C"
_symmetry_group_IT_number 15
_symmetry_cell_setting 'monoclinic'
loop_
_space_group_symop_operation_xyz
x,y,z
-x,y,1/2-z
-x,-y,-z
x,-y,1/2+z
1/2+x,1/2+y,z
1/2-x,1/2+y,1/2-z
1/2-x,1/2-y,-z
1/2+x,1/2-y,1/2+z
loop_
_atom_site_type_symbol
_atom_site_label
_atom_site_fract_x
_atom_site_fract_y
_atom_site_fract_z
Si Si1 0.135653 0.189485 0.471488
Si Si2 0.691038 0.021975 0.192962
Si Si3 0.708737 0.450296 0.648663
Si Si4 0.592492 0.076808 0.571379
Si Si5 0.440146 0.620576 0.170521
Si Si6 0.095240 0.275750 0.981975
Si Si7 0.539912 0.146558 0.331372
Si Si8 0.791890 0.540259 0.527271
O O1 0.250000 0.250000 0.500000
O O2 0.099895 0.190835 0.383752
O O3 0.189868 0.105823 0.491417
O O4 0.000713 0.208563 0.501256
O O5 0.727893 0.003440 0.278082
O O6 0.811665 0.067988 0.170416
O O7 0.553129 0.072533 0.167934
O O8 0.670670 0.940262 0.154445
O O9 0.551930 0.429570 0.643417
O O10 0.800089 0.375508 0.651380
O O11 0.709335 0.497510 0.577781
O O12 0.606291 0.157482 0.539257
O O13 0.433273 0.072231 0.573469
O O14 0.659770 0.013912 0.529576
O O15 0.500000 0.654759 0.250000
O O16 0.029307 0.298517 0.897935
O O17 0.250000 0.250000 0.000000
O O18 0.500000 0.184106 0.250000
#
# Coordination Sequence:
#
# PCOD8134850 Si02
#       8
#     8   8   8   8   8   8   8   8
#     4  12  24  40  61  91 126 168 208 251 310 377
#     4  10  19  36  64  92 118 156 204 261 311 359
#     4  10  20  35  62  95 120 150 211 263 303 363
#     4  11  20  38  64  88 120 157 205 255 311 359
#     4  10  22  39  59  90 126 159 201 258 317 368
#     4  12  25  40  59  91 128 163 205 252 309 374
#     4  10  19  37  63  86 113 161 211 247 296 375
#     4  11  21  37  64  91 117 155 210 256 307 363
#
# _framework density 19.474409999999999
#
# number of rings (size 3 to 8) (size 9 to 14) (size 15 to 20)
#    0.000    1.250    5.000    2.250    0.000    1.500 
#    0.000    2.500    0.000    0.000    0.000    0.000 
#    0.000    0.000    0.000    0.000    0.000    0.000 
#
# Total GULP energy -396544.301723 kJ/mol
# GULP energy per Si atom -12392.009429 kJ/mol
# Density = 1.943009 g / cm^3
# Si number density = 19.474410 Si / 1000 Ang^3
#
#
#
# Elastic Constant Matrix: (Units=GPa)
#
#
# Indices 1 2 3 4 5 6 
#
# 1 101.9595 22.2092 32.6566 0.0000 -10.8528 0.0000
# 2 22.2092 60.8288 39.1071 0.0000 2.6547 0.0000
# 3 32.6566 39.1071 124.0347 0.0000 6.5125 0.0000
# 4 0.0000 0.0000 0.0000 17.1732 0.0000 2.6444
# 5 -10.8528 2.6547 6.5125 0.0000 28.0787 0.0000
# 6 0.0000 0.0000 0.0000 2.6444 0.0000 25.3404
#
#
#
# Elastic Compliance Matrix: (Units=1/GPa)
#
#
# Indices 1 2 3 4 5 6 
#
# 1 0.011820 -0.002971 -0.002460 0.000000 0.005420 0.000000
# 2 -0.002971 0.021371 -0.005861 0.000000 -0.001809 0.000000
# 3 -0.002460 -0.005861 0.010709 0.000000 -0.002881 0.000000
# 4 0.000000 0.000000 0.000000 0.059181 0.000000 -0.006176
# 5 0.005420 -0.001809 -0.002881 0.000000 0.038548 0.000000
# 6 0.000000 0.000000 0.000000 -0.006176 0.000000 0.040107
#
#
# Mechanical properties :
#
#
# Convention : Reuss Voigt Hill
#
# Bulk Modulus (GPa) = 46.91104 52.75210 49.83157
# Shear Modulus (GPa) = 23.64902 26.97513 25.31207
#
# Velocity S-wave (km/s) = 3.48855 3.72581 3.60913
# Velocity P-wave (km/s) = 6.35354 6.75689 6.55832
#
# Compressibility (1/GPa) = 0.02131694
#
# Stress axis : x y z
#
# Youngs Moduli (GPa) = 84.60472 46.79191 93.37836
#
# Poissons Ratio (x) = 0.13900 0.22971
# Poissons Ratio (y) = 0.25132 0.54730
# Poissons Ratio (z) = 0.20812 0.27425
#
# Static dielectric constant tensor:
#      x y z
#    x 3.834490 0.000000 -0.032190 
#    y 0.000000 3.143660 0.000000 
#    z -0.032190 0.000000 3.967280 
# 
# 
# High freq. dielectric constant tensor:
#      x y z
#    x 1.781200 0.000000 -0.003850 
#    y 0.000000 1.714320 0.000000 
#    z -0.003850 0.000000 1.774740 
# 
# From -- ./inp_files/232713.got.cif
#   From: 2010.06.25/outbox.cif.g09.slc.cpg/sg15_117_cif.got.tgz:232713.got - 2010.06.28 07:06:18.
