data_PCOD8134260
_publ_section_title
;
Structure prediction by ZEFSAII (Michael W. Deem and Ramdas Pophale) SiO2 
 PCOD8134260
Probable space group: C 2/C
;
_chemical_formula_sum "Si O2"
_cell_formula_units_Z 40
_cell_length_a 14.700330
_cell_length_b 9.172465
_cell_length_c 27.765605
_cell_angle_alpha 90.000000
_cell_angle_beta 32.474831
_cell_angle_gamma 90.000000
_cell_volume 2010.190453
_symmetry_space_group_name_H-M "C 2/C"
_symmetry_group_IT_number 15
_symmetry_cell_setting 'monoclinic'
loop_
_space_group_symop_operation_xyz
x,y,z
-x,y,1/2-z
-x,-y,-z
x,-y,1/2+z
1/2+x,1/2+y,z
1/2-x,1/2+y,1/2-z
1/2-x,1/2-y,-z
1/2+x,1/2-y,1/2+z
loop_
_atom_site_type_symbol
_atom_site_label
_atom_site_fract_x
_atom_site_fract_y
_atom_site_fract_z
Si Si1 0.018258 0.046702 0.167251
Si Si2 0.010702 0.259202 0.990835
Si Si3 0.308043 0.823258 0.425599
Si Si4 0.677076 0.393089 0.008373
Si Si5 0.722066 0.018885 0.865915
O O1 0.047897 0.977206 0.101657
O O2 0.166197 0.989213 0.135795
O O3 0.835680 0.994863 0.267319
O O4 0.028997 0.226227 0.163495
O O5 0.924736 0.142649 0.994345
O O6 0.160387 0.180650 0.951997
O O7 0.082081 0.391996 0.926654
O O8 0.873254 0.325139 0.090186
O O9 0.250000 0.750000 0.500000
O O10 0.333920 0.996385 0.424445
O O11 0.750000 0.250000 0.000000
#
# Coordination Sequence:
#
# PCOD8134260 Si02
#       5
#     8   8   8   8   8
#     4   9  18  37  57  82 113 147 190 235 278 334
#     4  10  19  35  59  84 112 150 188 232 281 338
#     4   9  20  36  59  80 111 152 186 232 283 334
#     4  11  20  35  57  87 114 147 189 231 282 335
#     4   9  18  34  61  80 110 151 190 229 283 331
#
# _framework density 19.898610999999999
#
# number of rings (size 3 to 8) (size 9 to 14) (size 15 to 20)
#    0.000    2.400    2.000    0.600    2.800    0.000 
#    7.200    0.000   17.600    0.000    0.000    0.000 
#    0.000    0.000    0.000    0.000    0.000    0.000 
#
# Total GULP energy -247826.395945 kJ/mol
# GULP energy per Si atom -12391.319797 kJ/mol
# Density = 1.985332 g / cm^3
# Si number density = 19.898611 Si / 1000 Ang^3
#
#
#
# Elastic Constant Matrix: (Units=GPa)
#
#
# Indices 1 2 3 4 5 6 
#
# 1 59.8543 32.2176 6.9201 0.0002 10.3979 -0.0051
# 2 32.2176 137.8468 46.7392 0.0002 6.9394 -0.0034
# 3 6.9201 46.7392 108.6980 -0.0004 10.0406 -0.0001
# 4 0.0002 0.0002 -0.0004 22.1686 0.0000 2.4565
# 5 10.3979 6.9394 10.0406 0.0000 19.0140 0.0008
# 6 -0.0051 -0.0034 -0.0001 2.4565 0.0008 32.6388
#
#
#
# Elastic Compliance Matrix: (Units=1/GPa)
#
#
# Indices 1 2 3 4 5 6 
#
# 1 0.021030 -0.004986 0.001786 0.000000 -0.010624 0.000003
# 2 -0.004986 0.009702 -0.003973 0.000000 0.001284 0.000000
# 3 0.001786 -0.003973 0.011302 0.000000 -0.005495 0.000000
# 4 0.000000 0.000000 0.000000 0.045488 0.000000 -0.003424
# 5 -0.010624 0.001284 -0.005495 0.000000 0.060836 -0.000003
# 6 0.000003 0.000000 0.000000 -0.003424 -0.000003 0.030896
#
#
# Mechanical properties :
#
#
# Convention : Reuss Voigt Hill
#
# Bulk Modulus (GPa) = 36.11519 53.12812 44.62165
# Shear Modulus (GPa) = 24.65120 29.46575 27.05848
#
# Velocity S-wave (km/s) = 3.52353 3.85228 3.69157
# Velocity P-wave (km/s) = 5.89430 6.82233 6.37522
#
# Compressibility (1/GPa) = 0.02768918
#
# Stress axis : x y z
#
# Youngs Moduli (GPa) = 47.55074 103.06848 88.47957
#
# Poissons Ratio (x) = 0.51391 -0.15807
# Poissons Ratio (y) = 0.23709 0.35153
# Poissons Ratio (z) = -0.08495 0.40950
#
# Static dielectric constant tensor:
#      x y z
#    x 0.503440 0.000060 0.391310 
#    y 0.000060 3.983630 -0.000010 
#    z 0.391310 -0.000010 3.545370 
# 
# 
# High freq. dielectric constant tensor:
#      x y z
#    x 1.774280 0.000000 0.008870 
#    y 0.000000 1.782070 0.000000 
#    z 0.008870 0.000000 1.743980 
# 
# From -- ./inp_files/181282.got.cif
#   From: 2010.06.25/outbox.cif.g09.slc.cpg/sg15_91_cif.got.tgz:181282.got - 2010.06.28 07:06:18.
