data_PCOD8134808
_publ_section_title
;
Structure prediction by ZEFSAII (Michael W. Deem and Ramdas Pophale) SiO2 
 PCOD8134808
Probable space group: C 2/C
;
_chemical_formula_sum "Si O2"
_cell_formula_units_Z 56
_cell_length_a 13.216206
_cell_length_b 17.820276
_cell_length_c 10.403660
_cell_angle_alpha 90.000000
_cell_angle_beta 85.292713
_cell_angle_gamma 90.000000
_cell_volume 2441.968212
_symmetry_space_group_name_H-M "C 2/C"
_symmetry_group_IT_number 15
_symmetry_cell_setting 'monoclinic'
loop_
_space_group_symop_operation_xyz
x,y,z
-x,y,1/2-z
-x,-y,-z
x,-y,1/2+z
1/2+x,1/2+y,z
1/2-x,1/2+y,1/2-z
1/2-x,1/2-y,-z
1/2+x,1/2-y,1/2+z
loop_
_atom_site_type_symbol
_atom_site_label
_atom_site_fract_x
_atom_site_fract_y
_atom_site_fract_z
Si Si1 0.500000 0.744926 0.250000
Si Si2 0.700659 0.281787 0.836840
Si Si3 0.700620 0.463695 0.184782
Si Si4 0.946905 0.648800 0.987730
Si Si5 0.250474 0.577862 0.533346
Si Si6 0.350205 0.284201 0.126648
Si Si7 0.000000 0.884336 0.250000
Si Si8 0.167614 0.356921 0.497004
O O1 0.401348 0.693042 0.229784
O O2 0.528319 0.801238 0.135804
O O3 0.772880 0.225035 0.751876
O O4 0.659863 0.230534 0.958075
O O5 0.760890 0.355711 0.882120
O O6 0.718941 0.467520 0.338561
O O7 0.586390 0.434460 0.172932
O O8 0.785110 0.408727 0.117345
O O9 0.708368 0.540687 0.102960
O O10 0.872616 0.579642 0.959720
O O11 0.051764 0.616770 0.038809
O O12 0.883256 0.700855 0.090022
O O13 0.291923 0.664316 0.526916
O O14 0.450456 0.331404 0.148418
#
# Coordination Sequence:
#
# PCOD8134808 Si02
#       8
#     4   8   8   8   8   8   4   8
#     4  10  20  34  59  96 131 166 204 276 342 390
#     4  10  19  36  62  95 135 167 215 274 334 397
#     4  11  25  45  68  92 135 182 228 274 329 404
#     4  11  22  39  67  95 130 169 217 277 347 389
#     4  11  24  45  65  93 133 181 226 275 330 403
#     4  11  21  39  65  97 129 172 216 281 336 407
#     4  10  22  42  67  92 131 178 218 282 342 394
#     4  10  21  39  64  98 128 169 220 273 333 403
#
# _framework density 22.932321000000002
#
# number of rings (size 3 to 8) (size 9 to 14) (size 15 to 20)
#    0.000    1.429    4.286    2.143    4.000    4.000 
#    0.000    0.714    0.000    0.000    0.000    0.000 
#    0.000    0.000    0.000    0.000    0.000    0.000 
#
# Total GULP energy -346902.678961 kJ/mol
# GULP energy per Si atom -12389.381391 kJ/mol
# Density = 2.288013 g / cm^3
# Si number density = 22.932321 Si / 1000 Ang^3
#
#
#
# Elastic Constant Matrix: (Units=GPa)
#
#
# Indices 1 2 3 4 5 6 
#
# 1 197.5636 27.4289 40.1866 0.0000 19.5532 0.0000
# 2 27.4289 28.2725 21.8305 0.0000 -4.7238 0.0000
# 3 40.1866 21.8305 68.0327 0.0000 -0.9286 0.0000
# 4 0.0000 0.0000 0.0000 36.9565 0.0000 -5.7890
# 5 19.5532 -4.7238 -0.9286 0.0000 26.7060 0.0000
# 6 0.0000 0.0000 0.0000 -5.7890 0.0000 24.1526
#
#
#
# Elastic Compliance Matrix: (Units=1/GPa)
#
#
# Indices 1 2 3 4 5 6 
#
# 1 0.006986 -0.006079 -0.002262 0.000000 -0.006269 0.000000
# 2 -0.006079 0.053990 -0.013549 0.000000 0.013529 0.000000
# 3 -0.002262 -0.013549 0.020382 0.000000 -0.000032 0.000000
# 4 0.000000 0.000000 0.000000 0.028114 0.000000 0.006739
# 5 -0.006269 0.013529 -0.000032 0.000000 0.044426 0.000000
# 6 0.000000 0.000000 0.000000 0.006739 0.000000 0.043019
#
#
# Mechanical properties :
#
#
# Convention : Reuss Voigt Hill
#
# Bulk Modulus (GPa) = 26.61067 52.52900 39.56984
# Shear Modulus (GPa) = 19.74552 31.19122 25.46837
#
# Velocity S-wave (km/s) = 2.93752 3.69201 3.33616
# Velocity P-wave (km/s) = 4.80984 6.41330 5.66855
#
# Compressibility (1/GPa) = 0.03757891
#
# Stress axis : x y z
#
# Youngs Moduli (GPa) = 143.14178 18.52210 49.06299
#
# Poissons Ratio (x) = 0.11259 0.11096
# Poissons Ratio (y) = 0.87011 0.66475
# Poissons Ratio (z) = 0.32374 0.25096
#
# Static dielectric constant tensor:
#      x y z
#    x 4.756690 0.000000 0.445560 
#    y 0.000000 3.718950 0.000000 
#    z 0.445560 0.000000 3.942110 
# 
# 
# High freq. dielectric constant tensor:
#      x y z
#    x 1.932920 0.000000 0.006100 
#    y 0.000000 1.865400 0.000000 
#    z 0.006100 0.000000 1.894550 
# 
# From -- ./inp_files/89008.got.cif
#   From: 2010.06.25/outbox.cif.g09.slc.cpg/sg15_45_cif.got.tgz:89008.got - 2010.06.28 07:06:18.
