data_PCOD8134083
_publ_section_title
;
Structure prediction by ZEFSAII (Michael W. Deem and Ramdas Pophale) SiO2 
 PCOD8134083
Probable space group: C 2/C
;
_chemical_formula_sum "Si O2"
_cell_formula_units_Z 52
_cell_length_a 22.305696
_cell_length_b 13.259444
_cell_length_c 12.266526
_cell_angle_alpha 90.000000
_cell_angle_beta 42.619570
_cell_angle_gamma 90.000000
_cell_volume 2456.592001
_symmetry_space_group_name_H-M "C 2/C"
_symmetry_group_IT_number 15
_symmetry_cell_setting 'monoclinic'
loop_
_space_group_symop_operation_xyz
x,y,z
-x,y,1/2-z
-x,-y,-z
x,-y,1/2+z
1/2+x,1/2+y,z
1/2-x,1/2+y,1/2-z
1/2-x,1/2-y,-z
1/2+x,1/2-y,1/2+z
loop_
_atom_site_type_symbol
_atom_site_label
_atom_site_fract_x
_atom_site_fract_y
_atom_site_fract_z
Si Si1 0.383660 0.375715 0.825883
Si Si2 0.181330 0.440896 0.108979
Si Si3 0.137569 0.796144 0.047808
Si Si4 0.156539 0.338968 0.717114
Si Si5 0.500000 0.537852 0.750000
Si Si6 0.854079 0.705446 0.027542
Si Si7 0.153505 0.727667 0.802860
O O1 0.456294 0.464084 0.718867
O O2 0.400763 0.307044 0.697612
O O3 0.287448 0.429790 0.957145
O O4 0.399717 0.304514 0.912175
O O5 0.144282 0.552782 0.176986
O O6 0.147817 0.383121 0.261194
O O7 0.134283 0.392774 0.065265
O O8 0.112059 0.743376 0.196039
O O9 0.079012 0.893833 0.098574
O O10 0.239148 0.825959 0.912300
O O11 0.118063 0.720408 0.973598
O O12 0.110932 0.322696 0.897197
O O13 0.751992 0.730945 0.169380
#
# Coordination Sequence:
#
# PCOD8134083 Si02
#       7
#     8   8   8   8   4   8   8
#     4   9  18  36  53  82 113 149 189 227 281 348
#     4   9  16  32  62  82 105 144 196 235 282 325
#     4  10  22  36  50  84 120 148 186 236 290 332
#     4  10  19  35  55  84 113 147 193 242 274 334
#     4  12  22  38  56  84 126 156 178 224 300 356
#     4   8  17  33  54  82 110 140 192 241 275 323
#     4   8  17  35  55  78 111 145 187 244 270 328
#
# _framework density 21.167536999999999
#
# number of rings (size 3 to 8) (size 9 to 14) (size 15 to 20)
#    0.000    2.769    1.538    1.846    2.154    0.615 
#    5.538    0.000    0.000    4.615    0.000    0.000 
#    0.000    0.000    0.000    0.000    0.000    0.000 
#
# Total GULP energy -322099.299212 kJ/mol
# GULP energy per Si atom -12388.434585 kJ/mol
# Density = 2.111936 g / cm^3
# Si number density = 21.167537 Si / 1000 Ang^3
#
#
#
# Elastic Constant Matrix: (Units=GPa)
#
#
# Indices 1 2 3 4 5 6 
#
# 1 66.6424 41.1372 48.5644 0.0000 24.9704 0.0000
# 2 41.1372 115.5433 33.9684 0.0000 12.3160 0.0000
# 3 48.5644 33.9684 63.2892 0.0000 35.6677 0.0000
# 4 0.0000 0.0000 0.0000 24.3451 0.0000 -3.0945
# 5 24.9704 12.3160 35.6677 0.0000 37.9515 0.0000
# 6 0.0000 0.0000 0.0000 -3.0945 0.0000 31.9268
#
#
#
# Elastic Compliance Matrix: (Units=1/GPa)
#
#
# Indices 1 2 3 4 5 6 
#
# 1 0.037121 -0.005548 -0.027122 0.000000 0.002866 0.000000
# 2 -0.005548 0.011389 -0.003890 0.000000 0.003610 0.000000
# 3 -0.027122 -0.003890 0.059386 0.000000 -0.036704 0.000000
# 4 0.000000 0.000000 0.000000 0.041588 0.000000 0.004031
# 5 0.002866 0.003610 -0.036704 0.000000 0.057787 0.000000
# 6 0.000000 0.000000 0.000000 0.004031 0.000000 0.031712
#
#
# Mechanical properties :
#
#
# Convention : Reuss Voigt Hill
#
# Bulk Modulus (GPa) = 28.75632 54.75722 41.75677
# Shear Modulus (GPa) = 15.44661 26.96500 21.20581
#
# Velocity S-wave (km/s) = 2.70428 3.57302 3.16857
# Velocity P-wave (km/s) = 4.83378 6.55337 5.75813
#
# Compressibility (1/GPa) = 0.03477496
#
# Stress axis : x y z
#
# Youngs Moduli (GPa) = 26.93900 87.80496 16.83911
#
# Poissons Ratio (x) = 0.48716 0.45671
# Poissons Ratio (y) = 0.14946 0.06550
# Poissons Ratio (z) = 0.73064 0.34156
#
# Static dielectric constant tensor:
#      x y z
#    x 3.973850 0.000000 0.520650 
#    y 0.000000 3.782330 0.000000 
#    z 0.520650 0.000000 3.939800 
# 
# 
# High freq. dielectric constant tensor:
#      x y z
#    x 1.819140 0.000000 0.015480 
#    y 0.000000 1.826500 0.000000 
#    z 0.015480 0.000000 1.804680 
# 
# From -- ./inp_files/105221.got.cif
#   From: 2010.06.25/outbox.cif.g09.slc.cpg/sg15_53_cif.got.tgz:105221.got - 2010.06.28 07:06:18.
