data_PCOD8134319
_publ_section_title
;
Structure prediction by ZEFSAII (Michael W. Deem and Ramdas Pophale) SiO2 
 PCOD8134319
Probable space group: C 2/C
;
_chemical_formula_sum "Si O2"
_cell_formula_units_Z 56
_cell_length_a 17.434978
_cell_length_b 12.491167
_cell_length_c 14.020847
_cell_angle_alpha 90.000000
_cell_angle_beta 73.490229
_cell_angle_gamma 90.000000
_cell_volume 2927.613139
_symmetry_space_group_name_H-M "C 2/C"
_symmetry_group_IT_number 15
_symmetry_cell_setting 'monoclinic'
loop_
_space_group_symop_operation_xyz
x,y,z
-x,y,1/2-z
-x,-y,-z
x,-y,1/2+z
1/2+x,1/2+y,z
1/2-x,1/2+y,1/2-z
1/2-x,1/2-y,-z
1/2+x,1/2-y,1/2+z
loop_
_atom_site_type_symbol
_atom_site_label
_atom_site_fract_x
_atom_site_fract_y
_atom_site_fract_z
Si Si1 0.996378 0.936833 0.405016
Si Si2 0.128964 0.047279 0.707163
Si Si3 0.775328 0.160555 0.358738
Si Si4 0.981766 0.295379 0.564396
Si Si5 0.337735 0.778507 0.761334
Si Si6 0.365916 0.833260 0.441266
Si Si7 0.075282 0.553770 0.153573
O O1 0.928463 0.981755 0.360147
O O2 0.082131 0.950486 0.324021
O O3 0.971759 0.815989 0.440728
O O4 0.000000 0.000000 0.500000
O O5 0.167858 0.164848 0.682202
O O6 0.195593 0.956493 0.682074
O O7 0.742657 0.210589 0.272112
O O8 0.707370 0.145929 0.461946
O O9 0.845223 0.237300 0.375180
O O10 0.912706 0.288210 0.666015
O O11 0.946379 0.304916 0.470731
O O12 0.041865 0.393363 0.566973
O O13 0.352401 0.872299 0.832807
O O14 0.383460 0.940089 0.376617
O O15 0.000000 0.540541 0.250000
#
# Coordination Sequence:
#
# PCOD8134319 Si02
#       7
#     8   8   8   8   8   8   8
#     4  10  19  35  60  86 111 147 187 235 289 331
#     4  10  20  38  59  82 113 150 192 232 276 344
#     4  10  22  38  55  80 116 152 186 223 284 353
#     4   9  17  35  58  80 106 142 186 229 279 331
#     4   9  19  35  58  78 107 151 186 219 278 341
#     4  10  21  37  57  81 111 151 184 231 290 340
#     4  10  19  36  59  83 107 142 191 236 276 325
#
# _framework density 19.128209999999999
#
# number of rings (size 3 to 8) (size 9 to 14) (size 15 to 20)
#    0.000    2.286    1.429    1.286    2.000    1.143 
#    5.143    2.143    0.000    0.000    0.000    0.000 
#    0.000    0.000    0.000    0.000    0.000    0.000 
#
# Total GULP energy -347105.585278 kJ/mol
# GULP energy per Si atom -12396.628046 kJ/mol
# Density = 1.908467 g / cm^3
# Si number density = 19.128210 Si / 1000 Ang^3
#
#
#
# Elastic Constant Matrix: (Units=GPa)
#
#
# Indices 1 2 3 4 5 6 
#
# 1 79.5212 39.7757 34.3856 0.0000 25.4736 0.0000
# 2 39.7757 126.7915 41.4238 0.0000 8.0058 0.0000
# 3 34.3856 41.4238 62.0135 0.0000 22.3300 0.0000
# 4 0.0000 0.0000 0.0000 34.5079 0.0000 0.9216
# 5 25.4736 8.0058 22.3300 0.0000 26.8069 0.0000
# 6 0.0000 0.0000 0.0000 0.9216 0.0000 35.3821
#
#
#
# Elastic Compliance Matrix: (Units=1/GPa)
#
#
# Indices 1 2 3 4 5 6 
#
# 1 0.021515 -0.004818 -0.002668 0.000000 -0.016784 0.000000
# 2 -0.004818 0.011433 -0.007692 0.000000 0.007571 0.000000
# 3 -0.002668 -0.007692 0.030002 0.000000 -0.020159 0.000000
# 4 0.000000 0.000000 0.000000 0.028999 0.000000 -0.000755
# 5 -0.016784 0.007571 -0.020159 0.000000 0.067784 0.000000
# 6 0.000000 0.000000 0.000000 -0.000755 0.000000 0.028283
#
#
# Mechanical properties :
#
#
# Convention : Reuss Voigt Hill
#
# Bulk Modulus (GPa) = 30.67999 55.49959 43.08979
# Shear Modulus (GPa) = 21.81142 29.52213 25.66677
#
# Velocity S-wave (km/s) = 3.38046 3.93285 3.66707
# Velocity P-wave (km/s) = 5.59559 7.04987 6.36440
#
# Compressibility (1/GPa) = 0.03259453
#
# Stress axis : x y z
#
# Youngs Moduli (GPa) = 46.47815 87.46248 33.33124
#
# Poissons Ratio (x) = 0.42141 0.08892
# Poissons Ratio (y) = 0.22394 0.25639
# Poissons Ratio (z) = 0.12400 0.67277
#
# Static dielectric constant tensor:
#      x y z
#    x 3.963360 0.000000 0.178540 
#    y 0.000000 3.796290 0.000000 
#    z 0.178540 0.000000 3.342120 
# 
# 
# High freq. dielectric constant tensor:
#      x y z
#    x 1.739770 0.000000 0.028360 
#    y 0.000000 1.754990 0.000000 
#    z 0.028360 0.000000 1.719400 
# 
# From -- ./inp_files/160812.got.cif
#   From: 2010.06.25/outbox.cif.g09.slc.cpg/sg15_81_cif.got.tgz:160812.got - 2010.06.28 07:06:18.
