data_PCOD8134958
_publ_section_title
;
Structure prediction by ZEFSAII (Michael W. Deem and Ramdas Pophale) SiO2 
 PCOD8134958
Probable space group: C 2/C
;
_chemical_formula_sum "Si O2"
_cell_formula_units_Z 24
_cell_length_a 12.608160
_cell_length_b 9.203228
_cell_length_c 8.171453
_cell_angle_alpha 90.000000
_cell_angle_beta 91.609075
_cell_angle_gamma 90.000000
_cell_volume 947.806964
_symmetry_space_group_name_H-M "C 2/C"
_symmetry_group_IT_number 15
_symmetry_cell_setting 'monoclinic'
loop_
_space_group_symop_operation_xyz
x,y,z
-x,y,1/2-z
-x,-y,-z
x,-y,1/2+z
1/2+x,1/2+y,z
1/2-x,1/2+y,1/2-z
1/2-x,1/2-y,-z
1/2+x,1/2-y,1/2+z
loop_
_atom_site_type_symbol
_atom_site_label
_atom_site_fract_x
_atom_site_fract_y
_atom_site_fract_z
Si Si1 0.349578 0.580748 0.279288
Si Si2 0.451287 0.666859 0.970870
Si Si3 0.332618 0.283004 0.159145
O O1 0.441487 0.503850 0.398344
O O2 0.290959 0.449966 0.178700
O O3 0.263674 0.670913 0.386475
O O4 0.401602 0.689084 0.148458
O O5 0.573585 0.724360 0.974299
O O6 0.383130 0.762391 0.838244
#
# Coordination Sequence:
#
# PCOD8134958 Si02
#       3
#     8   8   8
#     4  10  19  37  58  85 108 153 184 231 281 333
#     4   9  20  36  61  77 117 145 187 230 282 329
#     4   9  20  34  62  78 114 149 184 228 287 326
#
# _framework density 25.32161
#
# number of rings (size 3 to 8) (size 9 to 14) (size 15 to 20)
#    2.000    0.667    0.000    2.000    0.000    1.333 
#    0.000    1.667   14.667    0.000    0.000    0.000 
#    0.000    0.000    0.000    0.000    0.000    0.000 
#
# Total GULP energy -148734.719240 kJ/mol
# GULP energy per Si atom -12394.559937 kJ/mol
# Density = 2.526398 g / cm^3
# Si number density = 25.321610 Si / 1000 Ang^3
#
#
#
# Elastic Constant Matrix: (Units=GPa)
#
#
# Indices 1 2 3 4 5 6 
#
# 1 188.3377 60.7984 48.7268 0.0000 -9.8520 0.0000
# 2 60.7984 69.6375 38.3764 0.0000 -20.5985 0.0000
# 3 48.7268 38.3764 165.6992 0.0000 -30.9111 0.0000
# 4 0.0000 0.0000 0.0000 43.8947 0.0000 -9.0900
# 5 -9.8520 -20.5985 -30.9111 0.0000 39.7743 0.0000
# 6 0.0000 0.0000 0.0000 -9.0900 0.0000 39.6481
#
#
#
# Elastic Compliance Matrix: (Units=1/GPa)
#
#
# Indices 1 2 3 4 5 6 
#
# 1 0.007674 -0.006812 -0.001149 0.000000 -0.002520 0.000000
# 2 -0.006812 0.024085 -0.001828 0.000000 0.009365 0.000000
# 3 -0.001149 -0.001828 0.007680 0.000000 0.004737 0.000000
# 4 0.000000 0.000000 0.000000 0.023917 0.000000 0.005483
# 5 -0.002520 0.009365 0.004737 0.000000 0.033050 0.000000
# 6 0.000000 0.000000 0.000000 0.005483 0.000000 0.026479
#
#
# Mechanical properties :
#
#
# Convention : Reuss Voigt Hill
#
# Bulk Modulus (GPa) = 50.34989 79.94199 65.14594
# Shear Modulus (GPa) = 33.53807 43.04826 38.29316
#
# Velocity S-wave (km/s) = 3.64329 4.12765 3.89301
# Velocity P-wave (km/s) = 6.13396 7.37264 6.78164
#
# Compressibility (1/GPa) = 0.01986102
#
# Stress axis : x y z
#
# Youngs Moduli (GPa) = 130.30673 41.51922 130.20773
#
# Poissons Ratio (x) = 0.28284 0.14962
# Poissons Ratio (y) = 0.88769 0.23800
# Poissons Ratio (z) = 0.14974 0.07589
#
# Static dielectric constant tensor:
#      x y z
#    x 4.643220 0.000000 0.473980 
#    y 0.000000 3.879500 0.000000 
#    z 0.473980 0.000000 4.818560 
# 
# 
# High freq. dielectric constant tensor:
#      x y z
#    x 2.042320 0.000000 0.038880 
#    y 0.000000 1.931560 0.000000 
#    z 0.038880 0.000000 2.052390 
# 
# From -- ./inp_files/36118.got.cif
#   From: 2010.06.25/outbox.cif.g09.slc.cpg/sg15_19_cif.got.tgz:36118.got - 2010.06.28 07:06:18.
