data_PCOD8134862
_publ_section_title
;
Structure prediction by ZEFSAII (Michael W. Deem and Ramdas Pophale) SiO2 
 PCOD8134862
Probable space group: C 2/C
;
_chemical_formula_sum "Si O2"
_cell_formula_units_Z 56
_cell_length_a 6.278695
_cell_length_b 25.502129
_cell_length_c 17.904296
_cell_angle_alpha 90.000000
_cell_angle_beta 69.846532
_cell_angle_gamma 90.000000
_cell_volume 2691.310034
_symmetry_space_group_name_H-M "C 2/C"
_symmetry_group_IT_number 15
_symmetry_cell_setting 'monoclinic'
loop_
_space_group_symop_operation_xyz
x,y,z
-x,y,1/2-z
-x,-y,-z
x,-y,1/2+z
1/2+x,1/2+y,z
1/2-x,1/2+y,1/2-z
1/2-x,1/2-y,-z
1/2+x,1/2-y,1/2+z
loop_
_atom_site_type_symbol
_atom_site_label
_atom_site_fract_x
_atom_site_fract_y
_atom_site_fract_z
Si Si1 0.265558 0.346962 0.517177
Si Si2 0.796996 0.619566 0.104461
Si Si3 0.253188 0.469851 0.188765
Si Si4 0.500000 0.383657 0.250000
Si Si5 0.092948 0.671879 0.877272
Si Si6 0.790240 0.091245 0.548117
Si Si7 0.000000 0.944172 0.750000
Si Si8 0.572509 0.276862 0.576284
O O1 0.154165 0.323000 0.456854
O O2 0.452787 0.389782 0.472686
O O3 0.366110 0.300395 0.553883
O O4 0.064965 0.375333 0.588257
O O5 0.690109 0.591077 0.188338
O O6 0.686400 0.677137 0.110480
O O7 0.761805 0.584750 0.033483
O O8 0.393570 0.419429 0.198727
O O9 0.254536 0.463676 0.097801
O O10 0.380840 0.521956 0.199666
O O11 0.000000 0.469996 0.250000
O O12 0.694894 0.346469 0.195734
O O13 0.880742 0.632987 0.893232
O O14 0.022836 0.730521 0.858742
O O15 0.750000 0.250000 0.500000
#
# Coordination Sequence:
#
# PCOD8134862 Si02
#       8
#     8   8   8   4   8   8   4   8
#     4  10  19  36  65  87 129 166 205 251 304 364
#     4  10  24  43  62  89 131 166 218 258 307 380
#     4  11  23  42  69  90 121 165 208 268 336 370
#     4  11  22  36  60  98 134 154 198 269 324 382
#     4  11  20  34  59  97 133 160 207 251 318 370
#     4  10  20  38  67  96 121 159 211 265 308 383
#     4  11  28  48  62  88 126 170 210 271 326 378
#     4  11  20  36  62  95 126 171 212 247 301 378
#
# _framework density 20.807708999999999
#
# number of rings (size 3 to 8) (size 9 to 14) (size 15 to 20)
#    0.000    1.429    7.143    0.429    0.000    2.857 
#    2.571    1.429    0.000    0.000    0.000    0.000 
#    0.000    0.000    0.000    0.000    0.000    0.000 
#
# Total GULP energy -347167.849962 kJ/mol
# GULP energy per Si atom -12398.851784 kJ/mol
# Density = 2.076035 g / cm^3
# Si number density = 20.807709 Si / 1000 Ang^3
#
#
#
# Elastic Constant Matrix: (Units=GPa)
#
#
# Indices 1 2 3 4 5 6 
#
# 1 128.0334 47.2496 41.8214 0.0000 -30.0168 0.0000
# 2 47.2496 107.0075 57.1246 0.0000 -19.5857 0.0000
# 3 41.8214 57.1246 96.8987 0.0000 -32.5236 0.0000
# 4 0.0000 0.0000 0.0000 35.2549 0.0000 -8.0669
# 5 -30.0168 -19.5857 -32.5236 0.0000 36.4095 0.0000
# 6 0.0000 0.0000 0.0000 -8.0669 0.0000 4.8949
#
#
#
# Elastic Compliance Matrix: (Units=1/GPa)
#
#
# Indices 1 2 3 4 5 6 
#
# 1 0.010734 -0.003270 -0.000465 0.000000 0.006675 0.000000
# 2 -0.003270 0.014634 -0.007825 0.000000 -0.001813 0.000000
# 3 -0.000465 -0.007825 0.019412 0.000000 0.012748 0.000000
# 4 0.000000 0.000000 0.000000 0.045537 0.000000 0.075046
# 5 0.006675 -0.001813 0.012748 0.000000 0.043381 0.000000
# 6 0.000000 0.000000 0.000000 0.075046 0.000000 0.327974
#
#
# Mechanical properties :
#
#
# Convention : Reuss Voigt Hill
#
# Bulk Modulus (GPa) = 46.16254 69.37006 57.76630
# Shear Modulus (GPa) = 10.16238 27.69481 18.92859
#
# Velocity S-wave (km/s) = 2.21236 3.65223 3.01938
# Velocity P-wave (km/s) = 5.36279 7.15514 6.32280
#
# Compressibility (1/GPa) = 0.02166259
#
# Stress axis : x y z
#
# Youngs Moduli (GPa) = 93.16284 68.33345 51.51375
#
# Poissons Ratio (x) = 0.22344 0.02393
# Poissons Ratio (y) = 0.30462 0.40307
# Poissons Ratio (z) = 0.04328 0.53468
#
# Static dielectric constant tensor:
#      x y z
#    x 4.070120 0.000000 -0.156010 
#    y 0.000000 3.779060 0.000000 
#    z -0.156010 0.000000 3.591480 
# 
# 
# High freq. dielectric constant tensor:
#      x y z
#    x 1.832160 0.000000 -0.016390 
#    y 0.000000 1.802910 0.000000 
#    z -0.016390 0.000000 1.796190 
# 
# From -- ./inp_files/186147.got.cif
#   From: 2010.06.25/outbox.cif.g09.slc.cpg/sg15_94_cif.got.tgz:186147.got - 2010.06.28 07:06:18.
