data_PCOD8134366
_publ_section_title
;
Structure prediction by ZEFSAII (Michael W. Deem and Ramdas Pophale) SiO2 
 PCOD8134366
Probable space group: C 2/C
;
_chemical_formula_sum "Si O2"
_cell_formula_units_Z 64
_cell_length_a 29.653074
_cell_length_b 21.698352
_cell_length_c 14.649987
_cell_angle_alpha 90.000000
_cell_angle_beta 18.975795
_cell_angle_gamma 90.000000
_cell_volume 3065.084310
_symmetry_space_group_name_H-M "C 2/C"
_symmetry_group_IT_number 15
_symmetry_cell_setting 'monoclinic'
loop_
_space_group_symop_operation_xyz
x,y,z
-x,y,1/2-z
-x,-y,-z
x,-y,1/2+z
1/2+x,1/2+y,z
1/2-x,1/2+y,1/2-z
1/2-x,1/2-y,-z
1/2+x,1/2-y,1/2+z
loop_
_atom_site_type_symbol
_atom_site_label
_atom_site_fract_x
_atom_site_fract_y
_atom_site_fract_z
Si Si1 0.458212 0.202572 0.566863
Si Si2 0.095601 0.379376 0.938666
Si Si3 0.949310 0.919844 0.748288
Si Si4 0.721222 0.521452 0.663482
Si Si5 0.801623 0.491954 0.315004
Si Si6 0.650836 0.669697 0.213704
Si Si7 0.795773 0.400485 0.582528
Si Si8 0.976398 0.598045 0.188768
O O1 0.580932 0.180578 0.401571
O O2 0.460079 0.276275 0.549196
O O3 0.483104 0.165908 0.424708
O O4 0.306705 0.191408 0.897483
O O5 0.176763 0.435134 0.735300
O O6 0.180223 0.363226 0.868824
O O7 0.940207 0.401996 0.252629
O O8 0.904715 0.862797 0.770947
O O9 0.000000 0.895069 0.750000
O O10 0.063871 0.958051 0.474139
O O11 0.819267 0.964651 0.018335
O O12 0.745760 0.480849 0.524678
O O13 0.761081 0.472849 0.668067
O O14 0.814793 0.582858 0.484426
O O15 0.940934 0.453607 0.027572
O O16 0.665392 0.628120 0.276871
O O17 0.000000 0.594618 0.250000
#
# Coordination Sequence:
#
# PCOD8134366 Si02
#       8
#     8   8   8   8   8   8   8   8
#     4  10  21  41  63  91 118 165 220 267 313 370
#     4  10  19  35  61  95 120 153 210 270 313 370
#     4  12  25  41  60  95 133 172 214 258 329 400
#     4  12  23  37  63  93 132 169 201 270 333 393
#     4  12  21  39  63  93 131 164 208 265 330 390
#     4  10  22  41  63  84 126 170 214 264 313 381
#     4  10  19  35  61  93 121 157 210 257 321 379
#     4  12  22  38  67  97 126 165 215 271 325 381
#
# _framework density 20.88034
#
# number of rings (size 3 to 8) (size 9 to 14) (size 15 to 20)
#    0.000    1.000    5.000    3.750    0.000    0.000 
#    6.750    0.625    2.750    0.000    0.000    0.000 
#    0.000    0.000    0.000    0.000    0.000    0.000 
#
# Total GULP energy -396646.873560 kJ/mol
# GULP energy per Si atom -12395.214799 kJ/mol
# Density = 2.083282 g / cm^3
# Si number density = 20.880340 Si / 1000 Ang^3
#
#
#
# Elastic Constant Matrix: (Units=GPa)
#
#
# Indices 1 2 3 4 5 6 
#
# 1 120.9593 49.1923 10.3504 0.0008 -7.3687 -0.0018
# 2 49.1923 117.2898 32.1317 0.0010 -7.1373 -0.0021
# 3 10.3504 32.1317 49.2153 0.0033 -6.5823 -0.0049
# 4 0.0008 0.0010 0.0033 37.1216 -0.0014 15.5576
# 5 -7.3687 -7.1373 -6.5823 -0.0014 30.3133 0.0002
# 6 -0.0018 -0.0021 -0.0049 15.5576 0.0002 37.6091
#
#
#
# Elastic Compliance Matrix: (Units=1/GPa)
#
#
# Indices 1 2 3 4 5 6 
#
# 1 0.010068 -0.004388 0.000965 0.000000 0.001624 0.000000
# 2 -0.004388 0.012325 -0.007084 0.000001 0.000297 -0.000001
# 3 0.000965 -0.007084 0.025284 -0.000004 0.004057 0.000004
# 4 0.000000 0.000001 -0.000004 0.032588 0.000001 -0.013481
# 5 0.001624 0.000297 0.004057 0.000001 0.034334 0.000000
# 6 0.000000 -0.000001 0.000004 -0.013481 0.000000 0.032166
#
#
# Mechanical properties :
#
#
# Convention : Reuss Voigt Hill
#
# Bulk Modulus (GPa) = 37.50714 52.31259 44.90987
# Shear Modulus (GPa) = 28.30168 34.06148 31.18158
#
# Velocity S-wave (km/s) = 3.68560 4.04328 3.86858
# Velocity P-wave (km/s) = 6.00944 6.84875 6.44278
#
# Compressibility (1/GPa) = 0.02666159
#
# Stress axis : x y z
#
# Youngs Moduli (GPa) = 99.32252 81.13506 39.55115
#
# Poissons Ratio (x) = 0.35603 -0.03815
# Poissons Ratio (y) = 0.43584 0.28019
# Poissons Ratio (z) = -0.09581 0.57478
#
# Static dielectric constant tensor:
#      x y z
#    x 3.996830 0.000000 -0.113580 
#    y 0.000000 3.771720 0.000000 
#    z -0.113580 0.000000 3.632470 
# 
# 
# High freq. dielectric constant tensor:
#      x y z
#    x 1.831590 0.000000 -0.005700 
#    y 0.000000 1.794500 0.000000 
#    z -0.005700 0.000000 1.796470 
# 
# From -- ./inp_files/183118.got.cif
#   From: 2010.06.25/outbox.cif.g09.slc.cpg/sg15_92_cif.got.tgz:183118.got - 2010.06.28 07:06:18.
