data_PCOD8134555
_publ_section_title
;
Structure prediction by ZEFSAII (Michael W. Deem and Ramdas Pophale) SiO2 
 PCOD8134555
Probable space group: C 2/C
;
_chemical_formula_sum "Si O2"
_cell_formula_units_Z 48
_cell_length_a 21.155747
_cell_length_b 7.692910
_cell_length_c 27.611123
_cell_angle_alpha 90.000000
_cell_angle_beta 26.317543
_cell_angle_gamma 90.000000
_cell_volume 1992.257853
_symmetry_space_group_name_H-M "C 2/C"
_symmetry_group_IT_number 15
_symmetry_cell_setting 'monoclinic'
loop_
_space_group_symop_operation_xyz
x,y,z
-x,y,1/2-z
-x,-y,-z
x,-y,1/2+z
1/2+x,1/2+y,z
1/2-x,1/2+y,1/2-z
1/2-x,1/2-y,-z
1/2+x,1/2-y,1/2+z
loop_
_atom_site_type_symbol
_atom_site_label
_atom_site_fract_x
_atom_site_fract_y
_atom_site_fract_z
Si Si1 0.478337 0.894550 0.884303
Si Si2 0.187608 0.103873 0.327674
Si Si3 0.015619 0.701623 0.793917
Si Si4 0.519743 0.411578 0.291127
Si Si5 0.854983 0.401165 0.075303
Si Si6 0.717063 0.238527 0.333655
O O1 0.646222 0.901462 0.775091
O O2 0.435405 0.722246 0.883721
O O3 0.432634 0.068333 0.886371
O O4 0.404956 0.887243 0.986374
O O5 0.103133 0.232564 0.421600
O O6 0.170772 0.168503 0.284070
O O7 0.129111 0.905944 0.373927
O O8 0.186538 0.705839 0.686973
O O9 0.000000 0.633506 0.750000
O O10 0.950752 0.895992 0.844230
O O11 0.500000 0.344677 0.250000
O O12 0.684631 0.419736 0.192429
O O13 0.899445 0.585832 0.072334
#
# Coordination Sequence:
#
# PCOD8134555 Si02
#       6
#     8   8   8   8   8   8
#     4  10  21  35  57  85 113 144 189 230 272 335
#     4  10  20  37  57  79 114 148 181 228 282 330
#     4   9  19  37  58  79 109 150 185 224 279 326
#     4   9  19  37  57  79 115 151 184 229 277 327
#     4  10  21  36  56  85 111 147 187 228 281 327
#     4  10  19  36  58  77 110 149 181 227 277 328
#
# _framework density 24.093267000000001
#
# number of rings (size 3 to 8) (size 9 to 14) (size 15 to 20)
#    0.000    2.333    1.667    0.500    0.000    2.667 
#    0.000    8.333    0.000    0.000    0.000    0.000 
#    0.000    0.000    0.000    0.000    0.000    0.000 
#
# Total GULP energy -297582.297537 kJ/mol
# GULP energy per Si atom -12399.262397 kJ/mol
# Density = 2.403843 g / cm^3
# Si number density = 24.093267 Si / 1000 Ang^3
#
#
#
# Elastic Constant Matrix: (Units=GPa)
#
#
# Indices 1 2 3 4 5 6 
#
# 1 64.2539 31.8535 28.6912 -0.1327 38.2029 0.1138
# 2 31.8535 199.6865 99.5683 -0.2059 38.2422 0.1911
# 3 28.6912 99.5683 136.4927 -0.1224 54.5433 0.0933
# 4 -0.1327 -0.2059 -0.1224 10.3206 0.0082 39.6696
# 5 38.2029 38.2422 54.5433 0.0082 46.2720 -0.0055
# 6 0.1138 0.1911 0.0933 39.6696 -0.0055 16.5824
#
#
#
# Elastic Compliance Matrix: (Units=1/GPa)
#
#
# Indices 1 2 3 4 5 6 
#
# 1 0.036019 -0.003579 0.010852 -0.000199 -0.039572 0.000195
# 2 -0.003579 0.008232 -0.007023 -0.000018 0.004429 0.000013
# 3 0.010852 -0.007023 0.021607 -0.000092 -0.028625 0.000096
# 4 -0.000199 -0.000018 -0.000092 -0.011822 0.000293 0.028283
# 5 -0.039572 0.004429 -0.028625 0.000293 0.084363 -0.000291
# 6 0.000195 0.000013 0.000096 0.028283 -0.000291 -0.007357
#
#
# Mechanical properties :
#
#
# Convention : Reuss Voigt Hill
#
# Bulk Modulus (GPa) = 15.06953 80.07325 47.57139
# Shear Modulus (GPa) = 32.75227 30.65634 31.70431
#
# Velocity S-wave (km/s) = 3.69100 3.57095 3.63147
# Velocity P-wave (km/s) = 4.94296 7.09289 6.11318
#
# Compressibility (1/GPa) = 0.06635907
#
# Stress axis : x y z
#
# Youngs Moduli (GPa) = 27.76315 121.47352 46.28189
#
# Poissons Ratio (x) = 0.43472 -0.50226
# Poissons Ratio (y) = 0.09936 0.32504
# Poissons Ratio (z) = -0.30129 0.85311
#
# Static dielectric constant tensor:
#      x y z
#    x 4.423700 -0.000060 0.263220 
#    y -0.000060 5.240140 -0.000010 
#    z 0.263220 -0.000010 4.107640 
# 
# 
# High freq. dielectric constant tensor:
#      x y z
#    x 1.956090 0.000000 0.021380 
#    y 0.000000 1.984110 0.000000 
#    z 0.021380 0.000000 1.926250 
# 
# From -- ./inp_files/116438.got.cif
#   From: 2010.06.25/outbox.cif.g09.slc.cpg/sg15_59_cif.got.tgz:116438.got - 2010.06.28 07:06:18.
