data_PCOD8134691
_publ_section_title
;
Structure prediction by ZEFSAII (Michael W. Deem and Ramdas Pophale) SiO2 
 PCOD8134691
Probable space group: C 2/C
;
_chemical_formula_sum "Si O2"
_cell_formula_units_Z 48
_cell_length_a 28.548994
_cell_length_b 16.754523
_cell_length_c 13.760103
_cell_angle_alpha 90.000000
_cell_angle_beta 157.018750
_cell_angle_gamma 90.000000
_cell_volume 2569.730633
_symmetry_space_group_name_H-M "C 2/C"
_symmetry_group_IT_number 15
_symmetry_cell_setting 'monoclinic'
loop_
_space_group_symop_operation_xyz
x,y,z
-x,y,1/2-z
-x,-y,-z
x,-y,1/2+z
1/2+x,1/2+y,z
1/2-x,1/2+y,1/2-z
1/2-x,1/2-y,-z
1/2+x,1/2-y,1/2+z
loop_
_atom_site_type_symbol
_atom_site_label
_atom_site_fract_x
_atom_site_fract_y
_atom_site_fract_z
Si Si1 0.896592 0.536249 0.240510
Si Si2 0.333850 0.444806 0.747091
Si Si3 0.000000 0.485144 0.250000
Si Si4 0.261734 0.663694 0.482423
Si Si5 0.535281 0.397803 0.995117
Si Si6 0.305224 0.855040 0.859734
Si Si7 0.000000 0.777137 0.750000
O O1 0.946791 0.545253 0.227679
O O2 0.859144 0.621055 0.211227
O O3 0.000000 0.500000 0.500000
O O4 0.786065 0.475905 0.032350
O O5 0.404571 0.405350 0.792617
O O6 0.296212 0.378853 0.755240
O O7 0.412353 0.517438 0.945186
O O8 0.106662 0.429202 0.494206
O O9 0.250000 0.750000 0.500000
O O10 0.267497 0.664270 0.376995
O O11 0.380382 0.625335 0.753562
O O12 0.528330 0.332501 0.896931
O O13 0.383068 0.778546 0.044671
#
# Coordination Sequence:
#
# PCOD8134691 Si02
#       7
#     8   8   4   8   8   8   4
#     4  10  19  36  60  87 111 153 197 250 285 344
#     4   9  22  39  60  89 117 156 208 241 299 365
#     4   9  18  36  58  84 111 144 206 241 286 350
#     4  11  21  37  59  83 120 154 192 243 305 353
#     4  10  22  40  59  87 122 157 197 251 299 361
#     4  10  20  37  63  85 114 160 195 244 302 358
#     4  11  22  38  62  88 125 158 194 249 308 354
#
# _framework density 18.678999999999998
#
# number of rings (size 3 to 8) (size 9 to 14) (size 15 to 20)
#    0.000    2.000    3.333    0.000    0.000    5.333 
#    3.000    1.667    0.000    0.000    0.000    0.000 
#    0.000    0.000    0.000    0.000    0.000    0.000 
#
# Total GULP energy -297508.551383 kJ/mol
# GULP energy per Si atom -12396.189641 kJ/mol
# Density = 1.863649 g / cm^3
# Si number density = 18.679000 Si / 1000 Ang^3
#
#
#
# Elastic Constant Matrix: (Units=GPa)
#
#
# Indices 1 2 3 4 5 6 
#
# 1 117.2019 65.1400 67.4768 0.0000 9.3156 0.0000
# 2 65.1400 106.3142 37.2682 0.0000 4.9063 0.0000
# 3 67.4768 37.2682 101.8810 0.0000 1.8846 0.0000
# 4 0.0000 0.0000 0.0000 20.1764 0.0000 -0.3568
# 5 9.3156 4.9063 1.8846 0.0000 38.4550 0.0000
# 6 0.0000 0.0000 0.0000 -0.3568 0.0000 34.2358
#
#
#
# Elastic Compliance Matrix: (Units=1/GPa)
#
#
# Indices 1 2 3 4 5 6 
#
# 1 0.018575 -0.007970 -0.009331 0.000000 -0.003025 0.000000
# 2 -0.007970 0.014264 0.000059 0.000000 0.000108 0.000000
# 3 -0.009331 0.000059 0.015946 0.000000 0.001471 0.000000
# 4 0.000000 0.000000 0.000000 0.049572 0.000000 0.000517
# 5 -0.003025 0.000108 0.001471 0.000000 0.026651 0.000000
# 6 0.000000 0.000000 0.000000 0.000517 0.000000 0.029215
#
#
# Mechanical properties :
#
#
# Convention : Reuss Voigt Hill
#
# Bulk Modulus (GPa) = 69.92502 73.90746 71.91624
# Shear Modulus (GPa) = 25.84334 28.94092 27.39213
#
# Velocity S-wave (km/s) = 3.72365 3.94049 3.83360
# Velocity P-wave (km/s) = 7.48357 7.76893 7.62758
#
# Compressibility (1/GPa) = 0.01430103
#
# Stress axis : x y z
#
# Youngs Moduli (GPa) = 53.83707 70.10685 62.71062
#
# Poissons Ratio (x) = 0.55878 0.58513
# Poissons Ratio (y) = 0.42910 -0.00371
# Poissons Ratio (z) = 0.50233 -0.00414
#
# Static dielectric constant tensor:
#      x y z
#    x 3.547190 0.000000 -0.024960 
#    y 0.000000 3.426060 0.000000 
#    z -0.024960 0.000000 3.354190 
# 
# 
# High freq. dielectric constant tensor:
#      x y z
#    x 1.722260 0.000000 0.000110 
#    y 0.000000 1.718980 0.000000 
#    z 0.000110 0.000000 1.732820 
# 
# From -- ./inp_files/87312.got.cif
#   From: 2010.06.25/outbox.cif.g09.slc.cpg/sg15_44_cif.got.tgz:87312.got - 2010.06.28 07:06:18.
