data_PCOD8134218
_publ_section_title
;
Structure prediction by ZEFSAII (Michael W. Deem and Ramdas Pophale) SiO2 
 PCOD8134218
Probable space group: C 2/C
;
_chemical_formula_sum "Si O2"
_cell_formula_units_Z 56
_cell_length_a 18.800145
_cell_length_b 13.774973
_cell_length_c 13.496005
_cell_angle_alpha 90.000000
_cell_angle_beta 125.764969
_cell_angle_gamma 90.000000
_cell_volume 2835.982829
_symmetry_space_group_name_H-M "C 2/C"
_symmetry_group_IT_number 15
_symmetry_cell_setting 'monoclinic'
loop_
_space_group_symop_operation_xyz
x,y,z
-x,y,1/2-z
-x,-y,-z
x,-y,1/2+z
1/2+x,1/2+y,z
1/2-x,1/2+y,1/2-z
1/2-x,1/2-y,-z
1/2+x,1/2-y,1/2+z
loop_
_atom_site_type_symbol
_atom_site_label
_atom_site_fract_x
_atom_site_fract_y
_atom_site_fract_z
Si Si1 0.804109 0.382969 0.780867
Si Si2 0.030204 0.858606 0.074595
Si Si3 0.457219 0.540427 0.114641
Si Si4 0.239762 0.977502 0.079605
Si Si5 0.008865 0.343369 0.643625
Si Si6 0.659810 0.961557 0.029504
Si Si7 0.266665 0.335595 0.261513
O O1 0.731448 0.438792 0.656661
O O2 0.892671 0.379902 0.789547
O O3 0.827988 0.439167 0.900596
O O4 0.761198 0.279753 0.770323
O O5 0.992838 0.750961 0.061906
O O6 0.133771 0.867338 0.176520
O O7 0.009088 0.888344 0.944509
O O8 0.984824 0.930330 0.115130
O O9 0.500000 0.578995 0.250000
O O10 0.353157 0.543126 0.045987
O O11 0.271051 0.882015 0.166905
O O12 0.308873 0.012388 0.054927
O O13 0.000000 0.311558 0.750000
O O14 0.941464 0.428566 0.558850
O O15 0.713134 0.872455 0.122087
#
# Coordination Sequence:
#
# PCOD8134218 Si02
#       7
#     8   8   8   8   8   8   8
#     4  10  22  41  59  82 122 154 192 246 294 348
#     4   9  20  36  56  84 121 152 192 243 296 347
#     4  10  19  35  58  84 121 155 191 243 296 352
#     4  10  21  37  59  89 115 151 198 237 295 350
#     4  11  21  38  61  86 113 151 199 245 292 351
#     4  11  22  37  63  87 114 157 197 243 294 350
#     4   9  21  39  58  86 119 153 192 240 294 348
#
# _framework density 19.74624
#
# number of rings (size 3 to 8) (size 9 to 14) (size 15 to 20)
#    0.000    2.000    1.429    1.714    2.000    3.429 
#    0.000    0.000    6.286    0.857    0.000    0.000 
#    0.000    0.000    0.000    0.000    0.000    0.000 
#
# Total GULP energy -347209.970026 kJ/mol
# GULP energy per Si atom -12400.356072 kJ/mol
# Density = 1.970130 g / cm^3
# Si number density = 19.746240 Si / 1000 Ang^3
#
#
#
# Elastic Constant Matrix: (Units=GPa)
#
#
# Indices 1 2 3 4 5 6 
#
# 1 46.1017 30.2719 27.1555 0.0000 -6.7612 0.0000
# 2 30.2719 129.5515 45.1987 0.0000 -9.5495 0.0000
# 3 27.1555 45.1987 112.1666 0.0000 -9.8687 0.0000
# 4 0.0000 0.0000 0.0000 20.5617 0.0000 0.0196
# 5 -6.7612 -9.5495 -9.8687 0.0000 23.9491 0.0000
# 6 0.0000 0.0000 0.0000 0.0196 0.0000 29.8125
#
#
#
# Elastic Compliance Matrix: (Units=1/GPa)
#
#
# Indices 1 2 3 4 5 6 
#
# 1 0.028040 -0.004658 -0.004543 0.000000 0.004187 0.000000
# 2 -0.004658 0.009865 -0.002716 0.000000 0.001500 0.000000
# 3 -0.004543 -0.002716 0.011311 0.000000 0.002296 0.000000
# 4 0.000000 0.000000 0.000000 0.048634 0.000000 -0.000032
# 5 0.004187 0.001500 0.002296 0.000000 0.044481 0.000000
# 6 0.000000 0.000000 0.000000 -0.000032 0.000000 0.033543
#
#
# Mechanical properties :
#
#
# Convention : Reuss Voigt Hill
#
# Bulk Modulus (GPa) = 39.39676 54.78579 47.09127
# Shear Modulus (GPa) = 24.01881 27.21091 25.61486
#
# Velocity S-wave (km/s) = 3.49144 3.71621 3.60558
# Velocity P-wave (km/s) = 6.02066 6.79844 6.42134
#
# Compressibility (1/GPa) = 0.02538280
#
# Stress axis : x y z
#
# Youngs Moduli (GPa) = 35.66332 101.36382 88.40603
#
# Poissons Ratio (x) = 0.47220 0.40163
# Poissons Ratio (y) = 0.16614 0.24008
# Poissons Ratio (z) = 0.16202 0.27527
#
# Static dielectric constant tensor:
#      x y z
#    x 3.517950 0.000000 -0.032260 
#    y 0.000000 3.611850 0.000000 
#    z -0.032260 0.000000 3.589690 
# 
# 
# High freq. dielectric constant tensor:
#      x y z
#    x 1.763890 0.000000 -0.001110 
#    y 0.000000 1.766500 0.000000 
#    z -0.001110 0.000000 1.775330 
# 
# From -- ./inp_files/105806.got.cif
#   From: 2010.06.25/outbox.cif.g09.slc.cpg/sg15_53_cif.got.tgz:105806.got - 2010.06.28 07:06:18.
