data_PCOD8134760
_publ_section_title
;
Structure prediction by ZEFSAII (Michael W. Deem and Ramdas Pophale) SiO2 
 PCOD8134760
Probable space group: C 2/C
;
_chemical_formula_sum "Si O2"
_cell_formula_units_Z 48
_cell_length_a 15.361165
_cell_length_b 7.873841
_cell_length_c 24.441590
_cell_angle_alpha 90.000000
_cell_angle_beta 47.323849
_cell_angle_gamma 90.000000
_cell_volume 2173.421025
_symmetry_space_group_name_H-M "C 2/C"
_symmetry_group_IT_number 15
_symmetry_cell_setting 'monoclinic'
loop_
_space_group_symop_operation_xyz
x,y,z
-x,y,1/2-z
-x,-y,-z
x,-y,1/2+z
1/2+x,1/2+y,z
1/2-x,1/2+y,1/2-z
1/2-x,1/2-y,-z
1/2+x,1/2-y,1/2+z
loop_
_atom_site_type_symbol
_atom_site_label
_atom_site_fract_x
_atom_site_fract_y
_atom_site_fract_z
Si Si1 0.338516 0.404440 0.696751
Si Si2 0.240230 0.644166 0.414953
Si Si3 0.548522 0.030476 0.063554
Si Si4 0.452258 0.363925 0.063612
Si Si5 0.521797 0.836530 0.177752
Si Si6 0.701712 0.091430 0.843542
O O1 0.419708 0.545099 0.634109
O O2 0.414360 0.281116 0.703402
O O3 0.276772 0.291302 0.675134
O O4 0.233232 0.490132 0.774838
O O5 0.167127 0.571274 0.497307
O O6 0.163567 0.775000 0.411552
O O7 0.358673 0.732199 0.384202
O O8 0.277868 0.481947 0.361274
O O9 0.550993 0.225409 0.041048
O O10 0.531904 0.007539 0.136444
O O11 0.436697 0.937902 0.082109
O O12 0.500000 0.500000 0.000000
O O13 0.500000 0.887425 0.250000
#
# Coordination Sequence:
#
# PCOD8134760 Si02
#       6
#     8   8   8   8   8   8
#     4  11  22  38  63  91 126 165 213 263 320 380
#     4  11  21  41  65  93 122 167 210 260 332 382
#     4  10  22  38  65  91 125 165 211 259 319 384
#     4  11  22  40  64  97 124 163 218 269 314 374
#     4  11  23  42  62  91 129 173 207 256 329 387
#     4  10  19  36  61  91 122 160 211 259 314 379
#
# _framework density 22.085000000000001
#
# number of rings (size 3 to 8) (size 9 to 14) (size 15 to 20)
#    0.000    1.333    1.667    7.500    2.333    0.000 
#    0.000    5.833    0.000    0.000    0.000    0.000 
#    0.000    0.000    0.000    0.000    0.000    0.000 
#
# Total GULP energy -297505.425154 kJ/mol
# GULP energy per Si atom -12396.059381 kJ/mol
# Density = 2.203473 g / cm^3
# Si number density = 22.085000 Si / 1000 Ang^3
#
#
#
# Elastic Constant Matrix: (Units=GPa)
#
#
# Indices 1 2 3 4 5 6 
#
# 1 58.9318 24.4069 13.4821 0.0005 2.2876 0.0013
# 2 24.4069 100.6804 41.4377 0.0016 5.2103 0.0024
# 3 13.4821 41.4377 117.2276 0.0001 4.8887 0.0002
# 4 0.0005 0.0016 0.0001 41.1535 0.0000 11.6261
# 5 2.2876 5.2103 4.8887 0.0000 37.2793 0.0003
# 6 0.0013 0.0024 0.0002 11.6261 0.0003 31.6880
#
#
#
# Elastic Compliance Matrix: (Units=1/GPa)
#
#
# Indices 1 2 3 4 5 6 
#
# 1 0.018913 -0.004299 -0.000636 0.000000 -0.000476 0.000000
# 2 -0.004299 0.012645 -0.003934 0.000000 -0.000988 -0.000001
# 3 -0.000636 -0.003934 0.010024 0.000000 -0.000726 0.000000
# 4 0.000000 0.000000 0.000000 0.027109 0.000000 -0.009946
# 5 -0.000476 -0.000988 -0.000726 0.000000 0.027087 0.000000
# 6 0.000000 -0.000001 0.000000 -0.009946 0.000000 0.035207
#
#
# Mechanical properties :
#
#
# Convention : Reuss Voigt Hill
#
# Bulk Modulus (GPa) = 41.93712 48.38811 45.16261
# Shear Modulus (GPa) = 31.91411 35.19171 33.55291
#
# Velocity S-wave (km/s) = 3.80552 3.99616 3.90200
# Velocity P-wave (km/s) = 6.19189 6.57646 6.38707
#
# Compressibility (1/GPa) = 0.02384523
#
# Stress axis : x y z
#
# Youngs Moduli (GPa) = 52.87378 79.08403 99.75614
#
# Poissons Ratio (x) = 0.33994 0.06343
# Poissons Ratio (y) = 0.22728 0.39245
# Poissons Ratio (z) = 0.03362 0.31113
#
# Static dielectric constant tensor:
#      x y z
#    x 3.731480 0.000000 0.067690 
#    y 0.000000 4.227820 0.000000 
#    z 0.067690 0.000000 4.141900 
# 
# 
# High freq. dielectric constant tensor:
#      x y z
#    x 1.834540 0.000000 0.004620 
#    y 0.000000 1.866860 0.000000 
#    z 0.004620 0.000000 1.891750 
# 
# From -- ./inp_files/276203.got.cif
#   From: 2010.06.25/outbox.cif.g09.slc.cpg/sg15_139_cif.got.tgz:276203.got - 2010.06.28 07:06:18.
