data_PCOD8134076
_publ_section_title
;
Structure prediction by ZEFSAII (Michael W. Deem and Ramdas Pophale) SiO2 
 PCOD8134076
Probable space group: C 2/C
;
_chemical_formula_sum "Si O2"
_cell_formula_units_Z 48
_cell_length_a 28.084780
_cell_length_b 12.422887
_cell_length_c 21.559285
_cell_angle_alpha 90.000000
_cell_angle_beta 161.631325
_cell_angle_gamma 90.000000
_cell_volume 2370.379934
_symmetry_space_group_name_H-M "C 2/C"
_symmetry_group_IT_number 15
_symmetry_cell_setting 'monoclinic'
loop_
_space_group_symop_operation_xyz
x,y,z
-x,y,1/2-z
-x,-y,-z
x,-y,1/2+z
1/2+x,1/2+y,z
1/2-x,1/2+y,1/2-z
1/2-x,1/2-y,-z
1/2+x,1/2-y,1/2+z
loop_
_atom_site_type_symbol
_atom_site_label
_atom_site_fract_x
_atom_site_fract_y
_atom_site_fract_z
Si Si1 0.048078 0.976057 0.462751
Si Si2 0.500358 0.996430 0.600255
Si Si3 0.193654 0.108296 0.751245
Si Si4 0.573192 0.341559 0.907035
Si Si5 0.848151 0.308396 0.174467
Si Si6 0.336230 0.140396 0.296498
O O1 0.159140 0.875887 0.591436
O O2 0.883667 0.938633 0.282109
O O3 0.121665 0.059435 0.601132
O O4 0.039725 0.036909 0.386670
O O5 0.597344 0.067212 0.770662
O O6 0.436219 0.088774 0.474835
O O7 0.370355 0.924737 0.472339
O O8 0.612774 0.915272 0.704559
O O9 0.151559 0.232734 0.695655
O O10 0.500000 0.324268 0.750000
O O11 0.500432 0.262327 0.868564
O O12 0.751516 0.312493 0.119436
O O13 0.750000 0.250000 0.000000
#
# Coordination Sequence:
#
# PCOD8134076 Si02
#       6
#     8   8   8   8   8   8
#     4  10  20  36  54  82 119 149 192 245 291 360
#     4  10  20  34  56  84 120 157 194 246 298 359
#     4  10  21  33  55  88 115 156 194 237 302 365
#     4  10  21  37  58  82 111 151 194 247 302 350
#     4  10  21  37  57  84 112 150 196 247 297 349
#     4  10  19  35  55  82 121 157 192 238 301 360
#
# _framework density 20.249918000000001
#
# number of rings (size 3 to 8) (size 9 to 14) (size 15 to 20)
#    0.000    2.000    1.667    2.000    2.333    0.000 
#    6.000    0.000    0.000    1.000    0.000    0.000 
#    0.000    0.000    0.000    0.000    0.000    0.000 
#
# Total GULP energy -297330.727830 kJ/mol
# GULP energy per Si atom -12388.780326 kJ/mol
# Density = 2.020383 g / cm^3
# Si number density = 20.249918 Si / 1000 Ang^3
#
#
#
# Elastic Constant Matrix: (Units=GPa)
#
#
# Indices 1 2 3 4 5 6 
#
# 1 87.0318 41.6863 40.6071 -0.0003 38.6266 -0.0001
# 2 41.6863 123.8768 36.2742 -0.0002 18.2349 -0.0002
# 3 40.6071 36.2742 65.0424 -0.0012 34.8629 -0.0005
# 4 -0.0003 -0.0002 -0.0012 34.6374 -0.0005 4.3133
# 5 38.6266 18.2349 34.8629 -0.0005 33.7291 -0.0002
# 6 -0.0001 -0.0002 -0.0005 4.3133 -0.0002 37.6835
#
#
#
# Elastic Compliance Matrix: (Units=1/GPa)
#
#
# Indices 1 2 3 4 5 6 
#
# 1 0.025797 -0.005081 0.002446 0.000000 -0.029324 0.000000
# 2 -0.005081 0.010658 -0.006283 0.000000 0.006551 0.000000
# 3 0.002446 -0.006283 0.038191 0.000001 -0.038878 0.000000
# 4 0.000000 0.000000 0.000001 0.029288 0.000000 -0.003352
# 5 -0.029324 0.006551 -0.038878 0.000000 0.099873 0.000000
# 6 0.000000 0.000000 0.000000 -0.003352 0.000000 0.026921
#
#
# Mechanical properties :
#
#
# Convention : Reuss Voigt Hill
#
# Bulk Modulus (GPa) = 17.60287 57.00958 37.30623
# Shear Modulus (GPa) = 18.69160 31.70223 25.19691
#
# Velocity S-wave (km/s) = 3.04146 3.96099 3.53129
# Velocity P-wave (km/s) = 4.58756 7.00952 5.92364
#
# Compressibility (1/GPa) = 0.05680892
#
# Stress axis : x y z
#
# Youngs Moduli (GPa) = 38.76414 93.82774 26.18438
#
# Poissons Ratio (x) = 0.47671 -0.06403
# Poissons Ratio (y) = 0.19695 0.16452
# Poissons Ratio (z) = -0.09480 0.58954
#
# Static dielectric constant tensor:
#      x y z
#    x 4.048050 0.000000 0.846540 
#    y 0.000000 3.679390 0.000000 
#    z 0.846540 0.000000 3.997820 
# 
# 
# High freq. dielectric constant tensor:
#      x y z
#    x 1.780570 0.000000 0.045260 
#    y 0.000000 1.792280 0.000000 
#    z 0.045260 0.000000 1.776130 
# 
# From -- ./inp_files/60625.got.cif
#   From: 2010.06.25/outbox.cif.g09.slc.cpg/sg15_31_cif.got.tgz:60625.got - 2010.06.28 07:06:18.
