data_PCOD8134207
_publ_section_title
;
Structure prediction by ZEFSAII (Michael W. Deem and Ramdas Pophale) SiO2 
 PCOD8134207
Probable space group: C 2/C
;
_chemical_formula_sum "Si O2"
_cell_formula_units_Z 40
_cell_length_a 11.800156
_cell_length_b 31.468742
_cell_length_c 8.151587
_cell_angle_alpha 90.000000
_cell_angle_beta 41.436339
_cell_angle_gamma 90.000000
_cell_volume 2003.216297
_symmetry_space_group_name_H-M "C 2/C"
_symmetry_group_IT_number 15
_symmetry_cell_setting 'monoclinic'
loop_
_space_group_symop_operation_xyz
x,y,z
-x,y,1/2-z
-x,-y,-z
x,-y,1/2+z
1/2+x,1/2+y,z
1/2-x,1/2+y,1/2-z
1/2-x,1/2-y,-z
1/2+x,1/2-y,1/2+z
loop_
_atom_site_type_symbol
_atom_site_label
_atom_site_fract_x
_atom_site_fract_y
_atom_site_fract_z
Si Si1 0.636819 0.728615 0.487781
Si Si2 0.319823 0.451772 0.733959
Si Si3 0.545159 0.196880 0.511908
Si Si4 0.007002 0.602182 0.546962
Si Si5 0.199493 0.954985 0.356936
O O1 0.750000 0.750000 0.500000
O O2 0.548954 0.765842 0.479899
O O3 0.500000 0.702385 0.750000
O O4 0.748719 0.699823 0.242681
O O5 0.517739 0.442280 0.468655
O O6 0.254807 0.497061 0.739852
O O7 0.191595 0.417098 0.793776
O O8 0.311896 0.451432 0.937037
O O9 0.500000 0.202020 0.750000
O O10 0.487933 0.150748 0.507640
O O11 0.000000 0.599913 0.750000
O O12 0.851560 0.576115 0.631278
#
# Coordination Sequence:
#
# PCOD8134207 Si02
#       5
#     8   8   8   8   8
#     4   9  19  37  56  75 109 147 171 216 287 337
#     4   9  17  31  50  72 104 140 176 214 266 318
#     4  10  19  35  58  83 106 137 191 229 268 333
#     4   9  18  32  51  79 106 134 174 228 271 311
#     4   9  17  31  50  72 104 140 174 215 265 318
#
# _framework density 19.967887999999999
#
# number of rings (size 3 to 8) (size 9 to 14) (size 15 to 20)
#    0.000    2.800    0.000    1.200    0.000    0.000 
#    7.200    6.000    4.400    0.000    0.000    0.000 
#    0.000    0.000    0.000    0.000    0.000    0.000 
#
# Total GULP energy -247770.384562 kJ/mol
# GULP energy per Si atom -12388.519228 kJ/mol
# Density = 1.992244 g / cm^3
# Si number density = 19.967888 Si / 1000 Ang^3
#
#
#
# Elastic Constant Matrix: (Units=GPa)
#
#
# Indices 1 2 3 4 5 6 
#
# 1 56.2558 35.4748 37.8335 0.0000 -17.8825 0.0000
# 2 35.4748 106.3953 48.9314 0.0000 -21.0290 0.0000
# 3 37.8335 48.9314 131.3474 0.0000 -21.8577 0.0000
# 4 0.0000 0.0000 0.0000 20.9115 0.0000 -6.3503
# 5 -17.8825 -21.0290 -21.8577 0.0000 29.1511 0.0000
# 6 0.0000 0.0000 0.0000 -6.3503 0.0000 23.7179
#
#
#
# Elastic Compliance Matrix: (Units=1/GPa)
#
#
# Indices 1 2 3 4 5 6 
#
# 1 0.026923 -0.005120 -0.004243 0.000000 0.009641 0.000000
# 2 -0.005120 0.013220 -0.002726 0.000000 0.004352 0.000000
# 3 -0.004243 -0.002726 0.010387 0.000000 0.003219 0.000000
# 4 0.000000 0.000000 0.000000 0.052053 0.000000 0.013937
# 5 0.009641 0.004352 0.003219 0.000000 0.045771 0.000000
# 6 0.000000 0.000000 0.000000 0.013937 0.000000 0.045894
#
#
# Mechanical properties :
#
#
# Convention : Reuss Voigt Hill
#
# Bulk Modulus (GPa) = 37.94871 59.83089 48.88980
# Shear Modulus (GPa) = 22.00628 26.20669 24.10649
#
# Velocity S-wave (km/s) = 3.32337 3.62669 3.47834
# Velocity P-wave (km/s) = 5.81141 6.89680 6.37724
#
# Compressibility (1/GPa) = 0.02635136
#
# Stress axis : x y z
#
# Youngs Moduli (GPa) = 37.14336 75.64438 96.27654
#
# Poissons Ratio (x) = 0.38728 0.40853
# Poissons Ratio (y) = 0.19016 0.26244
# Poissons Ratio (z) = 0.15761 0.20620
#
# Static dielectric constant tensor:
#      x y z
#    x 3.602770 0.000000 -0.537300 
#    y 0.000000 3.492510 0.000000 
#    z -0.537300 0.000000 4.671330 
# 
# 
# High freq. dielectric constant tensor:
#      x y z
#    x 1.768700 0.000000 -0.015790 
#    y 0.000000 1.758410 0.000000 
#    z -0.015790 0.000000 1.791170 
# 
# From -- ./inp_files/33874.got.cif
#   From: 2010.06.25/outbox.cif.g09.slc.cpg/sg15_17_cif.got.tgz:33874.got - 2010.06.28 07:06:18.
