data_PCOD8134556
_publ_section_title
;
Structure prediction by ZEFSAII (Michael W. Deem and Ramdas Pophale) SiO2 
 PCOD8134556
Probable space group: C 2/C
;
_chemical_formula_sum "Si O2"
_cell_formula_units_Z 48
_cell_length_a 8.319629
_cell_length_b 18.326619
_cell_length_c 15.863892
_cell_angle_alpha 90.000000
_cell_angle_beta 90.889102
_cell_angle_gamma 90.000000
_cell_volume 2418.487040
_symmetry_space_group_name_H-M "C 2/C"
_symmetry_group_IT_number 15
_symmetry_cell_setting 'monoclinic'
loop_
_space_group_symop_operation_xyz
x,y,z
-x,y,1/2-z
-x,-y,-z
x,-y,1/2+z
1/2+x,1/2+y,z
1/2-x,1/2+y,1/2-z
1/2-x,1/2-y,-z
1/2+x,1/2-y,1/2+z
loop_
_atom_site_type_symbol
_atom_site_label
_atom_site_fract_x
_atom_site_fract_y
_atom_site_fract_z
Si Si1 0.753784 0.135128 0.203945
Si Si2 0.947659 0.520523 0.381379
Si Si3 0.000000 0.595862 0.750000
Si Si4 0.205926 0.416652 0.998887
Si Si5 0.000000 0.752660 0.250000
Si Si6 0.575814 0.351234 0.627521
Si Si7 0.777582 0.307412 0.352088
O O1 0.648424 0.063937 0.189360
O O2 0.640744 0.205665 0.208265
O O3 0.847211 0.113843 0.288945
O O4 0.882293 0.149512 0.130248
O O5 0.039069 0.454370 0.333063
O O6 0.813956 0.490777 0.447284
O O7 0.065003 0.578460 0.427656
O O8 0.146330 0.649489 0.727039
O O9 0.372870 0.402566 0.950894
O O10 0.191141 0.349002 0.061139
O O11 0.088788 0.799548 0.324340
O O12 0.640371 0.269070 0.625806
#
# Coordination Sequence:
#
# PCOD8134556 Si02
#       7
#     8   8   4   8   4   8   8
#     4  10  20  35  59  80 106 146 185 220 263 326
#     4  10  20  36  56  80 108 152 187 212 267 324
#     4  10  19  36  58  78 107 142 186 224 258 324
#     4  10  21  36  55  79 114 146 178 225 271 321
#     4  10  19  36  58  80 105 138 186 226 268 328
#     4  10  20  36  57  84 112 140 178 229 274 314
#     4  10  20  36  58  83 108 140 179 226 276 317
#
# _framework density 19.847118999999999
#
# number of rings (size 3 to 8) (size 9 to 14) (size 15 to 20)
#    0.000    2.000    0.000    6.000    0.000    0.667 
#    0.000   18.333    0.000    0.000    0.000    0.000 
#    0.000    0.000    0.000    0.000    0.000    0.000 
#
# Total GULP energy -297330.253222 kJ/mol
# GULP energy per Si atom -12388.760551 kJ/mol
# Density = 1.980195 g / cm^3
# Si number density = 19.847119 Si / 1000 Ang^3
#
#
#
# Elastic Constant Matrix: (Units=GPa)
#
#
# Indices 1 2 3 4 5 6 
#
# 1 95.3721 34.3336 35.0424 0.0000 -20.3552 0.0000
# 2 34.3336 64.0632 29.1998 0.0000 -2.1811 0.0000
# 3 35.0424 29.1998 80.9691 0.0000 -20.7945 0.0000
# 4 0.0000 0.0000 0.0000 24.2486 0.0000 3.9252
# 5 -20.3552 -2.1811 -20.7945 0.0000 29.5594 0.0000
# 6 0.0000 0.0000 0.0000 3.9252 0.0000 27.6877
#
#
#
# Elastic Compliance Matrix: (Units=1/GPa)
#
#
# Indices 1 2 3 4 5 6 
#
# 1 0.015697 -0.007251 -0.001879 0.000000 0.008952 0.000000
# 2 -0.007251 0.022446 -0.007096 0.000000 -0.008329 0.000000
# 3 -0.001879 -0.007096 0.018620 0.000000 0.011281 0.000000
# 4 0.000000 0.000000 0.000000 0.042208 0.000000 -0.005984
# 5 0.008952 -0.008329 0.011281 0.000000 0.047316 0.000000
# 6 0.000000 0.000000 0.000000 -0.005984 0.000000 0.036965
#
#
# Mechanical properties :
#
#
# Convention : Reuss Voigt Hill
#
# Bulk Modulus (GPa) = 41.13387 48.61733 44.87560
# Shear Modulus (GPa) = 22.34061 25.75439 24.04750
#
# Velocity S-wave (km/s) = 3.35869 3.60618 3.48463
# Velocity P-wave (km/s) = 5.98426 6.47213 6.23297
#
# Compressibility (1/GPa) = 0.02431086
#
# Stress axis : x y z
#
# Youngs Moduli (GPa) = 63.70764 44.55098 53.70629
#
# Poissons Ratio (x) = 0.32304 0.10094
# Poissons Ratio (y) = 0.46194 0.38107
# Poissons Ratio (z) = 0.11973 0.31611
#
# Static dielectric constant tensor:
#      x y z
#    x 3.742820 0.000000 -0.195990 
#    y 0.000000 3.624130 0.000000 
#    z -0.195990 0.000000 3.794170 
# 
# 
# High freq. dielectric constant tensor:
#      x y z
#    x 1.758240 0.000000 -0.014050 
#    y 0.000000 1.773250 0.000000 
#    z -0.014050 0.000000 1.778330 
# 
# From -- ./inp_files/134914.got.cif
#   From: 2010.06.25/outbox.cif.g09.slc.cpg/sg15_68_cif.got.tgz:134914.got - 2010.06.28 07:06:18.
