data_PCOD8134531
_publ_section_title
;
Structure prediction by ZEFSAII (Michael W. Deem and Ramdas Pophale) SiO2 
 PCOD8134531
Probable space group: C 2/C
;
_chemical_formula_sum "Si O2"
_cell_formula_units_Z 56
_cell_length_a 16.284781
_cell_length_b 10.261182
_cell_length_c 24.637559
_cell_angle_alpha 90.000000
_cell_angle_beta 46.836995
_cell_angle_gamma 90.000000
_cell_volume 3002.956129
_symmetry_space_group_name_H-M "C 2/C"
_symmetry_group_IT_number 15
_symmetry_cell_setting 'monoclinic'
loop_
_space_group_symop_operation_xyz
x,y,z
-x,y,1/2-z
-x,-y,-z
x,-y,1/2+z
1/2+x,1/2+y,z
1/2-x,1/2+y,1/2-z
1/2-x,1/2-y,-z
1/2+x,1/2-y,1/2+z
loop_
_atom_site_type_symbol
_atom_site_label
_atom_site_fract_x
_atom_site_fract_y
_atom_site_fract_z
Si Si1 0.002620 0.458791 0.158059
Si Si2 0.953544 0.659362 0.966888
Si Si3 0.339475 0.087574 0.554563
Si Si4 0.168611 0.492035 0.674303
Si Si5 0.413963 0.392711 0.058210
Si Si6 0.041314 0.727124 0.087294
Si Si7 0.886581 0.200867 0.828901
O O1 0.895545 0.443465 0.245654
O O2 0.018342 0.336346 0.110219
O O3 0.116915 0.459481 0.141185
O O4 0.984192 0.590346 0.130715
O O5 0.070075 0.614415 0.940240
O O6 0.854489 0.556072 0.023558
O O7 0.906367 0.794557 0.010812
O O8 0.356154 0.196978 0.500243
O O9 0.214331 0.099488 0.635744
O O10 0.297021 0.534121 0.621344
O O11 0.149646 0.336353 0.683070
O O12 0.450769 0.318470 0.096871
O O13 0.500000 0.500000 0.000000
O O14 0.091860 0.797157 0.116594
O O15 0.000000 0.147897 0.750000
#
# Coordination Sequence:
#
# PCOD8134531 Si02
#       7
#     8   8   8   8   8   8   8
#     4   9  18  37  61  79 107 154 196 228 285 347
#     4   9  19  36  56  83 111 150 195 230 289 348
#     4   9  18  32  58  82 110 145 186 241 280 335
#     4  10  19  36  57  84 117 150 185 238 290 345
#     4  11  23  37  55  86 119 147 192 243 289 338
#     4   9  18  36  55  84 109 142 191 233 284 335
#     4  11  19  34  60  87 113 145 195 237 281 337
#
# _framework density 18.648289999999999
#
# number of rings (size 3 to 8) (size 9 to 14) (size 15 to 20)
#    0.000    2.286    2.857    3.000    0.000    4.000 
#    2.571    0.000    3.143    0.000    0.000    0.000 
#    0.000    0.000    0.000    0.000    0.000    0.000 
#
# Total GULP energy -347062.829246 kJ/mol
# GULP energy per Si atom -12395.101045 kJ/mol
# Density = 1.860585 g / cm^3
# Si number density = 18.648290 Si / 1000 Ang^3
#
#
#
# Elastic Constant Matrix: (Units=GPa)
#
#
# Indices 1 2 3 4 5 6 
#
# 1 61.9614 27.3599 47.8544 0.0000 -9.0629 0.0000
# 2 27.3599 53.3517 36.1699 0.0000 -6.8597 0.0000
# 3 47.8544 36.1699 113.7983 0.0000 -20.0031 0.0000
# 4 0.0000 0.0000 0.0000 22.8612 0.0000 -1.4276
# 5 -9.0629 -6.8597 -20.0031 0.0000 40.8117 0.0000
# 6 0.0000 0.0000 0.0000 -1.4276 0.0000 27.6017
#
#
#
# Elastic Compliance Matrix: (Units=1/GPa)
#
#
# Indices 1 2 3 4 5 6 
#
# 1 0.026107 -0.007574 -0.008509 0.000000 0.000354 0.000000
# 2 -0.007574 0.026093 -0.005070 0.000000 0.000219 0.000000
# 3 -0.008509 -0.005070 0.014767 0.000000 0.004496 0.000000
# 4 0.000000 0.000000 0.000000 0.043884 0.000000 0.002270
# 5 0.000354 0.000219 0.004496 0.000000 0.026822 0.000000
# 6 0.000000 0.000000 0.000000 0.002270 0.000000 0.036347
#
#
# Mechanical properties :
#
#
# Convention : Reuss Voigt Hill
#
# Bulk Modulus (GPa) = 40.54900 50.20888 45.37894
# Shear Modulus (GPa) = 22.26710 26.10340 24.18525
#
# Velocity S-wave (km/s) = 3.45926 3.74542 3.60518
# Velocity P-wave (km/s) = 6.14383 6.75920 6.45884
#
# Compressibility (1/GPa) = 0.02466152
#
# Stress axis : x y z
#
# Youngs Moduli (GPa) = 38.30405 38.32447 67.71665
#
# Poissons Ratio (x) = 0.29027 0.57619
# Poissons Ratio (y) = 0.29012 0.34332
# Poissons Ratio (z) = 0.32593 0.19430
#
# Static dielectric constant tensor:
#      x y z
#    x 3.483950 0.000000 0.167760 
#    y 0.000000 3.272650 0.000000 
#    z 0.167760 0.000000 3.486950 
# 
# 
# High freq. dielectric constant tensor:
#      x y z
#    x 1.723120 0.000000 0.008560 
#    y 0.000000 1.695590 0.000000 
#    z 0.008560 0.000000 1.727110 
# 
# From -- ./inp_files/298492.got.cif
#   From: 2010.06.25/outbox.cif.g09.slc.cpg/sg15_150_cif.got.tgz:298492.got - 2010.06.28 07:06:18.
