data_PCOD8134647
_publ_section_title
;
Structure prediction by ZEFSAII (Michael W. Deem and Ramdas Pophale) SiO2 
 PCOD8134647
Probable space group: C 2/C
;
_chemical_formula_sum "Si O2"
_cell_formula_units_Z 60
_cell_length_a 7.877336
_cell_length_b 21.333108
_cell_length_c 17.165451
_cell_angle_alpha 90.000000
_cell_angle_beta 91.122308
_cell_angle_gamma 90.000000
_cell_volume 2884.067353
_symmetry_space_group_name_H-M "C 2/C"
_symmetry_group_IT_number 15
_symmetry_cell_setting 'monoclinic'
loop_
_space_group_symop_operation_xyz
x,y,z
-x,y,1/2-z
-x,-y,-z
x,-y,1/2+z
1/2+x,1/2+y,z
1/2-x,1/2+y,1/2-z
1/2-x,1/2-y,-z
1/2+x,1/2-y,1/2+z
loop_
_atom_site_type_symbol
_atom_site_label
_atom_site_fract_x
_atom_site_fract_y
_atom_site_fract_z
Si Si1 0.121080 0.079963 0.319132
Si Si2 0.378128 0.359514 0.927432
Si Si3 0.662543 0.036012 0.695738
Si Si4 0.500000 0.604135 0.750000
Si Si5 0.351808 0.866671 0.435367
Si Si6 0.097039 0.788128 0.347195
Si Si7 0.053074 0.739905 0.002659
Si Si8 0.321258 0.830409 0.726896
O O1 0.187032 0.148165 0.290976
O O2 0.000000 0.051830 0.250000
O O3 0.022943 0.091948 0.399462
O O4 0.276390 0.032032 0.333775
O O5 0.453978 0.292201 0.951721
O O6 0.240904 0.351849 0.858279
O O7 0.282215 0.390119 0.000302
O O8 0.500000 0.029942 0.750000
O O9 0.824878 0.065533 0.742402
O O10 0.601414 0.074965 0.619450
O O11 0.515200 0.650788 0.675954
O O12 0.272874 0.811595 0.383466
O O13 0.513430 0.831549 0.475155
O O14 0.152086 0.745175 0.273153
O O15 0.997362 0.744825 0.407242
O O16 0.250000 0.750000 0.000000
O O17 0.500000 0.863411 0.750000
#
# Coordination Sequence:
#
# PCOD8134647 Si02
#       8
#     8   8   8   4   8   8   8   8
#     4  10  23  41  64  94 124 175 220 275 323 378
#     4  10  21  41  61  90 132 166 217 266 327 390
#     4  11  24  44  66  91 133 172 223 272 322 390
#     4  10  22  38  62  94 126 170 214 256 336 388
#     4  10  21  41  62  91 129 172 206 264 326 390
#     4  10  19  36  59  88 127 165 199 262 323 388
#     4  11  22  35  60  92 134 166 206 266 328 391
#     4  11  20  35  64  92 126 163 212 266 324 378
#
# _framework density 20.803951000000001
#
# number of rings (size 3 to 8) (size 9 to 14) (size 15 to 20)
#    0.000    1.600    4.000    1.200    3.733    0.533 
#    2.400    0.000    0.000    4.800    0.000    0.000 
#    0.000    0.000    0.000    0.000    0.000    0.000 
#
# Total GULP energy -371756.206615 kJ/mol
# GULP energy per Si atom -12391.873554 kJ/mol
# Density = 2.075660 g / cm^3
# Si number density = 20.803951 Si / 1000 Ang^3
#
#
#
# Elastic Constant Matrix: (Units=GPa)
#
#
# Indices 1 2 3 4 5 6 
#
# 1 116.9242 47.5071 50.1967 0.0000 -12.4196 0.0000
# 2 47.5071 100.6574 51.2154 0.0000 -22.2447 0.0000
# 3 50.1967 51.2154 95.4780 0.0000 -20.3324 0.0000
# 4 0.0000 0.0000 0.0000 21.1248 0.0000 -6.2863
# 5 -12.4196 -22.2447 -20.3324 0.0000 33.6447 0.0000
# 6 0.0000 0.0000 0.0000 -6.2863 0.0000 30.3173
#
#
#
# Elastic Compliance Matrix: (Units=1/GPa)
#
#
# Indices 1 2 3 4 5 6 
#
# 1 0.011811 -0.003418 -0.004509 0.000000 -0.000625 0.000000
# 2 -0.003418 0.015524 -0.005295 0.000000 0.005803 0.000000
# 3 -0.004509 -0.005295 0.016738 0.000000 0.004950 0.000000
# 4 0.000000 0.000000 0.000000 0.050451 0.000000 0.010461
# 5 -0.000625 0.005803 0.004950 0.000000 0.036320 0.000000
# 6 0.000000 0.000000 0.000000 0.010461 0.000000 0.035154
#
#
# Mechanical properties :
#
#
# Convention : Reuss Voigt Hill
#
# Bulk Modulus (GPa) = 56.72170 67.87757 62.29963
# Shear Modulus (GPa) = 25.21206 27.96004 26.58605
#
# Velocity S-wave (km/s) = 3.48499 3.67001 3.57870
# Velocity P-wave (km/s) = 6.59679 7.11735 6.86201
#
# Compressibility (1/GPa) = 0.01762994
#
# Stress axis : x y z
#
# Youngs Moduli (GPa) = 84.66877 64.41523 59.74278
#
# Poissons Ratio (x) = 0.22019 0.26937
# Poissons Ratio (y) = 0.28942 0.31631
# Poissons Ratio (z) = 0.38176 0.34105
#
# Static dielectric constant tensor:
#      x y z
#    x 3.867270 0.000000 0.126830 
#    y 0.000000 3.735470 0.000000 
#    z 0.126830 0.000000 3.670080 
# 
# 
# High freq. dielectric constant tensor:
#      x y z
#    x 1.815010 0.000000 0.010330 
#    y 0.000000 1.800590 0.000000 
#    z 0.010330 0.000000 1.808890 
# 
# From -- ./inp_files/137361.got.cif
#   From: 2010.06.25/outbox.cif.g09.slc.cpg/sg15_69_cif.got.tgz:137361.got - 2010.06.28 07:06:18.
