data_PCOD8134297
_publ_section_title
;
Structure prediction by ZEFSAII (Michael W. Deem and Ramdas Pophale) SiO2 
 PCOD8134297
Probable space group: C 2/C
;
_chemical_formula_sum "Si O2"
_cell_formula_units_Z 44
_cell_length_a 25.142252
_cell_length_b 11.942079
_cell_length_c 11.998402
_cell_angle_alpha 90.000000
_cell_angle_beta 143.273469
_cell_angle_gamma 90.000000
_cell_volume 2154.299373
_symmetry_space_group_name_H-M "C 2/C"
_symmetry_group_IT_number 15
_symmetry_cell_setting 'monoclinic'
loop_
_space_group_symop_operation_xyz
x,y,z
-x,y,1/2-z
-x,-y,-z
x,-y,1/2+z
1/2+x,1/2+y,z
1/2-x,1/2+y,1/2-z
1/2-x,1/2-y,-z
1/2+x,1/2-y,1/2+z
loop_
_atom_site_type_symbol
_atom_site_label
_atom_site_fract_x
_atom_site_fract_y
_atom_site_fract_z
Si Si1 0.097593 0.313510 0.938276
Si Si2 0.000000 0.095318 0.250000
Si Si3 0.189973 0.399637 0.880945
Si Si4 0.077919 0.409384 0.136985
Si Si5 0.558555 0.738898 0.542542
Si Si6 0.395513 0.397679 0.171430
O O1 0.170123 0.348227 0.968229
O O2 0.093597 0.177382 0.923114
O O3 0.000000 0.364754 0.750000
O O4 0.123234 0.364001 0.099577
O O5 0.064869 0.168526 0.439055
O O6 0.066442 0.020626 0.287231
O O7 0.158608 0.529006 0.834171
O O8 0.140071 0.326723 0.699876
O O9 0.293716 0.401404 0.036660
O O10 0.000000 0.500000 0.000000
O O11 0.035816 0.303561 0.129281
O O12 0.550026 0.659621 0.636287
#
# Coordination Sequence:
#
# PCOD8134297 Si02
#       6
#     8   4   8   8   8   8
#     4  11  17  35  62  82 111 161 195 230 287 347
#     4  12  24  38  62  86 122 160 188 242 300 342
#     4  10  23  37  62  91 117 146 203 249 281 346
#     4  10  19  35  59  91 116 148 195 243 288 344
#     4  10  21  39  59  87 115 156 197 239 285 351
#     4  11  22  41  59  87 117 160 200 233 287 359
#
# _framework density 20.424272999999999
#
# number of rings (size 3 to 8) (size 9 to 14) (size 15 to 20)
#    0.000    1.455    6.364    2.727    0.000    5.818 
#    0.000    0.909    0.000    0.000    0.000    0.000 
#    0.000    0.000    0.000    0.000    0.000    0.000 
#
# Total GULP energy -272589.781109 kJ/mol
# GULP energy per Si atom -12390.444596 kJ/mol
# Density = 2.037779 g / cm^3
# Si number density = 20.424273 Si / 1000 Ang^3
#
#
#
# Elastic Constant Matrix: (Units=GPa)
#
#
# Indices 1 2 3 4 5 6 
#
# 1 77.5913 30.4241 21.6598 0.0000 17.8618 0.0000
# 2 30.4241 102.3445 38.1120 0.0000 -1.5031 0.0000
# 3 21.6598 38.1120 38.0118 0.0000 6.5257 0.0000
# 4 0.0000 0.0000 0.0000 27.3794 0.0000 -1.2162
# 5 17.8618 -1.5031 6.5257 0.0000 29.8586 0.0000
# 6 0.0000 0.0000 0.0000 -1.2162 0.0000 29.3210
#
#
#
# Elastic Compliance Matrix: (Units=1/GPa)
#
#
# Indices 1 2 3 4 5 6 
#
# 1 0.017955 -0.003675 -0.004852 0.000000 -0.009865 0.000000
# 2 -0.003675 0.016913 -0.015987 0.000000 0.006544 0.000000
# 3 -0.004852 -0.015987 0.046485 0.000000 -0.008062 0.000000
# 4 0.000000 0.000000 0.000000 0.036591 0.000000 0.001518
# 5 -0.009865 0.006544 -0.008062 0.000000 0.041484 0.000000
# 6 0.000000 0.000000 0.000000 0.001518 0.000000 0.034168
#
#
# Mechanical properties :
#
#
# Convention : Reuss Voigt Hill
#
# Bulk Modulus (GPa) = 30.93635 44.25994 37.59815
# Shear Modulus (GPa) = 19.73168 25.82858 22.78013
#
# Velocity S-wave (km/s) = 3.11157 3.55998 3.34330
# Velocity P-wave (km/s) = 5.29990 6.21412 5.77513
#
# Compressibility (1/GPa) = 0.03232443
#
# Stress axis : x y z
#
# Youngs Moduli (GPa) = 55.69563 59.12651 21.51219
#
# Poissons Ratio (x) = 0.21731 0.10438
# Poissons Ratio (y) = 0.20470 0.34391
# Poissons Ratio (z) = 0.27025 0.94523
#
# Static dielectric constant tensor:
#      x y z
#    x 3.706270 0.000000 0.085270 
#    y 0.000000 4.459330 0.000000 
#    z 0.085270 0.000000 3.597920 
# 
# 
# High freq. dielectric constant tensor:
#      x y z
#    x 1.797300 0.000000 0.011560 
#    y 0.000000 1.806720 0.000000 
#    z 0.011560 0.000000 1.759200 
# 
# From -- ./inp_files/118090.got.cif
#   From: 2010.06.25/outbox.cif.g09.slc.cpg/sg15_60_cif.got.tgz:118090.got - 2010.06.28 07:06:18.
