data_PCOD8134991
_publ_section_title
;
Structure prediction by ZEFSAII (Michael W. Deem and Ramdas Pophale) SiO2 
 PCOD8134991
Probable space group: C 2/C
;
_chemical_formula_sum "Si O2"
_cell_formula_units_Z 56
_cell_length_a 25.416315
_cell_length_b 11.611715
_cell_length_c 14.838363
_cell_angle_alpha 90.000000
_cell_angle_beta 39.347586
_cell_angle_gamma 90.000000
_cell_volume 2776.516114
_symmetry_space_group_name_H-M "C 2/C"
_symmetry_group_IT_number 15
_symmetry_cell_setting 'monoclinic'
loop_
_space_group_symop_operation_xyz
x,y,z
-x,y,1/2-z
-x,-y,-z
x,-y,1/2+z
1/2+x,1/2+y,z
1/2-x,1/2+y,1/2-z
1/2-x,1/2-y,-z
1/2+x,1/2-y,1/2+z
loop_
_atom_site_type_symbol
_atom_site_label
_atom_site_fract_x
_atom_site_fract_y
_atom_site_fract_z
Si Si1 0.117706 0.166564 0.022175
Si Si2 0.009003 0.953530 0.137983
Si Si3 0.174928 0.070486 0.684235
Si Si4 0.200580 0.288922 0.760071
Si Si5 0.150101 0.862215 0.828701
Si Si6 0.155065 0.723340 0.649552
Si Si7 0.268756 0.012153 0.885578
O O1 0.100864 0.243912 0.133766
O O2 0.039103 0.085781 0.106712
O O3 0.127061 0.255110 0.926502
O O4 0.199901 0.086318 0.922940
O O5 0.000000 0.899727 0.250000
O O6 0.922794 0.947218 0.200694
O O7 0.072786 0.878551 0.996498
O O8 0.200727 0.198192 0.678512
O O9 0.223260 0.046935 0.529150
O O10 0.195501 0.981462 0.738261
O O11 0.286007 0.281960 0.702380
O O12 0.190179 0.416627 0.733291
O O13 0.120580 0.798698 0.777294
O O14 0.250000 0.750000 0.500000
O O15 0.154348 0.589049 0.679149
#
# Coordination Sequence:
#
# PCOD8134991 Si02
#       7
#     8   8   8   8   8   8   8
#     4  11  20  36  60  90 122 161 213 255 308 361
#     4  12  23  39  62  94 128 156 204 267 314 362
#     4  12  23  38  61  95 128 156 206 265 316 364
#     4  12  22  34  57  93 126 162 203 253 314 373
#     4  12  21  37  61  89 125 163 206 253 318 359
#     4  10  19  37  59  87 121 164 208 260 294 368
#     4  11  20  38  58  90 127 159 202 257 312 366
#
# _framework density 20.169162
#
# number of rings (size 3 to 8) (size 9 to 14) (size 15 to 20)
#    0.000    0.571   10.000    0.857    0.000    0.000 
#    0.000    0.000    0.000    0.857    0.000    0.000 
#    0.000    0.000    0.000    0.000    0.000    0.000 
#
# Total GULP energy -347146.071658 kJ/mol
# GULP energy per Si atom -12398.073988 kJ/mol
# Density = 2.012326 g / cm^3
# Si number density = 20.169162 Si / 1000 Ang^3
#
#
#
# Elastic Constant Matrix: (Units=GPa)
#
#
# Indices 1 2 3 4 5 6 
#
# 1 72.9001 35.1574 23.0652 0.0000 9.5398 0.0000
# 2 35.1574 108.3763 31.4572 0.0000 15.0402 0.0000
# 3 23.0652 31.4572 102.2460 0.0000 36.1612 0.0000
# 4 0.0000 0.0000 0.0000 25.8626 0.0000 18.0187
# 5 9.5398 15.0402 36.1612 0.0000 31.8220 0.0000
# 6 0.0000 0.0000 0.0000 18.0187 0.0000 41.8127
#
#
#
# Elastic Compliance Matrix: (Units=1/GPa)
#
#
# Indices 1 2 3 4 5 6 
#
# 1 0.016746 -0.004752 -0.002231 0.000000 -0.000239 0.000000
# 2 -0.004752 0.011564 -0.001767 0.000000 -0.002033 0.000000
# 3 -0.002231 -0.001767 0.017213 0.000000 -0.018057 0.000000
# 4 0.000000 0.000000 0.000000 0.055256 0.000000 -0.023812
# 5 -0.000239 -0.002033 -0.018057 0.000000 0.052976 0.000000
# 6 0.000000 0.000000 0.000000 -0.023812 0.000000 0.034178
#
#
# Mechanical properties :
#
#
# Convention : Reuss Voigt Hill
#
# Bulk Modulus (GPa) = 35.68399 51.43135 43.55767
# Shear Modulus (GPa) = 23.28042 32.82230 28.05136
#
# Velocity S-wave (km/s) = 3.40112 4.03842 3.73339
# Velocity P-wave (km/s) = 5.75798 6.87753 6.34251
#
# Compressibility (1/GPa) = 0.02802377
#
# Stress axis : x y z
#
# Youngs Moduli (GPa) = 59.71491 86.47880 58.09490
#
# Poissons Ratio (x) = 0.41092 0.12963
# Poissons Ratio (y) = 0.28375 0.10263
# Poissons Ratio (z) = 0.13324 0.15277
#
# Static dielectric constant tensor:
#      x y z
#    x 3.822390 0.000000 0.352370 
#    y 0.000000 3.886260 0.000000 
#    z 0.352370 0.000000 3.675150 
# 
# 
# High freq. dielectric constant tensor:
#      x y z
#    x 1.783630 0.000000 0.036460 
#    y 0.000000 1.775620 0.000000 
#    z 0.036460 0.000000 1.781740 
# 
# From -- ./inp_files/177544.got.cif
#   From: 2010.06.25/outbox.cif.g09.slc.cpg/sg15_89_cif.got.tgz:177544.got - 2010.06.28 07:06:18.
