data_PCOD8134311
_publ_section_title
;
Structure prediction by ZEFSAII (Michael W. Deem and Ramdas Pophale) SiO2 
 PCOD8134311
Probable space group: C 2/C
;
_chemical_formula_sum "Si O2"
_cell_formula_units_Z 48
_cell_length_a 19.180925
_cell_length_b 9.338676
_cell_length_c 22.117627
_cell_angle_alpha 90.000000
_cell_angle_beta 41.529311
_cell_angle_gamma 90.000000
_cell_volume 2626.690775
_symmetry_space_group_name_H-M "C 2/C"
_symmetry_group_IT_number 15
_symmetry_cell_setting 'monoclinic'
loop_
_space_group_symop_operation_xyz
x,y,z
-x,y,1/2-z
-x,-y,-z
x,-y,1/2+z
1/2+x,1/2+y,z
1/2-x,1/2+y,1/2-z
1/2-x,1/2-y,-z
1/2+x,1/2-y,1/2+z
loop_
_atom_site_type_symbol
_atom_site_label
_atom_site_fract_x
_atom_site_fract_y
_atom_site_fract_z
Si Si1 0.381997 0.585871 0.328599
Si Si2 0.936362 0.560604 0.984961
Si Si3 0.217867 0.411804 0.504975
Si Si4 0.762160 0.376132 0.681177
Si Si5 0.353672 0.887316 0.208235
Si Si6 0.381744 0.916812 0.325878
O O1 0.500000 0.529938 0.250000
O O2 0.322881 0.489410 0.415248
O O3 0.338441 0.562707 0.289012
O O4 0.374829 0.752489 0.352509
O O5 0.875884 0.437160 0.984261
O O6 0.021778 0.643506 0.887112
O O7 0.847817 0.665786 0.072393
O O8 0.000000 0.500000 0.000000
O O9 0.250000 0.250000 0.500000
O O10 0.187351 0.483333 0.587495
O O11 0.722289 0.249358 0.750538
O O12 0.812633 0.493183 0.690594
O O13 0.338414 0.936619 0.286628
O O14 0.500000 0.973570 0.250000
#
# Coordination Sequence:
#
# PCOD8134311 Si02
#       6
#     8   8   8   8   8   8
#     4   9  20  39  57  80 113 154 190 236 284 343
#     4   9  19  38  58  79 116 158 186 229 299 353
#     4  11  22  36  57  89 117 145 194 244 293 343
#     4   9  20  36  59  84 110 152 192 236 285 348
#     4  10  19  37  59  83 114 151 192 236 287 349
#     4  10  19  35  60  83 107 151 192 224 286 349
#
# _framework density 18.273944
#
# number of rings (size 3 to 8) (size 9 to 14) (size 15 to 20)
#    0.000    2.333    1.667    0.500    0.000    4.667 
#    6.000    0.833    0.000    0.000    0.000    0.000 
#    0.000    0.000    0.000    0.000    0.000    0.000 
#
# Total GULP energy -297348.595384 kJ/mol
# GULP energy per Si atom -12389.524808 kJ/mol
# Density = 1.823235 g / cm^3
# Si number density = 18.273944 Si / 1000 Ang^3
#
#
#
# Elastic Constant Matrix: (Units=GPa)
#
#
# Indices 1 2 3 4 5 6 
#
# 1 86.2006 31.6573 56.2873 -0.0001 -9.4627 -0.0001
# 2 31.6573 95.9414 81.9825 -0.0001 -4.6895 -0.0001
# 3 56.2873 81.9825 154.2314 0.0000 -6.9022 0.0000
# 4 -0.0001 -0.0001 0.0000 -5.1637 0.0000 3.3853
# 5 -9.4627 -4.6895 -6.9022 0.0000 29.9933 0.0000
# 6 -0.0001 -0.0001 0.0000 3.3853 0.0000 24.6988
#
#
#
# Elastic Compliance Matrix: (Units=1/GPa)
#
#
# Indices 1 2 3 4 5 6 
#
# 1 0.015627 -0.000448 -0.005302 0.000000 0.003640 0.000000
# 2 -0.000448 0.019123 -0.009977 0.000000 0.000553 0.000000
# 3 -0.005302 -0.009977 0.013719 0.000000 -0.000076 0.000000
# 4 0.000000 0.000000 0.000000 -0.177691 0.000000 0.024355
# 5 0.003640 0.000553 -0.000076 0.000000 0.034558 0.000000
# 6 0.000000 0.000000 0.000000 0.024355 0.000000 0.037150
#
#
# Mechanical properties :
#
#
# Convention : Reuss Voigt Hill
#
# Bulk Modulus (GPa) = 58.77063 75.13640 66.95352
# Shear Modulus (GPa) = -245.23212 21.00209 -112.11501
#
# Velocity S-wave (km/s) = -11.59694 3.39380 -7.84127
# Velocity P-wave (km/s) = 12.12798 7.52084 6.72774
#
# Compressibility (1/GPa) = 0.01701530
#
# Stress axis : x y z
#
# Youngs Moduli (GPa) = 63.99116 52.29299 72.89303
#
# Poissons Ratio (x) = 0.02341 0.38651
# Poissons Ratio (y) = 0.02864 0.72724
# Poissons Ratio (z) = 0.33930 0.52172
#
# Static dielectric constant tensor:
#      x y z
#    x 3.606460 0.000000 -0.140130 
#    y 0.000000 3.135000 0.000000 
#    z -0.140130 0.000000 4.054720 
# 
# 
# High freq. dielectric constant tensor:
#      x y z
#    x 1.723070 0.000000 -0.001860 
#    y 0.000000 1.666980 0.000000 
#    z -0.001860 0.000000 1.729830 
# 
# From -- ./inp_files/279310.got.cif
#   From: 2010.06.25/outbox.cif.g09.slc.cpg/sg15_140_cif.got.tgz:279310.got - 2010.06.28 07:06:18.
