data_PCOD8134923
_publ_section_title
;
Structure prediction by ZEFSAII (Michael W. Deem and Ramdas Pophale) SiO2 
 PCOD8134923
Probable space group: C 2/C
;
_chemical_formula_sum "Si O2"
_cell_formula_units_Z 56
_cell_length_a 22.201130
_cell_length_b 22.317239
_cell_length_c 5.289306
_cell_angle_alpha 90.000000
_cell_angle_beta 92.505972
_cell_angle_gamma 90.000000
_cell_volume 2618.175228
_symmetry_space_group_name_H-M "C 2/C"
_symmetry_group_IT_number 15
_symmetry_cell_setting 'monoclinic'
loop_
_space_group_symop_operation_xyz
x,y,z
-x,y,1/2-z
-x,-y,-z
x,-y,1/2+z
1/2+x,1/2+y,z
1/2-x,1/2+y,1/2-z
1/2-x,1/2-y,-z
1/2+x,1/2-y,1/2+z
loop_
_atom_site_type_symbol
_atom_site_label
_atom_site_fract_x
_atom_site_fract_y
_atom_site_fract_z
Si Si1 0.650114 0.334222 0.317386
Si Si2 0.344397 0.783935 0.943289
Si Si3 0.287174 0.833934 0.421259
Si Si4 0.205532 0.530598 0.678772
Si Si5 0.021895 0.326817 0.502814
Si Si6 0.529123 0.305481 0.506668
Si Si7 0.847614 0.969406 0.247223
O O1 0.645004 0.287263 0.084273
O O2 0.715725 0.332565 0.457495
O O3 0.601001 0.316198 0.520726
O O4 0.636285 0.400017 0.207510
O O5 0.316110 0.808556 0.679543
O O6 0.301836 0.793838 0.177780
O O7 0.407198 0.817068 0.998486
O O8 0.311234 0.900413 0.369906
O O9 0.177800 0.492187 0.440214
O O10 0.276502 0.520426 0.714460
O O11 0.000000 0.363232 0.250000
O O12 0.982922 0.265416 0.495821
O O13 0.000000 0.362334 0.750000
O O14 0.500000 0.335131 0.250000
O O15 0.500000 0.335690 0.750000
O O16 0.875530 0.005649 0.489859
#
# Coordination Sequence:
#
# PCOD8134923 Si02
#       7
#     8   8   8   8   8   8   8
#     4  11  23  40  62  84 124 168 188 247 312 359
#     4  12  23  38  57  90 130 155 189 243 306 372
#     4  11  25  36  56  96 130 152 193 238 306 365
#     4   9  17  35  58  77 114 163 199 230 274 345
#     4  10  19  37  57  76 108 158 206 234 266 346
#     4  10  21  36  58  80 101 152 217 235 273 352
#     4   9  20  36  56  82 107 151 212 248 281 346
#
# _framework density 21.388943999999999
#
# number of rings (size 3 to 8) (size 9 to 14) (size 15 to 20)
#    0.000    1.714    2.857    2.571    2.000    6.857 
#    0.000    0.000    0.000    2.571    0.000    0.000 
#    0.000   40.000    0.000    0.000    0.000    0.000 
#
# Total GULP energy -347111.590574 kJ/mol
# GULP energy per Si atom -12396.842520 kJ/mol
# Density = 2.134026 g / cm^3
# Si number density = 21.388944 Si / 1000 Ang^3
#
#
#
# Elastic Constant Matrix: (Units=GPa)
#
#
# Indices 1 2 3 4 5 6 
#
# 1 84.4051 26.0750 42.2750 0.0000 -13.8534 0.0000
# 2 26.0750 88.0596 52.9340 0.0000 -6.9051 0.0000
# 3 42.2750 52.9340 202.0979 0.0000 -5.8348 0.0000
# 4 0.0000 0.0000 0.0000 15.3920 0.0000 -2.5523
# 5 -13.8534 -6.9051 -5.8348 0.0000 21.3900 0.0000
# 6 0.0000 0.0000 0.0000 -2.5523 0.0000 1.6003
#
#
#
# Elastic Compliance Matrix: (Units=1/GPa)
#
#
# Indices 1 2 3 4 5 6 
#
# 1 0.015122 -0.002450 -0.002279 0.000000 0.008381 0.000000
# 2 -0.002450 0.014127 -0.003126 0.000000 0.002121 0.000000
# 3 -0.002279 -0.003126 0.006221 0.000000 -0.000789 0.000000
# 4 0.000000 0.000000 0.000000 0.088329 0.000000 0.140879
# 5 0.008381 0.002121 -0.000789 0.000000 0.052648 0.000000
# 6 0.000000 0.000000 0.000000 0.140879 0.000000 0.849587
#
#
# Mechanical properties :
#
#
# Convention : Reuss Voigt Hill
#
# Bulk Modulus (GPa) = 50.61320 68.57006 59.59163
# Shear Modulus (GPa) = 4.76948 24.56169 14.66558
#
# Velocity S-wave (km/s) = 1.49490 3.39239 2.62136
# Velocity P-wave (km/s) = 5.16665 6.89004 6.08962
#
# Compressibility (1/GPa) = 0.01975769
#
# Stress axis : x y z
#
# Youngs Moduli (GPa) = 66.12949 70.78580 160.74501
#
# Poissons Ratio (x) = 0.17344 0.36641
# Poissons Ratio (y) = 0.16203 0.50256
# Poissons Ratio (z) = 0.15074 0.22131
#
# Static dielectric constant tensor:
#      x y z
#    x 3.693530 0.000000 -0.113310 
#    y 0.000000 3.654040 0.000000 
#    z -0.113310 0.000000 5.179670 
# 
# 
# High freq. dielectric constant tensor:
#      x y z
#    x 1.815100 0.000000 -0.003170 
#    y 0.000000 1.799170 0.000000 
#    z -0.003170 0.000000 1.861780 
# 
# From -- ./inp_files/13718.got.cif
#   From: 2010.06.25/outbox.cif.g09.slc.cpg/sg15_7_cif.got.tgz:13718.got - 2010.06.28 07:06:18.
