data_PCOD8134576
_publ_section_title
;
Structure prediction by ZEFSAII (Michael W. Deem and Ramdas Pophale) SiO2 
 PCOD8134576
Probable space group: C 2/C
;
_chemical_formula_sum "Si O2"
_cell_formula_units_Z 40
_cell_length_a 11.632933
_cell_length_b 11.977217
_cell_length_c 28.520643
_cell_angle_alpha 90.000000
_cell_angle_beta 149.715370
_cell_angle_gamma 90.000000
_cell_volume 2003.964276
_symmetry_space_group_name_H-M "C 2/C"
_symmetry_group_IT_number 15
_symmetry_cell_setting 'monoclinic'
loop_
_space_group_symop_operation_xyz
x,y,z
-x,y,1/2-z
-x,-y,-z
x,-y,1/2+z
1/2+x,1/2+y,z
1/2-x,1/2+y,1/2-z
1/2-x,1/2-y,-z
1/2+x,1/2-y,1/2+z
loop_
_atom_site_type_symbol
_atom_site_label
_atom_site_fract_x
_atom_site_fract_y
_atom_site_fract_z
Si Si1 0.485486 0.257431 0.900053
Si Si2 0.160071 0.435862 0.901320
Si Si3 0.234409 0.593399 0.742423
Si Si4 0.101070 0.993955 0.107213
Si Si5 0.126115 0.213345 0.839459
O O1 0.405127 0.204407 0.822247
O O2 0.406299 0.384990 0.871696
O O3 0.378517 0.189477 0.907468
O O4 0.750000 0.250000 0.000000
O O5 0.251522 0.503682 0.888208
O O6 0.132752 0.304013 0.883307
O O7 0.914147 0.487992 0.828493
O O8 0.343493 0.451650 0.007288
O O9 0.273204 0.588450 0.811967
O O10 0.487403 0.602626 0.807287
O O11 0.000000 0.268996 0.750000
#
# Coordination Sequence:
#
# PCOD8134576 Si02
#       5
#     8   8   8   8   8
#     4  10  19  38  60  81 110 155 193 231 290 350
#     4  10  19  36  58  82 114 146 197 240 281 346
#     4  11  19  33  59  83 113 147 189 241 283 341
#     4  10  21  35  59  87 107 150 198 237 284 344
#     4   9  20  35  56  82 113 151 193 234 289 341
#
# _framework density 19.960436999999999
#
# number of rings (size 3 to 8) (size 9 to 14) (size 15 to 20)
#    0.000    2.000    2.000    4.200    0.000    0.800 
#    0.000    1.000    0.000   14.400    0.000    0.000 
#    0.000    0.000    0.000    0.000    0.000    0.000 
#
# Total GULP energy -247789.854326 kJ/mol
# GULP energy per Si atom -12389.492716 kJ/mol
# Density = 1.991501 g / cm^3
# Si number density = 19.960437 Si / 1000 Ang^3
#
#
#
# Elastic Constant Matrix: (Units=GPa)
#
#
# Indices 1 2 3 4 5 6 
#
# 1 69.2310 39.4106 53.4228 0.0002 16.8698 0.0000
# 2 39.4106 60.8928 34.1433 -0.0001 -1.9992 0.0000
# 3 53.4228 34.1433 125.3007 -0.0008 5.0113 0.0001
# 4 0.0002 -0.0001 -0.0008 35.9239 0.0000 -4.5155
# 5 16.8698 -1.9992 5.0113 0.0000 46.5490 0.0000
# 6 0.0000 0.0000 0.0001 -4.5155 0.0000 36.8800
#
#
#
# Elastic Compliance Matrix: (Units=1/GPa)
#
#
# Indices 1 2 3 4 5 6 
#
# 1 0.034864 -0.017602 -0.009574 0.000000 -0.012360 0.000000
# 2 -0.017602 0.028363 -0.000530 0.000000 0.007654 0.000000
# 3 -0.009574 -0.000530 0.012121 0.000000 0.002142 0.000000
# 4 0.000000 0.000000 0.000000 0.028272 0.000000 0.003462
# 5 -0.012360 0.007654 0.002142 0.000000 0.026060 0.000000
# 6 0.000000 0.000000 0.000000 0.003462 0.000000 0.027539
#
#
# Mechanical properties :
#
#
# Convention : Reuss Voigt Hill
#
# Bulk Modulus (GPa) = 50.15865 56.59754 53.37810
# Shear Modulus (GPa) = 22.80212 32.43378 27.61795
#
# Velocity S-wave (km/s) = 3.38356 4.03538 3.72376
# Velocity P-wave (km/s) = 6.35989 7.08017 6.72967
#
# Compressibility (1/GPa) = 0.01993674
#
# Stress axis : x y z
#
# Youngs Moduli (GPa) = 28.68255 35.25699 82.49849
#
# Poissons Ratio (x) = 0.62060 0.78983
# Poissons Ratio (y) = 0.50488 0.04372
# Poissons Ratio (z) = 0.27460 0.01869
#
# Static dielectric constant tensor:
#      x y z
#    x 3.790690 0.000000 0.286990 
#    y 0.000000 3.423350 0.000000 
#    z 0.286990 0.000000 3.979680 
# 
# 
# High freq. dielectric constant tensor:
#      x y z
#    x 1.754560 0.000000 0.013940 
#    y 0.000000 1.743040 0.000000 
#    z 0.013940 0.000000 1.800810 
# 
# From -- ./inp_files/141806.got.cif
#   From: 2010.06.25/outbox.cif.g09.slc.cpg/sg15_71_cif.got.tgz:141806.got - 2010.06.28 07:06:18.
