data_PCOD8134129
_publ_section_title
;
Structure prediction by ZEFSAII (Michael W. Deem and Ramdas Pophale) SiO2 
 PCOD8134129
Probable space group: C 2/C
;
_chemical_formula_sum "Si O2"
_cell_formula_units_Z 56
_cell_length_a 23.135350
_cell_length_b 16.869824
_cell_length_c 15.725623
_cell_angle_alpha 90.000000
_cell_angle_beta 28.176378
_cell_angle_gamma 90.000000
_cell_volume 2898.069930
_symmetry_space_group_name_H-M "C 2/C"
_symmetry_group_IT_number 15
_symmetry_cell_setting 'monoclinic'
loop_
_space_group_symop_operation_xyz
x,y,z
-x,y,1/2-z
-x,-y,-z
x,-y,1/2+z
1/2+x,1/2+y,z
1/2-x,1/2+y,1/2-z
1/2-x,1/2-y,-z
1/2+x,1/2-y,1/2+z
loop_
_atom_site_type_symbol
_atom_site_label
_atom_site_fract_x
_atom_site_fract_y
_atom_site_fract_z
Si Si1 0.212237 0.526886 0.342804
Si Si2 0.940227 0.061180 0.515050
Si Si3 0.062137 0.363276 0.923826
Si Si4 0.567275 0.122411 0.076790
Si Si5 0.674610 0.631738 0.154124
Si Si6 0.307510 0.811839 0.323381
Si Si7 0.797604 0.206175 0.719500
O O1 0.122195 0.561792 0.390222
O O2 0.140184 0.460145 0.489171
O O3 0.257990 0.592004 0.352052
O O4 0.317156 0.485730 0.146587
O O5 0.896291 0.140446 0.622208
O O6 0.042344 0.087737 0.312867
O O7 0.000000 0.000000 0.500000
O O8 0.155406 0.290947 0.813338
O O9 0.040362 0.380680 0.853320
O O10 0.931861 0.352824 0.135849
O O11 0.500000 0.143487 0.250000
O O12 0.663301 0.193285 0.933518
O O13 0.654741 0.724850 0.194468
O O14 0.751735 0.628881 0.967177
O O15 0.210614 0.803765 0.372362
#
# Coordination Sequence:
#
# PCOD8134129 Si02
#       7
#     8   8   8   8   8   8   8
#     4  10  21  38  61  87 120 162 195 248 301 363
#     4   9  19  36  57  79 120 161 194 233 295 357
#     4  11  21  38  65  85 119 155 205 249 303 360
#     4  10  24  40  58  87 117 155 202 254 302 354
#     4  10  19  35  56  89 124 157 193 234 296 365
#     4  10  21  33  56  93 122 150 193 244 302 350
#     4  10  20  39  60  86 117 156 198 250 300 352
#
# _framework density 19.323205000000002
#
# number of rings (size 3 to 8) (size 9 to 14) (size 15 to 20)
#    0.000    2.000    2.857    0.429    2.000    1.143 
#    0.000    0.000    3.143    0.000    0.000    0.000 
#    0.000    0.000    0.000    0.000    0.000    0.000 
#
# Total GULP energy -346969.421821 kJ/mol
# GULP energy per Si atom -12391.765065 kJ/mol
# Density = 1.927922 g / cm^3
# Si number density = 19.323205 Si / 1000 Ang^3
#
#
#
# Elastic Constant Matrix: (Units=GPa)
#
#
# Indices 1 2 3 4 5 6 
#
# 1 85.1191 17.6379 60.3851 0.0000 7.2670 0.0000
# 2 17.6379 61.1395 34.7333 0.0000 1.4709 0.0000
# 3 60.3851 34.7333 110.0244 0.0000 8.9105 0.0000
# 4 0.0000 0.0000 0.0000 36.7597 0.0000 -7.2529
# 5 7.2670 1.4709 8.9105 0.0000 31.3902 0.0000
# 6 0.0000 0.0000 0.0000 -7.2529 0.0000 32.0437
#
#
#
# Elastic Compliance Matrix: (Units=1/GPa)
#
#
# Indices 1 2 3 4 5 6 
#
# 1 0.019320 0.000509 -0.010645 0.000000 -0.001475 0.000000
# 2 0.000509 0.019967 -0.006650 0.000000 0.000834 0.000000
# 3 -0.010645 -0.006650 0.017201 0.000000 -0.002107 0.000000
# 4 0.000000 0.000000 0.000000 0.028475 0.000000 0.006445
# 5 -0.001475 0.000834 -0.002107 0.000000 0.032757 0.000000
# 6 0.000000 0.000000 0.000000 0.006445 0.000000 0.032666
#
#
# Mechanical properties :
#
#
# Convention : Reuss Voigt Hill
#
# Bulk Modulus (GPa) = 43.63670 53.53284 48.58477
# Shear Modulus (GPa) = 26.09614 29.60716 27.85165
#
# Velocity S-wave (km/s) = 3.67891 3.91859 3.80064
# Velocity P-wave (km/s) = 6.37789 6.94535 6.66766
#
# Compressibility (1/GPa) = 0.02291649
#
# Stress axis : x y z
#
# Youngs Moduli (GPa) = 51.75878 50.08218 58.13514
#
# Poissons Ratio (x) = -0.02550 0.61885
# Poissons Ratio (y) = -0.02636 0.38662
# Poissons Ratio (z) = 0.55097 0.33307
#
# Static dielectric constant tensor:
#      x y z
#    x 3.561280 0.000000 -0.295060 
#    y 0.000000 3.660260 0.000000 
#    z -0.295060 0.000000 3.915190 
# 
# 
# High freq. dielectric constant tensor:
#      x y z
#    x 1.732490 0.000000 -0.022170 
#    y 0.000000 1.761960 0.000000 
#    z -0.022170 0.000000 1.757880 
# 
# From -- ./inp_files/119273.got.cif
#   From: 2010.06.25/outbox.cif.g09.slc.cpg/sg15_60_cif.got.tgz:119273.got - 2010.06.28 07:06:18.
