data_PCOD8134373
_publ_section_title
;
Structure prediction by ZEFSAII (Michael W. Deem and Ramdas Pophale) SiO2 
 PCOD8134373
Probable space group: C 2/C
;
_chemical_formula_sum "Si O2"
_cell_formula_units_Z 56
_cell_length_a 15.819558
_cell_length_b 11.571523
_cell_length_c 18.835724
_cell_angle_alpha 90.000000
_cell_angle_beta 131.172997
_cell_angle_gamma 90.000000
_cell_volume 2595.396272
_symmetry_space_group_name_H-M "C 2/C"
_symmetry_group_IT_number 15
_symmetry_cell_setting 'monoclinic'
loop_
_space_group_symop_operation_xyz
x,y,z
-x,y,1/2-z
-x,-y,-z
x,-y,1/2+z
1/2+x,1/2+y,z
1/2-x,1/2+y,1/2-z
1/2-x,1/2-y,-z
1/2+x,1/2-y,1/2+z
loop_
_atom_site_type_symbol
_atom_site_label
_atom_site_fract_x
_atom_site_fract_y
_atom_site_fract_z
Si Si1 0.085969 0.331241 0.525204
Si Si2 0.546155 0.572338 0.631245
Si Si3 0.500000 0.543580 0.250000
Si Si4 0.831419 0.761657 0.664218
Si Si5 0.000000 0.566486 0.750000
Si Si6 0.441926 0.005152 0.369022
Si Si7 0.770296 0.310219 0.280121
Si Si8 0.403959 0.646889 0.431725
O O1 0.204699 0.277166 0.567163
O O2 0.077768 0.369854 0.604479
O O3 0.054063 0.444794 0.462392
O O4 0.002879 0.228769 0.457763
O O5 0.513110 0.539641 0.691243
O O6 0.640147 0.672600 0.688536
O O7 0.432996 0.618356 0.529817
O O8 0.601780 0.469641 0.616795
O O9 0.607672 0.621415 0.324545
O O10 0.835305 0.750774 0.751315
O O11 0.895587 0.649280 0.667678
O O12 0.038937 0.485333 0.705688
O O13 0.329823 0.933011 0.327561
O O14 0.788341 0.220734 0.356726
#
# Coordination Sequence:
#
# PCOD8134373 Si02
#       8
#     8   8   4   8   4   8   8   8
#     4  10  19  37  60  86 117 164 209 241 298 378
#     4  11  22  39  64  93 129 164 206 259 313 362
#     4  11  22  38  59  96 130 158 201 268 321 350
#     4  10  19  35  62  86 120 163 201 256 309 347
#     4   9  20  36  51  92 126 146 197 258 313 342
#     4   9  20  34  57  89 122 156 200 256 302 363
#     4  10  19  38  64  89 122 169 212 246 300 378
#     4  10  22  39  63  92 121 167 219 248 294 395
#
# _framework density 21.576668000000002
#
# number of rings (size 3 to 8) (size 9 to 14) (size 15 to 20)
#    0.000    2.000    2.857    0.857    2.000    0.571 
#    0.000    1.429    0.000    0.000    0.000    0.000 
#    0.000    0.000    0.000    0.000    0.000    0.000 
#
# Total GULP energy -347034.654250 kJ/mol
# GULP energy per Si atom -12394.094795 kJ/mol
# Density = 2.152756 g / cm^3
# Si number density = 21.576668 Si / 1000 Ang^3
#
#
#
# Elastic Constant Matrix: (Units=GPa)
#
#
# Indices 1 2 3 4 5 6 
#
# 1 65.1654 18.0766 18.8675 0.0000 -5.6119 0.0000
# 2 18.0766 61.7513 26.8143 0.0000 4.7681 0.0000
# 3 18.8675 26.8143 90.5749 0.0000 2.3694 0.0000
# 4 0.0000 0.0000 0.0000 29.6363 0.0000 1.9897
# 5 -5.6119 4.7681 2.3694 0.0000 34.4315 0.0000
# 6 0.0000 0.0000 0.0000 1.9897 0.0000 16.3386
#
#
#
# Elastic Compliance Matrix: (Units=1/GPa)
#
#
# Indices 1 2 3 4 5 6 
#
# 1 0.017582 -0.004356 -0.002468 0.000000 0.003639 0.000000
# 2 -0.004356 0.019830 -0.004881 0.000000 -0.003120 0.000000
# 3 -0.002468 -0.004881 0.013016 0.000000 -0.000622 0.000000
# 4 0.000000 0.000000 0.000000 0.034021 0.000000 -0.004143
# 5 0.003639 -0.003120 -0.000622 0.000000 0.030111 0.000000
# 6 0.000000 0.000000 0.000000 -0.004143 0.000000 0.061709
#
#
# Mechanical properties :
#
#
# Convention : Reuss Voigt Hill
#
# Bulk Modulus (GPa) = 37.01431 38.33426 37.67428
# Shear Modulus (GPa) = 23.95950 26.33014 25.14482
#
# Velocity S-wave (km/s) = 3.33593 3.49708 3.41746
# Velocity P-wave (km/s) = 5.65950 5.84048 5.75070
#
# Compressibility (1/GPa) = 0.02701658
#
# Stress axis : x y z
#
# Youngs Moduli (GPa) = 56.87688 50.42926 76.82777
#
# Poissons Ratio (x) = 0.21967 0.18962
# Poissons Ratio (y) = 0.24776 0.37503
# Poissons Ratio (z) = 0.14038 0.24617
#
# Static dielectric constant tensor:
#      x y z
#    x 3.557020 0.000000 0.044710 
#    y 0.000000 3.862240 0.000000 
#    z 0.044710 0.000000 4.127320 
# 
# 
# High freq. dielectric constant tensor:
#      x y z
#    x 1.801670 0.000000 0.005180 
#    y 0.000000 1.843800 0.000000 
#    z 0.005180 0.000000 1.861660 
# 
# From -- ./inp_files/160866.got.cif
#   From: 2010.06.25/outbox.cif.g09.slc.cpg/sg15_81_cif.got.tgz:160866.got - 2010.06.28 07:06:18.
