data_PCOD8134153
_publ_section_title
;
Structure prediction by ZEFSAII (Michael W. Deem and Ramdas Pophale) SiO2 
 PCOD8134153
Probable space group: C 2/C
;
_chemical_formula_sum "Si O2"
_cell_formula_units_Z 60
_cell_length_a 22.093755
_cell_length_b 30.422127
_cell_length_c 4.951280
_cell_angle_alpha 90.000000
_cell_angle_beta 70.863492
_cell_angle_gamma 90.000000
_cell_volume 3144.046795
_symmetry_space_group_name_H-M "C 2/C"
_symmetry_group_IT_number 15
_symmetry_cell_setting 'monoclinic'
loop_
_space_group_symop_operation_xyz
x,y,z
-x,y,1/2-z
-x,-y,-z
x,-y,1/2+z
1/2+x,1/2+y,z
1/2-x,1/2+y,1/2-z
1/2-x,1/2-y,-z
1/2+x,1/2-y,1/2+z
loop_
_atom_site_type_symbol
_atom_site_label
_atom_site_fract_x
_atom_site_fract_y
_atom_site_fract_z
Si Si1 0.000000 0.967739 0.250000
Si Si2 0.296028 0.970159 0.109520
Si Si3 0.044199 0.188542 0.435279
Si Si4 0.694801 0.398219 0.320352
Si Si5 0.736569 0.304453 0.219059
Si Si6 0.935502 0.529230 0.425707
Si Si7 0.610297 0.400006 0.939553
Si Si8 0.328651 0.266211 0.685440
O O1 0.938441 0.937329 0.389575
O O2 0.000000 0.000000 0.500000
O O3 0.242080 0.934513 0.131719
O O4 0.287703 0.989227 0.420335
O O5 0.366794 0.947374 0.972821
O O6 0.078706 0.141781 0.334651
O O7 0.094782 0.227069 0.432348
O O8 0.000000 0.202446 0.250000
O O9 0.000000 0.180243 0.750000
O O10 0.736520 0.354632 0.321509
O O11 0.660003 0.417388 0.639343
O O12 0.644911 0.384928 0.161330
O O13 0.691554 0.275418 0.478045
O O14 0.808543 0.283702 0.130864
O O15 0.707965 0.300256 0.959502
O O16 0.938486 0.514420 0.731841
O O17 0.000000 0.557534 0.250000
#
# Coordination Sequence:
#
# PCOD8134153 Si02
#       8
#     4   8   8   8   8   8   8   8
#     4  12  28  44  56  74 108 158 202 252 308 350
#     4  10  21  34  51  79 110 143 186 230 276 333
#     4  12  22  36  60  84 113 144 186 239 288 324
#     4  12  22  37  59  82 113 147 186 239 298 337
#     4  10  19  35  57  82 112 138 175 225 277 345
#     4   8  14  27  47  70  97 127 163 210 253 301
#     4  12  25  39  58  80 106 144 202 249 285 346
#     4  10  20  35  56  85 110 138 176 224 283 340
#
# _framework density 19.083686
#
# number of rings (size 3 to 8) (size 9 to 14) (size 15 to 20)
#    0.000    1.333    3.333    3.200    0.933    3.200 
#    0.000    0.000    0.000    0.800    0.000    7.467 
#    0.000    0.000    0.000    0.000    0.000    0.000 
#
# Total GULP energy -371775.280763 kJ/mol
# GULP energy per Si atom -12392.509359 kJ/mol
# Density = 1.904025 g / cm^3
# Si number density = 19.083686 Si / 1000 Ang^3
#
#
#
# Elastic Constant Matrix: (Units=GPa)
#
#
# Indices 1 2 3 4 5 6 
#
# 1 109.3045 47.9478 30.5485 0.0000 -7.7622 0.0000
# 2 47.9478 79.9055 24.4111 0.0000 -17.6526 0.0000
# 3 30.5485 24.4111 89.3889 0.0000 -2.3733 0.0000
# 4 0.0000 0.0000 0.0000 26.4691 0.0000 -5.5064
# 5 -7.7622 -17.6526 -2.3733 0.0000 38.6040 0.0000
# 6 0.0000 0.0000 0.0000 -5.5064 0.0000 26.2564
#
#
#
# Elastic Compliance Matrix: (Units=1/GPa)
#
#
# Indices 1 2 3 4 5 6 
#
# 1 0.012936 -0.007190 -0.002480 0.000000 -0.000839 0.000000
# 2 -0.007190 0.019209 -0.002598 0.000000 0.007178 0.000000
# 3 -0.002480 -0.002598 0.012720 0.000000 -0.000905 0.000000
# 4 0.000000 0.000000 0.000000 0.039503 0.000000 0.008284
# 5 -0.000839 0.007178 -0.000905 0.000000 0.028962 0.000000
# 6 0.000000 0.000000 0.000000 0.008284 0.000000 0.039823
#
#
# Mechanical properties :
#
#
# Convention : Reuss Voigt Hill
#
# Bulk Modulus (GPa) = 49.18998 53.82376 51.50687
# Shear Modulus (GPa) = 27.10527 29.97868 28.54198
#
# Velocity S-wave (km/s) = 3.77282 3.96777 3.87152
# Velocity P-wave (km/s) = 6.69409 7.01827 6.85810
#
# Compressibility (1/GPa) = 0.02032934
#
# Stress axis : x y z
#
# Youngs Moduli (GPa) = 77.30162 52.05924 78.61698
#
# Poissons Ratio (x) = 0.37433 0.19494
# Poissons Ratio (y) = 0.55583 0.20423
# Poissons Ratio (z) = 0.19168 0.13524
#
# Static dielectric constant tensor:
#      x y z
#    x 3.727670 0.000000 -0.177060 
#    y 0.000000 3.437660 0.000000 
#    z -0.177060 0.000000 3.699400 
# 
# 
# High freq. dielectric constant tensor:
#      x y z
#    x 1.750230 0.000000 0.004870 
#    y 0.000000 1.691000 0.000000 
#    z 0.004870 0.000000 1.766020 
# 
# From -- ./inp_files/14637.got.cif
#   From: 2010.06.25/outbox.cif.g09.slc.cpg/sg15_8_cif.got.tgz:14637.got - 2010.06.28 07:06:18.
