data_PCOD8134430
_publ_section_title
;
Structure prediction by ZEFSAII (Michael W. Deem and Ramdas Pophale) SiO2 
 PCOD8134430
Probable space group: C 2/C
;
_chemical_formula_sum "Si O2"
_cell_formula_units_Z 32
_cell_length_a 20.743675
_cell_length_b 11.842791
_cell_length_c 14.339866
_cell_angle_alpha 90.000000
_cell_angle_beta 22.907412
_cell_angle_gamma 90.000000
_cell_volume 1371.215762
_symmetry_space_group_name_H-M "C 2/C"
_symmetry_group_IT_number 15
_symmetry_cell_setting 'monoclinic'
loop_
_space_group_symop_operation_xyz
x,y,z
-x,y,1/2-z
-x,-y,-z
x,-y,1/2+z
1/2+x,1/2+y,z
1/2-x,1/2+y,1/2-z
1/2-x,1/2-y,-z
1/2+x,1/2-y,1/2+z
loop_
_atom_site_type_symbol
_atom_site_label
_atom_site_fract_x
_atom_site_fract_y
_atom_site_fract_z
Si Si1 0.145088 0.136722 0.132689
Si Si2 0.523310 0.724538 0.982628
Si Si3 0.885240 0.666375 0.483459
Si Si4 0.975078 0.549980 0.633678
O O1 0.280945 0.041664 0.924060
O O2 0.000000 0.138628 0.250000
O O3 0.063484 0.120712 0.345073
O O4 0.250000 0.250000 0.000000
O O5 0.695557 0.685387 0.709227
O O6 0.413435 0.771702 0.044642
O O7 0.544469 0.821891 0.035331
O O8 0.919325 0.531340 0.439674
O O9 0.000000 0.721380 0.250000
O O10 0.000000 0.500000 0.500000
#
# Coordination Sequence:
#
# PCOD8134430 Si02
#       4
#     8   8   8   8
#     4  10  19  35  64  95 121 155 197 252 310 364
#     4  10  21  40  62  89 120 157 205 254 306 373
#     4  11  23  41  61  87 123 165 206 258 313 364
#     4   9  20  38  60  89 123 155 197 252 307 369
#
# _framework density 23.336953999999999
#
# number of rings (size 3 to 8) (size 9 to 14) (size 15 to 20)
#    0.000    2.000    0.000    5.250    0.000    6.000 
#    0.000   20.000    0.000    0.000    0.000    0.000 
#    0.000    0.000    0.000    0.000    0.000    0.000 
#
# Total GULP energy -198208.903165 kJ/mol
# GULP energy per Si atom -12388.056448 kJ/mol
# Density = 2.328384 g / cm^3
# Si number density = 23.336954 Si / 1000 Ang^3
#
#
#
# Elastic Constant Matrix: (Units=GPa)
#
#
# Indices 1 2 3 4 5 6 
#
# 1 41.5767 14.4519 9.0794 0.0000 10.8565 0.0000
# 2 14.4519 42.5444 33.8679 -0.0001 -5.5316 0.0000
# 3 9.0794 33.8679 189.0767 -0.0001 14.6695 0.0000
# 4 0.0000 -0.0001 -0.0001 44.9945 0.0001 -0.1974
# 5 10.8565 -5.5316 14.6695 0.0001 50.6924 0.0000
# 6 0.0000 0.0000 0.0000 -0.1974 0.0000 13.3779
#
#
#
# Elastic Compliance Matrix: (Units=1/GPa)
#
#
# Indices 1 2 3 4 5 6 
#
# 1 0.030231 -0.012474 0.001423 0.000000 -0.008247 0.000000
# 2 -0.012474 0.033609 -0.006049 0.000000 0.008089 0.000000
# 3 0.001423 -0.006049 0.006525 0.000000 -0.002853 0.000000
# 4 0.000000 0.000000 0.000000 0.022226 0.000000 0.000328
# 5 -0.008247 0.008089 -0.002853 0.000000 0.023201 0.000000
# 6 0.000000 0.000000 0.000000 0.000328 0.000000 0.074755
#
#
# Mechanical properties :
#
#
# Convention : Reuss Voigt Hill
#
# Bulk Modulus (GPa) = 27.65102 43.11069 35.38086
# Shear Modulus (GPa) = 21.11463 36.19955 28.65709
#
# Velocity S-wave (km/s) = 3.01121 3.94276 3.50804
# Velocity P-wave (km/s) = 4.89532 6.26422 5.62159
#
# Compressibility (1/GPa) = 0.03616503
#
# Stress axis : x y z
#
# Youngs Moduli (GPa) = 33.07902 29.75392 153.24809
#
# Poissons Ratio (x) = 0.37114 -0.21800
# Poissons Ratio (y) = 0.41262 0.92696
# Poissons Ratio (z) = -0.04706 0.17997
#
# Static dielectric constant tensor:
#      x y z
#    x 4.094860 0.000000 0.264620 
#    y 0.000000 4.728750 0.000000 
#    z 0.264620 0.000000 5.035400 
# 
# 
# High freq. dielectric constant tensor:
#      x y z
#    x 1.909540 0.000000 0.018000 
#    y 0.000000 1.886500 0.000000 
#    z 0.018000 0.000000 1.954290 
# 
# From -- ./inp_files/105095.got.cif
#   From: 2010.06.25/outbox.cif.g09.slc.cpg/sg15_53_cif.got.tgz:105095.got - 2010.06.28 07:06:18.
