data_PCOD8134575
_publ_section_title
;
Structure prediction by ZEFSAII (Michael W. Deem and Ramdas Pophale) SiO2 
 PCOD8134575
Probable space group: C 2/C
;
_chemical_formula_sum "Si O2"
_cell_formula_units_Z 48
_cell_length_a 20.564621
_cell_length_b 18.406894
_cell_length_c 16.130202
_cell_angle_alpha 90.000000
_cell_angle_beta 22.313774
_cell_angle_gamma 90.000000
_cell_volume 2318.233158
_symmetry_space_group_name_H-M "C 2/C"
_symmetry_group_IT_number 15
_symmetry_cell_setting 'monoclinic'
loop_
_space_group_symop_operation_xyz
x,y,z
-x,y,1/2-z
-x,-y,-z
x,-y,1/2+z
1/2+x,1/2+y,z
1/2-x,1/2+y,1/2-z
1/2-x,1/2-y,-z
1/2+x,1/2-y,1/2+z
loop_
_atom_site_type_symbol
_atom_site_label
_atom_site_fract_x
_atom_site_fract_y
_atom_site_fract_z
Si Si1 0.958680 0.200804 0.702912
Si Si2 0.814506 0.927611 0.933323
Si Si3 0.187290 0.417152 0.561368
Si Si4 0.255248 0.794498 0.579495
Si Si5 0.057096 0.333423 0.338809
Si Si6 0.677757 0.160450 0.233798
O O1 0.886248 0.271281 0.743870
O O2 0.000000 0.219269 0.750000
O O3 0.134206 0.176669 0.450663
O O4 0.821072 0.136029 0.857919
O O5 0.690431 0.894707 0.151211
O O6 0.734758 0.999696 0.987497
O O7 0.835739 0.871375 0.831775
O O8 0.000000 0.946134 0.750000
O O9 0.191592 0.407576 0.655678
O O10 0.000000 0.398580 0.750000
O O11 0.250000 0.750000 0.500000
O O12 0.442328 0.809852 0.395354
O O13 0.149907 0.740188 0.764253
O O14 0.944134 0.363559 0.547305
#
# Coordination Sequence:
#
# PCOD8134575 Si02
#       6
#     8   8   8   8   8   8
#     4  10  20  36  58  85 114 151 193 228 272 337
#     4  11  22  39  60  82 111 150 195 235 277 338
#     4  11  22  39  61  82 111 152 193 231 277 340
#     4  10  19  36  58  82 111 148 192 228 272 334
#     4  11  22  36  59  88 117 148 184 238 290 329
#     4  11  21  36  59  87 119 146 184 237 286 333
#
# _framework density 20.705423
#
# number of rings (size 3 to 8) (size 9 to 14) (size 15 to 20)
#    0.000    1.333    0.000   11.000    0.000    0.667 
#    0.000    1.667    0.000    7.000    0.000    0.000 
#    0.000    0.000    0.000    0.000    0.000    0.000 
#
# Total GULP energy -297524.200645 kJ/mol
# GULP energy per Si atom -12396.841694 kJ/mol
# Density = 2.065830 g / cm^3
# Si number density = 20.705423 Si / 1000 Ang^3
#
#
#
# Elastic Constant Matrix: (Units=GPa)
#
#
# Indices 1 2 3 4 5 6 
#
# 1 42.5041 10.4362 21.3922 -0.0071 -9.4558 0.0054
# 2 10.4362 82.2589 6.5336 0.0009 -11.0068 0.0019
# 3 21.3922 6.5336 116.0400 -0.0268 -15.8111 0.0331
# 4 -0.0071 0.0009 -0.0268 29.5485 0.0209 -9.7766
# 5 -9.4558 -11.0068 -15.8111 0.0209 41.2005 -0.0116
# 6 0.0054 0.0019 0.0331 -9.7766 -0.0116 21.4912
#
#
#
# Elastic Compliance Matrix: (Units=1/GPa)
#
#
# Indices 1 2 3 4 5 6 
#
# 1 0.027212 -0.002587 -0.004341 0.000001 0.003888 0.000002
# 2 -0.002587 0.012861 0.000148 -0.000003 0.002899 -0.000001
# 3 -0.004341 0.000148 0.009791 0.000002 0.002801 -0.000012
# 4 0.000001 -0.000003 0.000002 0.039839 -0.000015 0.018123
# 5 0.003888 0.002899 0.002801 -0.000015 0.027013 0.000002
# 6 0.000002 -0.000001 -0.000012 0.018123 0.000002 0.054775
#
#
# Mechanical properties :
#
#
# Convention : Reuss Voigt Hill
#
# Bulk Modulus (GPa) = 27.54566 35.28079 31.41322
# Shear Modulus (GPa) = 25.36077 31.94408 28.65243
#
# Velocity S-wave (km/s) = 3.50356 3.93210 3.72400
# Velocity P-wave (km/s) = 5.44969 6.13934 5.80477
#
# Compressibility (1/GPa) = 0.03630336
#
# Stress axis : x y z
#
# Youngs Moduli (GPa) = 36.74802 77.75366 102.13132
#
# Poissons Ratio (x) = 0.20118 0.44337
# Poissons Ratio (y) = 0.09508 -0.01510
# Poissons Ratio (z) = 0.15953 -0.01149
#
# Static dielectric constant tensor:
#      x y z
#    x 3.531440 -0.000040 -0.085730 
#    y -0.000040 3.844350 0.000130 
#    z -0.085730 0.000130 4.349030 
# 
# 
# High freq. dielectric constant tensor:
#      x y z
#    x 1.788000 0.000000 -0.018150 
#    y 0.000000 1.807710 0.000010 
#    z -0.018150 0.000010 1.828290 
# 
# From -- ./inp_files/216533.got.cif
#   From: 2010.06.25/outbox.cif.g09.slc.cpg/sg15_109_cif.got.tgz:216533.got - 2010.06.28 07:06:18.
