data_PCOD8134429
_publ_section_title
;
Structure prediction by ZEFSAII (Michael W. Deem and Ramdas Pophale) SiO2 
 PCOD8134429
Probable space group: C 2/C
;
_chemical_formula_sum "Si O2"
_cell_formula_units_Z 64
_cell_length_a 13.251091
_cell_length_b 18.396721
_cell_length_c 17.756507
_cell_angle_alpha 90.000000
_cell_angle_beta 46.012733
_cell_angle_gamma 90.000000
_cell_volume 3114.417762
_symmetry_space_group_name_H-M "C 2/C"
_symmetry_group_IT_number 15
_symmetry_cell_setting 'monoclinic'
loop_
_space_group_symop_operation_xyz
x,y,z
-x,y,1/2-z
-x,-y,-z
x,-y,1/2+z
1/2+x,1/2+y,z
1/2-x,1/2+y,1/2-z
1/2-x,1/2-y,-z
1/2+x,1/2-y,1/2+z
loop_
_atom_site_type_symbol
_atom_site_label
_atom_site_fract_x
_atom_site_fract_y
_atom_site_fract_z
Si Si1 0.294321 0.044242 0.000863
Si Si2 0.072171 0.598192 0.132839
Si Si3 0.481674 0.512401 0.923120
Si Si4 0.134416 0.161899 0.487122
Si Si5 0.357522 0.296320 0.686471
Si Si6 0.860872 0.060830 0.275358
Si Si7 0.070186 0.285679 0.885819
Si Si8 0.879757 0.704308 0.963963
O O1 0.365553 0.121212 0.943518
O O2 0.391066 0.979225 0.922164
O O3 0.271342 0.039392 0.103626
O O4 0.143629 0.040626 0.038398
O O5 0.203090 0.652708 0.076159
O O6 0.000000 0.583626 0.250000
O O7 0.966098 0.635267 0.129209
O O8 0.625476 0.492466 0.804249
O O9 0.500000 0.500000 0.000000
O O10 0.447655 0.596756 0.929419
O O11 0.115435 0.163128 0.406683
O O12 0.065038 0.234481 0.557048
O O13 0.351235 0.355721 0.755789
O O14 0.205563 0.256254 0.768584
O O15 0.476937 0.237652 0.643742
O O16 0.000000 0.047378 0.250000
O O17 0.112765 0.291672 0.950249
O O18 0.750000 0.750000 0.000000
#
# Coordination Sequence:
#
# PCOD8134429 Si02
#       8
#     8   8   8   8   8   8   8   8
#     4  10  23  41  64  96 131 175 215 274 337 386
#     4  11  23  46  68  92 132 175 225 273 334 395
#     4  10  19  35  64  94 129 173 219 270 322 399
#     4  10  22  41  64  97 125 169 227 273 322 390
#     4  11  21  39  65  95 128 175 215 258 340 389
#     4  10  19  37  61  90 130 173 210 258 327 394
#     4  11  24  42  67  93 127 179 217 271 332 389
#     4  11  24  42  66  97 136 168 218 272 328 410
#
# _framework density 20.549586000000001
#
# number of rings (size 3 to 8) (size 9 to 14) (size 15 to 20)
#    0.000    1.500    3.750    1.875    1.750    0.500 
#    6.750    1.875    0.000    0.000    0.000    0.000 
#    0.000    0.000    0.000    0.000    0.000    0.000 
#
# Total GULP energy -396692.984337 kJ/mol
# GULP energy per Si atom -12396.655761 kJ/mol
# Density = 2.050281 g / cm^3
# Si number density = 20.549586 Si / 1000 Ang^3
#
#
#
# Elastic Constant Matrix: (Units=GPa)
#
#
# Indices 1 2 3 4 5 6 
#
# 1 84.4499 54.7458 49.7281 0.0000 1.2430 -0.0001
# 2 54.7458 132.2374 80.2257 -0.0001 -5.6992 0.0000
# 3 49.7281 80.2257 156.8295 -0.0003 -4.7963 0.0000
# 4 0.0000 -0.0001 -0.0003 31.7478 0.0001 1.5987
# 5 1.2430 -5.6992 -4.7963 0.0001 35.1736 0.0001
# 6 -0.0001 0.0000 0.0000 1.5987 0.0001 31.5370
#
#
#
# Elastic Compliance Matrix: (Units=1/GPa)
#
#
# Indices 1 2 3 4 5 6 
#
# 1 0.016993 -0.005527 -0.002618 0.000000 -0.001853 0.000000
# 2 -0.005527 0.012799 -0.004745 0.000000 0.001622 0.000000
# 3 -0.002618 -0.004745 0.009653 0.000000 0.000640 0.000000
# 4 0.000000 0.000000 0.000000 0.031579 0.000000 -0.001601
# 5 -0.001853 0.001622 0.000640 0.000000 0.028846 0.000000
# 6 0.000000 0.000000 0.000000 -0.001601 0.000000 0.031790
#
#
# Mechanical properties :
#
#
# Convention : Reuss Voigt Hill
#
# Bulk Modulus (GPa) = 73.17488 82.54624 77.86056
# Shear Modulus (GPa) = 30.86529 32.27949 31.57239
#
# Velocity S-wave (km/s) = 3.87976 3.96764 3.92395
# Velocity P-wave (km/s) = 7.46701 7.82599 7.64861
#
# Compressibility (1/GPa) = 0.01366589
#
# Stress axis : x y z
#
# Youngs Moduli (GPa) = 58.84855 78.13139 103.59123
#
# Poissons Ratio (x) = 0.43181 0.27116
# Poissons Ratio (y) = 0.32524 0.49156
# Poissons Ratio (z) = 0.15404 0.37075
#
# Static dielectric constant tensor:
#      x y z
#    x 3.728610 0.000000 -0.024880 
#    y 0.000000 4.073990 0.000000 
#    z -0.024880 0.000000 4.374390 
# 
# 
# High freq. dielectric constant tensor:
#      x y z
#    x 1.803480 0.000000 0.001420 
#    y 0.000000 1.795650 0.000000 
#    z 0.001420 0.000000 1.810510 
# 
# From -- ./inp_files/206429.got.cif
#   From: 2010.06.25/outbox.cif.g09.slc.cpg/sg15_104_cif.got.tgz:206429.got - 2010.06.28 07:06:18.
