data_PCOD8134102
_publ_section_title
;
Structure prediction by ZEFSAII (Michael W. Deem and Ramdas Pophale) SiO2 
 PCOD8134102
Probable space group: C 2/C
;
_chemical_formula_sum "Si O2"
_cell_formula_units_Z 40
_cell_length_a 11.910330
_cell_length_b 14.907744
_cell_length_c 17.150392
_cell_angle_alpha 90.000000
_cell_angle_beta 35.567215
_cell_angle_gamma 90.000000
_cell_volume 1771.239094
_symmetry_space_group_name_H-M "C 2/C"
_symmetry_group_IT_number 15
_symmetry_cell_setting 'monoclinic'
loop_
_space_group_symop_operation_xyz
x,y,z
-x,y,1/2-z
-x,-y,-z
x,-y,1/2+z
1/2+x,1/2+y,z
1/2-x,1/2+y,1/2-z
1/2-x,1/2-y,-z
1/2+x,1/2-y,1/2+z
loop_
_atom_site_type_symbol
_atom_site_label
_atom_site_fract_x
_atom_site_fract_y
_atom_site_fract_z
Si Si1 0.694205 0.462089 0.097677
Si Si2 0.038408 0.849212 0.057714
Si Si3 0.271347 0.204461 0.653601
Si Si4 0.281542 0.824424 0.372648
Si Si5 0.341337 0.849280 0.506926
O O1 0.500000 0.491649 0.250000
O O2 0.647789 0.434690 0.033397
O O3 0.793354 0.377378 0.081530
O O4 0.838945 0.545244 0.026876
O O5 0.939721 0.792302 0.185841
O O6 0.858930 0.881109 0.104672
O O7 0.189140 0.793050 0.920298
O O8 0.435298 0.185837 0.627305
O O9 0.500000 0.860092 0.250000
O O10 0.214744 0.837839 0.499934
O O11 0.254499 0.716097 0.372369
#
# Coordination Sequence:
#
# PCOD8134102 Si02
#       5
#     8   8   8   8   8
#     4  10  21  37  56  84 118 149 186 236 286 340
#     4  10  21  37  60  85 114 151 190 233 283 339
#     4  10  20  38  61  84 114 151 192 231 283 342
#     4  10  19  35  56  80 109 148 192 237 279 335
#     4  10  20  34  58  81 110 148 195 231 283 335
#
# _framework density 22.58306
#
# number of rings (size 3 to 8) (size 9 to 14) (size 15 to 20)
#    0.000    2.000    2.000    1.800    0.000    0.800 
#    0.000    2.000    0.000    0.000    0.000    0.000 
#    0.000    0.000    0.000    0.000    0.000    0.000 
#
# Total GULP energy -247773.085852 kJ/mol
# GULP energy per Si atom -12388.654293 kJ/mol
# Density = 2.253166 g / cm^3
# Si number density = 22.583060 Si / 1000 Ang^3
#
#
#
# Elastic Constant Matrix: (Units=GPa)
#
#
# Indices 1 2 3 4 5 6 
#
# 1 86.2550 12.3403 -20.5867 -0.0025 8.6530 -0.0002
# 2 12.3403 48.5969 -9.8702 -0.0033 -1.2819 0.0001
# 3 -20.5867 -9.8702 42.9699 -0.0073 -1.7232 -0.0015
# 4 -0.0025 -0.0033 -0.0073 17.2495 0.0008 -1.8246
# 5 8.6530 -1.2819 -1.7232 0.0008 28.3119 0.0007
# 6 -0.0002 0.0001 -0.0015 -1.8246 0.0007 28.8621
#
#
#
# Elastic Compliance Matrix: (Units=1/GPa)
#
#
# Indices 1 2 3 4 5 6 
#
# 1 0.013734 -0.002399 0.005870 0.000004 -0.003949 0.000001
# 2 -0.002399 0.022050 0.003995 0.000006 0.001975 0.000000
# 3 0.005870 0.003995 0.027003 0.000013 0.000030 0.000002
# 4 0.000004 0.000006 0.000013 0.058363 -0.000002 0.003690
# 5 -0.003949 0.001975 0.000030 -0.000002 0.036619 -0.000001
# 6 0.000001 0.000000 0.000002 0.003690 -0.000001 0.034881
#
#
# Mechanical properties :
#
#
# Convention : Reuss Voigt Hill
#
# Bulk Modulus (GPa) = 12.86692 15.73210 14.29951
# Shear Modulus (GPa) = 24.55491 27.94725 26.25108
#
# Velocity S-wave (km/s) = 3.30102 3.52167 3.41313
# Velocity P-wave (km/s) = 4.49878 4.84950 4.67743
#
# Compressibility (1/GPa) = 0.07771869
#
# Stress axis : x y z
#
# Youngs Moduli (GPa) = 72.81172 45.35121 37.03246
#
# Poissons Ratio (x) = 0.10882 -0.21740
# Poissons Ratio (y) = 0.17470 -0.14793
# Poissons Ratio (z) = -0.42744 -0.18116
#
# Static dielectric constant tensor:
#      x y z
#    x 4.382030 0.000000 0.110210 
#    y 0.000000 3.745540 0.000010 
#    z 0.110210 0.000010 3.760640 
# 
# 
# High freq. dielectric constant tensor:
#      x y z
#    x 1.913570 0.000000 0.001160 
#    y 0.000000 1.853550 0.000000 
#    z 0.001160 0.000000 1.867640 
# 
# From -- ./inp_files/85507.got.cif
#   From: 2010.06.25/outbox.cif.g09.slc.cpg/sg15_43_cif.got.tgz:85507.got - 2010.06.28 07:06:18.
