data_PCOD8134150
_publ_section_title
;
Structure prediction by ZEFSAII (Michael W. Deem and Ramdas Pophale) SiO2 
 PCOD8134150
Probable space group: C 2/C
;
_chemical_formula_sum "Si O2"
_cell_formula_units_Z 56
_cell_length_a 18.462227
_cell_length_b 12.828939
_cell_length_c 13.988333
_cell_angle_alpha 90.000000
_cell_angle_beta 119.566299
_cell_angle_gamma 90.000000
_cell_volume 2881.727153
_symmetry_space_group_name_H-M "C 2/C"
_symmetry_group_IT_number 15
_symmetry_cell_setting 'monoclinic'
loop_
_space_group_symop_operation_xyz
x,y,z
-x,y,1/2-z
-x,-y,-z
x,-y,1/2+z
1/2+x,1/2+y,z
1/2-x,1/2+y,1/2-z
1/2-x,1/2-y,-z
1/2+x,1/2-y,1/2+z
loop_
_atom_site_type_symbol
_atom_site_label
_atom_site_fract_x
_atom_site_fract_y
_atom_site_fract_z
Si Si1 0.894072 0.483127 0.360001
Si Si2 0.269263 0.868693 0.991066
Si Si3 0.216311 0.005013 0.276011
Si Si4 0.938569 0.466755 0.098116
Si Si5 0.800033 0.943380 0.941487
Si Si6 0.407021 0.373669 0.178505
Si Si7 0.623122 0.862669 0.806144
O O1 0.799139 0.438689 0.296071
O O2 0.924236 0.480241 0.486976
O O3 0.885419 0.600304 0.309878
O O4 0.965019 0.422042 0.341524
O O5 0.244218 0.902876 0.866955
O O6 0.250000 0.750000 0.000000
O O7 0.369004 0.879582 0.072671
O O8 0.219301 0.940344 0.033090
O O9 0.152696 0.927846 0.284169
O O10 0.173757 0.052615 0.153133
O O11 0.933905 0.561522 0.168232
O O12 0.718884 0.871179 0.903610
O O13 0.875627 0.893026 0.050090
O O14 0.500000 0.419544 0.250000
O O15 0.409942 0.252684 0.204399
#
# Coordination Sequence:
#
# PCOD8134150 Si02
#       7
#     8   8   8   8   8   8   8
#     4   9  17  31  52  75 105 138 170 220 273 309
#     4   9  18  34  55  79 111 152 186 218 269 328
#     4   9  20  36  54  78 109 145 184 227 273 322
#     4   9  17  30  51  80 109 134 174 224 265 312
#     4   9  20  36  56  80 110 142 177 227 273 320
#     4  11  22  36  58  82 108 144 181 221 272 330
#     4  10  19  35  57  82 109 137 177 224 272 321
#
# _framework density 19.432790000000001
#
# number of rings (size 3 to 8) (size 9 to 14) (size 15 to 20)
#    0.000    2.571    0.000    2.571    0.000    4.000 
#    0.000    2.857    0.000   29.143    0.000    0.000 
#    0.000    0.000    0.000    0.000    0.000    0.000 
#
# Total GULP energy -346888.932728 kJ/mol
# GULP energy per Si atom -12388.890455 kJ/mol
# Density = 1.938856 g / cm^3
# Si number density = 19.432790 Si / 1000 Ang^3
#
#
#
# Elastic Constant Matrix: (Units=GPa)
#
#
# Indices 1 2 3 4 5 6 
#
# 1 134.3223 49.5047 48.0036 0.0000 10.9534 0.0000
# 2 49.5047 76.2703 20.4302 0.0000 -1.6515 0.0000
# 3 48.0036 20.4302 122.6090 0.0000 -6.6293 0.0000
# 4 0.0000 0.0000 0.0000 17.2588 0.0000 -1.3238
# 5 10.9534 -1.6515 -6.6293 0.0000 36.4848 0.0000
# 6 0.0000 0.0000 0.0000 -1.3238 0.0000 14.1412
#
#
#
# Elastic Compliance Matrix: (Units=1/GPa)
#
#
# Indices 1 2 3 4 5 6 
#
# 1 0.011552 -0.006613 -0.003660 0.000000 -0.004432 0.000000
# 2 -0.006613 0.017512 -0.000180 0.000000 0.002745 0.000000
# 3 -0.003660 -0.000180 0.009774 0.000000 0.002867 0.000000
# 4 0.000000 0.000000 0.000000 0.058361 0.000000 0.005463
# 5 -0.004432 0.002745 0.002867 0.000000 0.029385 0.000000
# 6 0.000000 0.000000 0.000000 0.005463 0.000000 0.071227
#
#
# Mechanical properties :
#
#
# Convention : Reuss Voigt Hill
#
# Bulk Modulus (GPa) = 55.77422 63.23094 59.50258
# Shear Modulus (GPa) = 22.25252 27.92784 25.09018
#
# Velocity S-wave (km/s) = 3.38761 3.79509 3.59712
# Velocity P-wave (km/s) = 6.63811 7.19809 6.92377
#
# Compressibility (1/GPa) = 0.01792943
#
# Stress axis : x y z
#
# Youngs Moduli (GPa) = 86.56711 57.10525 102.31072
#
# Poissons Ratio (x) = 0.37766 0.37450
# Poissons Ratio (y) = 0.57250 0.01844
# Poissons Ratio (z) = 0.31687 0.01029
#
# Static dielectric constant tensor:
#      x y z
#    x 3.975940 0.000000 0.030990 
#    y 0.000000 3.024620 0.000000 
#    z 0.030990 0.000000 3.886700 
# 
# 
# High freq. dielectric constant tensor:
#      x y z
#    x 1.771020 0.000000 -0.002930 
#    y 0.000000 1.696800 0.000000 
#    z -0.002930 0.000000 1.776870 
# 
# From -- ./inp_files/161425.got.cif
#   From: 2010.06.25/outbox.cif.g09.slc.cpg/sg15_81_cif.got.tgz:161425.got - 2010.06.28 07:06:18.
