data_PCOD8134292
_publ_section_title
;
Structure prediction by ZEFSAII (Michael W. Deem and Ramdas Pophale) SiO2 
 PCOD8134292
Probable space group: C 2/C
;
_chemical_formula_sum "Si O2"
_cell_formula_units_Z 40
_cell_length_a 12.610575
_cell_length_b 13.580686
_cell_length_c 12.889658
_cell_angle_alpha 90.000000
_cell_angle_beta 120.341107
_cell_angle_gamma 90.000000
_cell_volume 1905.134195
_symmetry_space_group_name_H-M "C 2/C"
_symmetry_group_IT_number 15
_symmetry_cell_setting 'monoclinic'
loop_
_space_group_symop_operation_xyz
x,y,z
-x,y,1/2-z
-x,-y,-z
x,-y,1/2+z
1/2+x,1/2+y,z
1/2-x,1/2+y,1/2-z
1/2-x,1/2-y,-z
1/2+x,1/2-y,1/2+z
loop_
_atom_site_type_symbol
_atom_site_label
_atom_site_fract_x
_atom_site_fract_y
_atom_site_fract_z
Si Si1 0.360181 0.536062 0.054649
Si Si2 0.632226 0.992466 0.829312
Si Si3 0.990169 0.140466 0.951803
Si Si4 0.643729 0.179746 0.483833
Si Si5 0.280277 0.547496 0.713781
O O1 0.395516 0.429161 0.023121
O O2 0.359496 0.527232 0.179365
O O3 0.220201 0.557086 0.947896
O O4 0.452545 0.617870 0.053734
O O5 0.500000 0.046029 0.750000
O O6 0.603436 0.886868 0.866884
O O7 0.699915 0.981284 0.751792
O O8 0.875053 0.117803 0.820559
O O9 0.027086 0.254369 0.961315
O O10 0.750000 0.250000 0.500000
O O11 0.687731 0.113864 0.601686
#
# Coordination Sequence:
#
# PCOD8134292 Si02
#       5
#     8   8   8   8   8
#     4   9  19  34  58  89 121 157 199 237 308 358
#     4  10  22  37  61  84 119 164 201 243 308 360
#     4  10  19  35  59  89 124 154 195 250 294 360
#     4  11  22  35  58  94 118 151 210 244 295 366
#     4  10  21  38  62  87 123 160 200 251 303 353
#
# _framework density 20.995896999999999
#
# number of rings (size 3 to 8) (size 9 to 14) (size 15 to 20)
#    0.000    2.000    4.000    0.600    2.800    3.200 
#    0.000    0.000    4.400    3.600    0.000    0.000 
#    0.000    0.000    0.000    0.000    0.000    0.000 
#
# Total GULP energy -247878.782663 kJ/mol
# GULP energy per Si atom -12393.939133 kJ/mol
# Density = 2.094811 g / cm^3
# Si number density = 20.995897 Si / 1000 Ang^3
#
#
#
# Elastic Constant Matrix: (Units=GPa)
#
#
# Indices 1 2 3 4 5 6 
#
# 1 111.2991 40.1241 47.4171 0.0000 -14.1702 0.0000
# 2 40.1241 81.0925 39.8333 0.0000 -15.1624 0.0000
# 3 47.4171 39.8333 103.3836 0.0000 -17.1861 0.0000
# 4 0.0000 0.0000 0.0000 20.6628 0.0000 -7.9124
# 5 -14.1702 -15.1624 -17.1861 0.0000 46.0130 0.0000
# 6 0.0000 0.0000 0.0000 -7.9124 0.0000 40.9908
#
#
#
# Elastic Compliance Matrix: (Units=1/GPa)
#
#
# Indices 1 2 3 4 5 6 
#
# 1 0.012195 -0.003924 -0.003915 0.000000 0.001000 0.000000
# 2 -0.003924 0.016874 -0.004242 0.000000 0.002768 0.000000
# 3 -0.003915 -0.004242 0.013509 0.000000 0.002442 0.000000
# 4 0.000000 0.000000 0.000000 0.052259 0.000000 0.010088
# 5 0.001000 0.002768 0.002442 0.000000 0.023865 0.000000
# 6 0.000000 0.000000 0.000000 0.010088 0.000000 0.026343
#
#
# Mechanical properties :
#
#
# Convention : Reuss Voigt Hill
#
# Bulk Modulus (GPa) = 54.29971 61.16934 57.73453
# Shear Modulus (GPa) = 28.51530 32.76002 30.63766
#
# Velocity S-wave (km/s) = 3.68929 3.95436 3.82412
# Velocity P-wave (km/s) = 6.63822 7.07435 6.85975
#
# Compressibility (1/GPa) = 0.01841631
#
# Stress axis : x y z
#
# Youngs Moduli (GPa) = 82.00356 59.26219 74.02651
#
# Poissons Ratio (x) = 0.23253 0.28981
# Poissons Ratio (y) = 0.32176 0.31401
# Poissons Ratio (z) = 0.32104 0.25138
#
# Static dielectric constant tensor:
#      x y z
#    x 4.042950 0.000000 0.007520 
#    y 0.000000 3.586880 0.000000 
#    z 0.007520 0.000000 4.078730 
# 
# 
# High freq. dielectric constant tensor:
#      x y z
#    x 1.834890 0.000000 0.004440 
#    y 0.000000 1.766270 0.000000 
#    z 0.004440 0.000000 1.833230 
# 
# From -- ./inp_files/85986.got.cif
#   From: 2010.06.25/outbox.cif.g09.slc.cpg/sg15_43_cif.got.tgz:85986.got - 2010.06.28 07:06:18.
