data_PCOD8134998
_publ_section_title
;
Structure prediction by ZEFSAII (Michael W. Deem and Ramdas Pophale) SiO2 
 PCOD8134998
Probable space group: C 2/C
;
_chemical_formula_sum "Si O2"
_cell_formula_units_Z 48
_cell_length_a 20.044212
_cell_length_b 13.646847
_cell_length_c 13.711176
_cell_angle_alpha 90.000000
_cell_angle_beta 40.148045
_cell_angle_gamma 90.000000
_cell_volume 2418.228587
_symmetry_space_group_name_H-M "C 2/C"
_symmetry_group_IT_number 15
_symmetry_cell_setting 'monoclinic'
loop_
_space_group_symop_operation_xyz
x,y,z
-x,y,1/2-z
-x,-y,-z
x,-y,1/2+z
1/2+x,1/2+y,z
1/2-x,1/2+y,1/2-z
1/2-x,1/2-y,-z
1/2+x,1/2-y,1/2+z
loop_
_atom_site_type_symbol
_atom_site_label
_atom_site_fract_x
_atom_site_fract_y
_atom_site_fract_z
Si Si1 0.790740 0.393912 0.661386
Si Si2 0.017494 0.571447 0.889748
Si Si3 0.726639 0.411874 0.144770
Si Si4 0.647132 0.776598 0.353755
Si Si5 0.530585 0.295248 0.322190
Si Si6 0.648158 0.907977 0.686585
O O1 0.722059 0.476431 0.685499
O O2 0.736371 0.289203 0.704884
O O3 0.797009 0.416128 0.769740
O O4 0.904340 0.390689 0.483316
O O5 0.087501 0.665265 0.835924
O O6 0.077211 0.504288 0.743649
O O7 0.000000 0.500000 0.000000
O O8 0.806734 0.353726 0.122052
O O9 0.612511 0.367626 0.280533
O O10 0.762597 0.401317 0.993035
O O11 0.569428 0.704547 0.497315
O O12 0.500000 0.334721 0.250000
O O13 0.575338 0.186186 0.264554
#
# Coordination Sequence:
#
# PCOD8134998 Si02
#       6
#     8   8   8   8   8   8
#     4  11  23  38  59  92 120 162 204 242 308 363
#     4  10  19  37  59  88 120 154 203 248 289 361
#     4  12  23  38  61  91 123 159 202 256 304 357
#     4  12  20  37  61  85 125 157 200 251 300 362
#     4  12  22  34  61  96 122 151 199 258 317 354
#     4  11  20  36  62  92 116 151 203 258 293 346
#
# _framework density 19.849240999999999
#
# number of rings (size 3 to 8) (size 9 to 14) (size 15 to 20)
#    0.000    0.667   10.000    1.500    0.000    0.667 
#    0.000    0.833    0.000    0.000    0.000    0.000 
#    0.000    0.000    0.000    0.000    0.000    0.000 
#
# Total GULP energy -297654.654587 kJ/mol
# GULP energy per Si atom -12402.277274 kJ/mol
# Density = 1.980406 g / cm^3
# Si number density = 19.849241 Si / 1000 Ang^3
#
#
#
# Elastic Constant Matrix: (Units=GPa)
#
#
# Indices 1 2 3 4 5 6 
#
# 1 67.3126 33.7392 3.3896 0.0000 -14.7186 0.0000
# 2 33.7392 102.4642 26.2906 0.0000 -14.2743 0.0000
# 3 3.3896 26.2906 35.4178 0.0000 -17.0021 0.0000
# 4 0.0000 0.0000 0.0000 32.8152 0.0000 -3.7366
# 5 -14.7186 -14.2743 -17.0021 0.0000 22.0414 0.0000
# 6 0.0000 0.0000 0.0000 -3.7366 0.0000 23.9304
#
#
#
# Elastic Compliance Matrix: (Units=1/GPa)
#
#
# Indices 1 2 3 4 5 6 
#
# 1 0.022724 -0.008146 0.013695 0.000000 0.020463 0.000000
# 2 -0.008146 0.015004 -0.013188 0.000000 -0.005895 0.000000
# 3 0.013695 -0.013188 0.058762 0.000000 0.045931 0.000000
# 4 0.000000 0.000000 0.000000 0.031025 0.000000 0.004844
# 5 0.020463 -0.005895 0.045931 0.000000 0.090646 0.000000
# 6 0.000000 0.000000 0.000000 0.004844 0.000000 0.042544
#
#
# Mechanical properties :
#
#
# Convention : Reuss Voigt Hill
#
# Bulk Modulus (GPa) = 12.31344 36.89260 24.60302
# Shear Modulus (GPa) = 16.49872 25.20908 20.85390
#
# Velocity S-wave (km/s) = 2.88618 3.56761 3.24483
# Velocity P-wave (km/s) = 4.16217 5.96634 5.14397
#
# Compressibility (1/GPa) = 0.08121205
#
# Stress axis : x y z
#
# Youngs Moduli (GPa) = 44.00719 66.64800 17.01773
#
# Poissons Ratio (x) = 0.54288 -0.23305
# Poissons Ratio (y) = 0.35846 0.22443
# Poissons Ratio (z) = -0.60266 0.87895
#
# Static dielectric constant tensor:
#      x y z
#    x 3.575690 0.000000 -0.192970 
#    y 0.000000 3.698710 0.000000 
#    z -0.192970 0.000000 3.860750 
# 
# 
# High freq. dielectric constant tensor:
#      x y z
#    x 1.765470 0.000000 -0.018230 
#    y 0.000000 1.764050 0.000000 
#    z -0.018230 0.000000 1.764650 
# 
# From -- ./inp_files/167829.got.cif
#   From: 2010.06.25/outbox.cif.g09.slc.cpg/sg15_84_cif.got.tgz:167829.got - 2010.06.28 07:06:18.
