data_PCOD8134937
_publ_section_title
;
Structure prediction by ZEFSAII (Michael W. Deem and Ramdas Pophale) SiO2 
 PCOD8134937
Probable space group: C 2/C
;
_chemical_formula_sum "Si O2"
_cell_formula_units_Z 56
_cell_length_a 15.187259
_cell_length_b 9.484489
_cell_length_c 20.704394
_cell_angle_alpha 90.000000
_cell_angle_beta 84.965485
_cell_angle_gamma 90.000000
_cell_volume 2970.825329
_symmetry_space_group_name_H-M "C 2/C"
_symmetry_group_IT_number 15
_symmetry_cell_setting 'monoclinic'
loop_
_space_group_symop_operation_xyz
x,y,z
-x,y,1/2-z
-x,-y,-z
x,-y,1/2+z
1/2+x,1/2+y,z
1/2-x,1/2+y,1/2-z
1/2-x,1/2-y,-z
1/2+x,1/2-y,1/2+z
loop_
_atom_site_type_symbol
_atom_site_label
_atom_site_fract_x
_atom_site_fract_y
_atom_site_fract_z
Si Si1 0.102299 0.505663 0.732514
Si Si2 0.710635 0.026694 0.598959
Si Si3 0.746546 0.540222 0.682248
Si Si4 0.714857 0.758426 0.429899
Si Si5 0.095995 0.186851 0.762470
Si Si6 0.679134 0.217227 0.381455
Si Si7 0.600351 0.986612 0.478410
O O1 0.144635 0.557318 0.662635
O O2 0.159890 0.571344 0.787425
O O3 0.109883 0.336759 0.727027
O O4 0.000000 0.552382 0.750000
O O5 0.769390 0.164196 0.581977
O O6 0.653598 0.993661 0.540716
O O7 0.779646 0.895213 0.604144
O O8 0.730325 0.635221 0.619700
O O9 0.666387 0.569611 0.735857
O O10 0.748334 0.375110 0.662856
O O11 0.750000 0.750000 0.500000
O O12 0.618675 0.835139 0.442009
O O13 0.108361 0.208558 0.838375
O O14 0.000000 0.126410 0.750000
O O15 0.625290 0.116930 0.431903
O O16 0.500000 0.000000 0.500000
#
# Coordination Sequence:
#
# PCOD8134937 Si02
#       7
#     8   8   8   8   8   8   8
#     4  10  21  33  59  88 114 153 198 239 288 352
#     4  11  20  38  60  83 116 158 191 234 301 349
#     4  10  19  37  57  84 120 148 195 241 289 349
#     4   9  20  36  58  83 110 155 194 228 285 346
#     4  10  20  34  58  83 114 151 195 235 285 352
#     4  10  22  38  57  84 118 152 188 241 304 338
#     4  10  23  38  61  86 114 148 202 248 284 351
#
# _framework density 18.849981
#
# number of rings (size 3 to 8) (size 9 to 14) (size 15 to 20)
#    0.000    2.000    2.857    0.429    8.000    0.000 
#    0.000    2.857    0.000    0.000    0.000    0.000 
#    0.000    0.000    0.000    0.000    0.000    0.000 
#
# Total GULP energy -346948.505556 kJ/mol
# GULP energy per Si atom -12391.018056 kJ/mol
# Density = 1.880708 g / cm^3
# Si number density = 18.849981 Si / 1000 Ang^3
#
#
#
# Elastic Constant Matrix: (Units=GPa)
#
#
# Indices 1 2 3 4 5 6 
#
# 1 128.9632 63.8756 33.8592 0.0000 -12.4038 0.0000
# 2 63.8756 99.0722 35.8228 0.0000 -8.3738 0.0000
# 3 33.8592 35.8228 88.2907 0.0000 -6.4879 0.0000
# 4 0.0000 0.0000 0.0000 30.8778 0.0000 -2.8501
# 5 -12.4038 -8.3738 -6.4879 0.0000 30.1099 0.0000
# 6 0.0000 0.0000 0.0000 -2.8501 0.0000 21.1583
#
#
#
# Elastic Compliance Matrix: (Units=1/GPa)
#
#
# Indices 1 2 3 4 5 6 
#
# 1 0.011793 -0.006816 -0.001564 0.000000 0.002626 0.000000
# 2 -0.006816 0.015926 -0.003789 0.000000 0.000805 0.000000
# 3 -0.001564 -0.003789 0.013553 0.000000 0.001222 0.000000
# 4 0.000000 0.000000 0.000000 0.032793 0.000000 0.004417
# 5 0.002626 0.000805 0.001222 0.000000 0.034780 0.000000
# 6 0.000000 0.000000 0.000000 0.004417 0.000000 0.047858
#
#
# Mechanical properties :
#
#
# Convention : Reuss Voigt Hill
#
# Bulk Modulus (GPa) = 59.05083 64.82681 61.93882
# Shear Modulus (GPa) = 26.78270 28.61378 27.69824
#
# Velocity S-wave (km/s) = 3.77348 3.90035 3.83744
# Velocity P-wave (km/s) = 7.09791 7.39927 7.25015
#
# Compressibility (1/GPa) = 0.01693456
#
# Stress axis : x y z
#
# Youngs Moduli (GPa) = 84.79312 62.78946 73.78355
#
# Poissons Ratio (x) = 0.42798 0.11542
# Poissons Ratio (y) = 0.57796 0.27955
# Poissons Ratio (z) = 0.13264 0.23789
#
# Static dielectric constant tensor:
#      x y z
#    x 2.947120 0.000000 0.217240 
#    y 0.000000 3.604140 0.000000 
#    z 0.217240 0.000000 3.502100 
# 
# 
# High freq. dielectric constant tensor:
#      x y z
#    x 1.709530 0.000000 -0.000970 
#    y 0.000000 1.724310 0.000000 
#    z -0.000970 0.000000 1.747320 
# 
# From -- ./inp_files/242798.got.cif
#   From: 2010.06.25/outbox.cif.g09.slc.cpg/sg15_122_cif.got.tgz:242798.got - 2010.06.28 07:06:18.
