data_PCOD8134756
_publ_section_title
;
Structure prediction by ZEFSAII (Michael W. Deem and Ramdas Pophale) SiO2 
 PCOD8134756
Probable space group: C 2/C
;
_chemical_formula_sum "Si O2"
_cell_formula_units_Z 52
_cell_length_a 11.901310
_cell_length_b 24.624962
_cell_length_c 8.600778
_cell_angle_alpha 90.000000
_cell_angle_beta 113.635411
_cell_angle_gamma 90.000000
_cell_volume 2309.181807
_symmetry_space_group_name_H-M "C 2/C"
_symmetry_group_IT_number 15
_symmetry_cell_setting 'monoclinic'
loop_
_space_group_symop_operation_xyz
x,y,z
-x,y,1/2-z
-x,-y,-z
x,-y,1/2+z
1/2+x,1/2+y,z
1/2-x,1/2+y,1/2-z
1/2-x,1/2-y,-z
1/2+x,1/2-y,1/2+z
loop_
_atom_site_type_symbol
_atom_site_label
_atom_site_fract_x
_atom_site_fract_y
_atom_site_fract_z
Si Si1 0.822849 0.532531 0.900793
Si Si2 0.058596 0.782609 0.439288
Si Si3 0.129523 0.722068 0.754729
Si Si4 0.842853 0.825945 0.532219
Si Si5 0.370758 0.562950 0.235243
Si Si6 0.000000 0.494903 0.250000
Si Si7 0.375749 0.395033 0.085506
O O1 0.742011 0.477431 0.857238
O O2 0.735151 0.583674 0.870977
O O3 0.898741 0.541070 0.783797
O O4 0.924848 0.533153 0.091783
O O5 0.121378 0.732350 0.564010
O O6 0.152070 0.830753 0.446754
O O7 0.000000 0.757774 0.250000
O O8 0.963298 0.813939 0.499221
O O9 0.173334 0.779945 0.846776
O O10 0.000000 0.702606 0.750000
O O11 0.227125 0.675662 0.850738
O O12 0.850360 0.883374 0.620867
O O13 0.500000 0.536464 0.250000
O O14 0.379286 0.574428 0.422920
O O15 0.500000 0.405021 0.250000
#
# Coordination Sequence:
#
# PCOD8134756 Si02
#       7
#     8   8   8   8   8   4   8
#     4  11  24  41  65  91 129 184 222 263 323 394
#     4  10  20  36  59  94 129 162 206 276 338 379
#     4   9  18  36  62  88 122 170 217 256 322 404
#     4  10  19  36  61  90 124 166 213 267 327 390
#     4  12  22  39  65  94 131 169 220 281 330 378
#     4  10  24  44  60  88 128 184 220 258 320 388
#     4  11  23  39  63  98 131 163 221 280 331 375
#
# _framework density 22.518796999999999
#
# number of rings (size 3 to 8) (size 9 to 14) (size 15 to 20)
#    0.000    1.538    4.615    0.923    2.154    1.846 
#    1.385    0.000    0.000    0.000   10.000    0.000 
#    0.000    0.000    0.000    0.000    0.000    0.000 
#
# Total GULP energy -322330.214187 kJ/mol
# GULP energy per Si atom -12397.315930 kJ/mol
# Density = 2.246754 g / cm^3
# Si number density = 22.518797 Si / 1000 Ang^3
#
#
#
# Elastic Constant Matrix: (Units=GPa)
#
#
# Indices 1 2 3 4 5 6 
#
# 1 130.9704 36.4831 40.7496 0.0000 2.1575 0.0000
# 2 36.4831 45.2707 38.0662 0.0000 4.7593 0.0000
# 3 40.7496 38.0662 137.7014 0.0000 -0.0852 0.0000
# 4 0.0000 0.0000 0.0000 14.3184 0.0000 -7.1372
# 5 2.1575 4.7593 -0.0852 0.0000 40.6446 0.0000
# 6 0.0000 0.0000 0.0000 -7.1372 0.0000 9.8485
#
#
#
# Elastic Compliance Matrix: (Units=1/GPa)
#
#
# Indices 1 2 3 4 5 6 
#
# 1 0.009944 -0.007261 -0.000935 0.000000 0.000320 0.000000
# 2 -0.007261 0.034554 -0.007406 0.000000 -0.003676 0.000000
# 3 -0.000935 -0.007406 0.009587 0.000000 0.000937 0.000000
# 4 0.000000 0.000000 0.000000 0.109336 0.000000 0.079235
# 5 0.000320 -0.003676 0.000937 0.000000 0.025019 0.000000
# 6 0.000000 0.000000 0.000000 0.079235 0.000000 0.158960
#
#
# Mechanical properties :
#
#
# Convention : Reuss Voigt Hill
#
# Bulk Modulus (GPa) = 43.70418 60.50447 52.10433
# Shear Modulus (GPa) = 12.94566 26.20521 19.57544
#
# Velocity S-wave (km/s) = 2.40027 3.41501 2.95158
# Velocity P-wave (km/s) = 5.20881 6.51740 5.89950
#
# Compressibility (1/GPa) = 0.02288110
#
# Stress axis : x y z
#
# Youngs Moduli (GPa) = 100.56776 28.93992 104.31110
#
# Poissons Ratio (x) = 0.21012 0.09755
# Poissons Ratio (y) = 0.73019 0.77251
# Poissons Ratio (z) = 0.09405 0.21432
#
# Static dielectric constant tensor:
#      x y z
#    x 4.252160 0.000000 -0.006150 
#    y 0.000000 3.756370 0.000000 
#    z -0.006150 0.000000 4.558150 
# 
# 
# High freq. dielectric constant tensor:
#      x y z
#    x 1.889300 0.000000 -0.002670 
#    y 0.000000 1.851450 0.000000 
#    z -0.002670 0.000000 1.913280 
# 
# From -- ./inp_files/33732.got.cif
#   From: 2010.06.25/outbox.cif.g09.slc.cpg/sg15_17_cif.got.tgz:33732.got - 2010.06.28 07:06:18.
