data_PCOD8134091
_publ_section_title
;
Structure prediction by ZEFSAII (Michael W. Deem and Ramdas Pophale) SiO2 
 PCOD8134091
Probable space group: C 2/C
;
_chemical_formula_sum "Si O2"
_cell_formula_units_Z 40
_cell_length_a 15.322156
_cell_length_b 9.595332
_cell_length_c 31.539013
_cell_angle_alpha 90.000000
_cell_angle_beta 152.722030
_cell_angle_gamma 90.000000
_cell_volume 2125.128916
_symmetry_space_group_name_H-M "C 2/C"
_symmetry_group_IT_number 15
_symmetry_cell_setting 'monoclinic'
loop_
_space_group_symop_operation_xyz
x,y,z
-x,y,1/2-z
-x,-y,-z
x,-y,1/2+z
1/2+x,1/2+y,z
1/2-x,1/2+y,1/2-z
1/2-x,1/2-y,-z
1/2+x,1/2-y,1/2+z
loop_
_atom_site_type_symbol
_atom_site_label
_atom_site_fract_x
_atom_site_fract_y
_atom_site_fract_z
Si Si1 0.820103 0.678499 0.195496
Si Si2 0.782811 0.969833 0.413703
Si Si3 0.631005 0.900345 0.997716
Si Si4 0.934622 0.690994 0.497362
Si Si5 0.935411 0.673182 0.122782
O O1 0.817464 0.522837 0.173025
O O2 0.622490 0.758547 0.103847
O O3 0.000000 0.757009 0.250000
O O4 0.865939 0.669478 0.265382
O O5 0.768072 0.806865 0.419722
O O6 0.710154 0.058815 0.422030
O O7 0.000000 0.000000 0.500000
O O8 0.495412 0.848768 0.976427
O O9 0.836315 0.824964 0.084727
O O10 0.518989 0.865658 0.905886
O O11 0.660980 0.065728 0.017440
#
# Coordination Sequence:
#
# PCOD8134091 Si02
#       5
#     8   8   8   8   8
#     4   9  16  33  56  73  99 147 179 210 260 317
#     4   9  16  32  56  74  96 143 177 207 259 317
#     4  10  20  33  54  81 106 139 174 213 273 313
#     4  10  19  35  56  77 105 139 177 218 262 315
#     4  10  19  35  56  76 107 144 176 211 262 323
#
# _framework density 18.822389000000001
#
# number of rings (size 3 to 8) (size 9 to 14) (size 15 to 20)
#    0.000    2.400    6.000    0.000    0.000    0.800 
#    3.600    0.000   26.400    0.000    0.000    0.000 
#    0.000    0.000    0.000    0.000    0.000    0.000 
#
# Total GULP energy -247766.619509 kJ/mol
# GULP energy per Si atom -12388.330975 kJ/mol
# Density = 1.877955 g / cm^3
# Si number density = 18.822389 Si / 1000 Ang^3
#
#
#
# Elastic Constant Matrix: (Units=GPa)
#
#
# Indices 1 2 3 4 5 6 
#
# 1 76.1037 40.7117 47.8687 0.0000 -28.5357 0.0000
# 2 40.7117 154.7413 53.4216 0.0000 -11.7570 0.0000
# 3 47.8687 53.4216 109.7458 -0.0001 -35.0001 0.0000
# 4 0.0000 0.0000 -0.0001 13.5242 0.0000 -3.7381
# 5 -28.5357 -11.7570 -35.0001 0.0000 36.4372 0.0000
# 6 0.0000 0.0000 0.0000 -3.7381 0.0000 25.7814
#
#
#
# Elastic Compliance Matrix: (Units=1/GPa)
#
#
# Indices 1 2 3 4 5 6 
#
# 1 0.022189 -0.003509 -0.004022 0.000000 0.012383 0.000000
# 2 -0.003509 0.008390 -0.003700 0.000000 -0.003595 0.000000
# 3 -0.004022 -0.003700 0.016264 0.000000 0.011280 0.000000
# 4 0.000000 0.000000 0.000000 0.077028 0.000000 0.011169
# 5 0.012383 -0.003595 0.011280 0.000000 0.046817 0.000000
# 6 0.000000 0.000000 0.000000 0.011169 0.000000 0.040407
#
#
# Mechanical properties :
#
#
# Convention : Reuss Voigt Hill
#
# Bulk Modulus (GPa) = 41.01202 69.39943 55.20573
# Shear Modulus (GPa) = 20.68821 28.38783 24.53802
#
# Velocity S-wave (km/s) = 3.31891 3.88776 3.61454
# Velocity P-wave (km/s) = 6.04344 7.55670 6.84203
#
# Compressibility (1/GPa) = 0.02438310
#
# Stress axis : x y z
#
# Youngs Moduli (GPa) = 45.06653 119.19309 61.48402
#
# Poissons Ratio (x) = 0.41822 0.24726
# Poissons Ratio (y) = 0.15813 0.22749
# Poissons Ratio (z) = 0.18124 0.44101
#
# Static dielectric constant tensor:
#      x y z
#    x 3.284850 0.000000 -0.167710 
#    y 0.000000 4.991640 0.000000 
#    z -0.167710 0.000000 3.948230 
# 
# 
# High freq. dielectric constant tensor:
#      x y z
#    x 1.713380 0.000000 -0.021220 
#    y 0.000000 1.724450 0.000000 
#    z -0.021220 0.000000 1.722840 
# 
# From -- ./inp_files/208325.got.cif
#   From: 2010.06.25/outbox.cif.g09.slc.cpg/sg15_105_cif.got.tgz:208325.got - 2010.06.28 07:06:18.
