data_PCOD8134546
_publ_section_title
;
Structure prediction by ZEFSAII (Michael W. Deem and Ramdas Pophale) SiO2 
 PCOD8134546
Probable space group: C 2/C
;
_chemical_formula_sum "Si O2"
_cell_formula_units_Z 56
_cell_length_a 21.239883
_cell_length_b 8.494494
_cell_length_c 19.947912
_cell_angle_alpha 90.000000
_cell_angle_beta 52.241095
_cell_angle_gamma 90.000000
_cell_volume 2845.383562
_symmetry_space_group_name_H-M "C 2/C"
_symmetry_group_IT_number 15
_symmetry_cell_setting 'monoclinic'
loop_
_space_group_symop_operation_xyz
x,y,z
-x,y,1/2-z
-x,-y,-z
x,-y,1/2+z
1/2+x,1/2+y,z
1/2-x,1/2+y,1/2-z
1/2-x,1/2-y,-z
1/2+x,1/2-y,1/2+z
loop_
_atom_site_type_symbol
_atom_site_label
_atom_site_fract_x
_atom_site_fract_y
_atom_site_fract_z
Si Si1 0.046184 0.233302 0.812773
Si Si2 0.700503 0.755043 0.325471
Si Si3 0.374995 0.293891 0.378141
Si Si4 0.713421 0.917977 0.460826
Si Si5 0.655122 0.397056 0.343863
Si Si6 0.898064 0.344727 0.521149
Si Si7 0.558164 0.051817 0.882004
O O1 0.102285 0.251244 0.711986
O O2 0.079249 0.107135 0.844325
O O3 0.044206 0.412745 0.838734
O O4 0.957994 0.161043 0.859218
O O5 0.702863 0.811581 0.400894
O O6 0.687436 0.568895 0.335816
O O7 0.782385 0.782856 0.233482
O O8 0.634012 0.835497 0.321174
O O9 0.334255 0.151547 0.444893
O O10 0.307710 0.432086 0.417901
O O11 0.676995 0.090816 0.472536
O O12 0.628818 0.322319 0.431841
O O13 0.922859 0.475856 0.558832
O O14 0.980833 0.333043 0.426293
#
# Coordination Sequence:
#
# PCOD8134546 Si02
#       7
#     8   8   8   8   8   8   8
#     4  10  19  36  57  88 110 154 201 229 289 342
#     4  11  22  36  58  86 114 149 193 252 303 343
#     4  10  20  32  60  82 115 157 201 229 266 363
#     4  10  19  36  57  88 110 153 199 234 285 343
#     4  11  22  36  58  86 116 150 191 253 301 346
#     4   9  18  34  57  82 114 144 185 241 294 336
#     4   9  18  34  57  82 113 142 187 245 286 346
#
# _framework density 19.681003
#
# number of rings (size 3 to 8) (size 9 to 14) (size 15 to 20)
#    0.000    2.000    2.857    2.571    2.000    0.571 
#    0.000    0.000    0.000   10.286    0.000    0.000 
#    0.000    0.000    0.000    0.000    0.000    0.000 
#
# Total GULP energy -346891.301046 kJ/mol
# GULP energy per Si atom -12388.975037 kJ/mol
# Density = 1.963621 g / cm^3
# Si number density = 19.681003 Si / 1000 Ang^3
#
#
#
# Elastic Constant Matrix: (Units=GPa)
#
#
# Indices 1 2 3 4 5 6 
#
# 1 108.2282 29.0881 26.2979 0.0005 -19.3988 -0.0012
# 2 29.0881 53.9055 -14.2922 0.0017 -11.3206 -0.0039
# 3 26.2979 -14.2922 55.3178 0.0006 -16.9477 -0.0019
# 4 0.0005 0.0017 0.0006 23.0089 -0.0001 -3.9755
# 5 -19.3988 -11.3206 -16.9477 -0.0001 30.2298 0.0005
# 6 -0.0012 -0.0039 -0.0019 -3.9755 0.0005 21.4755
#
#
#
# Elastic Compliance Matrix: (Units=1/GPa)
#
#
# Indices 1 2 3 4 5 6 
#
# 1 0.014269 -0.010169 -0.009384 0.000000 0.000087 -0.000002
# 2 -0.010169 0.032019 0.017847 -0.000001 0.015470 0.000006
# 3 -0.009384 0.017847 0.033024 -0.000001 0.019176 0.000005
# 4 0.000000 -0.000001 -0.000001 0.044898 -0.000001 0.008311
# 5 0.000087 0.015470 0.019176 -0.000001 0.049680 0.000003
# 6 -0.000002 0.000006 0.000005 0.008311 0.000003 0.048103
#
#
# Mechanical properties :
#
#
# Convention : Reuss Voigt Hill
#
# Bulk Modulus (GPa) = 13.17539 33.29325 23.23432
# Shear Modulus (GPa) = 19.94371 26.70002 23.32186
#
# Velocity S-wave (km/s) = 3.18677 3.68725 3.44611
# Velocity P-wave (km/s) = 4.49996 5.92292 5.25978
#
# Compressibility (1/GPa) = 0.07589910
#
# Stress axis : x y z
#
# Youngs Moduli (GPa) = 70.08346 31.23136 30.28066
#
# Poissons Ratio (x) = 0.31760 0.28415
# Poissons Ratio (y) = 0.71270 -0.54041
# Poissons Ratio (z) = 0.65766 -0.55738
#
# Static dielectric constant tensor:
#      x y z
#    x 3.982190 0.000000 -0.287890 
#    y 0.000000 3.126460 0.000000 
#    z -0.287890 0.000000 3.838500 
# 
# 
# High freq. dielectric constant tensor:
#      x y z
#    x 1.776930 0.000000 -0.022680 
#    y 0.000000 1.724990 0.000000 
#    z -0.022680 0.000000 1.774810 
# 
# From -- ./inp_files/224454.got.cif
#   From: 2010.06.25/outbox.cif.g09.slc.cpg/sg15_113_cif.got.tgz:224454.got - 2010.06.28 07:06:18.
