data_PCOD8134787
_publ_section_title
;
Structure prediction by ZEFSAII (Michael W. Deem and Ramdas Pophale) SiO2 
 PCOD8134787
Probable space group: C 2/C
;
_chemical_formula_sum "Si O2"
_cell_formula_units_Z 40
_cell_length_a 21.791986
_cell_length_b 8.853612
_cell_length_c 10.587295
_cell_angle_alpha 90.000000
_cell_angle_beta 75.694347
_cell_angle_gamma 90.000000
_cell_volume 1979.348263
_symmetry_space_group_name_H-M "C 2/C"
_symmetry_group_IT_number 15
_symmetry_cell_setting 'monoclinic'
loop_
_space_group_symop_operation_xyz
x,y,z
-x,y,1/2-z
-x,-y,-z
x,-y,1/2+z
1/2+x,1/2+y,z
1/2-x,1/2+y,1/2-z
1/2-x,1/2-y,-z
1/2+x,1/2-y,1/2+z
loop_
_atom_site_type_symbol
_atom_site_label
_atom_site_fract_x
_atom_site_fract_y
_atom_site_fract_z
Si Si1 0.460804 0.328184 0.890966
Si Si2 0.751941 0.499927 0.500580
Si Si3 0.531895 0.686659 0.605148
Si Si4 0.336916 0.256567 0.561347
Si Si5 0.832431 0.748485 0.847760
O O1 0.500000 0.269441 0.750000
O O2 0.460011 0.508014 0.894024
O O3 0.389361 0.266544 0.918484
O O4 0.489474 0.264115 0.006841
O O5 0.699254 0.587286 0.447101
O O6 0.790698 0.615955 0.566720
O O7 0.799409 0.413594 0.382224
O O8 0.719256 0.380075 0.609664
O O9 0.500000 0.748085 0.750000
O O10 0.601529 0.759775 0.558784
O O11 0.360662 0.261620 0.693199
#
# Coordination Sequence:
#
# PCOD8134787 Si02
#       5
#     8   8   8   8   8
#     4  10  19  36  62  88 119 160 203 250 302 358
#     4  10  24  38  60  93 121 162 201 245 309 360
#     4  10  21  36  60  92 120 158 203 249 301 361
#     4  11  21  42  62  88 126 159 201 255 299 363
#     4  11  21  41  63  91 121 160 203 252 301 366
#
# _framework density 20.208672
#
# number of rings (size 3 to 8) (size 9 to 14) (size 15 to 20)
#    0.000    1.600    4.000    1.200    0.000    0.000 
#   18.000    2.000    0.000    0.000    0.000    0.000 
#    0.000    0.000    0.000    0.000    0.000    0.000 
#
# Total GULP energy -248070.250767 kJ/mol
# GULP energy per Si atom -12403.512538 kJ/mol
# Density = 2.016268 g / cm^3
# Si number density = 20.208672 Si / 1000 Ang^3
#
#
#
# Elastic Constant Matrix: (Units=GPa)
#
#
# Indices 1 2 3 4 5 6 
#
# 1 137.7570 25.2738 55.9438 0.0000 0.5989 0.0000
# 2 25.2738 62.3115 19.6248 0.0000 0.0507 0.0000
# 3 55.9438 19.6248 139.3384 0.0000 1.4278 0.0000
# 4 0.0000 0.0000 0.0000 13.4123 0.0000 -4.0747
# 5 0.5989 0.0507 1.4278 0.0000 37.8291 0.0000
# 6 0.0000 0.0000 0.0000 -4.0747 0.0000 16.9244
#
#
#
# Elastic Compliance Matrix: (Units=1/GPa)
#
#
# Indices 1 2 3 4 5 6 
#
# 1 0.009073 -0.002650 -0.003269 0.000000 -0.000017 0.000000
# 2 -0.002650 0.017568 -0.001411 0.000000 0.000072 0.000000
# 3 -0.003269 -0.001411 0.008691 0.000000 -0.000274 0.000000
# 4 0.000000 0.000000 0.000000 0.080442 0.000000 0.019367
# 5 -0.000017 0.000072 -0.000274 0.000000 0.026445 0.000000
# 6 0.000000 0.000000 0.000000 0.019367 0.000000 0.063749
#
#
# Mechanical properties :
#
#
# Convention : Reuss Voigt Hill
#
# Bulk Modulus (GPa) = 48.37822 60.12130 54.24976
# Shear Modulus (GPa) = 21.97612 29.53746 25.75679
#
# Velocity S-wave (km/s) = 3.30124 3.82727 3.57395
# Velocity P-wave (km/s) = 6.20663 7.02463 6.62826
#
# Compressibility (1/GPa) = 0.02067046
#
# Stress axis : x y z
#
# Youngs Moduli (GPa) = 110.21448 56.92259 115.06221
#
# Poissons Ratio (x) = 0.15087 0.37618
# Poissons Ratio (y) = 0.29212 0.16234
# Poissons Ratio (z) = 0.36033 0.08031
#
# Static dielectric constant tensor:
#      x y z
#    x 3.688480 0.000000 -0.048960 
#    y 0.000000 3.440610 0.000000 
#    z -0.048960 0.000000 3.648780 
# 
# 
# High freq. dielectric constant tensor:
#      x y z
#    x 1.802130 0.000000 -0.004520 
#    y 0.000000 1.765410 0.000000 
#    z -0.004520 0.000000 1.788410 
# 
# From -- ./inp_files/109543.got.cif
#   From: 2010.06.25/outbox.cif.g09.slc.cpg/sg15_55_cif.got.tgz:109543.got - 2010.06.28 07:06:18.
