data_PCOD8134096
_publ_section_title
;
Structure prediction by ZEFSAII (Michael W. Deem and Ramdas Pophale) SiO2 
 PCOD8134096
Probable space group: C 2/C
;
_chemical_formula_sum "Si O2"
_cell_formula_units_Z 48
_cell_length_a 17.488300
_cell_length_b 9.141910
_cell_length_c 17.739038
_cell_angle_alpha 90.000000
_cell_angle_beta 93.189893
_cell_angle_gamma 90.000000
_cell_volume 2831.660486
_symmetry_space_group_name_H-M "C 2/C"
_symmetry_group_IT_number 15
_symmetry_cell_setting 'monoclinic'
loop_
_space_group_symop_operation_xyz
x,y,z
-x,y,1/2-z
-x,-y,-z
x,-y,1/2+z
1/2+x,1/2+y,z
1/2-x,1/2+y,1/2-z
1/2-x,1/2-y,-z
1/2+x,1/2-y,1/2+z
loop_
_atom_site_type_symbol
_atom_site_label
_atom_site_fract_x
_atom_site_fract_y
_atom_site_fract_z
Si Si1 0.057941 0.312390 0.185145
Si Si2 0.669012 0.362142 0.784913
Si Si3 0.693779 0.349732 0.203445
Si Si4 0.432058 0.135166 0.305004
Si Si5 0.953010 0.876599 0.590404
Si Si6 0.928941 0.133235 0.918963
O O1 0.122900 0.195166 0.209505
O O2 0.094600 0.471875 0.173489
O O3 0.000000 0.324878 0.250000
O O4 0.010145 0.258833 0.109945
O O5 0.707934 0.515810 0.762043
O O6 0.728104 0.234925 0.812140
O O7 0.614235 0.391777 0.852573
O O8 0.637452 0.226891 0.237190
O O9 0.652600 0.410113 0.124613
O O10 0.500000 0.133134 0.250000
O O11 0.457156 0.213040 0.384617
O O12 0.914851 0.852101 0.507114
O O13 0.003515 0.021750 0.596421
#
# Coordination Sequence:
#
# PCOD8134096 Si02
#       6
#     8   8   8   8   8   8
#     4   9  17  30  53  78 100 138 182 217 262 315
#     4  11  20  34  56  77 111 139 181 229 268 315
#     4  10  21  33  53  81 104 141 181 224 269 320
#     4   9  17  32  52  78 106 135 179 226 263 313
#     4  10  19  35  56  79 106 147 180 222 270 323
#     4   9  20  34  53  82 105 142 186 219 267 333
#
# _framework density 16.951184999999999
#
# number of rings (size 3 to 8) (size 9 to 14) (size 15 to 20)
#    1.000    1.333    1.667    2.000    0.000    1.333 
#    0.000    0.000    0.000    1.000    0.000    0.000 
#    0.000    0.000    0.000    0.000    0.000    0.000 
#
# Total GULP energy -297339.944126 kJ/mol
# GULP energy per Si atom -12389.164339 kJ/mol
# Density = 1.691260 g / cm^3
# Si number density = 16.951185 Si / 1000 Ang^3
#
#
#
# Elastic Constant Matrix: (Units=GPa)
#
#
# Indices 1 2 3 4 5 6 
#
# 1 73.3754 28.2145 41.1866 0.0000 5.0550 0.0000
# 2 28.2145 113.8865 42.7810 0.0000 -6.0840 0.0000
# 3 41.1866 42.7810 99.5381 0.0000 5.0843 0.0000
# 4 0.0000 0.0000 0.0000 0.3264 0.0000 -0.8761
# 5 5.0550 -6.0840 5.0843 0.0000 15.9322 0.0000
# 6 0.0000 0.0000 0.0000 -0.8761 0.0000 32.5592
#
#
#
# Elastic Compliance Matrix: (Units=1/GPa)
#
#
# Indices 1 2 3 4 5 6 
#
# 1 0.018457 -0.002444 -0.006343 0.000000 -0.004765 0.000000
# 2 -0.002444 0.011296 -0.004172 0.000000 0.006421 0.000000
# 3 -0.006343 -0.004172 0.014682 0.000000 -0.004266 0.000000
# 4 0.000000 0.000000 0.000000 3.301698 0.000000 0.088837
# 5 -0.004765 0.006421 -0.004266 0.000000 0.068091 0.000000
# 6 0.000000 0.000000 0.000000 0.088837 0.000000 0.033104
#
#
# Mechanical properties :
#
#
# Convention : Reuss Voigt Hill
#
# Bulk Modulus (GPa) = 54.00431 56.79604 55.40017
# Shear Modulus (GPa) = 1.43702 21.40476 11.42089
#
# Velocity S-wave (km/s) = 0.92173 3.55735 2.59849
# Velocity P-wave (km/s) = 5.74984 7.10291 6.46189
#
# Compressibility (1/GPa) = 0.01851704
#
# Stress axis : x y z
#
# Youngs Moduli (GPa) = 54.17905 88.52450 68.11103
#
# Poissons Ratio (x) = 0.21639 0.43204
# Poissons Ratio (y) = 0.13244 0.28413
# Poissons Ratio (z) = 0.34367 0.36929
#
# Static dielectric constant tensor:
#      x y z
#    x 3.050210 0.000000 0.173360 
#    y 0.000000 3.443050 0.000000 
#    z 0.173360 0.000000 2.992360 
# 
# 
# High freq. dielectric constant tensor:
#      x y z
#    x 1.643270 0.000000 0.008180 
#    y 0.000000 1.666130 0.000000 
#    z 0.008180 0.000000 1.628420 
# 
# From -- ./inp_files/246664.got.cif
#   From: 2010.06.25/outbox.cif.g09.slc.cpg/sg15_124_cif.got.tgz:246664.got - 2010.06.28 07:06:18.
