data_PCOD8134398
_publ_section_title
;
Structure prediction by ZEFSAII (Michael W. Deem and Ramdas Pophale) SiO2 
 PCOD8134398
Probable space group: C 2/C
;
_chemical_formula_sum "Si O2"
_cell_formula_units_Z 40
_cell_length_a 16.115035
_cell_length_b 10.034210
_cell_length_c 11.494322
_cell_angle_alpha 90.000000
_cell_angle_beta 99.845515
_cell_angle_gamma 90.000000
_cell_volume 1831.277269
_symmetry_space_group_name_H-M "C 2/C"
_symmetry_group_IT_number 15
_symmetry_cell_setting 'monoclinic'
loop_
_space_group_symop_operation_xyz
x,y,z
-x,y,1/2-z
-x,-y,-z
x,-y,1/2+z
1/2+x,1/2+y,z
1/2-x,1/2+y,1/2-z
1/2-x,1/2-y,-z
1/2+x,1/2-y,1/2+z
loop_
_atom_site_type_symbol
_atom_site_label
_atom_site_fract_x
_atom_site_fract_y
_atom_site_fract_z
Si Si1 0.621556 0.524139 0.016183
Si Si2 0.498659 0.303846 0.610130
Si Si3 0.731453 0.127664 0.576781
Si Si4 0.232612 0.179164 0.659703
Si Si5 0.637332 0.880194 0.503586
O O1 0.589063 0.663939 0.068805
O O2 0.671067 0.447047 0.130110
O O3 0.550357 0.436398 0.938698
O O4 0.685157 0.539842 0.923070
O O5 0.500000 0.289466 0.750000
O O6 0.458743 0.168731 0.543599
O O7 0.750000 0.250000 0.500000
O O8 0.723940 0.178240 0.705245
O O9 0.648093 0.040093 0.521324
O O10 0.311077 0.179007 0.591853
O O11 0.175883 0.312119 0.629292
#
# Coordination Sequence:
#
# PCOD8134398 Si02
#       5
#     8   8   8   8   8
#     4   9  20  36  56  94 111 159 208 245 296 361
#     4  10  19  35  63  81 124 159 199 247 303 362
#     4  11  23  35  60  89 120 152 203 251 303 353
#     4   9  19  37  61  84 124 149 204 259 294 356
#     4   9  21  37  57  92 115 159 199 246 308 361
#
# _framework density 21.842679
#
# number of rings (size 3 to 8) (size 9 to 14) (size 15 to 20)
#    0.000    2.400    0.000    2.400    8.400    0.000 
#    0.000    1.000    0.000    0.000    0.000    0.000 
#    0.000    0.000    0.000    0.000    0.000    0.000 
#
# Total GULP energy -247787.278800 kJ/mol
# GULP energy per Si atom -12389.363940 kJ/mol
# Density = 2.179296 g / cm^3
# Si number density = 21.842679 Si / 1000 Ang^3
#
#
#
# Elastic Constant Matrix: (Units=GPa)
#
#
# Indices 1 2 3 4 5 6 
#
# 1 55.9024 14.6404 7.2487 0.0000 2.6451 0.0000
# 2 14.6404 112.3550 26.6875 0.0000 12.1752 0.0000
# 3 7.2487 26.6875 106.7016 0.0000 5.3061 0.0000
# 4 0.0000 0.0000 0.0000 23.8628 0.0000 2.5671
# 5 2.6451 12.1752 5.3061 0.0000 22.8326 0.0000
# 6 0.0000 0.0000 0.0000 2.5671 0.0000 37.1858
#
#
#
# Elastic Compliance Matrix: (Units=1/GPa)
#
#
# Indices 1 2 3 4 5 6 
#
# 1 0.018584 -0.002170 -0.000678 0.000000 -0.000838 0.000000
# 2 -0.002170 0.010207 -0.002172 0.000000 -0.004687 0.000000
# 3 -0.000678 -0.002172 0.010016 0.000000 -0.001091 0.000000
# 4 0.000000 0.000000 0.000000 0.042220 0.000000 -0.002915
# 5 -0.000838 -0.004687 -0.001091 0.000000 0.046647 0.000000
# 6 0.000000 0.000000 0.000000 -0.002915 0.000000 0.027093
#
#
# Mechanical properties :
#
#
# Convention : Reuss Voigt Hill
#
# Bulk Modulus (GPa) = 34.76307 41.34579 38.05443
# Shear Modulus (GPa) = 28.67044 31.86838 30.26941
#
# Velocity S-wave (km/s) = 3.62690 3.82382 3.72666
# Velocity P-wave (km/s) = 5.78696 6.20206 5.99810
#
# Compressibility (1/GPa) = 0.02876616
#
# Stress axis : x y z
#
# Youngs Moduli (GPa) = 53.80928 97.97244 99.84435
#
# Poissons Ratio (x) = 0.21257 0.06771
# Poissons Ratio (y) = 0.11675 0.21691
# Poissons Ratio (z) = 0.03649 0.21284
#
# Static dielectric constant tensor:
#      x y z
#    x 10.024400 0.000000 -5.086420 
#    y 0.000000 4.214220 0.000000 
#    z -5.086420 0.000000 8.005430 
# 
# 
# High freq. dielectric constant tensor:
#      x y z
#    x 1.854690 0.000000 0.001930 
#    y 0.000000 1.856140 0.000000 
#    z 0.001930 0.000000 1.844130 
# 
# From -- ./inp_files/103332.got.cif
#   From: 2010.06.25/outbox.cif.g09.slc.cpg/sg15_52_cif.got.tgz:103332.got - 2010.06.28 07:06:18.
