data_PCOD8134750
_publ_section_title
;
Structure prediction by ZEFSAII (Michael W. Deem and Ramdas Pophale) SiO2 
 PCOD8134750
Probable space group: C 2/C
;
_chemical_formula_sum "Si O2"
_cell_formula_units_Z 56
_cell_length_a 19.648443
_cell_length_b 10.340152
_cell_length_c 25.919562
_cell_angle_alpha 90.000000
_cell_angle_beta 26.474974
_cell_angle_gamma 90.000000
_cell_volume 2347.629104
_symmetry_space_group_name_H-M "C 2/C"
_symmetry_group_IT_number 15
_symmetry_cell_setting 'monoclinic'
loop_
_space_group_symop_operation_xyz
x,y,z
-x,y,1/2-z
-x,-y,-z
x,-y,1/2+z
1/2+x,1/2+y,z
1/2-x,1/2+y,1/2-z
1/2-x,1/2-y,-z
1/2+x,1/2-y,1/2+z
loop_
_atom_site_type_symbol
_atom_site_label
_atom_site_fract_x
_atom_site_fract_y
_atom_site_fract_z
Si Si1 0.465480 0.413622 0.917572
Si Si2 0.617433 0.084714 0.630141
Si Si3 0.437722 0.137402 0.651215
Si Si4 0.863136 0.895856 0.262335
Si Si5 0.389344 0.642671 0.631156
Si Si6 0.548674 0.896072 0.530711
Si Si7 0.589333 0.812463 0.617787
O O1 0.550539 0.283675 0.878168
O O2 0.542058 0.470782 0.812971
O O3 0.491589 0.520483 0.946341
O O4 0.290266 0.377137 0.025896
O O5 0.500000 0.151333 0.750000
O O6 0.570137 0.124860 0.604486
O O7 0.605204 0.930046 0.646546
O O8 0.269068 0.115099 0.792163
O O9 0.460621 0.035049 0.587501
O O10 0.820753 0.833864 0.235587
O O11 0.718457 0.921600 0.395940
O O12 0.970367 0.793757 0.219937
O O13 0.470053 0.773563 0.554823
O O14 0.536160 0.865281 0.599054
O O15 0.750000 0.750000 0.500000
#
# Coordination Sequence:
#
# PCOD8134750 Si02
#       7
#     8   8   8   8   8   8   8
#     4  10  22  44  63  91 135 166 203 274 317 369
#     4  11  24  40  61  91 129 171 213 252 319 382
#     4  11  23  42  65  89 134 171 206 267 323 379
#     4   9  21  37  66  93 125 158 215 262 320 374
#     4   9  21  43  66  93 130 159 214 275 313 369
#     4  10  21  38  64  96 119 164 218 257 322 384
#     4  10  19  36  61  89 124 159 203 266 309 362
#
# _framework density 23.853852
#
# number of rings (size 3 to 8) (size 9 to 14) (size 15 to 20)
#    0.857    1.143    1.429    1.286    4.000    1.714 
#    2.571    0.714    0.000    0.000    0.000    0.000 
#    0.000    0.000    0.000    0.000    0.000    0.000 
#
# Total GULP energy -346870.016054 kJ/mol
# GULP energy per Si atom -12388.214859 kJ/mol
# Density = 2.379956 g / cm^3
# Si number density = 23.853852 Si / 1000 Ang^3
#
#
#
# Elastic Constant Matrix: (Units=GPa)
#
#
# Indices 1 2 3 4 5 6 
#
# 1 30.6784 4.1315 9.5106 0.0004 -23.5749 0.0001
# 2 4.1315 149.3891 33.6619 0.0001 -12.9718 0.0009
# 3 9.5106 33.6619 143.4321 0.0017 -25.9506 0.0029
# 4 0.0004 0.0001 0.0017 21.5811 0.0027 -14.7415
# 5 -23.5749 -12.9718 -25.9506 0.0027 40.2100 -0.0002
# 6 0.0001 0.0009 0.0029 -14.7415 -0.0002 20.7310
#
#
#
# Elastic Compliance Matrix: (Units=1/GPa)
#
#
# Indices 1 2 3 4 5 6 
#
# 1 0.060384 0.001006 0.002518 -0.000012 0.037352 -0.000009
# 2 0.001006 0.007152 -0.001382 0.000000 0.002005 0.000000
# 3 0.002518 -0.001382 0.008283 -0.000004 0.006376 -0.000004
# 4 -0.000012 0.000000 -0.000004 0.090102 -0.000016 0.064070
# 5 0.037352 0.002005 0.006376 -0.000016 0.051531 -0.000012
# 6 -0.000009 0.000000 -0.000004 0.064070 -0.000012 0.093796
#
#
# Mechanical properties :
#
#
# Convention : Reuss Voigt Hill
#
# Bulk Modulus (GPa) = 12.48415 46.45641 29.47028
# Shear Modulus (GPa) = 14.98514 34.91744 24.95129
#
# Velocity S-wave (km/s) = 2.50912 3.83012 3.23771
# Velocity P-wave (km/s) = 3.69313 6.25120 5.13404
#
# Compressibility (1/GPa) = 0.08010160
#
# Stress axis : x y z
#
# Youngs Moduli (GPa) = 16.56077 139.82722 120.72923
#
# Poissons Ratio (x) = -0.14067 -0.30400
# Poissons Ratio (y) = -0.01666 0.16690
# Poissons Ratio (z) = -0.04170 0.19330
#
# Static dielectric constant tensor:
#      x y z
#    x 4.119780 0.006090 -0.472840 
#    y 0.006090 3.473380 -0.006160 
#    z -0.472840 -0.006160 4.264090 
# 
# 
# High freq. dielectric constant tensor:
#      x y z
#    x 1.919840 0.000000 -0.022730 
#    y 0.000000 1.950080 0.000000 
#    z -0.022730 0.000000 1.940390 
# 
# From -- ./inp_files/318765.got.cif
#   From: 2010.06.25/outbox.cif.g09.slc.cpg/sg15_160_cif.got.tgz:318765.got - 2010.06.28 07:06:18.
