data_PCOD8134140
_publ_section_title
;
Structure prediction by ZEFSAII (Michael W. Deem and Ramdas Pophale) SiO2 
 PCOD8134140
Probable space group: C 2/C
;
_chemical_formula_sum "Si O2"
_cell_formula_units_Z 56
_cell_length_a 15.286332
_cell_length_b 11.841821
_cell_length_c 25.456688
_cell_angle_alpha 90.000000
_cell_angle_beta 146.070287
_cell_angle_gamma 90.000000
_cell_volume 2572.138951
_symmetry_space_group_name_H-M "C 2/C"
_symmetry_group_IT_number 15
_symmetry_cell_setting 'monoclinic'
loop_
_space_group_symop_operation_xyz
x,y,z
-x,y,1/2-z
-x,-y,-z
x,-y,1/2+z
1/2+x,1/2+y,z
1/2-x,1/2+y,1/2-z
1/2-x,1/2-y,-z
1/2+x,1/2-y,1/2+z
loop_
_atom_site_type_symbol
_atom_site_label
_atom_site_fract_x
_atom_site_fract_y
_atom_site_fract_z
Si Si1 0.462760 0.996748 0.360176
Si Si2 0.528297 0.604925 0.124313
Si Si3 0.870482 0.752313 0.463792
Si Si4 0.333275 0.773018 0.774324
Si Si5 0.225351 0.037039 0.428230
Si Si6 0.700600 0.594200 0.664169
Si Si7 0.816795 0.626981 0.883526
O O1 0.643111 0.966746 0.460225
O O2 0.381081 0.923211 0.273360
O O3 0.365763 0.969633 0.365597
O O4 0.459328 0.126605 0.338870
O O5 0.671276 0.678050 0.218408
O O6 0.444865 0.534333 0.129258
O O7 0.604238 0.522889 0.117847
O O8 0.405183 0.690763 0.037179
O O9 0.740468 0.655263 0.404968
O O10 0.800713 0.852252 0.393769
O O11 0.028982 0.694402 0.520042
O O12 0.392537 0.676894 0.842967
O O13 0.303537 0.718416 0.701729
O O14 0.237741 0.931783 0.394528
#
# Coordination Sequence:
#
# PCOD8134140 Si02
#       7
#     8   8   8   8   8   8   8
#     4   9  18  34  56  79 109 149 186 224 277 339
#     4  10  22  36  56  85 113 140 185 238 277 320
#     4  10  19  35  58  80 109 151 188 218 273 347
#     4   9  18  36  55  78 109 151 189 222 271 339
#     4  11  20  36  59  87 113 141 184 239 280 321
#     4  10  19  35  57  78 107 150 189 223 270 339
#     4   9  18  32  57  83 109 150 190 218 272 345
#
# _framework density 21.771764999999998
#
# number of rings (size 3 to 8) (size 9 to 14) (size 15 to 20)
#    0.000    2.286    0.000    5.143    0.000    0.000 
#    0.000   16.429    0.000    8.571    0.000    0.000 
#    0.000    0.000    0.000    0.000    0.000    0.000 
#
# Total GULP energy -347048.035791 kJ/mol
# GULP energy per Si atom -12394.572707 kJ/mol
# Density = 2.172221 g / cm^3
# Si number density = 21.771765 Si / 1000 Ang^3
#
#
#
# Elastic Constant Matrix: (Units=GPa)
#
#
# Indices 1 2 3 4 5 6 
#
# 1 66.5070 14.4171 17.5831 0.0000 6.1699 0.0000
# 2 14.4171 100.7501 14.7744 0.0000 -1.1472 0.0000
# 3 17.5831 14.7744 49.3906 0.0000 -4.3826 0.0000
# 4 0.0000 0.0000 0.0000 33.0161 0.0000 -10.6869
# 5 6.1699 -1.1472 -4.3826 0.0000 15.2723 0.0000
# 6 0.0000 0.0000 0.0000 -10.6869 0.0000 34.2193
#
#
#
# Elastic Compliance Matrix: (Units=1/GPa)
#
#
# Indices 1 2 3 4 5 6 
#
# 1 0.018058 -0.001701 -0.006750 0.000000 -0.009360 0.000000
# 2 -0.001701 0.010541 -0.002480 0.000000 0.000767 0.000000
# 3 -0.006750 -0.002480 0.024234 0.000000 0.009495 0.000000
# 4 0.000000 0.000000 0.000000 0.033694 0.000000 0.010523
# 5 -0.009360 0.000767 0.009495 0.000000 0.072042 0.000000
# 6 0.000000 0.000000 0.000000 0.010523 0.000000 0.032510
#
#
# Mechanical properties :
#
#
# Convention : Reuss Voigt Hill
#
# Bulk Modulus (GPa) = 32.28761 34.46632 33.37697
# Shear Modulus (GPa) = 22.39494 27.82642 25.11068
#
# Velocity S-wave (km/s) = 3.21069 3.57893 3.39980
# Velocity P-wave (km/s) = 5.34855 5.73963 5.54754
#
# Compressibility (1/GPa) = 0.03097163
#
# Stress axis : x y z
#
# Youngs Moduli (GPa) = 55.37809 94.86510 41.26394
#
# Poissons Ratio (x) = 0.16134 0.27855
# Poissons Ratio (y) = 0.09418 0.10232
# Poissons Ratio (z) = 0.37382 0.23524
#
# Static dielectric constant tensor:
#      x y z
#    x 3.275630 0.000000 -0.116130 
#    y 0.000000 4.199160 0.000000 
#    z -0.116130 0.000000 3.964940 
# 
# 
# High freq. dielectric constant tensor:
#      x y z
#    x 1.794900 0.000000 -0.013720 
#    y 0.000000 1.875570 0.000000 
#    z -0.013720 0.000000 1.852210 
# 
# From -- ./inp_files/295917.got.cif
#   From: 2010.06.25/outbox.cif.g09.slc.cpg/sg15_148_cif.got.tgz:295917.got - 2010.06.28 07:06:18.
