data_PCOD8134295
_publ_section_title
;
Structure prediction by ZEFSAII (Michael W. Deem and Ramdas Pophale) SiO2 
 PCOD8134295
Probable space group: C 2/C
;
_chemical_formula_sum "Si O2"
_cell_formula_units_Z 44
_cell_length_a 12.288401
_cell_length_b 22.693821
_cell_length_c 10.049845
_cell_angle_alpha 90.000000
_cell_angle_beta 124.210839
_cell_angle_gamma 90.000000
_cell_volume 2317.684617
_symmetry_space_group_name_H-M "C 2/C"
_symmetry_group_IT_number 15
_symmetry_cell_setting 'monoclinic'
loop_
_space_group_symop_operation_xyz
x,y,z
-x,y,1/2-z
-x,-y,-z
x,-y,1/2+z
1/2+x,1/2+y,z
1/2-x,1/2+y,1/2-z
1/2-x,1/2-y,-z
1/2+x,1/2-y,1/2+z
loop_
_atom_site_type_symbol
_atom_site_label
_atom_site_fract_x
_atom_site_fract_y
_atom_site_fract_z
Si Si1 0.649367 0.036424 0.870771
Si Si2 0.138350 0.773236 0.772976
Si Si3 0.261873 0.658757 0.916792
Si Si4 0.195580 0.980908 0.758314
Si Si5 0.500000 0.428550 0.250000
Si Si6 0.946258 0.127902 0.455548
O O1 0.500000 0.015660 0.750000
O O2 0.658629 0.105454 0.842242
O O3 0.738103 0.996381 0.835989
O O4 0.694722 0.026187 0.053179
O O5 0.207887 0.711252 0.784512
O O6 0.119072 0.809041 0.622501
O O7 0.000000 0.761107 0.750000
O O8 0.230038 0.813241 0.930604
O O9 0.398388 0.632181 0.961106
O O10 0.112252 0.921116 0.684630
O O11 0.096087 0.032614 0.727078
O O12 0.581080 0.387683 0.409074
#
# Coordination Sequence:
#
# PCOD8134295 Si02
#       6
#     8   8   8   8   4   8
#     4  12  24  39  60  88 129 162 199 246 307 364
#     4   9  19  34  58  87 118 148 198 254 296 346
#     4  10  19  35  59  90 112 150 199 248 299 348
#     4  12  23  39  61  94 123 159 205 248 302 365
#     4  12  22  36  64  90 120 158 202 254 294 368
#     4  11  21  37  62  88 120 154 200 254 300 349
#
# _framework density 18.984465
#
# number of rings (size 3 to 8) (size 9 to 14) (size 15 to 20)
#    0.000    1.091    5.455    2.727    1.273    0.000 
#    0.000    0.909    0.000    0.000    0.000    0.000 
#    0.000    0.000    0.000    0.000    0.000    0.000 
#
# Total GULP energy -272830.426767 kJ/mol
# GULP energy per Si atom -12401.383035 kJ/mol
# Density = 1.894126 g / cm^3
# Si number density = 18.984465 Si / 1000 Ang^3
#
#
#
# Elastic Constant Matrix: (Units=GPa)
#
#
# Indices 1 2 3 4 5 6 
#
# 1 67.4474 29.7598 19.4039 0.0000 10.3154 0.0000
# 2 29.7598 103.6617 37.3207 0.0000 5.9700 0.0000
# 3 19.4039 37.3207 108.2163 0.0000 3.5395 0.0000
# 4 0.0000 0.0000 0.0000 29.1169 0.0000 15.0984
# 5 10.3154 5.9700 3.5395 0.0000 27.3019 0.0000
# 6 0.0000 0.0000 0.0000 15.0984 0.0000 13.1344
#
#
#
# Elastic Compliance Matrix: (Units=1/GPa)
#
#
# Indices 1 2 3 4 5 6 
#
# 1 0.018037 -0.004286 -0.001570 0.000000 -0.005674 0.000000
# 2 -0.004286 0.012134 -0.003397 0.000000 -0.000594 0.000000
# 3 -0.001570 -0.003397 0.010695 0.000000 -0.000050 0.000000
# 4 0.000000 0.000000 0.000000 0.085028 0.000000 -0.097742
# 5 -0.005674 -0.000594 -0.000050 0.000000 0.038908 0.000000
# 6 0.000000 0.000000 0.000000 -0.097742 0.000000 0.188494
#
#
# Mechanical properties :
#
#
# Convention : Reuss Voigt Hill
#
# Bulk Modulus (GPa) = 44.72223 50.25493 47.48858
# Shear Modulus (GPa) = 13.18369 26.76668 19.97518
#
# Velocity S-wave (km/s) = 2.63809 3.75897 3.24726
# Velocity P-wave (km/s) = 5.73479 6.73564 6.25527
#
# Compressibility (1/GPa) = 0.02236024
#
# Stress axis : x y z
#
# Youngs Moduli (GPa) = 55.44131 82.41061 93.49738
#
# Poissons Ratio (x) = 0.35321 0.14683
# Poissons Ratio (y) = 0.23762 0.31760
# Poissons Ratio (z) = 0.08707 0.27994
#
# Static dielectric constant tensor:
#      x y z
#    x 3.189980 0.000000 0.118350 
#    y 0.000000 3.661530 0.000000 
#    z 0.118350 0.000000 3.608440 
# 
# 
# High freq. dielectric constant tensor:
#      x y z
#    x 1.707980 0.000000 0.015290 
#    y 0.000000 1.746620 0.000000 
#    z 0.015290 0.000000 1.742000 
# 
# From -- ./inp_files/30706.got.cif
#   From: 2010.06.25/outbox.cif.g09.slc.cpg/sg15_16_cif.got.tgz:30706.got - 2010.06.28 07:06:18.
