data_PCOD8134983
_publ_section_title
;
Structure prediction by ZEFSAII (Michael W. Deem and Ramdas Pophale) SiO2 
 PCOD8134983
Probable space group: C 2/C
;
_chemical_formula_sum "Si O2"
_cell_formula_units_Z 64
_cell_length_a 10.109717
_cell_length_b 19.282838
_cell_length_c 23.034161
_cell_angle_alpha 90.000000
_cell_angle_beta 48.878086
_cell_angle_gamma 90.000000
_cell_volume 3382.650927
_symmetry_space_group_name_H-M "C 2/C"
_symmetry_group_IT_number 15
_symmetry_cell_setting 'monoclinic'
loop_
_space_group_symop_operation_xyz
x,y,z
-x,y,1/2-z
-x,-y,-z
x,-y,1/2+z
1/2+x,1/2+y,z
1/2-x,1/2+y,1/2-z
1/2-x,1/2-y,-z
1/2+x,1/2-y,1/2+z
loop_
_atom_site_type_symbol
_atom_site_label
_atom_site_fract_x
_atom_site_fract_y
_atom_site_fract_z
Si Si1 0.652466 0.111529 0.751963
Si Si2 0.452939 0.609925 0.902778
Si Si3 0.265070 0.751883 0.209510
Si Si4 0.623259 0.506195 0.160139
Si Si5 0.887546 0.250952 0.867637
Si Si6 0.862999 0.898023 0.672621
Si Si7 0.601939 0.972847 0.830579
Si Si8 0.242590 0.899131 0.927815
O O1 0.500000 0.104486 0.750000
O O2 0.635677 0.185730 0.787674
O O3 0.839269 0.101354 0.666636
O O4 0.624437 0.053260 0.808229
O O5 0.349804 0.562280 0.886171
O O6 0.387243 0.688711 0.913807
O O7 0.407678 0.586519 0.981132
O O8 0.225451 0.773814 0.155009
O O9 0.387500 0.683925 0.176314
O O10 0.085620 0.731679 0.292926
O O11 0.500000 0.486368 0.250000
O O12 0.538493 0.565857 0.144798
O O13 0.806018 0.535868 0.132835
O O14 0.807942 0.320491 0.917492
O O15 0.691227 0.925647 0.755422
O O16 0.838188 0.913683 0.611853
O O17 0.400021 0.952460 0.894347
#
# Coordination Sequence:
#
# PCOD8134983 Si02
#       8
#     8   8   8   8   8   8   8   8
#     4  11  22  37  57  86 115 148 197 240 283 337
#     4  11  22  37  59  87 116 151 189 238 294 338
#     4   9  18  33  60  84 108 151 197 232 276 337
#     4  10  21  37  58  81 117 151 191 236 283 333
#     4   9  18  34  58  85 113 146 190 237 279 337
#     4  10  19  37  59  85 116 153 194 231 283 340
#     4  11  21  38  59  85 115 151 193 242 277 337
#     4  11  22  36  61  88 119 149 189 237 290 343
#
# _framework density 18.920072000000001
#
# number of rings (size 3 to 8) (size 9 to 14) (size 15 to 20)
#    0.000    1.750    3.750    2.250    1.750    2.500 
#    0.000    0.000    0.000    1.500    0.000    0.000 
#    0.000    0.000    0.000    0.000    0.000    0.000 
#
# Total GULP energy -396843.416542 kJ/mol
# GULP energy per Si atom -12401.356767 kJ/mol
# Density = 1.887701 g / cm^3
# Si number density = 18.920072 Si / 1000 Ang^3
#
#
#
# Elastic Constant Matrix: (Units=GPa)
#
#
# Indices 1 2 3 4 5 6 
#
# 1 117.1790 53.1065 43.6473 0.0002 13.7018 -0.0003
# 2 53.1065 101.6893 39.4290 -0.0012 4.1237 0.0003
# 3 43.6473 39.4290 89.5682 -0.0052 10.1541 0.0025
# 4 0.0002 -0.0012 -0.0052 18.0393 0.0012 4.2049
# 5 13.7018 4.1237 10.1541 0.0012 19.4394 -0.0002
# 6 -0.0003 0.0003 0.0025 4.2049 -0.0002 27.8198
#
#
#
# Elastic Compliance Matrix: (Units=1/GPa)
#
#
# Indices 1 2 3 4 5 6 
#
# 1 0.012826 -0.005180 -0.003263 -0.000001 -0.006237 0.000001
# 2 -0.005180 0.013951 -0.003928 0.000000 0.002744 0.000000
# 3 -0.003263 -0.003928 0.015018 0.000005 -0.004712 -0.000002
# 4 -0.000001 0.000000 0.000005 0.057459 -0.000005 -0.008685
# 5 -0.006237 0.002744 -0.004712 -0.000005 0.057717 0.000002
# 6 0.000001 0.000000 -0.000002 -0.008685 0.000002 0.037258
#
#
# Mechanical properties :
#
#
# Convention : Reuss Voigt Hill
#
# Bulk Modulus (GPa) = 58.64084 64.53356 61.58720
# Shear Modulus (GPa) = 22.25614 24.54328 23.39971
#
# Velocity S-wave (km/s) = 3.43348 3.60559 3.52058
# Velocity P-wave (km/s) = 6.83956 7.17748 7.01056
#
# Compressibility (1/GPa) = 0.01705296
#
# Stress axis : x y z
#
# Youngs Moduli (GPa) = 77.96380 71.67886 66.58685
#
# Poissons Ratio (x) = 0.37133 0.21726
# Poissons Ratio (y) = 0.40389 0.26155
# Poissons Ratio (z) = 0.25438 0.28156
#
# Static dielectric constant tensor:
#      x y z
#    x 3.504930 0.000000 0.155960 
#    y 0.000000 3.569390 0.000000 
#    z 0.155960 0.000000 3.223890 
# 
# 
# High freq. dielectric constant tensor:
#      x y z
#    x 1.730490 0.000000 0.016850 
#    y 0.000000 1.747950 0.000000 
#    z 0.016850 0.000000 1.711250 
# 
# From -- ./inp_files/233846.got.cif
#   From: 2010.06.25/outbox.cif.g09.slc.cpg/sg15_117_cif.got.tgz:233846.got - 2010.06.28 07:06:18.
