data_PCOD8134411
_publ_section_title
;
Structure prediction by ZEFSAII (Michael W. Deem and Ramdas Pophale) SiO2 
 PCOD8134411
Probable space group: C 2/C
;
_chemical_formula_sum "Si O2"
_cell_formula_units_Z 40
_cell_length_a 14.006025
_cell_length_b 13.509760
_cell_length_c 10.390669
_cell_angle_alpha 90.000000
_cell_angle_beta 111.374035
_cell_angle_gamma 90.000000
_cell_volume 1830.875600
_symmetry_space_group_name_H-M "C 2/C"
_symmetry_group_IT_number 15
_symmetry_cell_setting 'monoclinic'
loop_
_space_group_symop_operation_xyz
x,y,z
-x,y,1/2-z
-x,-y,-z
x,-y,1/2+z
1/2+x,1/2+y,z
1/2-x,1/2+y,1/2-z
1/2-x,1/2-y,-z
1/2+x,1/2-y,1/2+z
loop_
_atom_site_type_symbol
_atom_site_label
_atom_site_fract_x
_atom_site_fract_y
_atom_site_fract_z
Si Si1 0.763720 0.129973 0.156330
Si Si2 0.450109 0.106174 0.846655
Si Si3 0.743808 0.639664 0.641361
Si Si4 0.068575 0.018758 0.659147
Si Si5 0.539219 0.113427 0.139951
O O1 0.779668 0.247191 0.161810
O O2 0.858100 0.075513 0.274199
O O3 0.661110 0.111553 0.186452
O O4 0.755744 0.095023 0.003366
O O5 0.500000 0.164903 0.750000
O O6 0.329434 0.087234 0.771419
O O7 0.504984 0.998650 0.878809
O O8 0.483105 0.166623 0.990986
O O9 0.636418 0.616112 0.658882
O O10 0.000000 0.042832 0.750000
O O11 0.000000 0.000000 0.500000
O O12 0.500000 0.168534 0.250000
#
# Coordination Sequence:
#
# PCOD8134411 Si02
#       5
#     8   8   8   8   8
#     4  11  24  43  68 100 136 182 232 285 346 421
#     4  10  19  35  63  92 119 163 207 264 331 398
#     4  11  24  42  70 100 134 180 238 283 339 430
#     4  12  26  46  72 101 144 192 236 288 357 425
#     4  10  21  35  62  94 127 158 206 274 342 393
#
# _framework density 21.847470000000001
#
# number of rings (size 3 to 8) (size 9 to 14) (size 15 to 20)
#    0.000    1.200    6.000    0.000    0.000    4.800 
#    0.000    2.000    0.000    0.000    0.000    0.000 
#    0.000    0.000    0.000    0.000    0.000    0.000 
#
# Total GULP energy -247841.812775 kJ/mol
# GULP energy per Si atom -12392.090639 kJ/mol
# Density = 2.179774 g / cm^3
# Si number density = 21.847470 Si / 1000 Ang^3
#
#
#
# Elastic Constant Matrix: (Units=GPa)
#
#
# Indices 1 2 3 4 5 6 
#
# 1 171.1485 10.5318 87.7304 0.0000 -14.8729 0.0000
# 2 10.5318 38.1721 20.8584 0.0000 4.5171 0.0000
# 3 87.7304 20.8584 203.4335 0.0000 -4.7281 0.0000
# 4 0.0000 0.0000 0.0000 19.1124 0.0000 -1.6704
# 5 -14.8729 4.5171 -4.7281 0.0000 53.2091 0.0000
# 6 0.0000 0.0000 0.0000 -1.6704 0.0000 18.0662
#
#
#
# Elastic Compliance Matrix: (Units=1/GPa)
#
#
# Indices 1 2 3 4 5 6 
#
# 1 0.007692 -0.000594 -0.003212 0.000000 0.001915 0.000000
# 2 -0.000594 0.028165 -0.002697 0.000000 -0.002797 0.000000
# 3 -0.003212 -0.002697 0.006575 0.000000 -0.000085 0.000000
# 4 0.000000 0.000000 0.000000 0.052748 0.000000 0.004877
# 5 0.001915 -0.002797 -0.000085 0.000000 0.019559 0.000000
# 6 0.000000 0.000000 0.000000 0.004877 0.000000 0.055803
#
#
# Mechanical properties :
#
#
# Convention : Reuss Voigt Hill
#
# Bulk Modulus (GPa) = 33.98122 72.33281 53.15702
# Shear Modulus (GPa) = 25.85880 37.65309 31.75595
#
# Velocity S-wave (km/s) = 3.44409 4.15595 3.81665
# Velocity P-wave (km/s) = 5.60386 7.49728 6.61863
#
# Compressibility (1/GPa) = 0.02942802
#
# Stress axis : x y z
#
# Youngs Moduli (GPa) = 130.00107 35.50443 152.08526
#
# Poissons Ratio (x) = 0.02109 0.48848
# Poissons Ratio (y) = 0.07721 0.41013
# Poissons Ratio (z) = 0.41755 0.09575
#
# Static dielectric constant tensor:
#      x y z
#    x 3.973050 0.000000 -0.226000 
#    y 0.000000 3.634860 0.000000 
#    z -0.226000 0.000000 4.635950 
# 
# 
# High freq. dielectric constant tensor:
#      x y z
#    x 1.866370 0.000000 -0.002250 
#    y 0.000000 1.819120 0.000000 
#    z -0.002250 0.000000 1.879410 
# 
# From -- ./inp_files/38068.got.cif
#   From: 2010.06.25/outbox.cif.g09.slc.cpg/sg15_20_cif.got.tgz:38068.got - 2010.06.28 07:06:18.
