data_PCOD8134597
_publ_section_title
;
Structure prediction by ZEFSAII (Michael W. Deem and Ramdas Pophale) SiO2 
 PCOD8134597
Probable space group: C 2/C
;
_chemical_formula_sum "Si O2"
_cell_formula_units_Z 56
_cell_length_a 19.240504
_cell_length_b 7.169762
_cell_length_c 21.684156
_cell_angle_alpha 90.000000
_cell_angle_beta 109.933749
_cell_angle_gamma 90.000000
_cell_volume 2812.107837
_symmetry_space_group_name_H-M "C 2/C"
_symmetry_group_IT_number 15
_symmetry_cell_setting 'monoclinic'
loop_
_space_group_symop_operation_xyz
x,y,z
-x,y,1/2-z
-x,-y,-z
x,-y,1/2+z
1/2+x,1/2+y,z
1/2-x,1/2+y,1/2-z
1/2-x,1/2-y,-z
1/2+x,1/2-y,1/2+z
loop_
_atom_site_type_symbol
_atom_site_label
_atom_site_fract_x
_atom_site_fract_y
_atom_site_fract_z
Si Si1 0.415294 0.026801 0.457804
Si Si2 0.181858 0.566120 0.677407
Si Si3 0.279722 0.613775 0.395607
Si Si4 0.158169 0.156861 0.416081
Si Si5 0.199582 0.524563 0.485588
Si Si6 0.417679 0.554557 0.991962
Si Si7 0.292040 0.239793 0.690683
O O1 0.361471 0.894363 0.484487
O O2 0.394935 0.240846 0.462317
O O3 0.500000 0.000000 0.500000
O O4 0.395867 0.976615 0.380940
O O5 0.230027 0.718249 0.654598
O O6 0.231380 0.382001 0.699433
O O7 0.162613 0.650603 0.738692
O O8 0.234838 0.668981 0.445773
O O9 0.365483 0.585582 0.438972
O O10 0.249511 0.421570 0.359226
O O11 0.153768 0.373046 0.432871
O O12 0.238469 0.075732 0.455269
O O13 0.095994 0.045201 0.437314
O O14 0.150943 0.152746 0.338855
O O15 0.500000 0.500000 0.000000
#
# Coordination Sequence:
#
# PCOD8134597 Si02
#       7
#     8   8   8   8   8   8   8
#     4  11  21  35  55  88 125 151 191 243 302 356
#     4  12  22  35  59  89 117 157 197 243 294 356
#     4  10  20  35  59  85 115 150 195 252 294 341
#     4   8  15  32  57  79 113 153 187 248 292 340
#     4   8  15  32  55  80 116 146 186 243 304 336
#     4  10  19  36  58  85 121 156 193 247 308 354
#     4  11  20  37  56  86 118 152 197 245 290 352
#
# _framework density 19.913889000000001
#
# number of rings (size 3 to 8) (size 9 to 14) (size 15 to 20)
#    0.000    2.000    4.286    2.571    0.000    0.571 
#    2.571    0.000    0.000   13.714    0.000    8.000 
#    0.000    0.000    0.000    0.000    0.000    0.000 
#
# Total GULP energy -346946.198309 kJ/mol
# GULP energy per Si atom -12390.935654 kJ/mol
# Density = 1.986856 g / cm^3
# Si number density = 19.913889 Si / 1000 Ang^3
#
#
#
# Elastic Constant Matrix: (Units=GPa)
#
#
# Indices 1 2 3 4 5 6 
#
# 1 127.9262 7.3067 58.6831 0.0000 -7.5249 0.0000
# 2 7.3067 52.5483 26.7939 0.0000 -2.1163 0.0000
# 3 58.6831 26.7939 152.7165 0.0000 -17.3162 0.0000
# 4 0.0000 0.0000 0.0000 33.0498 0.0000 -7.6098
# 5 -7.5249 -2.1163 -17.3162 0.0000 26.1523 0.0000
# 6 0.0000 0.0000 0.0000 -7.6098 0.0000 23.7000
#
#
#
# Elastic Compliance Matrix: (Units=1/GPa)
#
#
# Indices 1 2 3 4 5 6 
#
# 1 0.009509 0.000588 -0.003721 0.000000 0.000320 0.000000
# 2 0.000588 0.020952 -0.003990 0.000000 -0.000777 0.000000
# 3 -0.003721 -0.003990 0.009211 0.000000 0.004706 0.000000
# 4 0.000000 0.000000 0.000000 0.032673 0.000000 0.010491
# 5 0.000320 -0.000777 0.004706 0.000000 0.041383 0.000000
# 6 0.000000 0.000000 0.000000 0.010491 0.000000 0.045563
#
#
# Mechanical properties :
#
#
# Convention : Reuss Voigt Hill
#
# Bulk Modulus (GPa) = 39.32942 57.63982 48.48462
# Shear Modulus (GPa) = 27.47082 32.60757 30.03920
#
# Velocity S-wave (km/s) = 3.71817 4.05091 3.88810
# Velocity P-wave (km/s) = 6.18269 7.13352 6.67506
#
# Compressibility (1/GPa) = 0.02542626
#
# Stress axis : x y z
#
# Youngs Moduli (GPa) = 105.16242 47.72925 108.56038
#
# Poissons Ratio (x) = -0.02806 0.40394
# Poissons Ratio (y) = -0.06183 0.43315
# Poissons Ratio (z) = 0.39129 0.19044
#
# Static dielectric constant tensor:
#      x y z
#    x 3.438420 0.000000 -0.424580 
#    y 0.000000 3.867790 0.000000 
#    z -0.424580 0.000000 3.827790 
# 
# 
# High freq. dielectric constant tensor:
#      x y z
#    x 1.739250 0.000000 -0.028410 
#    y 0.000000 1.796700 0.000000 
#    z -0.028410 0.000000 1.767290 
# 
# From -- ./inp_files/247029.got.cif
#   From: 2010.06.25/outbox.cif.g09.slc.cpg/sg15_124_cif.got.tgz:247029.got - 2010.06.28 07:06:18.
