data_PCOD8134628
_publ_section_title
;
Structure prediction by ZEFSAII (Michael W. Deem and Ramdas Pophale) SiO2 
 PCOD8134628
Probable space group: C 2/C
;
_chemical_formula_sum "Si O2"
_cell_formula_units_Z 64
_cell_length_a 12.763139
_cell_length_b 17.353841
_cell_length_c 14.889333
_cell_angle_alpha 90.000000
_cell_angle_beta 62.210203
_cell_angle_gamma 90.000000
_cell_volume 2917.472139
_symmetry_space_group_name_H-M "C 2/C"
_symmetry_group_IT_number 15
_symmetry_cell_setting 'monoclinic'
loop_
_space_group_symop_operation_xyz
x,y,z
-x,y,1/2-z
-x,-y,-z
x,-y,1/2+z
1/2+x,1/2+y,z
1/2-x,1/2+y,1/2-z
1/2-x,1/2-y,-z
1/2+x,1/2-y,1/2+z
loop_
_atom_site_type_symbol
_atom_site_label
_atom_site_fract_x
_atom_site_fract_y
_atom_site_fract_z
Si Si1 0.791869 0.085596 0.897416
Si Si2 0.826363 0.632196 0.725466
Si Si3 0.370645 0.026983 0.855684
Si Si4 0.447727 0.279796 0.366519
Si Si5 0.938512 0.655813 0.963044
Si Si6 0.943137 0.610951 0.415121
Si Si7 0.883820 0.974059 0.993504
Si Si8 0.355941 0.307339 0.064251
O O1 0.778070 0.095339 0.794822
O O2 0.834725 0.165727 0.924602
O O3 0.876843 0.014533 0.896470
O O4 0.660698 0.072031 0.985368
O O5 0.900123 0.564294 0.746515
O O6 0.764041 0.684887 0.827334
O O7 0.927772 0.676778 0.627541
O O8 0.371556 0.093016 0.931654
O O9 0.463197 0.956385 0.833759
O O10 0.233678 0.997382 0.905809
O O11 0.500000 0.304060 0.250000
O O12 0.408832 0.190487 0.379743
O O13 0.535412 0.296528 0.412042
O O14 0.856158 0.732345 0.998974
O O15 0.946867 0.623208 0.061767
O O16 0.880153 0.881116 0.991171
O O17 0.000000 0.000000 0.000000
#
# Coordination Sequence:
#
# PCOD8134628 Si02
#       8
#     8   8   8   8   8   8   8   8
#     4  10  19  36  59  84 119 158 203 246 311 370
#     4  10  21  37  62  89 122 166 207 252 311 368
#     4  10  21  39  61  84 123 163 204 252 312 370
#     4  11  19  32  57  87 122 152 196 254 304 364
#     4  10  21  39  65  89 125 164 207 257 309 373
#     4   9  21  36  58  91 113 157 204 256 308 363
#     4  10  20  36  60  87 115 156 205 247 306 370
#     4  10  21  38  62  93 120 164 208 252 308 372
#
# _framework density 21.936800000000002
#
# number of rings (size 3 to 8) (size 9 to 14) (size 15 to 20)
#    0.000    2.000    2.500    1.125    0.000    3.000 
#    0.000    2.500    2.750   10.500    0.000    0.000 
#    0.000    0.000    0.000    0.000    0.000    0.000 
#
# Total GULP energy -396497.271235 kJ/mol
# GULP energy per Si atom -12390.539726 kJ/mol
# Density = 2.188687 g / cm^3
# Si number density = 21.936800 Si / 1000 Ang^3
#
#
#
# Elastic Constant Matrix: (Units=GPa)
#
#
# Indices 1 2 3 4 5 6 
#
# 1 80.5900 44.5898 21.6180 0.0000 4.3804 0.0000
# 2 44.5898 158.5349 40.1286 0.0000 11.7586 0.0000
# 3 21.6180 40.1286 71.8857 0.0000 -1.4308 0.0000
# 4 0.0000 0.0000 0.0000 26.3405 0.0000 -2.1584
# 5 4.3804 11.7586 -1.4308 0.0000 25.4098 0.0000
# 6 0.0000 0.0000 0.0000 -2.1584 0.0000 29.4626
#
#
#
# Elastic Compliance Matrix: (Units=1/GPa)
#
#
# Indices 1 2 3 4 5 6 
#
# 1 0.015109 -0.003505 -0.002609 0.000000 -0.001129 0.000000
# 2 -0.003505 0.008510 -0.003767 0.000000 -0.003546 0.000000
# 3 -0.002609 -0.003767 0.016861 0.000000 0.003143 0.000000
# 4 0.000000 0.000000 0.000000 0.038194 0.000000 0.002798
# 5 -0.001129 -0.003546 0.003143 0.000000 0.041368 0.000000
# 6 0.000000 0.000000 0.000000 0.002798 0.000000 0.034146
#
#
# Mechanical properties :
#
#
# Convention : Reuss Voigt Hill
#
# Bulk Modulus (GPa) = 48.26984 58.18706 53.22845
# Shear Modulus (GPa) = 27.64604 29.88752 28.76678
#
# Velocity S-wave (km/s) = 3.55386 3.69513 3.62518
# Velocity P-wave (km/s) = 6.23632 6.69236 6.46836
#
# Compressibility (1/GPa) = 0.02071687
#
# Stress axis : x y z
#
# Youngs Moduli (GPa) = 66.18408 117.50568 59.30796
#
# Poissons Ratio (x) = 0.41190 0.15476
# Poissons Ratio (y) = 0.23200 0.22342
# Poissons Ratio (z) = 0.17271 0.44265
#
# Static dielectric constant tensor:
#      x y z
#    x 4.119780 0.000000 0.224180 
#    y 0.000000 4.219140 0.000000 
#    z 0.224180 0.000000 3.964960 
# 
# 
# High freq. dielectric constant tensor:
#      x y z
#    x 1.877180 0.000000 0.010110 
#    y 0.000000 1.855770 0.000000 
#    z 0.010110 0.000000 1.845510 
# 
# From -- ./inp_files/155197.got.cif
#   From: 2010.06.25/outbox.cif.g09.slc.cpg/sg15_78_cif.got.tgz:155197.got - 2010.06.28 07:06:18.
