data_PCOD8134477
_publ_section_title
;
Structure prediction by ZEFSAII (Michael W. Deem and Ramdas Pophale) SiO2 
 PCOD8134477
Probable space group: C 2/C
;
_chemical_formula_sum "Si O2"
_cell_formula_units_Z 60
_cell_length_a 9.056773
_cell_length_b 10.695763
_cell_length_c 31.693129
_cell_angle_alpha 90.000000
_cell_angle_beta 104.322535
_cell_angle_gamma 90.000000
_cell_volume 2974.661993
_symmetry_space_group_name_H-M "C 2/C"
_symmetry_group_IT_number 15
_symmetry_cell_setting 'monoclinic'
loop_
_space_group_symop_operation_xyz
x,y,z
-x,y,1/2-z
-x,-y,-z
x,-y,1/2+z
1/2+x,1/2+y,z
1/2-x,1/2+y,1/2-z
1/2-x,1/2-y,-z
1/2+x,1/2-y,1/2+z
loop_
_atom_site_type_symbol
_atom_site_label
_atom_site_fract_x
_atom_site_fract_y
_atom_site_fract_z
Si Si1 0.099758 0.872175 0.053691
Si Si2 0.727858 0.857009 0.680810
Si Si3 0.468236 0.085475 0.808907
Si Si4 0.547156 0.133951 0.907192
Si Si5 0.131459 0.389515 0.581638
Si Si6 0.249466 0.884438 0.224783
Si Si7 0.580539 0.613526 0.452661
Si Si8 0.000000 0.945822 0.750000
O O1 0.273439 0.886794 0.079937
O O2 0.034964 0.738879 0.066840
O O3 0.083815 0.871729 0.002637
O O4 0.010549 0.989081 0.067566
O O5 0.731248 0.870216 0.630795
O O6 0.665790 0.724810 0.692952
O O7 0.613155 0.953271 0.692922
O O8 0.902534 0.864733 0.709796
O O9 0.489660 0.151689 0.855349
O O10 0.629503 0.052388 0.798715
O O11 0.351130 0.166997 0.771779
O O12 0.501737 0.261280 0.928300
O O13 0.473948 0.011586 0.923909
O O14 0.247135 0.403557 0.550962
O O15 0.115392 0.974181 0.229941
#
# Coordination Sequence:
#
# PCOD8134477 Si02
#       8
#     8   8   8   8   8   8   8   4
#     4  10  22  38  56  84 113 143 182 226 277 331
#     4  10  21  36  54  80 109 141 181 226 270 318
#     4   9  20  36  54  79 109 140 182 225 269 320
#     4  10  20  38  59  82 110 147 184 225 277 328
#     4  10  21  37  58  83 114 144 183 231 274 323
#     4  10  19  36  55  75 109 145 177 222 268 316
#     4  10  22  38  57  82 113 144 182 227 274 332
#     4  10  22  34  54  82 104 142 188 216 264 326
#
# _framework density 20.170359000000001
#
# number of rings (size 3 to 8) (size 9 to 14) (size 15 to 20)
#    0.000    2.133    0.000    4.000    0.000    7.467 
#    0.000   13.333    0.000    0.000    0.000    0.000 
#    0.000    0.000    0.000    0.000    0.000    0.000 
#
# Total GULP energy -371844.759217 kJ/mol
# GULP energy per Si atom -12394.825307 kJ/mol
# Density = 2.012445 g / cm^3
# Si number density = 20.170359 Si / 1000 Ang^3
#
#
#
# Elastic Constant Matrix: (Units=GPa)
#
#
# Indices 1 2 3 4 5 6 
#
# 1 44.3967 28.4828 8.4957 0.0000 -2.1073 0.0000
# 2 28.4828 111.8931 21.2357 0.0000 -2.1271 0.0000
# 3 8.4957 21.2357 60.9566 0.0000 1.8025 0.0000
# 4 0.0000 0.0000 0.0000 33.0316 0.0000 4.8520
# 5 -2.1073 -2.1271 1.8025 0.0000 21.7156 0.0000
# 6 0.0000 0.0000 0.0000 4.8520 0.0000 26.2910
#
#
#
# Elastic Compliance Matrix: (Units=1/GPa)
#
#
# Indices 1 2 3 4 5 6 
#
# 1 0.027139 -0.006573 -0.001555 0.000000 0.002119 0.000000
# 2 -0.006573 0.011194 -0.003005 0.000000 0.000708 0.000000
# 3 -0.001555 -0.003005 0.017725 0.000000 -0.001916 0.000000
# 4 0.000000 0.000000 0.000000 0.031118 0.000000 -0.005743
# 5 0.002119 0.000708 -0.001916 0.000000 0.046484 0.000000
# 6 0.000000 0.000000 0.000000 -0.005743 0.000000 0.039096
#
#
# Mechanical properties :
#
#
# Convention : Reuss Voigt Hill
#
# Bulk Modulus (GPa) = 29.59198 37.07498 33.33348
# Shear Modulus (GPa) = 24.23826 26.80979 25.52402
#
# Velocity S-wave (km/s) = 3.47028 3.64973 3.56114
# Velocity P-wave (km/s) = 5.54617 6.01511 5.78539
#
# Compressibility (1/GPa) = 0.03379293
#
# Stress axis : x y z
#
# Youngs Moduli (GPa) = 36.84701 89.33406 56.41668
#
# Poissons Ratio (x) = 0.58719 0.08774
# Poissons Ratio (y) = 0.24219 0.16951
# Poissons Ratio (z) = 0.05731 0.26841
#
# Static dielectric constant tensor:
#      x y z
#    x 3.565090 0.000000 0.065480 
#    y 0.000000 3.974320 0.000000 
#    z 0.065480 0.000000 4.079280 
# 
# 
# High freq. dielectric constant tensor:
#      x y z
#    x 1.771660 0.000000 -0.001770 
#    y 0.000000 1.795140 0.000000 
#    z -0.001770 0.000000 1.802140 
# 
# From -- ./inp_files/307209.got.cif
#   From: 2010.06.25/outbox.cif.g09.slc.cpg/sg15_154_cif.got.tgz:307209.got - 2010.06.28 07:06:18.
