data_PCOD8134545
_publ_section_title
;
Structure prediction by ZEFSAII (Michael W. Deem and Ramdas Pophale) SiO2 
 PCOD8134545
Probable space group: C 2/C
;
_chemical_formula_sum "Si O2"
_cell_formula_units_Z 56
_cell_length_a 13.491918
_cell_length_b 28.440006
_cell_length_c 12.978577
_cell_angle_alpha 90.000000
_cell_angle_beta 33.782462
_cell_angle_gamma 90.000000
_cell_volume 2769.092408
_symmetry_space_group_name_H-M "C 2/C"
_symmetry_group_IT_number 15
_symmetry_cell_setting 'monoclinic'
loop_
_space_group_symop_operation_xyz
x,y,z
-x,y,1/2-z
-x,-y,-z
x,-y,1/2+z
1/2+x,1/2+y,z
1/2-x,1/2+y,1/2-z
1/2-x,1/2-y,-z
1/2+x,1/2-y,1/2+z
loop_
_atom_site_type_symbol
_atom_site_label
_atom_site_fract_x
_atom_site_fract_y
_atom_site_fract_z
Si Si1 0.398520 0.045910 0.555527
Si Si2 0.183030 0.225188 0.955458
Si Si3 0.249793 0.905337 0.787023
Si Si4 0.703057 0.315134 0.716168
Si Si5 0.180597 0.958245 0.042259
Si Si6 0.694253 0.135290 0.581287
Si Si7 0.612380 0.445176 0.479965
O O1 0.551048 0.086031 0.429098
O O2 0.331138 0.035824 0.498404
O O3 0.233970 0.058439 0.772444
O O4 0.500000 0.000000 0.500000
O O5 0.184548 0.266078 0.866175
O O6 0.308647 0.178962 0.833145
O O7 0.250000 0.250000 0.000000
O O8 0.991829 0.203646 0.136954
O O9 0.210820 0.849421 0.808316
O O10 0.248609 0.917146 0.908635
O O11 0.096735 0.938450 0.866510
O O12 0.761652 0.347020 0.570392
O O13 0.000000 0.940393 0.250000
O O14 0.142981 0.005935 0.011387
O O15 0.500000 0.111423 0.750000
O O16 0.838932 0.096537 0.484938
#
# Coordination Sequence:
#
# PCOD8134545 Si02
#       7
#     8   8   8   8   8   8   8
#     4  12  26  45  65  94 130 177 233 274 329 386
#     4  10  19  36  57  87 129 169 207 258 337 387
#     4  12  25  45  65  96 132 180 223 270 328 395
#     4  11  23  39  62  93 134 175 214 271 330 408
#     4  12  26  44  67  94 136 181 219 279 331 384
#     4  11  22  35  59  94 132 175 217 264 326 400
#     4  12  26  41  65  99 132 181 223 267 327 396
#
# _framework density 20.223231999999999
#
# number of rings (size 3 to 8) (size 9 to 14) (size 15 to 20)
#    0.000    0.571    4.286    6.000    6.000    0.000 
#    0.000    0.000    0.000    0.000    0.000   14.000 
#    0.000    0.000    0.000    0.000    0.000    0.000 
#
# Total GULP energy -347011.483559 kJ/mol
# GULP energy per Si atom -12393.267270 kJ/mol
# Density = 2.017720 g / cm^3
# Si number density = 20.223232 Si / 1000 Ang^3
#
#
#
# Elastic Constant Matrix: (Units=GPa)
#
#
# Indices 1 2 3 4 5 6 
#
# 1 91.1050 27.6413 33.1754 0.0000 -9.0235 0.0000
# 2 27.6413 95.4258 15.1333 0.0000 8.8555 0.0000
# 3 33.1754 15.1333 90.1769 -0.0001 -8.7765 0.0000
# 4 0.0000 0.0000 -0.0001 24.2767 0.0000 -4.7224
# 5 -9.0235 8.8555 -8.7765 0.0000 33.0606 0.0000
# 6 0.0000 0.0000 0.0000 -4.7224 0.0000 31.9437
#
#
#
# Elastic Compliance Matrix: (Units=1/GPa)
#
#
# Indices 1 2 3 4 5 6 
#
# 1 0.013993 -0.003739 -0.004159 0.000000 0.003717 0.000000
# 2 -0.003739 0.012163 -0.001111 0.000000 -0.004573 0.000000
# 3 -0.004159 -0.001111 0.013062 0.000000 0.002630 0.000000
# 4 0.000000 0.000000 0.000000 0.042411 0.000000 0.006270
# 5 0.003717 -0.004573 0.002630 0.000000 0.033185 0.000000
# 6 0.000000 0.000000 0.000000 0.006270 0.000000 0.032232
#
#
# Mechanical properties :
#
#
# Convention : Reuss Voigt Hill
#
# Bulk Modulus (GPa) = 47.16736 47.62305 47.39521
# Shear Modulus (GPa) = 29.04784 31.24005 30.14394
#
# Velocity S-wave (km/s) = 3.79405 3.93461 3.86497
# Velocity P-wave (km/s) = 6.52434 6.65142 6.58818
#
# Compressibility (1/GPa) = 0.02120110
#
# Stress axis : x y z
#
# Youngs Moduli (GPa) = 71.46323 82.21755 76.55975
#
# Poissons Ratio (x) = 0.30738 0.31840
# Poissons Ratio (y) = 0.26718 0.08504
# Poissons Ratio (z) = 0.29721 0.09133
#
# Static dielectric constant tensor:
#      x y z
#    x 3.721230 0.000000 -0.111170 
#    y 0.000000 5.840460 0.000000 
#    z -0.111170 0.000000 4.221330 
# 
# 
# High freq. dielectric constant tensor:
#      x y z
#    x 1.761390 0.000000 -0.023030 
#    y 0.000000 1.790400 0.000000 
#    z -0.023030 0.000000 1.804370 
# 
# From -- ./inp_files/157191.got.cif
#   From: 2010.06.25/outbox.cif.g09.slc.cpg/sg15_79_cif.got.tgz:157191.got - 2010.06.28 07:06:18.
