data_PCOD8134905
_publ_section_title
;
Structure prediction by ZEFSAII (Michael W. Deem and Ramdas Pophale) SiO2 
 PCOD8134905
Probable space group: C 2/C
;
_chemical_formula_sum "Si O2"
_cell_formula_units_Z 56
_cell_length_a 21.529090
_cell_length_b 13.758884
_cell_length_c 19.735614
_cell_angle_alpha 90.000000
_cell_angle_beta 30.262596
_cell_angle_gamma 90.000000
_cell_volume 2946.177638
_symmetry_space_group_name_H-M "C 2/C"
_symmetry_group_IT_number 15
_symmetry_cell_setting 'monoclinic'
loop_
_space_group_symop_operation_xyz
x,y,z
-x,y,1/2-z
-x,-y,-z
x,-y,1/2+z
1/2+x,1/2+y,z
1/2-x,1/2+y,1/2-z
1/2-x,1/2-y,-z
1/2+x,1/2-y,1/2+z
loop_
_atom_site_type_symbol
_atom_site_label
_atom_site_fract_x
_atom_site_fract_y
_atom_site_fract_z
Si Si1 0.704957 0.340365 0.243993
Si Si2 0.033980 0.433639 0.792256
Si Si3 0.810299 0.062438 0.068193
Si Si4 0.605123 0.986789 0.955566
Si Si5 0.000830 0.208776 0.829243
Si Si6 0.460262 0.584651 0.487922
Si Si7 0.712507 0.351576 0.771707
O O1 0.790378 0.431881 0.150227
O O2 0.623162 0.327654 0.252947
O O3 0.625315 0.345199 0.387610
O O4 0.785300 0.246738 0.186705
O O5 0.180721 0.446500 0.653559
O O6 0.990616 0.324189 0.850966
O O7 0.000000 0.465944 0.750000
O O8 0.962287 0.507279 0.908790
O O9 0.881626 0.156258 0.972434
O O10 0.892865 0.962711 0.984963
O O11 0.784172 0.066752 0.172952
O O12 0.671053 0.880585 0.885821
O O13 0.500000 0.000000 0.000000
O O14 0.000000 0.184378 0.750000
O O15 0.500000 0.500000 0.500000
O O16 0.584786 0.643016 0.349039
#
# Coordination Sequence:
#
# PCOD8134905 Si02
#       7
#     8   8   8   8   8   8   8
#     4  12  21  35  58  85 120 153 186 248 286 341
#     4  11  25  37  54  86 124 160 190 233 290 356
#     4  11  19  40  52  76 119 153 189 238 277 335
#     4  12  22  37  56  86 119 152 195 243 290 351
#     4  11  23  34  55  84 120 165 194 216 279 367
#     4  10  19  37  55  77 111 151 188 243 286 329
#     4  11  21  34  58  84 114 150 197 240 293 333
#
# _framework density 19.007679
#
# number of rings (size 3 to 8) (size 9 to 14) (size 15 to 20)
#    0.000    0.857    8.571    0.857    4.000    1.143 
#    0.000    0.000    0.000    0.000    0.000    5.000 
#    0.000    0.000    0.000    0.000    0.000    0.000 
#
# Total GULP energy -346954.455008 kJ/mol
# GULP energy per Si atom -12391.230536 kJ/mol
# Density = 1.896442 g / cm^3
# Si number density = 19.007679 Si / 1000 Ang^3
#
#
#
# Elastic Constant Matrix: (Units=GPa)
#
#
# Indices 1 2 3 4 5 6 
#
# 1 115.4550 32.1018 50.3246 0.0000 -10.1384 0.0000
# 2 32.1018 36.4428 12.6512 0.0000 -0.3991 0.0000
# 3 50.3246 12.6512 86.1914 0.0000 -9.7162 0.0000
# 4 0.0000 0.0000 0.0000 33.9886 0.0000 -0.4662
# 5 -10.1384 -0.3991 -9.7162 0.0000 33.2798 0.0000
# 6 0.0000 0.0000 0.0000 -0.4662 0.0000 27.4448
#
#
#
# Elastic Compliance Matrix: (Units=1/GPa)
#
#
# Indices 1 2 3 4 5 6 
#
# 1 0.014800 -0.010647 -0.006808 0.000000 0.002393 0.000000
# 2 -0.010647 0.036600 0.000546 0.000000 -0.002645 0.000000
# 3 -0.006808 0.000546 0.015784 0.000000 0.002540 0.000000
# 4 0.000000 0.000000 0.000000 0.029428 0.000000 0.000500
# 5 0.002393 -0.002645 0.002540 0.000000 0.031487 0.000000
# 6 0.000000 0.000000 0.000000 0.000500 0.000000 0.036445
#
#
# Mechanical properties :
#
#
# Convention : Reuss Voigt Hill
#
# Bulk Modulus (GPa) = 29.97173 47.58271 38.77722
# Shear Modulus (GPa) = 23.86808 28.47674 26.17241
#
# Velocity S-wave (km/s) = 3.54744 3.87482 3.71474
# Velocity P-wave (km/s) = 5.70803 6.71615 6.23251
#
# Compressibility (1/GPa) = 0.03336477
#
# Stress axis : x y z
#
# Youngs Moduli (GPa) = 67.56969 27.32215 63.35692
#
# Poissons Ratio (x) = 0.29090 0.43136
# Poissons Ratio (y) = 0.71940 -0.03459
# Poissons Ratio (z) = 0.46005 -0.01492
#
# Static dielectric constant tensor:
#      x y z
#    x 3.562850 0.000000 0.004210 
#    y 0.000000 3.040650 0.000000 
#    z 0.004210 0.000000 2.137550 
# 
# 
# High freq. dielectric constant tensor:
#      x y z
#    x 1.725220 0.000000 -0.030340 
#    y 0.000000 1.718680 0.000000 
#    z -0.030340 0.000000 1.744890 
# 
# From -- ./inp_files/215710.got.cif
#   From: 2010.06.25/outbox.cif.g09.slc.cpg/sg15_108_cif.got.tgz:215710.got - 2010.06.28 07:06:18.
