data_PCOD8134789
_publ_section_title
;
Structure prediction by ZEFSAII (Michael W. Deem and Ramdas Pophale) SiO2 
 PCOD8134789
Probable space group: C 2/C
;
_chemical_formula_sum "Si O2"
_cell_formula_units_Z 48
_cell_length_a 27.949592
_cell_length_b 15.869250
_cell_length_c 8.418612
_cell_angle_alpha 90.000000
_cell_angle_beta 38.359749
_cell_angle_gamma 90.000000
_cell_volume 2317.299091
_symmetry_space_group_name_H-M "C 2/C"
_symmetry_group_IT_number 15
_symmetry_cell_setting 'monoclinic'
loop_
_space_group_symop_operation_xyz
x,y,z
-x,y,1/2-z
-x,-y,-z
x,-y,1/2+z
1/2+x,1/2+y,z
1/2-x,1/2+y,1/2-z
1/2-x,1/2-y,-z
1/2+x,1/2-y,1/2+z
loop_
_atom_site_type_symbol
_atom_site_label
_atom_site_fract_x
_atom_site_fract_y
_atom_site_fract_z
Si Si1 0.908702 0.919991 0.322854
Si Si2 0.910582 0.598551 0.515423
Si Si3 0.323363 0.761859 0.422291
Si Si4 0.246065 0.388377 0.668451
Si Si5 0.579064 0.398004 0.838688
Si Si6 0.326529 0.967976 0.939846
O O1 0.837612 0.870352 0.428516
O O2 0.903756 0.910827 0.522719
O O3 0.899861 0.018808 0.312006
O O4 0.987874 0.879843 0.048453
O O5 0.886670 0.684292 0.663305
O O6 0.892464 0.517923 0.672119
O O7 0.865404 0.592372 0.467302
O O8 0.000000 0.601662 0.250000
O O9 0.250000 0.750000 0.500000
O O10 0.298447 0.806716 0.650558
O O11 0.365016 0.675952 0.367891
O O12 0.219886 0.407829 0.558389
O O13 0.231395 0.466728 0.825767
#
# Coordination Sequence:
#
# PCOD8134789 Si02
#       6
#     8   8   8   8   8   8
#     4  10  20  37  63  86 114 159 199 247 295 367
#     4  10  21  37  63  85 119 157 194 248 303 361
#     4  11  23  38  57  88 120 160 195 254 305 353
#     4  10  19  36  62  88 122 154 196 250 303 358
#     4  10  22  38  61  88 117 154 209 247 301 356
#     4   9  20  36  60  93 115 156 204 240 295 376
#
# _framework density 20.713768999999999
#
# number of rings (size 3 to 8) (size 9 to 14) (size 15 to 20)
#    0.000    2.000    1.667    1.500    7.000    0.000 
#    0.000    2.500    7.333    0.000    0.000    0.000 
#    0.000    0.000    0.000    0.000    0.000    0.000 
#
# Total GULP energy -297656.021125 kJ/mol
# GULP energy per Si atom -12402.334214 kJ/mol
# Density = 2.066662 g / cm^3
# Si number density = 20.713769 Si / 1000 Ang^3
#
#
#
# Elastic Constant Matrix: (Units=GPa)
#
#
# Indices 1 2 3 4 5 6 
#
# 1 70.0840 32.0761 33.2208 0.0000 -12.7581 0.0000
# 2 32.0761 87.3568 27.0600 0.0000 -12.9486 0.0000
# 3 33.2208 27.0600 82.7478 0.0000 -27.1342 0.0000
# 4 0.0000 0.0000 0.0000 21.3871 0.0000 -3.3484
# 5 -12.7581 -12.9486 -27.1342 0.0000 39.9401 0.0000
# 6 0.0000 0.0000 0.0000 -3.3484 0.0000 40.6204
#
#
#
# Elastic Compliance Matrix: (Units=1/GPa)
#
#
# Indices 1 2 3 4 5 6 
#
# 1 0.019609 -0.005273 -0.005989 0.000000 0.000486 0.000000
# 2 -0.005273 0.014243 -0.002031 0.000000 0.001553 0.000000
# 3 -0.005989 -0.002031 0.018412 0.000000 0.009937 0.000000
# 4 0.000000 0.000000 0.000000 0.047369 0.000000 0.003905
# 5 0.000486 0.001553 0.009937 0.000000 0.032447 0.000000
# 6 0.000000 0.000000 0.000000 0.003905 0.000000 0.024940
#
#
# Mechanical properties :
#
#
# Convention : Reuss Voigt Hill
#
# Bulk Modulus (GPa) = 38.94472 47.21140 43.07806
# Shear Modulus (GPa) = 26.01918 30.24496 28.13207
#
# Velocity S-wave (km/s) = 3.54804 3.82532 3.68928
# Velocity P-wave (km/s) = 5.96883 6.50788 6.24418
#
# Compressibility (1/GPa) = 0.02567742
#
# Stress axis : x y z
#
# Youngs Moduli (GPa) = 50.99653 70.21010 54.31209
#
# Poissons Ratio (x) = 0.37022 0.32527
# Poissons Ratio (y) = 0.26891 0.11033
# Poissons Ratio (z) = 0.30541 0.14263
#
# Static dielectric constant tensor:
#      x y z
#    x 3.812290 0.000000 -0.114910 
#    y 0.000000 2.107930 0.000000 
#    z -0.114910 0.000000 3.915860 
# 
# 
# High freq. dielectric constant tensor:
#      x y z
#    x 1.810080 0.000000 -0.006580 
#    y 0.000000 1.794960 0.000000 
#    z -0.006580 0.000000 1.822380 
# 
# From -- ./inp_files/66392.got.cif
#   From: 2010.06.25/outbox.cif.g09.slc.cpg/sg15_34_cif.got.tgz:66392.got - 2010.06.28 07:06:18.
