data_PCOD8134838
_publ_section_title
;
Structure prediction by ZEFSAII (Michael W. Deem and Ramdas Pophale) SiO2 
 PCOD8134838
Probable space group: C 2/C
;
_chemical_formula_sum "Si O2"
_cell_formula_units_Z 52
_cell_length_a 10.876479
_cell_length_b 12.680453
_cell_length_c 22.953514
_cell_angle_alpha 90.000000
_cell_angle_beta 51.340407
_cell_angle_gamma 90.000000
_cell_volume 2472.018164
_symmetry_space_group_name_H-M "C 2/C"
_symmetry_group_IT_number 15
_symmetry_cell_setting 'monoclinic'
loop_
_space_group_symop_operation_xyz
x,y,z
-x,y,1/2-z
-x,-y,-z
x,-y,1/2+z
1/2+x,1/2+y,z
1/2-x,1/2+y,1/2-z
1/2-x,1/2-y,-z
1/2+x,1/2-y,1/2+z
loop_
_atom_site_type_symbol
_atom_site_label
_atom_site_fract_x
_atom_site_fract_y
_atom_site_fract_z
Si Si1 0.489848 0.382736 0.522834
Si Si2 0.071734 0.189173 0.884251
Si Si3 0.293179 0.105853 0.208961
Si Si4 0.000000 0.663895 0.250000
Si Si5 0.216549 0.757762 0.095943
Si Si6 0.845061 0.475561 0.082773
Si Si7 0.003578 0.962697 0.640111
O O1 0.500000 0.500000 0.500000
O O2 0.602921 0.315121 0.445377
O O3 0.311108 0.350089 0.562419
O O4 0.523845 0.377692 0.581470
O O5 0.189566 0.274185 0.820908
O O6 0.887926 0.225002 0.931296
O O7 0.082098 0.072616 0.852601
O O8 0.392128 0.091353 0.239640
O O9 0.364366 0.020715 0.142465
O O10 0.108271 0.087134 0.276948
O O11 0.096968 0.746972 0.184232
O O12 0.334647 0.849959 0.080844
O O13 0.681115 0.523926 0.108765
O O14 0.000000 0.500000 0.000000
#
# Coordination Sequence:
#
# PCOD8134838 Si02
#       7
#     8   8   8   4   8   8   8
#     4  10  19  36  63  96 130 157 211 270 319 368
#     4   9  21  37  64  95 124 167 217 259 317 392
#     4  11  22  40  66  96 132 159 224 264 335 376
#     4  10  22  38  68  96 118 166 212 286 304 390
#     4  10  20  38  65  93 123 164 222 254 313 378
#     4  11  25  42  66  93 128 176 218 266 320 396
#     4  10  22  40  67  93 129 171 217 270 321 380
#
# _framework density 21.035444999999999
#
# number of rings (size 3 to 8) (size 9 to 14) (size 15 to 20)
#    0.000    1.846    1.538    1.846    6.462    6.154 
#    0.000    3.077    3.385    1.846    0.000    0.000 
#    0.000    0.000    0.000    0.000    0.000    0.000 
#
# Total GULP energy -322111.026276 kJ/mol
# GULP energy per Si atom -12388.885626 kJ/mol
# Density = 2.098757 g / cm^3
# Si number density = 21.035445 Si / 1000 Ang^3
#
#
#
# Elastic Constant Matrix: (Units=GPa)
#
#
# Indices 1 2 3 4 5 6 
#
# 1 75.9903 38.0516 43.9941 0.0000 -4.7424 0.0000
# 2 38.0516 93.0510 35.0157 0.0000 -11.8815 0.0000
# 3 43.9941 35.0157 112.9545 0.0000 -19.0453 0.0000
# 4 0.0000 0.0000 0.0000 38.0767 0.0000 -7.4811
# 5 -4.7424 -11.8815 -19.0453 0.0000 38.1893 0.0000
# 6 0.0000 0.0000 0.0000 -7.4811 0.0000 36.7990
#
#
#
# Elastic Compliance Matrix: (Units=1/GPa)
#
#
# Indices 1 2 3 4 5 6 
#
# 1 0.019596 -0.006004 -0.006197 0.000000 -0.002525 0.000000
# 2 -0.006004 0.014159 -0.001565 0.000000 0.002879 0.000000
# 3 -0.006197 -0.001565 0.012600 0.000000 0.005027 0.000000
# 4 0.000000 0.000000 0.000000 0.027355 0.000000 0.005561
# 5 -0.002525 0.002879 0.005027 0.000000 0.029274 0.000000
# 6 0.000000 0.000000 0.000000 0.005561 0.000000 0.028305
#
#
# Mechanical properties :
#
#
# Convention : Reuss Voigt Hill
#
# Bulk Modulus (GPa) = 53.12935 57.34650 55.23792
# Shear Modulus (GPa) = 30.28547 33.60862 31.94705
#
# Velocity S-wave (km/s) = 3.79850 4.00148 3.90131
# Velocity P-wave (km/s) = 6.67458 6.97640 6.82716
#
# Compressibility (1/GPa) = 0.01882199
#
# Stress axis : x y z
#
# Youngs Moduli (GPa) = 51.03057 70.62826 79.36787
#
# Poissons Ratio (x) = 0.42405 0.49183
# Poissons Ratio (y) = 0.30639 0.12423
# Poissons Ratio (z) = 0.31623 0.11055
#
# Static dielectric constant tensor:
#      x y z
#    x 4.108760 0.000000 0.499360 
#    y 0.000000 3.957930 0.000000 
#    z 0.499360 0.000000 4.305140 
# 
# 
# High freq. dielectric constant tensor:
#      x y z
#    x 1.802180 0.000000 0.011990 
#    y 0.000000 1.815100 0.000000 
#    z 0.011990 0.000000 1.849180 
# 
# From -- ./inp_files/269216.got.cif
#   From: 2010.06.25/outbox.cif.g09.slc.cpg/sg15_135_cif.got.tgz:269216.got - 2010.06.28 07:06:18.
