data_PCOD8134724
_publ_section_title
;
Structure prediction by ZEFSAII (Michael W. Deem and Ramdas Pophale) SiO2 
 PCOD8134724
Probable space group: C 2/C
;
_chemical_formula_sum "Si O2"
_cell_formula_units_Z 44
_cell_length_a 19.564189
_cell_length_b 10.698631
_cell_length_c 26.076235
_cell_angle_alpha 90.000000
_cell_angle_beta 27.651652
_cell_angle_gamma 90.000000
_cell_volume 2533.037428
_symmetry_space_group_name_H-M "C 2/C"
_symmetry_group_IT_number 15
_symmetry_cell_setting 'monoclinic'
loop_
_space_group_symop_operation_xyz
x,y,z
-x,y,1/2-z
-x,-y,-z
x,-y,1/2+z
1/2+x,1/2+y,z
1/2-x,1/2+y,1/2-z
1/2-x,1/2-y,-z
1/2+x,1/2-y,1/2+z
loop_
_atom_site_type_symbol
_atom_site_label
_atom_site_fract_x
_atom_site_fract_y
_atom_site_fract_z
Si Si1 0.788997 0.590021 0.151172
Si Si2 0.486265 0.455345 0.818221
Si Si3 0.500000 0.006444 0.750000
Si Si4 0.084277 0.302418 0.275838
Si Si5 0.205330 0.607356 0.031258
Si Si6 0.486066 0.015624 0.925433
O O1 0.639477 0.506737 0.244886
O O2 0.743387 0.737111 0.179600
O O3 0.868609 0.557347 0.151595
O O4 0.894429 0.564597 0.033849
O O5 0.500000 0.495790 0.750000
O O6 0.466367 0.304302 0.836383
O O7 0.350243 0.521675 0.935881
O O8 0.386825 0.919196 0.856055
O O9 0.404400 0.091555 0.775009
O O10 0.030498 0.362174 0.364400
O O11 0.108675 0.579606 0.045397
O O12 0.250000 0.750000 0.000000
#
# Coordination Sequence:
#
# PCOD8134724 Si02
#       6
#     8   8   4   8   8   8
#     4   9  20  35  56  83 111 150 185 232 294 341
#     4  10  19  36  61  84 109 153 192 235 290 331
#     4  10  22  36  60  92 108 146 200 244 282 330
#     4   9  19  34  58  83 111 139 195 243 273 336
#     4  11  24  37  58  84 121 153 189 237 287 352
#     4  10  20  36  57  83 112 152 189 234 290 342
#
# _framework density 17.370450999999999
#
# number of rings (size 3 to 8) (size 9 to 14) (size 15 to 20)
#    1.091    1.091    2.727    0.000    3.818    2.909 
#    0.000    5.455    0.000    6.545    0.000    0.000 
#    0.000    0.000    0.000    0.000    0.000    0.000 
#
# Total GULP energy -272664.885470 kJ/mol
# GULP energy per Si atom -12393.858430 kJ/mol
# Density = 1.733091 g / cm^3
# Si number density = 17.370451 Si / 1000 Ang^3
#
#
#
# Elastic Constant Matrix: (Units=GPa)
#
#
# Indices 1 2 3 4 5 6 
#
# 1 94.5193 39.1281 53.7882 0.0003 -15.1857 -0.0007
# 2 39.1281 115.1767 56.8615 -0.0018 -1.7502 -0.0001
# 3 53.7882 56.8615 110.5564 -0.0086 -0.8119 0.0028
# 4 0.0003 -0.0018 -0.0086 30.3909 -0.0012 -5.2901
# 5 -15.1857 -1.7502 -0.8119 -0.0012 32.8324 0.0005
# 6 -0.0007 -0.0001 0.0028 -5.2901 0.0005 23.2945
#
#
#
# Elastic Compliance Matrix: (Units=1/GPa)
#
#
# Indices 1 2 3 4 5 6 
#
# 1 0.016581 -0.002097 -0.006934 -0.000002 0.007386 0.000001
# 2 -0.002097 0.011910 -0.005108 -0.000001 -0.000462 0.000000
# 3 -0.006934 -0.005108 0.015023 0.000004 -0.003108 -0.000001
# 4 -0.000002 -0.000001 0.000004 0.034259 0.000000 0.007780
# 5 0.007386 -0.000462 -0.003108 0.000000 0.033772 0.000000
# 6 0.000001 0.000000 -0.000001 0.007780 0.000000 0.044695
#
#
# Mechanical properties :
#
#
# Convention : Reuss Voigt Hill
#
# Bulk Modulus (GPa) = 65.64172 68.86754 67.25463
# Shear Modulus (GPa) = 26.37165 28.66852 27.52009
#
# Velocity S-wave (km/s) = 3.90062 4.06694 3.98465
# Velocity P-wave (km/s) = 7.62613 7.86039 7.74415
#
# Compressibility (1/GPa) = 0.01523421
#
# Stress axis : x y z
#
# Youngs Moduli (GPa) = 60.31170 83.96439 66.56382
#
# Poissons Ratio (x) = 0.17611 0.46154
# Poissons Ratio (y) = 0.12650 0.34004
# Poissons Ratio (z) = 0.41819 0.42893
#
# Static dielectric constant tensor:
#      x y z
#    x 3.430790 -0.000010 -0.078030 
#    y -0.000010 3.111130 0.000020 
#    z -0.078030 0.000020 3.202850 
# 
# 
# High freq. dielectric constant tensor:
#      x y z
#    x 1.672230 0.000000 0.002460 
#    y 0.000000 1.657760 0.000000 
#    z 0.002460 0.000000 1.670800 
# 
# From -- ./inp_files/277011.got.cif
#   From: 2010.06.25/outbox.cif.g09.slc.cpg/sg15_139_cif.got.tgz:277011.got - 2010.06.28 07:06:18.
