data_PCOD8134834
_publ_section_title
;
Structure prediction by ZEFSAII (Michael W. Deem and Ramdas Pophale) SiO2 
 PCOD8134834
Probable space group: C 2/C
;
_chemical_formula_sum "Si O2"
_cell_formula_units_Z 60
_cell_length_a 13.349110
_cell_length_b 15.143475
_cell_length_c 20.071325
_cell_angle_alpha 90.000000
_cell_angle_beta 137.118907
_cell_angle_gamma 90.000000
_cell_volume 2761.014524
_symmetry_space_group_name_H-M "C 2/C"
_symmetry_group_IT_number 15
_symmetry_cell_setting 'monoclinic'
loop_
_space_group_symop_operation_xyz
x,y,z
-x,y,1/2-z
-x,-y,-z
x,-y,1/2+z
1/2+x,1/2+y,z
1/2-x,1/2+y,1/2-z
1/2-x,1/2-y,-z
1/2+x,1/2-y,1/2+z
loop_
_atom_site_type_symbol
_atom_site_label
_atom_site_fract_x
_atom_site_fract_y
_atom_site_fract_z
Si Si1 0.500000 0.098611 0.250000
Si Si2 0.292247 0.630906 0.441903
Si Si3 0.530232 0.880692 0.109461
Si Si4 0.759511 0.051695 0.974282
Si Si5 0.089071 0.952779 0.629788
Si Si6 0.991547 0.726156 0.461536
Si Si7 0.764969 0.125815 0.834898
Si Si8 0.616915 0.063704 0.169507
O O1 0.637719 0.161891 0.334094
O O2 0.548318 0.038868 0.209552
O O3 0.252979 0.555825 0.477732
O O4 0.399273 0.584590 0.439565
O O5 0.377142 0.717342 0.509054
O O6 0.355083 0.897464 0.034683
O O7 0.624181 0.850762 0.219868
O O8 0.598069 0.974427 0.117087
O O9 0.541716 0.804669 0.059532
O O10 0.712905 0.077067 0.876496
O O11 0.927469 0.076296 0.076343
O O12 0.211422 0.909739 0.738377
O O13 0.119603 0.059015 0.645635
O O14 0.842399 0.782299 0.391592
O O15 0.972445 0.642769 0.405387
#
# Coordination Sequence:
#
# PCOD8134834 Si02
#       8
#     4   8   8   8   8   8   8   8
#     4  10  20  38  68  94 112 158 230 266 292 378
#     4  10  19  36  63  94 119 158 215 266 308 375
#     4  11  25  39  62  94 133 171 212 261 331 386
#     4  11  18  39  65  91 122 165 226 261 309 378
#     4   9  18  37  64  88 117 163 219 257 313 379
#     4  12  24  40  63  94 136 166 204 267 338 379
#     4  10  21  37  62  95 118 168 214 270 308 381
#     4  10  23  41  66  89 130 168 212 260 329 386
#
# _framework density 21.731141000000001
#
# number of rings (size 3 to 8) (size 9 to 14) (size 15 to 20)
#    0.000    1.600    4.000    2.400    3.733    1.067 
#    0.000    2.000    0.000    0.000    0.000    0.000 
#    0.000    0.000    0.000    0.000    0.000    0.000 
#
# Total GULP energy -371763.783386 kJ/mol
# GULP energy per Si atom -12392.126113 kJ/mol
# Density = 2.168168 g / cm^3
# Si number density = 21.731141 Si / 1000 Ang^3
#
#
#
# Elastic Constant Matrix: (Units=GPa)
#
#
# Indices 1 2 3 4 5 6 
#
# 1 47.4715 3.3105 33.8882 0.0000 18.5580 0.0000
# 2 3.3105 89.3156 40.4019 0.0000 -1.4867 0.0000
# 3 33.8882 40.4019 124.2405 0.0000 22.3409 0.0000
# 4 0.0000 0.0000 0.0000 39.2298 0.0000 0.8513
# 5 18.5580 -1.4867 22.3409 0.0000 34.6696 0.0000
# 6 0.0000 0.0000 0.0000 0.8513 0.0000 17.7674
#
#
#
# Elastic Compliance Matrix: (Units=1/GPa)
#
#
# Indices 1 2 3 4 5 6 
#
# 1 0.030371 0.001711 -0.006708 0.000000 -0.011861 0.000000
# 2 0.001711 0.013669 -0.005488 0.000000 0.003207 0.000000
# 3 -0.006708 -0.005488 0.012510 0.000000 -0.004706 0.000000
# 4 0.000000 0.000000 0.000000 0.025517 0.000000 -0.001223
# 5 -0.011861 0.003207 -0.004706 0.000000 0.038363 0.000000
# 6 0.000000 0.000000 0.000000 -0.001223 0.000000 0.056341
#
#
# Mechanical properties :
#
#
# Convention : Reuss Voigt Hill
#
# Bulk Modulus (GPa) = 28.10595 46.24766 37.17681
# Shear Modulus (GPa) = 23.85482 30.56182 27.20832
#
# Velocity S-wave (km/s) = 3.31679 3.75422 3.54226
# Velocity P-wave (km/s) = 5.25639 6.33405 5.82021
#
# Compressibility (1/GPa) = 0.03557965
#
# Stress axis : x y z
#
# Youngs Moduli (GPa) = 32.92586 73.15886 79.93924
#
# Poissons Ratio (x) = -0.12518 0.53620
# Poissons Ratio (y) = -0.05634 0.43874
# Poissons Ratio (z) = 0.22085 0.40152
#
# Static dielectric constant tensor:
#      x y z
#    x 3.554170 0.000000 0.383180 
#    y 0.000000 3.793930 0.000000 
#    z 0.383180 0.000000 4.106430 
# 
# 
# High freq. dielectric constant tensor:
#      x y z
#    x 1.811270 0.000000 0.037760 
#    y 0.000000 1.839300 0.000000 
#    z 0.037760 0.000000 1.867350 
# 
# From -- ./inp_files/244718.got.cif
#   From: 2010.06.25/outbox.cif.g09.slc.cpg/sg15_123_cif.got.tgz:244718.got - 2010.06.28 07:06:18.
