data_PCOD8134766
_publ_section_title
;
Structure prediction by ZEFSAII (Michael W. Deem and Ramdas Pophale) SiO2 
 PCOD8134766
Probable space group: C 2/C
;
_chemical_formula_sum "Si O2"
_cell_formula_units_Z 64
_cell_length_a 19.920750
_cell_length_b 9.049848
_cell_length_c 15.101542
_cell_angle_alpha 90.000000
_cell_angle_beta 85.451579
_cell_angle_gamma 90.000000
_cell_volume 2713.928306
_symmetry_space_group_name_H-M "C 2/C"
_symmetry_group_IT_number 15
_symmetry_cell_setting 'monoclinic'
loop_
_space_group_symop_operation_xyz
x,y,z
-x,y,1/2-z
-x,-y,-z
x,-y,1/2+z
1/2+x,1/2+y,z
1/2-x,1/2+y,1/2-z
1/2-x,1/2-y,-z
1/2+x,1/2-y,1/2+z
loop_
_atom_site_type_symbol
_atom_site_label
_atom_site_fract_x
_atom_site_fract_y
_atom_site_fract_z
Si Si1 0.151174 0.863822 0.651591
Si Si2 0.763668 0.821515 0.634031
Si Si3 0.485672 0.305141 0.386742
Si Si4 0.468248 0.772385 0.437097
Si Si5 0.199127 0.590977 0.727121
Si Si6 0.947050 0.095194 0.186307
Si Si7 0.058043 0.485609 0.686870
Si Si8 0.161494 0.863120 0.048402
O O1 0.088033 0.839247 0.593520
O O2 0.199482 0.719827 0.651430
O O3 0.126163 0.894772 0.757501
O O4 0.191503 0.999738 0.603434
O O5 0.785289 0.671132 0.681655
O O6 0.820232 0.872442 0.557552
O O7 0.694326 0.786020 0.587001
O O8 0.752572 0.961124 0.700941
O O9 0.530576 0.225306 0.456920
O O10 0.534337 0.425145 0.336937
O O11 0.457899 0.187731 0.318802
O O12 0.418681 0.376115 0.435289
O O13 0.541794 0.706630 0.397989
O O14 0.447074 0.936947 0.408717
O O15 0.126227 0.513570 0.733883
O O16 0.000000 0.160115 0.250000
O O17 0.000000 0.563343 0.750000
#
# Coordination Sequence:
#
# PCOD8134766 Si02
#       8
#     8   8   8   8   8   8   8   8
#     4  10  22  40  66  97 134 174 221 281 336 405
#     4  11  26  46  70  95 128 181 236 286 341 392
#     4  12  22  37  63  95 142 173 221 267 334 412
#     4  10  21  36  57  95 132 171 215 261 336 403
#     4  11  24  48  71  97 132 179 237 283 339 412
#     4  10  19  36  61  94 130 174 213 263 323 405
#     4  11  24  41  64  97 136 175 214 279 343 412
#     4  11  24  43  65  96 134 178 224 294 334 386
#
# _framework density 23.582052999999998
#
# number of rings (size 3 to 8) (size 9 to 14) (size 15 to 20)
#    0.000    1.250    3.750    3.750    3.500    0.500 
#    0.000    1.250    0.000    0.000    0.000    0.000 
#    0.000    0.000    0.000    0.000    0.000    0.000 
#
# Total GULP energy -396540.442599 kJ/mol
# GULP energy per Si atom -12391.888831 kJ/mol
# Density = 2.352838 g / cm^3
# Si number density = 23.582053 Si / 1000 Ang^3
#
#
#
# Elastic Constant Matrix: (Units=GPa)
#
#
# Indices 1 2 3 4 5 6 
#
# 1 68.9564 25.7147 16.8842 0.0000 -2.0361 0.0000
# 2 25.7147 119.1221 28.1107 0.0000 -13.5233 0.0000
# 3 16.8842 28.1107 82.3298 0.0000 -7.3783 0.0000
# 4 0.0000 0.0000 0.0000 39.0736 0.0000 4.6089
# 5 -2.0361 -13.5233 -7.3783 0.0000 23.1993 0.0000
# 6 0.0000 0.0000 0.0000 4.6089 0.0000 22.2217
#
#
#
# Elastic Compliance Matrix: (Units=1/GPa)
#
#
# Indices 1 2 3 4 5 6 
#
# 1 0.016192 -0.003062 -0.002376 0.000000 -0.001119 0.000000
# 2 -0.003062 0.010180 -0.002409 0.000000 0.004899 0.000000
# 3 -0.002376 -0.002409 0.013702 0.000000 0.002745 0.000000
# 4 0.000000 0.000000 0.000000 0.026235 0.000000 -0.005441
# 5 -0.001119 0.004899 0.002745 0.000000 0.046735 0.000000
# 6 0.000000 0.000000 0.000000 -0.005441 0.000000 0.046130
#
#
# Mechanical properties :
#
#
# Convention : Reuss Voigt Hill
#
# Bulk Modulus (GPa) = 41.01413 45.75860 43.38636
# Shear Modulus (GPa) = 27.32323 30.21218 28.76770
#
# Velocity S-wave (km/s) = 3.40758 3.58320 3.49649
# Velocity P-wave (km/s) = 5.73690 6.04692 5.89395
#
# Compressibility (1/GPa) = 0.02438184
#
# Stress axis : x y z
#
# Youngs Moduli (GPa) = 61.75761 98.22808 72.98215
#
# Poissons Ratio (x) = 0.30076 0.17337
# Poissons Ratio (y) = 0.18909 0.17581
# Poissons Ratio (z) = 0.14671 0.23663
#
# Static dielectric constant tensor:
#      x y z
#    x 4.084020 0.000000 -0.046910 
#    y 0.000000 4.163500 0.000000 
#    z -0.046910 0.000000 4.227930 
# 
# 
# High freq. dielectric constant tensor:
#      x y z
#    x 1.915620 0.000000 0.016410 
#    y 0.000000 1.941470 0.000000 
#    z 0.016410 0.000000 1.926010 
# 
# From -- ./inp_files/172382.got.cif
#   From: 2010.06.25/outbox.cif.g09.slc.cpg/sg15_87_cif.got.tgz:172382.got - 2010.06.28 07:06:18.
