data_PCOD8134916
_publ_section_title
;
Structure prediction by ZEFSAII (Michael W. Deem and Ramdas Pophale) SiO2 
 PCOD8134916
Probable space group: C 2/C
;
_chemical_formula_sum "Si O2"
_cell_formula_units_Z 56
_cell_length_a 22.991583
_cell_length_b 14.529525
_cell_length_c 8.342002
_cell_angle_alpha 90.000000
_cell_angle_beta 119.866363
_cell_angle_gamma 90.000000
_cell_volume 2416.598300
_symmetry_space_group_name_H-M "C 2/C"
_symmetry_group_IT_number 15
_symmetry_cell_setting 'monoclinic'
loop_
_space_group_symop_operation_xyz
x,y,z
-x,y,1/2-z
-x,-y,-z
x,-y,1/2+z
1/2+x,1/2+y,z
1/2-x,1/2+y,1/2-z
1/2-x,1/2-y,-z
1/2+x,1/2-y,1/2+z
loop_
_atom_site_type_symbol
_atom_site_label
_atom_site_fract_x
_atom_site_fract_y
_atom_site_fract_z
Si Si1 0.617068 0.954117 0.513513
Si Si2 0.567121 0.557210 0.614738
Si Si3 0.843107 0.728913 0.958008
Si Si4 0.793434 0.580936 0.081107
Si Si5 0.541825 0.749712 0.652606
Si Si6 0.344771 0.561936 0.474827
Si Si7 0.563462 0.880958 0.131330
O O1 0.663545 0.895776 0.698837
O O2 0.570920 0.890661 0.334168
O O3 0.667013 0.005769 0.463929
O O4 0.567105 0.022362 0.540873
O O5 0.500000 0.500000 0.500000
O O6 0.552323 0.663243 0.543892
O O7 0.587487 0.564021 0.828063
O O8 0.633950 0.511279 0.630577
O O9 0.780321 0.669566 0.943949
O O10 0.889324 0.714727 0.179040
O O11 0.827726 0.834140 0.890421
O O12 0.875590 0.683870 0.845378
O O13 0.723029 0.531829 0.029304
O O14 0.500000 0.716029 0.750000
O O15 0.507826 0.833514 0.508692
#
# Coordination Sequence:
#
# PCOD8134916 Si02
#       7
#     8   8   8   8   8   8   8
#     4   9  19  34  58  85 114 149 189 237 283 340
#     4  11  21  37  59  84 112 147 193 239 287 345
#     4   9  19  36  56  79 115 156 191 234 284 341
#     4  10  19  37  56  82 116 150 194 238 281 341
#     4   9  18  36  58  82 117 155 189 234 290 344
#     4  11  22  37  60  84 110 154 195 236 291 340
#     4   9  17  35  57  82 117 151 186 232 288 341
#
# _framework density 23.173069000000002
#
# number of rings (size 3 to 8) (size 9 to 14) (size 15 to 20)
#    0.000    2.286    0.000    4.286    0.000    0.000 
#    0.000   29.286    0.000    3.429    0.000    0.000 
#    0.000    0.000    0.000    0.000    0.000    0.000 
#
# Total GULP energy -346907.285891 kJ/mol
# GULP energy per Si atom -12389.545925 kJ/mol
# Density = 2.312033 g / cm^3
# Si number density = 23.173069 Si / 1000 Ang^3
#
#
#
# Elastic Constant Matrix: (Units=GPa)
#
#
# Indices 1 2 3 4 5 6 
#
# 1 74.7283 22.2858 1.0069 0.0000 0.8185 0.0000
# 2 22.2858 114.1144 30.7180 0.0000 -11.0841 0.0000
# 3 1.0069 30.7180 71.6754 0.0000 -2.8760 0.0000
# 4 0.0000 0.0000 0.0000 28.3820 0.0000 -5.6483
# 5 0.8185 -11.0841 -2.8760 0.0000 26.9513 0.0000
# 6 0.0000 0.0000 0.0000 -5.6483 0.0000 37.3483
#
#
#
# Elastic Compliance Matrix: (Units=1/GPa)
#
#
# Indices 1 2 3 4 5 6 
#
# 1 0.014360 -0.003271 0.001133 0.000000 -0.001660 0.000000
# 2 -0.003271 0.011019 -0.004510 0.000000 0.004150 0.000000
# 3 0.001133 -0.004510 0.015861 0.000000 -0.000197 0.000000
# 4 0.000000 0.000000 0.000000 0.036327 0.000000 0.005494
# 5 -0.001660 0.004150 -0.000197 0.000000 0.038840 0.000000
# 6 0.000000 0.000000 0.000000 0.005494 0.000000 0.027606
#
#
# Mechanical properties :
#
#
# Convention : Reuss Voigt Hill
#
# Bulk Modulus (GPa) = 35.78426 40.94886 38.36656
# Shear Modulus (GPa) = 30.00792 32.30348 31.15570
#
# Velocity S-wave (km/s) = 3.60244 3.73769 3.67069
# Velocity P-wave (km/s) = 5.72531 6.02797 5.87859
#
# Compressibility (1/GPa) = 0.02794525
#
# Stress axis : x y z
#
# Youngs Moduli (GPa) = 69.63709 90.75230 63.04848
#
# Poissons Ratio (x) = 0.29683 -0.07146
# Poissons Ratio (y) = 0.22777 0.28435
# Poissons Ratio (z) = -0.07893 0.40929
#
# Static dielectric constant tensor:
#      x y z
#    x 4.169340 0.000000 -0.060340 
#    y 0.000000 4.306960 0.000000 
#    z -0.060340 0.000000 4.112080 
# 
# 
# High freq. dielectric constant tensor:
#      x y z
#    x 1.925560 0.000000 -0.001480 
#    y 0.000000 1.912150 0.000000 
#    z -0.001480 0.000000 1.892540 
# 
# From -- ./inp_files/66291.got.cif
#   From: 2010.06.25/outbox.cif.g09.slc.cpg/sg15_34_cif.got.tgz:66291.got - 2010.06.28 07:06:18.
