data_PCOD8134379
_publ_section_title
;
Structure prediction by ZEFSAII (Michael W. Deem and Ramdas Pophale) SiO2 
 PCOD8134379
Probable space group: C 2/C
;
_chemical_formula_sum "Si O2"
_cell_formula_units_Z 56
_cell_length_a 20.618153
_cell_length_b 15.198919
_cell_length_c 18.476493
_cell_angle_alpha 90.000000
_cell_angle_beta 28.136918
_cell_angle_gamma 90.000000
_cell_volume 2730.470812
_symmetry_space_group_name_H-M "C 2/C"
_symmetry_group_IT_number 15
_symmetry_cell_setting 'monoclinic'
loop_
_space_group_symop_operation_xyz
x,y,z
-x,y,1/2-z
-x,-y,-z
x,-y,1/2+z
1/2+x,1/2+y,z
1/2-x,1/2+y,1/2-z
1/2-x,1/2-y,-z
1/2+x,1/2-y,1/2+z
loop_
_atom_site_type_symbol
_atom_site_label
_atom_site_fract_x
_atom_site_fract_y
_atom_site_fract_z
Si Si1 0.164498 0.649810 0.677368
Si Si2 0.075628 0.531008 0.285735
Si Si3 0.631796 0.263283 0.017949
Si Si4 0.120336 0.285586 0.984239
Si Si5 0.114901 0.303868 0.822660
Si Si6 0.696750 0.937839 0.993997
Si Si7 0.755912 0.110429 0.985038
O O1 0.162342 0.556416 0.722067
O O2 0.303288 0.699439 0.562003
O O3 0.169393 0.628370 0.587341
O O4 0.027538 0.706016 0.830804
O O5 0.145730 0.590174 0.155604
O O6 0.063920 0.594194 0.367265
O O7 0.933108 0.499554 0.393062
O O8 0.625733 0.332976 0.090739
O O9 0.728325 0.293942 0.856814
O O10 0.478910 0.257615 0.136409
O O11 0.683258 0.168360 0.994788
O O12 0.217099 0.372110 0.905964
O O13 0.098532 0.274468 0.920940
O O14 0.810605 0.014898 0.898554
#
# Coordination Sequence:
#
# PCOD8134379 Si02
#       7
#     8   8   8   8   8   8   8
#     4  10  21  37  62  84 109 151 195 243 285 325
#     4   9  18  34  61  85 111 145 195 241 281 335
#     4  10  21  33  61  83 118 151 185 239 284 345
#     4  11  22  37  58  84 119 151 191 236 284 344
#     4  11  22  37  55  88 119 152 187 228 291 351
#     4  10  19  35  62  89 108 147 205 244 275 325
#     4   9  17  32  57  85 113 141 188 243 285 315
#
# _framework density 20.509283
#
# number of rings (size 3 to 8) (size 9 to 14) (size 15 to 20)
#    0.000    2.000    1.429    5.143    2.000    4.000 
#    2.571    0.000   15.714    8.571    0.000    0.000 
#    0.000    0.000    0.000    0.000    0.000    0.000 
#
# Total GULP energy -346891.582424 kJ/mol
# GULP energy per Si atom -12388.985087 kJ/mol
# Density = 2.046260 g / cm^3
# Si number density = 20.509283 Si / 1000 Ang^3
#
#
#
# Elastic Constant Matrix: (Units=GPa)
#
#
# Indices 1 2 3 4 5 6 
#
# 1 73.5773 56.8974 17.7087 -0.0003 -0.2910 0.0016
# 2 56.8974 108.5645 16.7801 -0.0020 -5.1193 0.0011
# 3 17.7087 16.7801 36.9142 -0.0033 -5.1307 0.0023
# 4 -0.0003 -0.0020 -0.0033 24.0671 0.0014 -6.6323
# 5 -0.2910 -5.1193 -5.1307 0.0014 18.9393 -0.0010
# 6 0.0016 0.0011 0.0023 -6.6323 -0.0010 32.1341
#
#
#
# Elastic Compliance Matrix: (Units=1/GPa)
#
#
# Indices 1 2 3 4 5 6 
#
# 1 0.024534 -0.012004 -0.006974 -0.000002 -0.004757 -0.000001
# 2 -0.012004 0.015823 -0.000899 0.000001 0.003849 0.000000
# 3 -0.006974 -0.000899 0.032000 0.000003 0.008319 -0.000001
# 4 -0.000002 0.000001 0.000003 0.044056 -0.000002 0.009093
# 5 -0.004757 0.003849 0.008319 -0.000002 0.056021 0.000001
# 6 -0.000001 0.000000 -0.000001 0.009093 0.000001 0.032996
#
#
# Mechanical properties :
#
#
# Convention : Reuss Voigt Hill
#
# Bulk Modulus (GPa) = 30.67220 44.64760 37.65990
# Shear Modulus (GPa) = 19.52729 23.53943 21.53336
#
# Velocity S-wave (km/s) = 3.08899 3.39151 3.24378
# Velocity P-wave (km/s) = 5.26405 6.09534 5.69489
#
# Compressibility (1/GPa) = 0.03260282
#
# Stress axis : x y z
#
# Youngs Moduli (GPa) = 40.76033 63.19990 31.24978
#
# Poissons Ratio (x) = 0.75867 0.21793
# Poissons Ratio (y) = 0.48930 0.02809
# Poissons Ratio (z) = 0.28426 0.05681
#
# Static dielectric constant tensor:
#      x y z
#    x 3.695770 0.000000 0.012610 
#    y 0.000000 4.368420 0.000000 
#    z 0.012610 0.000000 3.361230 
# 
# 
# High freq. dielectric constant tensor:
#      x y z
#    x 1.794550 0.000000 0.004970 
#    y 0.000000 1.818260 0.000000 
#    z 0.004970 0.000000 1.760550 
# 
# From -- ./inp_files/215699.got.cif
#   From: 2010.06.25/outbox.cif.g09.slc.cpg/sg15_108_cif.got.tgz:215699.got - 2010.06.28 07:06:18.
