data_PCOD8134818
_publ_section_title
;
Structure prediction by ZEFSAII (Michael W. Deem and Ramdas Pophale) SiO2 
 PCOD8134818
Probable space group: C 2/C
;
_chemical_formula_sum "Si O2"
_cell_formula_units_Z 64
_cell_length_a 12.185831
_cell_length_b 15.719438
_cell_length_c 27.823352
_cell_angle_alpha 90.000000
_cell_angle_beta 37.980532
_cell_angle_gamma 90.000000
_cell_volume 3279.855075
_symmetry_space_group_name_H-M "C 2/C"
_symmetry_group_IT_number 15
_symmetry_cell_setting 'monoclinic'
loop_
_space_group_symop_operation_xyz
x,y,z
-x,y,1/2-z
-x,-y,-z
x,-y,1/2+z
1/2+x,1/2+y,z
1/2-x,1/2+y,1/2-z
1/2-x,1/2-y,-z
1/2+x,1/2-y,1/2+z
loop_
_atom_site_type_symbol
_atom_site_label
_atom_site_fract_x
_atom_site_fract_y
_atom_site_fract_z
Si Si1 0.962361 0.846126 0.539797
Si Si2 0.574118 0.071611 0.172769
Si Si3 0.557588 0.770086 0.545555
Si Si4 0.361267 0.955934 0.013407
Si Si5 0.814677 0.433403 0.436429
Si Si6 0.602055 0.236280 0.301188
Si Si7 0.421463 0.208608 0.629759
Si Si8 0.133359 0.123839 0.666102
O O1 0.771145 0.889894 0.606774
O O2 0.984645 0.787412 0.485459
O O3 0.990780 0.791409 0.578132
O O4 0.114357 0.918185 0.486741
O O5 0.500000 0.044801 0.250000
O O6 0.436617 0.138242 0.197140
O O7 0.574110 0.987715 0.140337
O O8 0.750000 0.750000 0.500000
O O9 0.548503 0.869228 0.535886
O O10 0.412120 0.748620 0.636798
O O11 0.304365 0.016134 0.989825
O O12 0.179005 0.937944 0.106171
O O13 0.500000 0.000000 0.000000
O O14 0.910384 0.342596 0.408366
O O15 0.799007 0.262739 0.216756
O O16 0.455539 0.289741 0.322223
O O17 0.316371 0.148152 0.629094
O O18 0.000000 0.077821 0.750000
#
# Coordination Sequence:
#
# PCOD8134818 Si02
#       8
#     8   8   8   8   8   8   8   8
#     4  12  23  42  65  92 127 173 211 252 320 394
#     4  12  22  42  66  92 129 166 206 270 319 369
#     4  12  20  37  67  90 115 160 222 258 292 375
#     4  12  21  39  61  92 128 163 200 263 317 364
#     4  12  27  39  61  99 139 158 207 268 336 372
#     4  11  20  38  70  92 113 162 228 258 297 376
#     4  11  21  42  64  90 121 175 204 253 313 389
#     4  10  19  36  63  90 116 158 220 260 299 371
#
# _framework density 19.513058000000001
#
# number of rings (size 3 to 8) (size 9 to 14) (size 15 to 20)
#    0.000    0.500    8.750    1.125    0.000    1.000 
#    4.500    1.250    0.000    0.000    0.000    0.000 
#    0.000    0.000    0.000    0.000    0.000    0.000 
#
# Total GULP energy -396927.939834 kJ/mol
# GULP energy per Si atom -12403.998120 kJ/mol
# Density = 1.946865 g / cm^3
# Si number density = 19.513058 Si / 1000 Ang^3
#
#
#
# Elastic Constant Matrix: (Units=GPa)
#
#
# Indices 1 2 3 4 5 6 
#
# 1 61.4753 29.8323 30.0701 -0.0006 11.4343 0.0000
# 2 29.8323 72.2470 30.1190 -0.0010 7.8176 0.0001
# 3 30.0701 30.1190 134.7039 -0.0009 32.2580 0.0011
# 4 -0.0006 -0.0010 -0.0009 31.3693 0.0004 5.0263
# 5 11.4343 7.8176 32.2580 0.0004 33.2587 0.0001
# 6 0.0000 0.0001 0.0011 5.0263 0.0001 36.2433
#
#
#
# Elastic Compliance Matrix: (Units=1/GPa)
#
#
# Indices 1 2 3 4 5 6 
#
# 1 0.021749 -0.007640 -0.002327 0.000000 -0.003425 0.000000
# 2 -0.007640 0.017951 -0.002510 0.000000 0.000841 0.000000
# 3 -0.002327 -0.002510 0.010644 0.000000 -0.008933 0.000000
# 4 0.000000 0.000000 0.000000 0.032603 -0.000001 -0.004521
# 5 -0.003425 0.000841 -0.008933 -0.000001 0.039712 0.000000
# 6 0.000000 0.000000 0.000000 -0.004521 0.000000 0.028218
#
#
# Mechanical properties :
#
#
# Convention : Reuss Voigt Hill
#
# Bulk Modulus (GPa) = 39.38398 49.82991 44.60694
# Shear Modulus (GPa) = 27.13052 32.06792 29.59922
#
# Velocity S-wave (km/s) = 3.73282 4.05830 3.89896
# Velocity P-wave (km/s) = 6.22943 6.89578 6.57106
#
# Compressibility (1/GPa) = 0.02539103
#
# Stress axis : x y z
#
# Youngs Moduli (GPa) = 45.97835 55.70569 93.95330
#
# Poissons Ratio (x) = 0.42560 0.21860
# Poissons Ratio (y) = 0.35128 0.23581
# Poissons Ratio (z) = 0.10698 0.13981
#
# Static dielectric constant tensor:
#      x y z
#    x 3.427220 0.000000 0.234120 
#    y 0.000000 3.553690 0.000000 
#    z 0.234120 0.000000 3.529340 
# 
# 
# High freq. dielectric constant tensor:
#      x y z
#    x 1.745420 0.000000 0.018530 
#    y 0.000000 1.755050 0.000000 
#    z 0.018530 0.000000 1.774580 
# 
# From -- ./inp_files/293064.got.cif
#   From: 2010.06.25/outbox.cif.g09.slc.cpg/sg15_147_cif.got.tgz:293064.got - 2010.06.28 07:06:18.
