data_PCOD8134968
_publ_section_title
;
Structure prediction by ZEFSAII (Michael W. Deem and Ramdas Pophale) SiO2 
 PCOD8134968
Probable space group: C 2/C
;
_chemical_formula_sum "Si O2"
_cell_formula_units_Z 52
_cell_length_a 28.307895
_cell_length_b 14.222695
_cell_length_c 14.689642
_cell_angle_alpha 90.000000
_cell_angle_beta 156.725818
_cell_angle_gamma 90.000000
_cell_volume 2336.912492
_symmetry_space_group_name_H-M "C 2/C"
_symmetry_group_IT_number 15
_symmetry_cell_setting 'monoclinic'
loop_
_space_group_symop_operation_xyz
x,y,z
-x,y,1/2-z
-x,-y,-z
x,-y,1/2+z
1/2+x,1/2+y,z
1/2-x,1/2+y,1/2-z
1/2-x,1/2-y,-z
1/2+x,1/2-y,1/2+z
loop_
_atom_site_type_symbol
_atom_site_label
_atom_site_fract_x
_atom_site_fract_y
_atom_site_fract_z
Si Si1 0.500000 0.107820 0.750000
Si Si2 0.045485 0.216760 0.235282
Si Si3 0.531216 0.589125 0.905501
Si Si4 0.776723 0.509652 0.822372
Si Si5 0.077525 0.229589 0.665024
Si Si6 0.298488 0.101954 0.047312
Si Si7 0.811008 0.951928 0.528868
O O1 0.427174 0.173832 0.693277
O O2 0.399136 0.046998 0.522115
O O3 0.158004 0.157594 0.394505
O O4 0.000000 0.167333 0.250000
O O5 0.940824 0.220827 0.975307
O O6 0.500000 0.626741 0.750000
O O7 0.528138 0.678622 0.966869
O O8 0.437976 0.505620 0.763327
O O9 0.665862 0.553868 0.157316
O O10 0.744661 0.554513 0.669663
O O11 0.802117 0.587637 0.945132
O O12 0.085870 0.338821 0.713363
O O13 0.192867 0.168537 0.895196
O O14 0.284909 0.999854 0.072566
#
# Coordination Sequence:
#
# PCOD8134968 Si02
#       7
#     4   8   8   8   8   8   8
#     4  10  26  40  58  84 130 164 198 244 316 362
#     4  10  20  36  61  84 118 159 204 249 295 352
#     4   9  19  35  62  89 128 151 208 257 300 346
#     4  11  21  42  59  88 125 165 203 253 298 369
#     4  10  19  37  58  98 123 158 198 256 303 363
#     4  10  21  34  64  89 129 159 196 249 316 357
#     4  10  19  37  65  98 110 160 211 255 297 354
#
# _framework density 22.251581000000002
#
# number of rings (size 3 to 8) (size 9 to 14) (size 15 to 20)
#    0.462    1.538    0.000    5.077    0.000    3.692 
#    1.385    6.154    0.000    0.000    0.000    0.000 
#    0.000    0.000    0.000    0.000    0.000    0.000 
#
# Total GULP energy -322122.135456 kJ/mol
# GULP energy per Si atom -12389.312902 kJ/mol
# Density = 2.220094 g / cm^3
# Si number density = 22.251581 Si / 1000 Ang^3
#
#
#
# Elastic Constant Matrix: (Units=GPa)
#
#
# Indices 1 2 3 4 5 6 
#
# 1 54.0423 27.0254 23.4301 0.0000 -30.8008 0.0000
# 2 27.0254 98.6255 50.8333 0.0000 -4.4000 0.0000
# 3 23.4301 50.8333 100.5630 0.0000 -19.0288 0.0000
# 4 0.0000 0.0000 0.0000 23.9919 0.0000 -4.0551
# 5 -30.8008 -4.4000 -19.0288 0.0000 33.6395 0.0000
# 6 0.0000 0.0000 0.0000 -4.0551 0.0000 25.8633
#
#
#
# Elastic Compliance Matrix: (Units=1/GPa)
#
#
# Indices 1 2 3 4 5 6 
#
# 1 0.049960 -0.013709 0.004038 0.000000 0.046235 0.000000
# 2 -0.013709 0.017646 -0.008583 0.000000 -0.015099 0.000000
# 3 0.004038 -0.008583 0.015487 0.000000 0.011335 0.000000
# 4 0.000000 0.000000 0.000000 0.042815 0.000000 0.006713
# 5 0.046235 -0.015099 0.011335 0.000000 0.076497 0.000000
# 6 0.000000 0.000000 0.000000 0.006713 0.000000 0.039717
#
#
# Mechanical properties :
#
#
# Convention : Reuss Voigt Hill
#
# Bulk Modulus (GPa) = 21.46592 50.64538 36.05565
# Shear Modulus (GPa) = 16.99771 26.82840 21.91305
#
# Velocity S-wave (km/s) = 2.76685 3.47606 3.14154
# Velocity P-wave (km/s) = 4.45815 6.23863 5.42197
#
# Compressibility (1/GPa) = 0.04658548
#
# Stress axis : x y z
#
# Youngs Moduli (GPa) = 20.01613 56.67025 64.57225
#
# Poissons Ratio (x) = 0.77687 -0.26075
# Poissons Ratio (y) = 0.27439 0.55421
# Poissons Ratio (z) = -0.08083 0.48639
#
# Static dielectric constant tensor:
#      x y z
#    x 3.862070 0.000000 -0.139530 
#    y 0.000000 3.980910 0.000000 
#    z -0.139530 0.000000 3.813540 
# 
# 
# High freq. dielectric constant tensor:
#      x y z
#    x 1.860150 0.000000 -0.025760 
#    y 0.000000 1.866090 0.000000 
#    z -0.025760 0.000000 1.863720 
# 
# From -- ./inp_files/182899.got.cif
#   From: 2010.06.25/outbox.cif.g09.slc.cpg/sg15_92_cif.got.tgz:182899.got - 2010.06.28 07:06:18.
