data_PCOD8134539
_publ_section_title
;
Structure prediction by ZEFSAII (Michael W. Deem and Ramdas Pophale) SiO2 
 PCOD8134539
Probable space group: C 2/C
;
_chemical_formula_sum "Si O2"
_cell_formula_units_Z 48
_cell_length_a 15.946900
_cell_length_b 8.851769
_cell_length_c 25.369818
_cell_angle_alpha 90.000000
_cell_angle_beta 40.857751
_cell_angle_gamma 90.000000
_cell_volume 2342.734835
_symmetry_space_group_name_H-M "C 2/C"
_symmetry_group_IT_number 15
_symmetry_cell_setting 'monoclinic'
loop_
_space_group_symop_operation_xyz
x,y,z
-x,y,1/2-z
-x,-y,-z
x,-y,1/2+z
1/2+x,1/2+y,z
1/2-x,1/2+y,1/2-z
1/2-x,1/2-y,-z
1/2+x,1/2-y,1/2+z
loop_
_atom_site_type_symbol
_atom_site_label
_atom_site_fract_x
_atom_site_fract_y
_atom_site_fract_z
Si Si1 0.317531 0.331658 0.093416
Si Si2 0.739583 0.101860 0.073616
Si Si3 0.049312 0.771651 0.099837
Si Si4 0.870545 0.556390 0.122317
Si Si5 0.161247 0.004803 0.808478
Si Si6 0.912772 0.775614 0.578092
O O1 0.230408 0.420317 0.091401
O O2 0.292772 0.151158 0.113489
O O3 0.292274 0.407016 0.161886
O O4 0.464513 0.356441 0.005697
O O5 0.600532 0.167699 0.123631
O O6 0.787692 0.186592 0.103051
O O7 0.835871 0.130430 0.979480
O O8 0.988302 0.662430 0.084495
O O9 0.945267 0.892469 0.170684
O O10 0.779297 0.518880 0.214072
O O11 0.931214 0.404325 0.070430
O O12 0.106731 0.842070 0.853473
#
# Coordination Sequence:
#
# PCOD8134539 Si02
#       6
#     8   8   8   8   8   8
#     4  10  19  36  57  86 112 156 196 231 282 347
#     4  10  19  36  61  83 112 145 197 246 281 338
#     4  10  20  37  58  87 111 148 194 243 295 335
#     4  11  22  33  57  87 119 148 196 236 290 353
#     4  10  19  37  56  81 116 155 191 235 288 349
#     4  11  18  35  59  86 112 154 197 237 275 346
#
# _framework density 20.488873000000002
#
# number of rings (size 3 to 8) (size 9 to 14) (size 15 to 20)
#    0.000    1.667    5.000    3.500    0.000    0.000 
#    0.000   10.000    0.000    4.000    0.000    0.000 
#    0.000    0.000    0.000    0.000    0.000    0.000 
#
# Total GULP energy -297397.008345 kJ/mol
# GULP energy per Si atom -12391.542014 kJ/mol
# Density = 2.044224 g / cm^3
# Si number density = 20.488873 Si / 1000 Ang^3
#
#
#
# Elastic Constant Matrix: (Units=GPa)
#
#
# Indices 1 2 3 4 5 6 
#
# 1 77.8903 27.7252 3.5245 0.0000 -2.9017 0.0003
# 2 27.7252 114.4414 -9.0204 0.0000 4.1798 0.0006
# 3 3.5245 -9.0204 41.6506 0.0000 8.4030 0.0000
# 4 0.0000 0.0000 0.0000 26.3206 0.0000 0.8990
# 5 -2.9017 4.1798 8.4030 0.0000 15.0667 0.0000
# 6 0.0003 0.0006 0.0000 0.8990 0.0000 40.6670
#
#
#
# Elastic Compliance Matrix: (Units=1/GPa)
#
#
# Indices 1 2 3 4 5 6 
#
# 1 0.014629 -0.004012 -0.003267 0.000000 0.005752 0.000000
# 2 -0.004012 0.010208 0.003693 0.000000 -0.005664 0.000000
# 3 -0.003267 0.003693 0.028642 0.000000 -0.017628 0.000000
# 4 0.000000 0.000000 0.000000 0.038022 0.000000 -0.000841
# 5 0.005752 -0.005664 -0.017628 0.000000 0.078882 0.000000
# 6 0.000000 0.000000 0.000000 -0.000841 0.000000 0.024609
#
#
# Mechanical properties :
#
#
# Convention : Reuss Voigt Hill
#
# Bulk Modulus (GPa) = 21.59518 30.93789 26.26654
# Shear Modulus (GPa) = 22.97809 30.52772 26.75290
#
# Velocity S-wave (km/s) = 3.35250 3.86420 3.61741
# Velocity P-wave (km/s) = 5.05455 5.91963 5.50411
#
# Compressibility (1/GPa) = 0.04630663
#
# Stress axis : x y z
#
# Youngs Moduli (GPa) = 68.35891 97.96306 34.91383
#
# Poissons Ratio (x) = 0.39299 0.11407
# Poissons Ratio (y) = 0.27423 -0.12894
# Poissons Ratio (z) = 0.22335 -0.36177
#
# Static dielectric constant tensor:
#      x y z
#    x 3.604110 0.000000 0.089730 
#    y 0.000000 4.309470 0.000000 
#    z 0.089730 0.000000 3.455650 
# 
# 
# High freq. dielectric constant tensor:
#      x y z
#    x 1.756600 0.000000 0.014150 
#    y 0.000000 1.818510 0.000000 
#    z 0.014150 0.000000 1.790430 
# 
# From -- ./inp_files/209296.got.cif
#   From: 2010.06.25/outbox.cif.g09.slc.cpg/sg15_105_cif.got.tgz:209296.got - 2010.06.28 07:06:18.
