data_PCOD8134909
_publ_section_title
;
Structure prediction by ZEFSAII (Michael W. Deem and Ramdas Pophale) SiO2 
 PCOD8134909
Probable space group: C 2/C
;
_chemical_formula_sum "Si O2"
_cell_formula_units_Z 60
_cell_length_a 26.296015
_cell_length_b 9.498873
_cell_length_c 25.670142
_cell_angle_alpha 90.000000
_cell_angle_beta 29.013215
_cell_angle_gamma 90.000000
_cell_volume 3109.869599
_symmetry_space_group_name_H-M "C 2/C"
_symmetry_group_IT_number 15
_symmetry_cell_setting 'monoclinic'
loop_
_space_group_symop_operation_xyz
x,y,z
-x,y,1/2-z
-x,-y,-z
x,-y,1/2+z
1/2+x,1/2+y,z
1/2-x,1/2+y,1/2-z
1/2-x,1/2-y,-z
1/2+x,1/2-y,1/2+z
loop_
_atom_site_type_symbol
_atom_site_label
_atom_site_fract_x
_atom_site_fract_y
_atom_site_fract_z
Si Si1 0.714377 0.490434 0.640091
Si Si2 0.498538 0.591801 0.312459
Si Si3 0.607366 0.789812 0.741710
Si Si4 0.516671 0.392146 0.080202
Si Si5 0.344128 0.162376 0.941000
Si Si6 0.770640 0.129923 0.170066
Si Si7 0.706504 0.565173 0.757387
Si Si8 0.000000 0.536055 0.250000
O O1 0.619726 0.378044 0.718461
O O2 0.665219 0.645483 0.670085
O O3 0.807656 0.441393 0.519571
O O4 0.758194 0.492240 0.659840
O O5 0.500000 0.543484 0.250000
O O6 0.451830 0.478098 0.395224
O O7 0.432385 0.731719 0.382358
O O8 0.525167 0.757619 0.861713
O O9 0.695599 0.892489 0.687160
O O10 0.537723 0.862312 0.761260
O O11 0.419180 0.459531 0.135535
O O12 0.610990 0.370442 0.956347
O O13 0.398729 0.059663 0.851105
O O14 0.250000 0.250000 0.000000
O O15 0.742672 0.272954 0.225547
O O16 0.752460 0.002963 0.226408
#
# Coordination Sequence:
#
# PCOD8134909 Si02
#       8
#     8   8   8   8   8   8   8   4
#     4   9  21  40  59  83 121 162 196 249 309 352
#     4  10  19  37  55  85 119 156 200 240 285 369
#     4   9  24  39  59  91 120 156 209 247 295 366
#     4   9  21  38  65  84 118 159 204 244 303 368
#     4  12  23  37  59  86 129 156 203 246 306 359
#     4  10  20  42  63  87 120 156 203 254 310 364
#     4   9  21  40  61  90 117 154 203 260 298 372
#     4  12  26  38  60  92 126 156 204 256 290 362
#
# _framework density 19.293413000000001
#
# number of rings (size 3 to 8) (size 9 to 14) (size 15 to 20)
#    0.000    2.667    2.000    0.400    9.333    1.600 
#    4.800    4.000    0.000    0.000    0.000    0.000 
#    0.000    0.000    0.000    0.000    0.000    0.000 
#
# Total GULP energy -371652.354866 kJ/mol
# GULP energy per Si atom -12388.411829 kJ/mol
# Density = 1.924950 g / cm^3
# Si number density = 19.293413 Si / 1000 Ang^3
#
#
#
# Elastic Constant Matrix: (Units=GPa)
#
#
# Indices 1 2 3 4 5 6 
#
# 1 90.2210 45.2315 22.9997 -0.0002 1.7005 0.0004
# 2 45.2315 71.2259 38.1489 -0.0017 1.2880 0.0012
# 3 22.9997 38.1489 92.1305 0.0000 15.1214 0.0005
# 4 -0.0002 -0.0017 0.0000 21.9182 0.0003 1.2660
# 5 1.7005 1.2880 15.1214 0.0003 15.7871 -0.0005
# 6 0.0004 0.0012 0.0005 1.2660 -0.0005 36.7513
#
#
#
# Elastic Compliance Matrix: (Units=1/GPa)
#
#
# Indices 1 2 3 4 5 6 
#
# 1 0.016293 -0.010624 0.000567 -0.000001 -0.001431 0.000000
# 2 -0.010624 0.025595 -0.009244 0.000002 0.007911 -0.000001
# 3 0.000567 -0.009244 0.017118 -0.000001 -0.015703 0.000000
# 4 -0.000001 0.000002 -0.000001 0.045715 0.000000 -0.001575
# 5 -0.001431 0.007911 -0.015703 0.000000 0.077892 0.000001
# 6 0.000000 -0.000001 0.000000 -0.001575 0.000001 0.027264
#
#
# Mechanical properties :
#
#
# Convention : Reuss Voigt Hill
#
# Bulk Modulus (GPa) = 49.01519 51.81529 50.41524
# Shear Modulus (GPa) = 19.58621 24.70446 22.14534
#
# Velocity S-wave (km/s) = 3.18964 3.58224 3.39162
# Velocity P-wave (km/s) = 6.24703 6.63511 6.44399
#
# Compressibility (1/GPa) = 0.02040184
#
# Stress axis : x y z
#
# Youngs Moduli (GPa) = 61.37677 39.07012 58.41858
#
# Poissons Ratio (x) = 0.41509 -0.03311
# Poissons Ratio (y) = 0.65209 0.54004
# Poissons Ratio (z) = -0.03479 0.36118
#
# Static dielectric constant tensor:
#      x y z
#    x 3.550700 0.000000 -0.048340 
#    y 0.000000 3.442600 0.000000 
#    z -0.048340 0.000000 3.616520 
# 
# 
# High freq. dielectric constant tensor:
#      x y z
#    x 1.746230 0.000000 0.000290 
#    y 0.000000 1.736220 0.000000 
#    z 0.000290 0.000000 1.754160 
# 
# From -- ./inp_files/303098.got.cif
#   From: 2010.06.25/outbox.cif.g09.slc.cpg/sg15_152_cif.got.tgz:303098.got - 2010.06.28 07:06:18.
