data_PCOD8134791
_publ_section_title
;
Structure prediction by ZEFSAII (Michael W. Deem and Ramdas Pophale) SiO2 
 PCOD8134791
Probable space group: C 2/C
;
_chemical_formula_sum "Si O2"
_cell_formula_units_Z 32
_cell_length_a 18.785244
_cell_length_b 4.917424
_cell_length_c 17.964186
_cell_angle_alpha 90.000000
_cell_angle_beta 72.888841
_cell_angle_gamma 90.000000
_cell_volume 1585.987872
_symmetry_space_group_name_H-M "C 2/C"
_symmetry_group_IT_number 15
_symmetry_cell_setting 'monoclinic'
loop_
_space_group_symop_operation_xyz
x,y,z
-x,y,1/2-z
-x,-y,-z
x,-y,1/2+z
1/2+x,1/2+y,z
1/2-x,1/2+y,1/2-z
1/2-x,1/2-y,-z
1/2+x,1/2-y,1/2+z
loop_
_atom_site_type_symbol
_atom_site_label
_atom_site_fract_x
_atom_site_fract_y
_atom_site_fract_z
Si Si1 0.085835 0.758465 0.924986
Si Si2 0.228299 0.098947 0.301762
Si Si3 0.081063 0.746246 0.524042
Si Si4 0.215087 0.496377 0.053381
O O1 0.144151 0.795491 0.840280
O O2 0.084608 0.445945 0.950374
O O3 0.112127 0.962136 0.984548
O O4 0.002198 0.816287 0.921606
O O5 0.275760 0.342094 0.251405
O O6 0.269116 0.010498 0.364619
O O7 0.126945 0.580029 0.572770
O O8 0.250000 0.750000 0.000000
O O9 0.250000 0.250000 0.000000
#
# Coordination Sequence:
#
# PCOD8134791 Si02
#       4
#     8   8   8   8
#     4  10  20  36  60  88 119 157 201 257 314 359
#     4  12  24  38  58  92 131 165 198 256 332 385
#     4  10  19  36  62  89 114 152 213 263 293 357
#     4  12  21  38  63  91 119 159 219 259 298 371
#
# _framework density 20.1767
#
# number of rings (size 3 to 8) (size 9 to 14) (size 15 to 20)
#    0.000    1.000    5.000    3.000    0.000    0.000 
#    0.000    1.250    0.000    3.000    0.000    0.000 
#    0.000    0.000    0.000    0.000    0.000    0.000 
#
# Total GULP energy -198236.249067 kJ/mol
# GULP energy per Si atom -12389.765567 kJ/mol
# Density = 2.013078 g / cm^3
# Si number density = 20.176700 Si / 1000 Ang^3
#
#
#
# Elastic Constant Matrix: (Units=GPa)
#
#
# Indices 1 2 3 4 5 6 
#
# 1 120.8053 32.8746 58.5411 0.0000 -5.4157 0.0000
# 2 32.8746 123.0211 40.3460 0.0004 -4.7306 0.0007
# 3 58.5411 40.3460 110.6557 -0.0001 -10.7817 0.0000
# 4 0.0000 0.0004 -0.0001 37.5565 -0.0001 -1.7177
# 5 -5.4157 -4.7306 -10.7817 -0.0001 10.2826 -0.0001
# 6 0.0000 0.0007 0.0000 -1.7177 -0.0001 37.4200
#
#
#
# Elastic Compliance Matrix: (Units=1/GPa)
#
#
# Indices 1 2 3 4 5 6 
#
# 1 0.011288 -0.001205 -0.005577 0.000000 -0.000457 0.000000
# 2 -0.001205 0.009367 -0.002695 0.000000 0.000849 0.000000
# 3 -0.005577 -0.002695 0.013993 0.000000 0.010495 0.000000
# 4 0.000000 0.000000 0.000000 0.026683 0.000000 0.001225
# 5 -0.000457 0.000849 0.010495 0.000000 0.108406 0.000000
# 6 0.000000 0.000000 0.000000 0.001225 0.000000 0.026780
#
#
# Mechanical properties :
#
#
# Convention : Reuss Voigt Hill
#
# Bulk Modulus (GPa) = 63.72011 68.66727 66.19369
# Shear Modulus (GPa) = 22.65509 31.89983 27.27746
#
# Velocity S-wave (km/s) = 3.35451 3.98052 3.68085
# Velocity P-wave (km/s) = 6.83032 7.43188 7.13744
#
# Compressibility (1/GPa) = 0.01569363
#
# Stress axis : x y z
#
# Youngs Moduli (GPa) = 88.59230 106.75489 71.46638
#
# Poissons Ratio (x) = 0.12864 0.39855
# Poissons Ratio (y) = 0.10675 0.19262
# Poissons Ratio (z) = 0.49406 0.28773
#
# Static dielectric constant tensor:
#      x y z
#    x 3.085320 0.000000 -0.386980 
#    y 0.000000 3.692310 0.000000 
#    z -0.386980 0.000000 3.324210 
# 
# 
# High freq. dielectric constant tensor:
#      x y z
#    x 1.797790 0.000000 -0.016910 
#    y 0.000000 1.818250 0.000000 
#    z -0.016910 0.000000 1.743700 
# 
# From -- ./inp_files/164966.got.cif
#   From: 2010.06.25/outbox.cif.g09.slc.cpg/sg15_83_cif.got.tgz:164966.got - 2010.06.28 07:06:18.
