data_PCOD8134674
_publ_section_title
;
Structure prediction by ZEFSAII (Michael W. Deem and Ramdas Pophale) SiO2 
 PCOD8134674
Probable space group: C 2/C
;
_chemical_formula_sum "Si O2"
_cell_formula_units_Z 64
_cell_length_a 19.277923
_cell_length_b 19.915583
_cell_length_c 14.530384
_cell_angle_alpha 90.000000
_cell_angle_beta 33.067863
_cell_angle_gamma 90.000000
_cell_volume 3043.898673
_symmetry_space_group_name_H-M "C 2/C"
_symmetry_group_IT_number 15
_symmetry_cell_setting 'monoclinic'
loop_
_space_group_symop_operation_xyz
x,y,z
-x,y,1/2-z
-x,-y,-z
x,-y,1/2+z
1/2+x,1/2+y,z
1/2-x,1/2+y,1/2-z
1/2-x,1/2-y,-z
1/2+x,1/2-y,1/2+z
loop_
_atom_site_type_symbol
_atom_site_label
_atom_site_fract_x
_atom_site_fract_y
_atom_site_fract_z
Si Si1 0.991055 0.556499 0.366205
Si Si2 0.982624 0.287535 0.875165
Si Si3 0.692770 0.297512 0.249073
Si Si4 0.211963 0.308871 0.166108
Si Si5 0.201000 0.456125 0.176897
Si Si6 0.207514 0.050628 0.735550
Si Si7 0.891079 0.958214 0.805007
Si Si8 0.894595 0.191612 0.300586
O O1 0.018542 0.635019 0.351871
O O2 0.093986 0.512455 0.307115
O O3 0.000000 0.537719 0.250000
O O4 0.854834 0.534855 0.554147
O O5 0.082195 0.245960 0.826156
O O6 0.000000 0.266565 0.750000
O O7 0.835884 0.272461 0.064516
O O8 0.682413 0.295254 0.372127
O O9 0.673971 0.374421 0.238825
O O10 0.142105 0.380706 0.261365
O O11 0.118487 0.244072 0.269534
O O12 0.267437 0.314676 0.002307
O O13 0.310000 0.463994 0.135458
O O14 0.262009 0.460848 0.008007
O O15 0.118614 0.001649 0.776130
O O16 0.928253 0.883257 0.728454
O O17 0.000000 0.987432 0.750000
O O18 0.000000 0.221886 0.250000
#
# Coordination Sequence:
#
# PCOD8134674 Si02
#       8
#     8   8   8   8   8   8   8   8
#     4  10  19  36  60  83 115 146 182 238 288 330
#     4  10  22  39  59  84 115 150 190 238 289 338
#     4  10  22  39  60  85 117 148 190 241 283 342
#     4   9  20  36  55  87 112 151 187 230 284 338
#     4  10  20  37  58  84 114 146 188 231 284 338
#     4  10  21  38  58  85 114 147 188 235 284 335
#     4  10  21  38  57  80 115 152 187 233 280 332
#     4   9  19  36  56  79 119 150 186 232 279 339
#
# _framework density 21.025666999999999
#
# number of rings (size 3 to 8) (size 9 to 14) (size 15 to 20)
#    0.000    2.250    1.250    0.750    1.750    2.500 
#    4.500    0.000    0.000    0.000    0.000    0.000 
#    0.000    0.000    0.000    0.000    0.000    0.000 
#
# Total GULP energy -396582.273665 kJ/mol
# GULP energy per Si atom -12393.196052 kJ/mol
# Density = 2.097781 g / cm^3
# Si number density = 21.025667 Si / 1000 Ang^3
#
#
#
# Elastic Constant Matrix: (Units=GPa)
#
#
# Indices 1 2 3 4 5 6 
#
# 1 124.3063 84.6841 3.1676 -0.0011 -7.6754 0.0005
# 2 84.6841 116.5916 9.9379 -0.0016 -13.4215 0.0008
# 3 3.1676 9.9379 17.1315 -0.0014 -3.6643 0.0008
# 4 -0.0011 -0.0016 -0.0014 16.0950 0.0009 -3.1308
# 5 -7.6754 -13.4215 -3.6643 0.0009 33.9724 -0.0003
# 6 0.0005 0.0008 0.0008 -3.1308 -0.0003 46.0460
#
#
#
# Elastic Compliance Matrix: (Units=1/GPa)
#
#
# Indices 1 2 3 4 5 6 
#
# 1 0.016201 -0.012185 0.003917 0.000000 -0.000731 0.000000
# 2 -0.012185 0.018512 -0.007688 0.000000 0.003731 0.000000
# 3 0.003917 -0.007688 0.063103 0.000005 0.004654 -0.000001
# 4 0.000000 0.000000 0.000005 0.062964 -0.000001 0.004281
# 5 -0.000731 0.003731 0.004654 -0.000001 0.031247 0.000000
# 6 0.000000 0.000000 -0.000001 0.004281 0.000000 0.022009
#
#
# Mechanical properties :
#
#
# Convention : Reuss Voigt Hill
#
# Bulk Modulus (GPa) = 15.17367 50.40096 32.78731
# Shear Modulus (GPa) = 18.66257 29.90533 24.28395
#
# Velocity S-wave (km/s) = 2.98251 3.77546 3.40217
# Velocity P-wave (km/s) = 4.36954 6.55963 5.57322
#
# Compressibility (1/GPa) = 0.06590363
#
# Stress axis : x y z
#
# Youngs Moduli (GPa) = 61.72476 54.01807 15.84709
#
# Poissons Ratio (x) = 0.65823 -0.06207
# Poissons Ratio (y) = 0.75213 0.12183
# Poissons Ratio (z) = -0.24176 0.41528
#
# Static dielectric constant tensor:
#      x y z
#    x 3.895960 0.000000 0.273610 
#    y 0.000000 3.947270 0.000000 
#    z 0.273610 0.000000 3.763140 
# 
# 
# High freq. dielectric constant tensor:
#      x y z
#    x 1.820840 0.000000 0.011950 
#    y 0.000000 1.822370 0.000000 
#    z 0.011950 0.000000 1.814870 
# 
# From -- ./inp_files/113661.got.cif
#   From: 2010.06.25/outbox.cif.g09.slc.cpg/sg15_57_cif.got.tgz:113661.got - 2010.06.28 07:06:18.
