data_PCOD8134057
_publ_section_title
;
Structure prediction by ZEFSAII (Michael W. Deem and Ramdas Pophale) SiO2 
 PCOD8134057
Probable space group: C 2/C
;
_chemical_formula_sum "Si O2"
_cell_formula_units_Z 56
_cell_length_a 13.022800
_cell_length_b 26.539402
_cell_length_c 16.245482
_cell_angle_alpha 90.000000
_cell_angle_beta 33.219987
_cell_angle_gamma 90.000000
_cell_volume 3076.052921
_symmetry_space_group_name_H-M "C 2/C"
_symmetry_group_IT_number 15
_symmetry_cell_setting 'monoclinic'
loop_
_space_group_symop_operation_xyz
x,y,z
-x,y,1/2-z
-x,-y,-z
x,-y,1/2+z
1/2+x,1/2+y,z
1/2-x,1/2+y,1/2-z
1/2-x,1/2-y,-z
1/2+x,1/2-y,1/2+z
loop_
_atom_site_type_symbol
_atom_site_label
_atom_site_fract_x
_atom_site_fract_y
_atom_site_fract_z
Si Si1 0.694252 0.052519 0.650502
Si Si2 0.484988 0.396041 0.062944
Si Si3 0.587315 0.220055 0.060029
Si Si4 0.630910 0.023210 0.342009
Si Si5 0.401740 0.117490 0.236943
Si Si6 0.981659 0.003501 0.857543
Si Si7 0.875263 0.191260 0.751357
O O1 0.500000 0.077706 0.750000
O O2 0.793803 0.027357 0.504214
O O3 0.834315 0.094888 0.591769
O O4 0.640570 0.011625 0.755349
O O5 0.530007 0.447146 0.079418
O O6 0.387144 0.359431 0.192883
O O7 0.679001 0.373552 0.897922
O O8 0.505384 0.171059 0.159762
O O9 0.425690 0.261509 0.158988
O O10 0.750000 0.250000 0.000000
O O11 0.661412 0.201033 0.922306
O O12 0.559929 0.079164 0.364535
O O13 0.839737 0.029844 0.237029
O O14 0.500000 0.000000 0.500000
O O15 0.500000 0.091693 0.250000
O O16 0.000000 0.018131 0.750000
O O17 0.000000 0.186820 0.750000
#
# Coordination Sequence:
#
# PCOD8134057 Si02
#       7
#     8   8   8   8   8   8   8
#     4  11  22  42  56  80 121 159 201 259 295 345
#     4  11  22  37  57  87 116 156 204 242 298 366
#     4  10  21  36  54  84 118 155 193 236 296 365
#     4  11  23  36  56  87 119 157 211 242 298 365
#     4  12  22  35  59  83 121 160 194 242 300 356
#     4  11  22  38  56  83 121 157 203 254 295 355
#     4  10  19  35  54  83 117 149 188 237 291 356
#
# _framework density 18.205148000000001
#
# number of rings (size 3 to 8) (size 9 to 14) (size 15 to 20)
#    0.000    1.143    2.857    6.429    6.000    0.000 
#    0.000    0.000    0.000    0.000    0.000    5.000 
#    0.000    0.000    0.000    0.000    0.000    0.000 
#
# Total GULP energy -347059.583872 kJ/mol
# GULP energy per Si atom -12394.985138 kJ/mol
# Density = 1.816371 g / cm^3
# Si number density = 18.205148 Si / 1000 Ang^3
#
#
#
# Elastic Constant Matrix: (Units=GPa)
#
#
# Indices 1 2 3 4 5 6 
#
# 1 78.5619 25.9831 39.2055 -0.2151 -17.9560 0.0458
# 2 25.9831 91.1314 40.3998 -0.1453 -8.5921 0.0345
# 3 39.2055 40.3998 140.9647 -0.0691 -7.4300 0.0160
# 4 -0.2151 -0.1453 -0.0691 -64.7412 0.2039 26.8254
# 5 -17.9560 -8.5921 -7.4300 0.2039 26.5930 -0.0454
# 6 0.0458 0.0345 0.0160 26.8254 -0.0454 15.9931
#
#
#
# Elastic Compliance Matrix: (Units=1/GPa)
#
#
# Indices 1 2 3 4 5 6 
#
# 1 0.017693 -0.002457 -0.003683 -0.000013 0.010124 0.000010
# 2 -0.002457 0.013169 -0.002998 -0.000011 0.001758 0.000005
# 3 -0.003683 -0.002998 0.008927 0.000005 -0.000961 -0.000003
# 4 -0.000013 -0.000011 0.000005 -0.009113 0.000085 0.015285
# 5 0.010124 0.001758 -0.000961 0.000085 0.044738 -0.000047
# 6 0.000010 0.000005 -0.000003 0.015285 -0.000047 0.036889
#
#
# Mechanical properties :
#
#
# Convention : Reuss Voigt Hill
#
# Bulk Modulus (GPa) = 46.48567 57.98164 52.23366
# Shear Modulus (GPa) = 36.29720 9.24028 22.76874
#
# Velocity S-wave (km/s) = 4.47003 2.25536 3.54033
# Velocity P-wave (km/s) = 7.22713 6.22096 6.74284
#
# Compressibility (1/GPa) = 0.02151200
#
# Stress axis : x y z
#
# Youngs Moduli (GPa) = 56.51803 75.93835 112.02175
#
# Poissons Ratio (x) = 0.18662 0.41258
# Poissons Ratio (y) = 0.13889 0.33583
# Poissons Ratio (z) = 0.20816 0.22766
#
# Static dielectric constant tensor:
#      x y z
#    x 3.299520 -0.000010 -0.053240 
#    y -0.000010 3.313060 -0.000010 
#    z -0.053240 -0.000010 3.954360 
# 
# 
# High freq. dielectric constant tensor:
#      x y z
#    x 1.668700 0.000000 -0.003740 
#    y 0.000000 1.690790 0.000000 
#    z -0.003740 0.000000 1.734920 
# 
# From -- ./inp_files/148514.got.cif
#   From: 2010.06.25/outbox.cif.g09.slc.cpg/sg15_75_cif.got.tgz:148514.got - 2010.06.28 07:06:18.
