data_PCOD8134143
_publ_section_title
;
Structure prediction by ZEFSAII (Michael W. Deem and Ramdas Pophale) SiO2 
 PCOD8134143
Probable space group: C 2/C
;
_chemical_formula_sum "Si O2"
_cell_formula_units_Z 64
_cell_length_a 12.652573
_cell_length_b 28.676031
_cell_length_c 14.472796
_cell_angle_alpha 90.000000
_cell_angle_beta 140.533073
_cell_angle_gamma 90.000000
_cell_volume 3337.771252
_symmetry_space_group_name_H-M "C 2/C"
_symmetry_group_IT_number 15
_symmetry_cell_setting 'monoclinic'
loop_
_space_group_symop_operation_xyz
x,y,z
-x,y,1/2-z
-x,-y,-z
x,-y,1/2+z
1/2+x,1/2+y,z
1/2-x,1/2+y,1/2-z
1/2-x,1/2-y,-z
1/2+x,1/2-y,1/2+z
loop_
_atom_site_type_symbol
_atom_site_label
_atom_site_fract_x
_atom_site_fract_y
_atom_site_fract_z
Si Si1 0.031137 0.129260 0.411267
Si Si2 0.336586 0.979452 0.938534
Si Si3 0.714609 0.874380 0.565470
Si Si4 0.961914 0.700315 0.439646
Si Si5 0.900115 0.039584 0.387194
Si Si6 0.360343 0.704531 0.405535
Si Si7 0.839403 0.654862 0.078348
Si Si8 0.678611 0.051702 0.410147
O O1 0.208306 0.138827 0.482113
O O2 0.869638 0.126476 0.238075
O O3 0.039086 0.078627 0.462083
O O4 0.999485 0.168855 0.464475
O O5 0.369817 0.925799 0.992596
O O6 0.188172 0.979155 0.764741
O O7 0.500000 0.000000 0.000000
O O8 0.277728 0.010885 0.986608
O O9 0.581665 0.835063 0.505900
O O10 0.799245 0.709544 0.268105
O O11 0.037143 0.747964 0.527378
O O12 0.114711 0.678732 0.486347
O O13 0.775728 0.057363 0.380332
O O14 0.000000 0.000000 0.500000
O O15 0.302616 0.686043 0.467511
O O16 0.790213 0.601709 0.020159
O O17 0.000000 0.651645 0.250000
O O18 0.500000 0.040519 0.250000
#
# Coordination Sequence:
#
# PCOD8134143 Si02
#       8
#     8   8   8   8   8   8   8   8
#     4   9  18  36  55  79 108 149 192 233 277 344
#     4  11  21  36  59  86 116 153 198 240 289 345
#     4   9  19  34  56  80 109 148 193 232 276 350
#     4  10  20  34  58  82 107 144 187 237 289 341
#     4  11  22  37  59  84 117 154 197 240 290 348
#     4  10  19  35  57  80 108 143 189 234 286 340
#     4   9  18  33  57  83 109 146 193 230 280 348
#     4  11  20  35  61  88 114 154 199 242 286 346
#
# _framework density 19.174472000000002
#
# number of rings (size 3 to 8) (size 9 to 14) (size 15 to 20)
#    0.000    2.000    2.500    1.875    3.500    2.000 
#    0.000    2.500    2.750    0.000    0.000    0.000 
#    0.000    0.000    0.000    0.000    0.000    0.000 
#
# Total GULP energy -396527.323533 kJ/mol
# GULP energy per Si atom -12391.478860 kJ/mol
# Density = 1.913083 g / cm^3
# Si number density = 19.174472 Si / 1000 Ang^3
#
#
#
# Elastic Constant Matrix: (Units=GPa)
#
#
# Indices 1 2 3 4 5 6 
#
# 1 152.7789 71.1368 21.3751 0.0000 3.8726 0.0000
# 2 71.1368 166.1315 42.3368 0.0000 3.5819 0.0000
# 3 21.3751 42.3368 39.3944 0.0000 -4.3822 0.0000
# 4 0.0000 0.0000 0.0000 32.4616 0.0000 3.0892
# 5 3.8726 3.5819 -4.3822 0.0000 20.0662 0.0000
# 6 0.0000 0.0000 0.0000 3.0892 0.0000 40.4877
#
#
#
# Elastic Compliance Matrix: (Units=1/GPa)
#
#
# Indices 1 2 3 4 5 6 
#
# 1 0.008231 -0.003199 -0.001170 0.000000 -0.001273 0.000000
# 2 -0.003199 0.009781 -0.009123 0.000000 -0.003121 0.000000
# 3 -0.001170 -0.009123 0.036927 0.000000 0.009919 0.000000
# 4 0.000000 0.000000 0.000000 0.031031 0.000000 -0.002368
# 5 -0.001273 -0.003121 0.009919 0.000000 0.052804 0.000000
# 6 0.000000 0.000000 0.000000 -0.002368 0.000000 0.024880
#
#
# Mechanical properties :
#
#
# Convention : Reuss Voigt Hill
#
# Bulk Modulus (GPa) = 35.77143 69.77802 52.77472
# Shear Modulus (GPa) = 25.00543 33.50017 29.25280
#
# Velocity S-wave (km/s) = 3.61515 4.18440 3.91015
# Velocity P-wave (km/s) = 6.01016 7.73406 6.92595
#
# Compressibility (1/GPa) = 0.02795527
#
# Stress axis : x y z
#
# Youngs Moduli (GPa) = 121.49536 102.23527 27.08018
#
# Poissons Ratio (x) = 0.32703 0.03168
# Poissons Ratio (y) = 0.38864 0.24707
# Poissons Ratio (z) = 0.14213 0.93274
#
# Static dielectric constant tensor:
#      x y z
#    x 3.807930 0.000000 -0.006820 
#    y 0.000000 3.735720 0.000000 
#    z -0.006820 0.000000 3.029500 
# 
# 
# High freq. dielectric constant tensor:
#      x y z
#    x 1.766710 0.000000 0.003770 
#    y 0.000000 1.759680 0.000000 
#    z 0.003770 0.000000 1.696860 
# 
# From -- ./inp_files/148791.got.cif
#   From: 2010.06.25/outbox.cif.g09.slc.cpg/sg15_75_cif.got.tgz:148791.got - 2010.06.28 07:06:18.
