data_PCOD8134402
_publ_section_title
;
Structure prediction by ZEFSAII (Michael W. Deem and Ramdas Pophale) SiO2 
 PCOD8134402
Probable space group: C 2/C
;
_chemical_formula_sum "Si O2"
_cell_formula_units_Z 44
_cell_length_a 9.358499
_cell_length_b 21.314544
_cell_length_c 11.727072
_cell_angle_alpha 90.000000
_cell_angle_beta 114.990649
_cell_angle_gamma 90.000000
_cell_volume 2120.218364
_symmetry_space_group_name_H-M "C 2/C"
_symmetry_group_IT_number 15
_symmetry_cell_setting 'monoclinic'
loop_
_space_group_symop_operation_xyz
x,y,z
-x,y,1/2-z
-x,-y,-z
x,-y,1/2+z
1/2+x,1/2+y,z
1/2-x,1/2+y,1/2-z
1/2-x,1/2-y,-z
1/2+x,1/2-y,1/2+z
loop_
_atom_site_type_symbol
_atom_site_label
_atom_site_fract_x
_atom_site_fract_y
_atom_site_fract_z
Si Si1 0.079316 0.199625 0.047926
Si Si2 0.920987 0.687462 0.115158
Si Si3 0.500000 0.763782 0.250000
Si Si4 0.232623 0.864463 0.104621
Si Si5 0.616200 0.913454 0.559799
Si Si6 0.378606 0.968618 0.303587
O O1 0.245196 0.163120 0.089127
O O2 0.039652 0.214850 0.164381
O O3 0.092764 0.267517 0.996152
O O4 0.945965 0.158163 0.941922
O O5 0.000000 0.722800 0.250000
O O6 0.043050 0.632244 0.128773
O O7 0.351280 0.807856 0.172609
O O8 0.253489 0.922813 0.199160
O O9 0.252240 0.883821 0.978388
O O10 0.469513 0.929889 0.429806
O O11 0.696007 0.971443 0.656273
O O12 0.500000 0.994095 0.250000
#
# Coordination Sequence:
#
# PCOD8134402 Si02
#       6
#     8   8   4   8   8   8
#     4  11  25  37  62  95 133 164 208 259 326 382
#     4  11  23  40  58  94 128 168 204 259 322 393
#     4  12  20  40  62  92 130 170 200 254 320 406
#     4  11  20  38  64  95 122 164 215 263 312 377
#     4  10  19  35  63  86 119 167 214 250 315 372
#     4   9  18  36  60  89 117 164 216 260 304 376
#
# _framework density 20.752579999999998
#
# number of rings (size 3 to 8) (size 9 to 14) (size 15 to 20)
#    0.000    1.455    4.545    2.182    2.545    1.455 
#    0.000    0.000    0.000   26.182    0.000    0.000 
#    0.000    0.000    0.000    0.000    0.000    0.000 
#
# Total GULP energy -272706.809246 kJ/mol
# GULP energy per Si atom -12395.764057 kJ/mol
# Density = 2.070535 g / cm^3
# Si number density = 20.752580 Si / 1000 Ang^3
#
#
#
# Elastic Constant Matrix: (Units=GPa)
#
#
# Indices 1 2 3 4 5 6 
#
# 1 101.2155 35.9438 45.2684 0.0000 17.5462 0.0000
# 2 35.9438 71.5839 32.0305 0.0000 0.4858 0.0000
# 3 45.2684 32.0305 99.2469 0.0000 -10.6879 0.0000
# 4 0.0000 0.0000 0.0000 38.8376 0.0000 -7.8414
# 5 17.5462 0.4858 -10.6879 0.0000 27.0612 0.0000
# 6 0.0000 0.0000 0.0000 -7.8414 0.0000 11.6141
#
#
#
# Elastic Compliance Matrix: (Units=1/GPa)
#
#
# Indices 1 2 3 4 5 6 
#
# 1 0.017900 -0.005292 -0.008038 0.000000 -0.014686 0.000000
# 2 -0.005292 0.018053 -0.003215 0.000000 0.001837 0.000000
# 3 -0.008038 -0.003215 0.016029 0.000000 0.011600 0.000000
# 4 0.000000 0.000000 0.000000 0.029812 0.000000 0.020128
# 5 -0.014686 0.001837 0.011600 0.000000 0.051024 0.000000
# 6 0.000000 0.000000 0.000000 0.020128 0.000000 0.099692
#
#
# Mechanical properties :
#
#
# Convention : Reuss Voigt Hill
#
# Bulk Modulus (GPa) = 52.93125 55.39242 54.16183
# Shear Modulus (GPa) = 18.38931 26.08948 22.23939
#
# Velocity S-wave (km/s) = 2.98001 3.54950 3.27715
# Velocity P-wave (km/s) = 6.11570 6.59912 6.36201
#
# Compressibility (1/GPa) = 0.01889243
#
# Stress axis : x y z
#
# Youngs Moduli (GPa) = 55.86568 55.39359 62.38655
#
# Poissons Ratio (x) = 0.29312 0.50148
# Poissons Ratio (y) = 0.29562 0.20056
# Poissons Ratio (z) = 0.44907 0.17808
#
# Static dielectric constant tensor:
#      x y z
#    x 3.789980 0.000000 -0.298940 
#    y 0.000000 3.642160 0.000000 
#    z -0.298940 0.000000 4.068040 
# 
# 
# High freq. dielectric constant tensor:
#      x y z
#    x 1.791730 0.000000 -0.019360 
#    y 0.000000 1.797370 0.000000 
#    z -0.019360 0.000000 1.829740 
# 
# From -- ./inp_files/79474.got.cif
#   From: 2010.06.25/outbox.cif.g09.slc.cpg/sg15_40_cif.got.tgz:79474.got - 2010.06.28 07:06:18.
