data_PCOD8134882
_publ_section_title
;
Structure prediction by ZEFSAII (Michael W. Deem and Ramdas Pophale) SiO2 
 PCOD8134882
Probable space group: C 2/C
;
_chemical_formula_sum "Si O2"
_cell_formula_units_Z 48
_cell_length_a 27.094441
_cell_length_b 16.519038
_cell_length_c 5.270919
_cell_angle_alpha 90.000000
_cell_angle_beta 113.236912
_cell_angle_gamma 90.000000
_cell_volume 2167.757663
_symmetry_space_group_name_H-M "C 2/C"
_symmetry_group_IT_number 15
_symmetry_cell_setting 'monoclinic'
loop_
_space_group_symop_operation_xyz
x,y,z
-x,y,1/2-z
-x,-y,-z
x,-y,1/2+z
1/2+x,1/2+y,z
1/2-x,1/2+y,1/2-z
1/2-x,1/2-y,-z
1/2+x,1/2-y,1/2+z
loop_
_atom_site_type_symbol
_atom_site_label
_atom_site_fract_x
_atom_site_fract_y
_atom_site_fract_z
Si Si1 0.272500 0.709524 0.795047
Si Si2 0.615931 0.774406 0.407977
Si Si3 0.229886 0.974350 0.240825
Si Si4 0.058572 0.777207 0.281919
Si Si5 0.560040 0.466196 0.166071
Si Si6 0.347458 0.041690 0.515393
O O1 0.250000 0.750000 0.500000
O O2 0.252900 0.617685 0.754305
O O3 0.250000 0.750000 0.000000
O O4 0.336777 0.712844 0.919273
O O5 0.571884 0.767521 0.542788
O O6 0.639022 0.864297 0.443443
O O7 0.597108 0.748519 0.090094
O O8 0.196401 0.990962 0.431958
O O9 0.283143 0.030010 0.385962
O O10 0.060607 0.872509 0.236678
O O11 0.000000 0.749108 0.250000
O O12 0.589075 0.516107 0.454579
O O13 0.500000 0.500000 0.000000
O O14 0.372932 0.002686 0.312904
#
# Coordination Sequence:
#
# PCOD8134882 Si02
#       6
#     8   8   8   8   8   8
#     4  12  23  42  68  99 139 173 222 286 345 401
#     4  12  26  41  68 108 133 176 236 285 335 412
#     4  10  20  36  61  88 125 173 214 255 332 396
#     4  12  25  44  68  98 143 180 229 283 348 396
#     4  10  19  36  67  93 119 175 232 256 330 413
#     4  10  19  38  64  92 122 173 226 265 321 413
#
# _framework density 22.142696999999998
#
# number of rings (size 3 to 8) (size 9 to 14) (size 15 to 20)
#    0.000    1.000    1.667    8.500    2.333    0.000 
#    0.000    5.000    0.000   10.000    0.000    0.000 
#    0.000    0.000    0.000    0.000    0.000    0.000 
#
# Total GULP energy -297506.584296 kJ/mol
# GULP energy per Si atom -12396.107679 kJ/mol
# Density = 2.209230 g / cm^3
# Si number density = 22.142697 Si / 1000 Ang^3
#
#
#
# Elastic Constant Matrix: (Units=GPa)
#
#
# Indices 1 2 3 4 5 6 
#
# 1 61.5899 20.3710 30.0697 0.0000 -20.8157 0.0000
# 2 20.3710 128.3833 57.5485 0.0000 -12.1863 0.0000
# 3 30.0697 57.5485 183.6000 0.0000 -51.6574 0.0000
# 4 0.0000 0.0000 0.0000 49.6975 0.0000 -4.8657
# 5 -20.8157 -12.1863 -51.6574 0.0000 49.1850 0.0000
# 6 0.0000 0.0000 0.0000 -4.8657 0.0000 33.0147
#
#
#
# Elastic Compliance Matrix: (Units=1/GPa)
#
#
# Indices 1 2 3 4 5 6 
#
# 1 0.019659 -0.002214 -0.000482 0.000000 0.007266 0.000000
# 2 -0.002214 0.009350 -0.003094 0.000000 -0.001870 0.000000
# 3 -0.000482 -0.003094 0.008832 0.000000 0.008306 0.000000
# 4 0.000000 0.000000 0.000000 0.020416 0.000000 0.003009
# 5 0.007266 -0.001870 0.008306 0.000000 0.031666 0.000000
# 6 0.000000 0.000000 0.000000 0.003009 0.000000 0.030733
#
#
# Mechanical properties :
#
#
# Convention : Reuss Voigt Hill
#
# Bulk Modulus (GPa) = 38.07756 65.50573 51.79165
# Shear Modulus (GPa) = 35.46324 44.08503 39.77413
#
# Velocity S-wave (km/s) = 4.00631 4.46685 4.24283
# Velocity P-wave (km/s) = 6.21567 7.50009 6.88788
#
# Compressibility (1/GPa) = 0.02626218
#
# Stress axis : x y z
#
# Youngs Moduli (GPa) = 50.86614 106.95205 113.22069
#
# Poissons Ratio (x) = 0.23678 0.05452
# Poissons Ratio (y) = 0.11261 0.35034
# Poissons Ratio (z) = 0.02450 0.33094
#
# Static dielectric constant tensor:
#      x y z
#    x 3.989850 0.000000 -0.316500 
#    y 0.000000 3.962890 0.000000 
#    z -0.316500 0.000000 4.027480 
# 
# 
# High freq. dielectric constant tensor:
#      x y z
#    x 1.852110 0.000000 -0.036530 
#    y 0.000000 1.875010 0.000000 
#    z -0.036530 0.000000 1.901000 
# 
# From -- ./inp_files/18258.got.cif
#   From: 2010.06.25/outbox.cif.g09.slc.cpg/sg15_10_cif.got.tgz:18258.got - 2010.06.28 07:06:18.
