data_PCOD8134315
_publ_section_title
;
Structure prediction by ZEFSAII (Michael W. Deem and Ramdas Pophale) SiO2 
 PCOD8134315
Probable space group: C 2/C
;
_chemical_formula_sum "Si O2"
_cell_formula_units_Z 60
_cell_length_a 19.445744
_cell_length_b 8.183778
_cell_length_c 21.971135
_cell_angle_alpha 90.000000
_cell_angle_beta 66.839296
_cell_angle_gamma 90.000000
_cell_volume 3214.681140
_symmetry_space_group_name_H-M "C 2/C"
_symmetry_group_IT_number 15
_symmetry_cell_setting 'monoclinic'
loop_
_space_group_symop_operation_xyz
x,y,z
-x,y,1/2-z
-x,-y,-z
x,-y,1/2+z
1/2+x,1/2+y,z
1/2-x,1/2+y,1/2-z
1/2-x,1/2-y,-z
1/2+x,1/2-y,1/2+z
loop_
_atom_site_type_symbol
_atom_site_label
_atom_site_fract_x
_atom_site_fract_y
_atom_site_fract_z
Si Si1 0.763539 0.948066 0.369517
Si Si2 0.283718 0.343747 0.543819
Si Si3 0.000000 0.052257 0.750000
Si Si4 0.864588 0.247445 0.755003
Si Si5 0.682971 0.058199 0.650870
Si Si6 0.321962 0.252941 0.134816
Si Si7 0.895931 0.135686 0.376641
Si Si8 0.919877 0.057580 0.503226
O O1 0.719734 0.783385 0.400129
O O2 0.808252 0.899851 0.292855
O O3 0.698929 0.078656 0.384782
O O4 0.823167 0.015913 0.399067
O O5 0.250000 0.250000 0.500000
O O6 0.228344 0.494940 0.576157
O O7 0.369468 0.398147 0.507107
O O8 0.946128 0.175753 0.734520
O O9 0.962668 0.938457 0.813859
O O10 0.856095 0.412375 0.798134
O O11 0.858047 0.285254 0.686723
O O12 0.745794 0.143475 0.671381
O O13 0.622813 0.187686 0.646305
O O14 0.381715 0.334516 0.068938
O O15 0.923594 0.154309 0.437229
O O16 0.000000 0.000000 0.500000
#
# Coordination Sequence:
#
# PCOD8134315 Si02
#       8
#     8   8   4   8   8   8   8   8
#     4   9  19  34  59  85 105 151 195 242 275 332
#     4  10  19  35  60  84 112 147 193 236 281 336
#     4  10  22  36  58  76 112 158 190 238 288 344
#     4  10  19  37  54  85 114 148 193 233 291 339
#     4   9  21  34  59  88 106 148 194 247 272 335
#     4  10  20  35  58  83 117 146 186 237 293 336
#     4  10  20  38  57  83 113 147 201 234 286 343
#     4  11  23  37  57  85 120 155 183 235 301 350
#
# _framework density 18.664370999999999
#
# number of rings (size 3 to 8) (size 9 to 14) (size 15 to 20)
#    0.000    2.133    1.333    1.600    1.867    2.133 
#    0.000    6.000    0.000    0.000    0.000    0.000 
#    0.000    0.000    0.000    0.000    0.000    0.000 
#
# Total GULP energy -371822.881362 kJ/mol
# GULP energy per Si atom -12394.096045 kJ/mol
# Density = 1.862189 g / cm^3
# Si number density = 18.664371 Si / 1000 Ang^3
#
#
#
# Elastic Constant Matrix: (Units=GPa)
#
#
# Indices 1 2 3 4 5 6 
#
# 1 130.2616 59.0172 64.5380 0.0002 0.7960 0.0006
# 2 59.0172 104.3499 30.3208 0.0005 -6.5356 0.0014
# 3 64.5380 30.3208 94.1014 0.0001 11.7267 0.0003
# 4 0.0002 0.0005 0.0001 21.6235 0.0002 -2.6543
# 5 0.7960 -6.5356 11.7267 0.0002 27.2331 0.0007
# 6 0.0006 0.0014 0.0003 -2.6543 0.0007 30.4716
#
#
#
# Elastic Compliance Matrix: (Units=1/GPa)
#
#
# Indices 1 2 3 4 5 6 
#
# 1 0.014251 -0.005565 -0.008203 0.000000 0.001780 0.000000
# 2 -0.005565 0.013229 -0.000910 0.000000 0.003729 -0.000001
# 3 -0.008203 -0.000910 0.017481 0.000000 -0.007506 0.000000
# 4 0.000000 0.000000 0.000000 0.046746 -0.000001 0.004072
# 5 0.001780 0.003729 -0.007506 -0.000001 0.040795 -0.000001
# 6 0.000000 -0.000001 0.000000 0.004072 -0.000001 0.033172
#
#
# Mechanical properties :
#
#
# Convention : Reuss Voigt Hill
#
# Bulk Modulus (GPa) = 64.08313 70.71833 67.40073
# Shear Modulus (GPa) = 24.97088 27.52143 26.24616
#
# Velocity S-wave (km/s) = 3.66169 3.84414 3.75402
# Velocity P-wave (km/s) = 7.23092 7.59441 7.41489
#
# Compressibility (1/GPa) = 0.01560473
#
# Stress axis : x y z
#
# Youngs Moduli (GPa) = 70.16817 75.59259 57.20383
#
# Poissons Ratio (x) = 0.42069 0.46923
# Poissons Ratio (y) = 0.39050 0.05208
# Poissons Ratio (z) = 0.57557 0.06882
#
# Static dielectric constant tensor:
#      x y z
#    x 3.254780 0.000030 0.220900 
#    y 0.000030 8.241950 -0.000060 
#    z 0.220900 -0.000060 2.800480 
# 
# 
# High freq. dielectric constant tensor:
#      x y z
#    x 1.713400 0.000000 0.000700 
#    y 0.000000 1.730400 0.000000 
#    z 0.000700 0.000000 1.727060 
# 
# From -- ./inp_files/247433.got.cif
#   From: 2010.06.25/outbox.cif.g09.slc.cpg/sg15_124_cif.got.tgz:247433.got - 2010.06.28 07:06:18.
