data_PCOD8134989
_publ_section_title
;
Structure prediction by ZEFSAII (Michael W. Deem and Ramdas Pophale) SiO2 
 PCOD8134989
Probable space group: C 2/C
;
_chemical_formula_sum "Si O2"
_cell_formula_units_Z 48
_cell_length_a 14.244888
_cell_length_b 9.937360
_cell_length_c 17.872096
_cell_angle_alpha 90.000000
_cell_angle_beta 64.867027
_cell_angle_gamma 90.000000
_cell_volume 2290.392103
_symmetry_space_group_name_H-M "C 2/C"
_symmetry_group_IT_number 15
_symmetry_cell_setting 'monoclinic'
loop_
_space_group_symop_operation_xyz
x,y,z
-x,y,1/2-z
-x,-y,-z
x,-y,1/2+z
1/2+x,1/2+y,z
1/2-x,1/2+y,1/2-z
1/2-x,1/2-y,-z
1/2+x,1/2-y,1/2+z
loop_
_atom_site_type_symbol
_atom_site_label
_atom_site_fract_x
_atom_site_fract_y
_atom_site_fract_z
Si Si1 0.344126 0.285533 0.557454
Si Si2 0.671230 0.576195 0.890606
Si Si3 0.495483 0.481634 0.169810
Si Si4 0.904580 0.419558 0.332970
Si Si5 0.056052 0.220245 0.053359
Si Si6 0.879223 0.280561 0.878990
O O1 0.345304 0.447995 0.549284
O O2 0.435876 0.238713 0.581134
O O3 0.229681 0.248163 0.627010
O O4 0.360256 0.212562 0.473654
O O5 0.617320 0.545454 0.828868
O O6 0.792350 0.604310 0.832285
O O7 0.617148 0.701034 0.953647
O O8 0.500000 0.551668 0.250000
O O9 0.562977 0.578626 0.094633
O O10 0.542506 0.335437 0.167643
O O11 0.896212 0.340806 0.414611
O O12 0.926167 0.576615 0.339102
O O13 0.000000 0.363694 0.250000
#
# Coordination Sequence:
#
# PCOD8134989 Si02
#       6
#     8   8   8   8   8   8
#     4   9  18  35  64  87 113 150 198 246 280 344
#     4  10  20  41  63  84 117 160 198 244 293 348
#     4  11  21  37  64  90 114 154 206 243 285 353
#     4  11  25  39  56  85 129 156 186 247 314 348
#     4  11  20  40  62  89 114 159 203 243 288 351
#     4  10  19  37  59  87 118 154 192 237 297 346
#
# _framework density 20.95711
#
# number of rings (size 3 to 8) (size 9 to 14) (size 15 to 20)
#    0.000    1.667    3.333    2.500    0.000    2.000 
#    0.000    5.000    0.000    0.000    0.000    0.000 
#    0.000    0.000    0.000    0.000    0.000    0.000 
#
# Total GULP energy -297430.713770 kJ/mol
# GULP energy per Si atom -12392.946407 kJ/mol
# Density = 2.090941 g / cm^3
# Si number density = 20.957110 Si / 1000 Ang^3
#
#
#
# Elastic Constant Matrix: (Units=GPa)
#
#
# Indices 1 2 3 4 5 6 
#
# 1 150.1446 40.3299 43.4057 0.0000 -1.5087 0.0000
# 2 40.3299 56.3359 8.5443 0.0000 -4.8277 0.0000
# 3 43.4057 8.5443 78.6096 0.0000 4.1927 0.0000
# 4 0.0000 0.0000 0.0000 18.2193 0.0000 4.2100
# 5 -1.5087 -4.8277 4.1927 0.0000 28.4880 0.0000
# 6 0.0000 0.0000 0.0000 4.2100 0.0000 25.4989
#
#
#
# Elastic Compliance Matrix: (Units=1/GPa)
#
#
# Indices 1 2 3 4 5 6 
#
# 1 0.009682 -0.006209 -0.004679 0.000000 0.000149 0.000000
# 2 -0.006209 0.022357 0.000820 0.000000 0.003339 0.000000
# 3 -0.004679 0.000820 0.015342 0.000000 -0.002367 0.000000
# 4 0.000000 0.000000 0.000000 0.057064 0.000000 -0.009421
# 5 0.000149 0.003339 -0.002367 0.000000 0.036025 0.000000
# 6 0.000000 0.000000 0.000000 -0.009421 0.000000 0.040773
#
#
# Mechanical properties :
#
#
# Convention : Reuss Voigt Hill
#
# Bulk Modulus (GPa) = 36.70346 52.18331 44.44339
# Shear Modulus (GPa) = 23.75744 27.29528 25.52636
#
# Velocity S-wave (km/s) = 3.37058 3.61284 3.49381
# Velocity P-wave (km/s) = 5.71834 6.50827 6.12605
#
# Compressibility (1/GPa) = 0.02724539
#
# Stress axis : x y z
#
# Youngs Moduli (GPa) = 103.28181 44.72827 65.18074
#
# Poissons Ratio (x) = 0.27771 0.30500
# Poissons Ratio (y) = 0.64126 -0.05346
# Poissons Ratio (z) = 0.48329 -0.03668
#
# Static dielectric constant tensor:
#      x y z
#    x 4.111350 0.000000 0.052120 
#    y 0.000000 3.602560 0.000000 
#    z 0.052120 0.000000 3.683480 
# 
# 
# High freq. dielectric constant tensor:
#      x y z
#    x 1.832610 0.000000 -0.000970 
#    y 0.000000 1.805880 0.000000 
#    z -0.000970 0.000000 1.798360 
# 
# From -- ./inp_files/196520.got.cif
#   From: 2010.06.25/outbox.cif.g09.slc.cpg/sg15_99_cif.got.tgz:196520.got - 2010.06.28 07:06:18.
