data_PCOD8134783
_publ_section_title
;
Structure prediction by ZEFSAII (Michael W. Deem and Ramdas Pophale) SiO2 
 PCOD8134783
Probable space group: C 2/C
;
_chemical_formula_sum "Si O2"
_cell_formula_units_Z 52
_cell_length_a 18.159586
_cell_length_b 10.260846
_cell_length_c 14.437065
_cell_angle_alpha 90.000000
_cell_angle_beta 84.007653
_cell_angle_gamma 90.000000
_cell_volume 2675.398423
_symmetry_space_group_name_H-M "C 2/C"
_symmetry_group_IT_number 15
_symmetry_cell_setting 'monoclinic'
loop_
_space_group_symop_operation_xyz
x,y,z
-x,y,1/2-z
-x,-y,-z
x,-y,1/2+z
1/2+x,1/2+y,z
1/2-x,1/2+y,1/2-z
1/2-x,1/2-y,-z
1/2+x,1/2-y,1/2+z
loop_
_atom_site_type_symbol
_atom_site_label
_atom_site_fract_x
_atom_site_fract_y
_atom_site_fract_z
Si Si1 0.523050 0.380834 0.060619
Si Si2 0.379488 0.937557 0.553511
Si Si3 0.368977 0.507022 0.811014
Si Si4 0.000000 0.173690 0.250000
Si Si5 0.864014 0.838769 0.137187
Si Si6 0.517089 0.158608 0.924966
Si Si7 0.727459 0.602360 0.020205
O O1 0.592027 0.406025 0.116778
O O2 0.452040 0.353142 0.132860
O O3 0.500000 0.500000 0.000000
O O4 0.547522 0.255976 0.998622
O O5 0.353176 0.817180 0.623183
O O6 0.439815 0.902765 0.468042
O O7 0.303898 0.982513 0.510303
O O8 0.417761 0.054466 0.606695
O O9 0.426643 0.413334 0.751360
O O10 0.332058 0.603781 0.738719
O O11 0.309323 0.419787 0.874018
O O12 0.005968 0.263819 0.161402
O O13 0.828852 0.926629 0.057839
O O14 0.750000 0.750000 0.000000
#
# Coordination Sequence:
#
# PCOD8134783 Si02
#       7
#     8   8   8   4   8   8   8
#     4  11  17  35  60  86 115 151 200 257 290 348
#     4   9  21  44  57  84 121 167 195 242 310 367
#     4  12  21  35  63  94 116 155 206 252 302 346
#     4  12  20  34  60  96 112 150 210 254 292 368
#     4  10  19  36  62  87 118 156 203 253 292 358
#     4  10  21  39  64  83 119 162 202 246 305 359
#     4  10  21  40  61  84 125 166 195 243 311 365
#
# _framework density 19.436357000000001
#
# number of rings (size 3 to 8) (size 9 to 14) (size 15 to 20)
#    0.000    1.538    4.615    1.846    0.000    0.000 
#   16.615    2.308    0.000    0.000    0.000    0.000 
#    0.000    0.000    0.000    0.000    0.000    0.000 
#
# Total GULP energy -322150.862388 kJ/mol
# GULP energy per Si atom -12390.417784 kJ/mol
# Density = 1.939212 g / cm^3
# Si number density = 19.436357 Si / 1000 Ang^3
#
#
#
# Elastic Constant Matrix: (Units=GPa)
#
#
# Indices 1 2 3 4 5 6 
#
# 1 91.7629 28.0323 20.9737 0.0000 -0.2767 0.0000
# 2 28.0323 77.5676 34.7939 0.0000 -2.3440 0.0000
# 3 20.9737 34.7939 99.7351 0.0000 3.9500 0.0000
# 4 0.0000 0.0000 0.0000 -3.6977 0.0000 -28.5081
# 5 -0.2767 -2.3440 3.9500 0.0000 20.9027 0.0000
# 6 0.0000 0.0000 0.0000 -28.5081 0.0000 12.9466
#
#
#
# Elastic Compliance Matrix: (Units=1/GPa)
#
#
# Indices 1 2 3 4 5 6 
#
# 1 0.012377 -0.003921 -0.001233 0.000000 -0.000043 0.000000
# 2 -0.003921 0.016684 -0.005106 0.000000 0.002784 0.000000
# 3 -0.001233 -0.005106 0.012182 0.000000 -0.002891 0.000000
# 4 0.000000 0.000000 0.000000 -0.015044 0.000000 -0.033126
# 5 -0.000043 0.002784 -0.002891 0.000000 0.048699 0.000000
# 6 0.000000 0.000000 0.000000 -0.033126 0.000000 0.004297
#
#
# Mechanical properties :
#
#
# Convention : Reuss Voigt Hill
#
# Bulk Modulus (GPa) = 48.25829 48.51837 48.38833
# Shear Modulus (GPa) = 46.89483 18.38137 32.63810
#
# Velocity S-wave (km/s) = 4.91729 3.07859 4.10229
# Velocity P-wave (km/s) = 7.55794 6.13627 6.88391
#
# Compressibility (1/GPa) = 0.02072183
#
# Stress axis : x y z
#
# Youngs Moduli (GPa) = 80.79344 59.93942 82.09057
#
# Poissons Ratio (x) = 0.23503 0.10124
# Poissons Ratio (y) = 0.31680 0.41915
# Poissons Ratio (z) = 0.09964 0.30605
#
# Static dielectric constant tensor:
#      x y z
#    x 4.034230 0.000000 0.174250 
#    y 0.000000 3.667330 0.000000 
#    z 0.174250 0.000000 3.586280 
# 
# 
# High freq. dielectric constant tensor:
#      x y z
#    x 1.757280 0.000000 0.006070 
#    y 0.000000 1.745770 0.000000 
#    z 0.006070 0.000000 1.745870 
# 
# From -- ./inp_files/160411.got.cif
#   From: 2010.06.25/outbox.cif.g09.slc.cpg/sg15_81_cif.got.tgz:160411.got - 2010.06.28 07:06:18.
