data_PCOD8134258
_publ_section_title
;
Structure prediction by ZEFSAII (Michael W. Deem and Ramdas Pophale) SiO2 
 PCOD8134258
Probable space group: C 2/C
;
_chemical_formula_sum "Si O2"
_cell_formula_units_Z 60
_cell_length_a 19.582307
_cell_length_b 9.002064
_cell_length_c 26.976712
_cell_angle_alpha 90.000000
_cell_angle_beta 140.785977
_cell_angle_gamma 90.000000
_cell_volume 3006.508773
_symmetry_space_group_name_H-M "C 2/C"
_symmetry_group_IT_number 15
_symmetry_cell_setting 'monoclinic'
loop_
_space_group_symop_operation_xyz
x,y,z
-x,y,1/2-z
-x,-y,-z
x,-y,1/2+z
1/2+x,1/2+y,z
1/2-x,1/2+y,1/2-z
1/2-x,1/2-y,-z
1/2+x,1/2-y,1/2+z
loop_
_atom_site_type_symbol
_atom_site_label
_atom_site_fract_x
_atom_site_fract_y
_atom_site_fract_z
Si Si1 0.819310 0.223359 0.823402
Si Si2 0.372030 0.023262 0.419927
Si Si3 0.021873 0.381067 0.656162
Si Si4 0.000000 0.737756 0.250000
Si Si5 0.527999 0.466123 0.572069
Si Si6 0.217065 0.863233 0.405769
Si Si7 0.397243 0.836958 0.344301
Si Si8 0.855202 0.142755 0.528966
O O1 0.849602 0.305986 0.892115
O O2 0.869037 0.306907 0.803726
O O3 0.864649 0.056030 0.852375
O O4 0.690305 0.220438 0.744525
O O5 0.298066 0.977971 0.424714
O O6 0.333959 0.924753 0.351883
O O7 0.500000 0.000000 0.500000
O O8 0.019300 0.369354 0.714053
O O9 0.018626 0.553835 0.636940
O O10 0.920841 0.294552 0.576559
O O11 0.897346 0.847533 0.186411
O O12 0.500000 0.500000 0.500000
O O13 0.540514 0.293991 0.592303
O O14 0.427145 0.513456 0.548269
O O15 0.199074 0.921663 0.451802
O O16 0.267902 0.696469 0.438846
#
# Coordination Sequence:
#
# PCOD8134258 Si02
#       8
#     8   8   8   4   8   8   8   8
#     4  10  21  35  54  82 114 147 189 240 291 335
#     4  11  21  37  61  85 111 148 194 238 282 342
#     4   9  19  36  54  77 109 149 188 228 282 341
#     4  10  20  34  58  84 112 148 192 232 280 354
#     4  11  21  35  56  84 113 149 195 237 283 343
#     4  10  19  35  59  84 108 146 191 233 281 336
#     4  11  21  34  55  81 115 146 182 238 292 336
#     4   9  20  36  56  79 110 146 187 234 281 337
#
# _framework density 19.956702
#
# number of rings (size 3 to 8) (size 9 to 14) (size 15 to 20)
#    0.000    1.867    0.000    6.400    0.000    3.200 
#    0.000    1.333    0.000   14.400    0.000    0.000 
#    0.000    0.000    0.000    0.000    0.000    0.000 
#
# Total GULP energy -371913.718104 kJ/mol
# GULP energy per Si atom -12397.123937 kJ/mol
# Density = 1.991128 g / cm^3
# Si number density = 19.956702 Si / 1000 Ang^3
#
#
#
# Elastic Constant Matrix: (Units=GPa)
#
#
# Indices 1 2 3 4 5 6 
#
# 1 133.7578 44.0780 27.8037 0.0000 -1.9651 0.0000
# 2 44.0780 87.9567 14.6464 0.0000 -3.9877 0.0001
# 3 27.8037 14.6464 88.7177 0.0000 6.5561 0.0000
# 4 0.0000 0.0000 0.0000 23.3449 0.0000 -3.4650
# 5 -1.9651 -3.9877 6.5561 0.0000 30.7018 0.0000
# 6 0.0000 0.0001 0.0000 -3.4650 0.0000 29.1582
#
#
#
# Elastic Compliance Matrix: (Units=1/GPa)
#
#
# Indices 1 2 3 4 5 6 
#
# 1 0.009370 -0.004294 -0.002266 0.000000 0.000526 0.000000
# 2 -0.004294 0.013776 -0.001057 0.000000 0.001740 0.000000
# 3 -0.002266 -0.001057 0.012373 0.000000 -0.002924 0.000000
# 4 0.000000 0.000000 0.000000 0.043605 0.000000 0.005182
# 5 0.000526 0.001740 -0.002924 0.000000 0.033456 0.000000
# 6 0.000000 0.000000 0.000000 0.005182 0.000000 0.034911
#
#
# Mechanical properties :
#
#
# Convention : Reuss Voigt Hill
#
# Bulk Modulus (GPa) = 49.30213 53.72094 51.51154
# Shear Modulus (GPa) = 29.50059 31.56792 30.53426
#
# Velocity S-wave (km/s) = 3.84895 3.98153 3.91580
# Velocity P-wave (km/s) = 6.67163 6.93642 6.80531
#
# Compressibility (1/GPa) = 0.02028310
#
# Stress axis : x y z
#
# Youngs Moduli (GPa) = 106.72088 72.58872 80.82355
#
# Poissons Ratio (x) = 0.31173 0.18318
# Poissons Ratio (y) = 0.45831 0.08543
# Poissons Ratio (z) = 0.24188 0.07673
#
# Static dielectric constant tensor:
#      x y z
#    x 3.792660 0.000000 -0.018470 
#    y 0.000000 3.517960 0.000000 
#    z -0.018470 0.000000 3.658510 
# 
# 
# High freq. dielectric constant tensor:
#      x y z
#    x 1.775060 0.000000 -0.002150 
#    y 0.000000 1.756760 0.000000 
#    z -0.002150 0.000000 1.788830 
# 
# From -- ./inp_files/317287.got.cif
#   From: 2010.06.25/outbox.cif.g09.slc.cpg/sg15_159_cif.got.tgz:317287.got - 2010.06.28 07:06:18.
