data_PCOD8134773
_publ_section_title
;
Structure prediction by ZEFSAII (Michael W. Deem and Ramdas Pophale) SiO2 
 PCOD8134773
Probable space group: C 2/C
;
_chemical_formula_sum "Si O2"
_cell_formula_units_Z 48
_cell_length_a 11.216282
_cell_length_b 15.977021
_cell_length_c 14.436569
_cell_angle_alpha 90.000000
_cell_angle_beta 80.026330
_cell_angle_gamma 90.000000
_cell_volume 2547.975921
_symmetry_space_group_name_H-M "C 2/C"
_symmetry_group_IT_number 15
_symmetry_cell_setting 'monoclinic'
loop_
_space_group_symop_operation_xyz
x,y,z
-x,y,1/2-z
-x,-y,-z
x,-y,1/2+z
1/2+x,1/2+y,z
1/2-x,1/2+y,1/2-z
1/2-x,1/2-y,-z
1/2+x,1/2-y,1/2+z
loop_
_atom_site_type_symbol
_atom_site_label
_atom_site_fract_x
_atom_site_fract_y
_atom_site_fract_z
Si Si1 0.312808 0.876571 0.035821
Si Si2 0.107101 0.348925 0.805115
Si Si3 0.027260 0.180762 0.140211
Si Si4 0.924158 0.667863 0.988490
Si Si5 0.738842 0.556156 0.089098
Si Si6 0.238489 0.205511 0.371474
O O1 0.451942 0.882764 0.051730
O O2 0.246791 0.799565 0.094279
O O3 0.233277 0.958159 0.069239
O O4 0.312256 0.859590 0.925652
O O5 0.181265 0.431757 0.827734
O O6 0.204711 0.291882 0.738431
O O7 0.000000 0.373849 0.750000
O O8 0.065378 0.299987 0.904687
O O9 0.099050 0.256494 0.079886
O O10 0.104660 0.095340 0.119716
O O11 0.000000 0.203964 0.250000
O O12 0.899117 0.172183 0.106501
O O13 0.810347 0.604194 0.995779
#
# Coordination Sequence:
#
# PCOD8134773 Si02
#       6
#     8   8   8   8   8   8
#     4  10  20  37  58  84 114 154 192 242 290 346
#     4  10  19  36  62  83 109 150 190 238 286 343
#     4  11  20  37  59  83 118 159 189 235 297 350
#     4   9  20  34  62  82 113 148 191 239 288 336
#     4  10  21  35  58  84 122 142 194 247 289 334
#     4  10  20  37  59  80 115 157 195 226 297 356
#
# _framework density 18.838481999999999
#
# number of rings (size 3 to 8) (size 9 to 14) (size 15 to 20)
#    1.000    1.000    3.333    1.000    0.000    0.667 
#    0.000    9.167    0.000    0.000    0.000    0.000 
#    0.000    0.000    0.000    0.000    0.000    0.000 
#
# Total GULP energy -297337.078507 kJ/mol
# GULP energy per Si atom -12389.044938 kJ/mol
# Density = 1.879560 g / cm^3
# Si number density = 18.838482 Si / 1000 Ang^3
#
#
#
# Elastic Constant Matrix: (Units=GPa)
#
#
# Indices 1 2 3 4 5 6 
#
# 1 78.0472 47.6726 14.3392 0.0000 -3.9201 0.0000
# 2 47.6726 119.0862 58.3219 0.0000 -6.4366 0.0000
# 3 14.3392 58.3219 98.5813 0.0000 -13.1264 0.0000
# 4 0.0000 0.0000 0.0000 16.4760 0.0000 -0.9611
# 5 -3.9201 -6.4366 -13.1264 0.0000 23.1801 0.0000
# 6 0.0000 0.0000 0.0000 -0.9611 0.0000 24.2026
#
#
#
# Elastic Compliance Matrix: (Units=1/GPa)
#
#
# Indices 1 2 3 4 5 6 
#
# 1 0.017397 -0.008094 0.002542 0.000000 0.002134 0.000000
# 2 -0.008094 0.015600 -0.008282 0.000000 -0.001727 0.000000
# 3 0.002542 -0.008282 0.015601 0.000000 0.006965 0.000000
# 4 0.000000 0.000000 0.000000 0.060835 0.000000 0.002416
# 5 0.002134 -0.001727 0.006965 0.000000 0.046966 0.000000
# 6 0.000000 0.000000 0.000000 0.002416 0.000000 0.041414
#
#
# Mechanical properties :
#
#
# Convention : Reuss Voigt Hill
#
# Bulk Modulus (GPa) = 47.77635 59.59802 53.68718
# Shear Modulus (GPa) = 21.50935 24.46382 22.98659
#
# Velocity S-wave (km/s) = 3.38269 3.60753 3.49692
# Velocity P-wave (km/s) = 6.37753 7.00410 6.69814
#
# Compressibility (1/GPa) = 0.02093086
#
# Stress axis : x y z
#
# Youngs Moduli (GPa) = 57.48177 64.10205 64.09775
#
# Poissons Ratio (x) = 0.51884 -0.16295
# Poissons Ratio (y) = 0.46526 0.53085
# Poissons Ratio (z) = -0.14613 0.53088
#
# Static dielectric constant tensor:
#      x y z
#    x 3.502090 0.000000 -0.063810 
#    y 0.000000 3.000960 0.000000 
#    z -0.063810 0.000000 3.501190 
# 
# 
# High freq. dielectric constant tensor:
#      x y z
#    x 1.742330 0.000000 -0.007500 
#    y 0.000000 1.689650 0.000000 
#    z -0.007500 0.000000 1.728710 
# 
# From -- ./inp_files/143619.got.cif
#   From: 2010.06.25/outbox.cif.g09.slc.cpg/sg15_72_cif.got.tgz:143619.got - 2010.06.28 07:06:18.
