data_PCOD8134491
_publ_section_title
;
Structure prediction by ZEFSAII (Michael W. Deem and Ramdas Pophale) SiO2 
 PCOD8134491
Probable space group: C 2/C
;
_chemical_formula_sum "Si O2"
_cell_formula_units_Z 44
_cell_length_a 10.298901
_cell_length_b 26.696454
_cell_length_c 10.594703
_cell_angle_alpha 90.000000
_cell_angle_beta 127.194179
_cell_angle_gamma 90.000000
_cell_volume 2320.431911
_symmetry_space_group_name_H-M "C 2/C"
_symmetry_group_IT_number 15
_symmetry_cell_setting 'monoclinic'
loop_
_space_group_symop_operation_xyz
x,y,z
-x,y,1/2-z
-x,-y,-z
x,-y,1/2+z
1/2+x,1/2+y,z
1/2-x,1/2+y,1/2-z
1/2-x,1/2-y,-z
1/2+x,1/2-y,1/2+z
loop_
_atom_site_type_symbol
_atom_site_label
_atom_site_fract_x
_atom_site_fract_y
_atom_site_fract_z
Si Si1 0.662108 0.080553 0.407566
Si Si2 0.337471 0.899571 0.303820
Si Si3 0.000000 0.484432 0.250000
Si Si4 0.064334 0.708598 0.655301
Si Si5 0.011355 0.126004 0.904240
Si Si6 0.566486 0.736902 0.654047
O O1 0.500000 0.105340 0.250000
O O2 0.675620 0.100626 0.554938
O O3 0.830855 0.098739 0.439882
O O4 0.644716 0.019893 0.390051
O O5 0.428343 0.949967 0.317427
O O6 0.443393 0.851182 0.329968
O O7 0.156830 0.895583 0.134328
O O8 0.243075 0.726437 0.722112
O O9 0.000000 0.732580 0.750000
O O10 0.953172 0.723859 0.471230
O O11 0.000000 0.114184 0.750000
O O12 0.027605 0.185508 0.936971
O O13 0.500000 0.757571 0.750000
#
# Coordination Sequence:
#
# PCOD8134491 Si02
#       6
#     8   8   4   8   8   8
#     4   9  20  33  55  81 104 137 184 234 272 315
#     4  10  19  36  56  76 109 148 182 217 279 341
#     4  10  20  34  56  78 110 140 188 222 278 320
#     4  11  22  37  58  85 117 154 186 230 288 337
#     4   8  17  35  55  79 108 143 179 224 274 329
#     4  10  21  37  59  85 116 149 193 231 276 341
#
# _framework density 18.961987000000001
#
# number of rings (size 3 to 8) (size 9 to 14) (size 15 to 20)
#    0.545    1.818    0.909    2.727    0.000    2.909 
#    0.000    0.000    0.000    0.000    0.000    0.000 
#    0.000    0.000    0.000    0.000    0.000    0.000 
#
# Total GULP energy -272621.880904 kJ/mol
# GULP energy per Si atom -12391.903677 kJ/mol
# Density = 1.891883 g / cm^3
# Si number density = 18.961987 Si / 1000 Ang^3
#
#
#
# Elastic Constant Matrix: (Units=GPa)
#
#
# Indices 1 2 3 4 5 6 
#
# 1 66.1704 26.9465 20.0339 0.0000 -11.3113 0.0000
# 2 26.9465 63.4147 33.0918 0.0000 12.7576 0.0000
# 3 20.0339 33.0918 78.6640 0.0000 6.0310 0.0000
# 4 0.0000 0.0000 0.0000 25.0004 0.0000 -0.1171
# 5 -11.3113 12.7576 6.0310 0.0000 29.1332 0.0000
# 6 0.0000 0.0000 0.0000 -0.1171 0.0000 38.1479
#
#
#
# Elastic Compliance Matrix: (Units=1/GPa)
#
#
# Indices 1 2 3 4 5 6 
#
# 1 0.022896 -0.011535 -0.002081 0.000000 0.014372 0.000000
# 2 -0.011535 0.027621 -0.007531 0.000000 -0.015015 0.000000
# 3 -0.002081 -0.007531 0.016481 0.000000 -0.000922 0.000000
# 4 0.000000 0.000000 0.000000 0.040000 0.000000 0.000123
# 5 0.014372 -0.015015 -0.000922 0.000000 0.046671 0.000000
# 6 0.000000 0.000000 0.000000 0.000123 0.000000 0.026214
#
#
# Mechanical properties :
#
#
# Convention : Reuss Voigt Hill
#
# Bulk Modulus (GPa) = 40.47575 40.93262 40.70418
# Shear Modulus (GPa) = 21.70040 27.00145 24.35092
#
# Velocity S-wave (km/s) = 3.38659 3.77766 3.58746
# Velocity P-wave (km/s) = 6.05674 6.37661 6.21873
#
# Compressibility (1/GPa) = 0.02470615
#
# Stress axis : x y z
#
# Youngs Moduli (GPa) = 43.67488 36.20444 60.67676
#
# Poissons Ratio (x) = 0.41761 0.12625
# Poissons Ratio (y) = 0.50378 0.45693
# Poissons Ratio (z) = 0.09087 0.27264
#
# Static dielectric constant tensor:
#      x y z
#    x 3.660030 0.000000 0.344140 
#    y 0.000000 3.407350 0.000000 
#    z 0.344140 0.000000 3.345430 
# 
# 
# High freq. dielectric constant tensor:
#      x y z
#    x 1.738630 0.000000 0.015090 
#    y 0.000000 1.727310 0.000000 
#    z 0.015090 0.000000 1.717570 
# 
# From -- ./inp_files/92477.got.cif
#   From: 2010.06.25/outbox.cif.g09.slc.cpg/sg15_47_cif.got.tgz:92477.got - 2010.06.28 07:06:18.
