data_PCOD8134731
_publ_section_title
;
Structure prediction by ZEFSAII (Michael W. Deem and Ramdas Pophale) SiO2 
 PCOD8134731
Probable space group: C 2/C
;
_chemical_formula_sum "Si O2"
_cell_formula_units_Z 56
_cell_length_a 19.700877
_cell_length_b 16.257573
_cell_length_c 8.826409
_cell_angle_alpha 90.000000
_cell_angle_beta 66.316879
_cell_angle_gamma 90.000000
_cell_volume 2588.909878
_symmetry_space_group_name_H-M "C 2/C"
_symmetry_group_IT_number 15
_symmetry_cell_setting 'monoclinic'
loop_
_space_group_symop_operation_xyz
x,y,z
-x,y,1/2-z
-x,-y,-z
x,-y,1/2+z
1/2+x,1/2+y,z
1/2-x,1/2+y,1/2-z
1/2-x,1/2-y,-z
1/2+x,1/2-y,1/2+z
loop_
_atom_site_type_symbol
_atom_site_label
_atom_site_fract_x
_atom_site_fract_y
_atom_site_fract_z
Si Si1 0.400521 0.426477 0.245588
Si Si2 0.239495 0.547938 0.943542
Si Si3 0.073937 0.903826 0.617140
Si Si4 0.824122 0.319921 0.167178
Si Si5 0.718885 0.190228 0.174597
Si Si6 0.742366 0.362001 0.531553
Si Si7 0.419299 0.747080 0.860770
O O1 0.314706 0.440171 0.280289
O O2 0.429336 0.506012 0.306525
O O3 0.414249 0.351245 0.348884
O O4 0.440055 0.409749 0.050246
O O5 0.175342 0.584980 0.890969
O O6 0.225587 0.454305 0.998863
O O7 0.246113 0.601457 0.090749
O O8 0.152941 0.859288 0.583216
O O9 0.000000 0.857254 0.750000
O O10 0.769393 0.272370 0.091887
O O11 0.792750 0.312275 0.363933
O O12 0.901579 0.275112 0.053045
O O13 0.735203 0.184557 0.338131
O O14 0.633260 0.207752 0.215208
O O15 0.500000 0.780220 0.750000
#
# Coordination Sequence:
#
# PCOD8134731 Si02
#       7
#     8   8   8   8   8   8   8
#     4  11  21  39  58  90 126 169 206 239 302 380
#     4  10  19  36  61  86 118 162 208 251 297 370
#     4  11  24  37  56  91 136 169 203 244 302 373
#     4  11  20  40  60  89 119 161 210 257 301 372
#     4  11  21  38  61  89 121 158 213 260 298 367
#     4  11  23  35  62  89 124 161 213 258 309 351
#     4  11  23  40  65  86 122 164 206 252 321 375
#
# _framework density 21.630725000000002
#
# number of rings (size 3 to 8) (size 9 to 14) (size 15 to 20)
#    0.000    1.143    4.286    3.000    6.000    1.143 
#    0.000    0.714    0.000   13.714    0.000    0.000 
#    0.000    0.000    0.000    0.000    0.000    0.000 
#
# Total GULP energy -346930.641680 kJ/mol
# GULP energy per Si atom -12390.380060 kJ/mol
# Density = 2.158149 g / cm^3
# Si number density = 21.630725 Si / 1000 Ang^3
#
#
#
# Elastic Constant Matrix: (Units=GPa)
#
#
# Indices 1 2 3 4 5 6 
#
# 1 85.5243 21.2093 39.9240 0.0000 -21.2288 0.0000
# 2 21.2093 71.7483 8.0979 0.0000 -9.5693 0.0000
# 3 39.9240 8.0979 123.2099 0.0000 -23.7250 0.0000
# 4 0.0000 0.0000 0.0000 16.9421 0.0000 -0.9164
# 5 -21.2288 -9.5693 -23.7250 0.0000 33.3213 0.0000
# 6 0.0000 0.0000 0.0000 -0.9164 0.0000 10.4513
#
#
#
# Elastic Compliance Matrix: (Units=1/GPa)
#
#
# Indices 1 2 3 4 5 6 
#
# 1 0.015866 -0.003407 -0.003661 0.000000 0.006523 0.000000
# 2 -0.003407 0.015228 0.000611 0.000000 0.002638 0.000000
# 3 -0.003661 0.000611 0.010253 0.000000 0.005143 0.000000
# 4 0.000000 0.000000 0.000000 0.059306 0.000000 0.005200
# 5 0.006523 0.002638 0.005143 0.000000 0.038586 0.000000
# 6 0.000000 0.000000 0.000000 0.005200 0.000000 0.096138
#
#
# Mechanical properties :
#
#
# Convention : Reuss Voigt Hill
#
# Bulk Modulus (GPa) = 35.17153 46.54942 40.86047
# Shear Modulus (GPa) = 19.39743 26.22637 22.81190
#
# Velocity S-wave (km/s) = 2.99783 3.48582 3.25099
# Velocity P-wave (km/s) = 5.31770 6.14557 5.74656
#
# Compressibility (1/GPa) = 0.02843209
#
# Stress axis : x y z
#
# Youngs Moduli (GPa) = 63.02963 65.67063 97.53534
#
# Poissons Ratio (x) = 0.22373 0.35708
# Poissons Ratio (y) = 0.21473 -0.05959
# Poissons Ratio (z) = 0.23075 -0.04012
#
# Static dielectric constant tensor:
#      x y z
#    x 3.719650 0.000000 -0.137920 
#    y 0.000000 3.952360 0.000000 
#    z -0.137920 0.000000 4.135700 
# 
# 
# High freq. dielectric constant tensor:
#      x y z
#    x 1.814790 0.000000 0.008930 
#    y 0.000000 1.848850 0.000000 
#    z 0.008930 0.000000 1.867330 
# 
# From -- ./inp_files/56472.got.cif
#   From: 2010.06.25/outbox.cif.g09.slc.cpg/sg15_29_cif.got.tgz:56472.got - 2010.06.28 07:06:18.
