data_PCOD8134620
_publ_section_title
;
Structure prediction by ZEFSAII (Michael W. Deem and Ramdas Pophale) SiO2 
 PCOD8134620
Probable space group: C 2/C
;
_chemical_formula_sum "Si O2"
_cell_formula_units_Z 48
_cell_length_a 16.221679
_cell_length_b 9.530716
_cell_length_c 28.770834
_cell_angle_alpha 90.000000
_cell_angle_beta 146.262977
_cell_angle_gamma 90.000000
_cell_volume 2470.389901
_symmetry_space_group_name_H-M "C 2/C"
_symmetry_group_IT_number 15
_symmetry_cell_setting 'monoclinic'
loop_
_space_group_symop_operation_xyz
x,y,z
-x,y,1/2-z
-x,-y,-z
x,-y,1/2+z
1/2+x,1/2+y,z
1/2-x,1/2+y,1/2-z
1/2-x,1/2-y,-z
1/2+x,1/2-y,1/2+z
loop_
_atom_site_type_symbol
_atom_site_label
_atom_site_fract_x
_atom_site_fract_y
_atom_site_fract_z
Si Si1 0.110415 0.205274 0.341899
Si Si2 0.174814 0.201296 0.011449
Si Si3 0.575726 0.768821 0.424705
Si Si4 0.114095 0.505155 0.012289
Si Si5 0.549701 0.517687 0.076250
Si Si6 0.331586 0.009954 0.158923
O O1 0.013120 0.238291 0.343425
O O2 0.233837 0.085841 0.404745
O O3 0.190749 0.349347 0.366338
O O4 0.000000 0.153657 0.250000
O O5 0.142977 0.342093 0.023092
O O6 0.284473 0.106285 0.093609
O O7 0.250000 0.250000 0.000000
O O8 0.021951 0.114044 0.929320
O O9 0.750000 0.750000 0.500000
O O10 0.546128 0.923826 0.433056
O O11 0.508326 0.661081 0.429601
O O12 0.000000 0.500000 0.000000
O O13 0.729349 0.526561 0.157570
O O14 0.500000 0.500000 0.000000
O O15 0.500000 0.047819 0.250000
#
# Coordination Sequence:
#
# PCOD8134620 Si02
#       6
#     8   8   8   8   8   8
#     4  10  21  39  57  77 112 156 192 230 282 343
#     4  11  20  33  57  86 111 140 185 240 283 332
#     4  10  19  36  59  82 109 149 191 227 278 348
#     4  11  20  33  57  86 111 140 185 240 283 332
#     4  10  19  36  59  82 109 149 191 227 278 348
#     4  10  21  39  57  77 112 156 192 230 282 343
#
# _framework density 19.430130999999999
#
# number of rings (size 3 to 8) (size 9 to 14) (size 15 to 20)
#    0.000    1.667    0.000   10.000    0.000    0.667 
#    0.000    8.333    0.000    0.000    0.000    0.000 
#    0.000    0.000    0.000    0.000    0.000    0.000 
#
# Total GULP energy -297330.767504 kJ/mol
# GULP energy per Si atom -12388.781979 kJ/mol
# Density = 1.938591 g / cm^3
# Si number density = 19.430131 Si / 1000 Ang^3
#
#
#
# Elastic Constant Matrix: (Units=GPa)
#
#
# Indices 1 2 3 4 5 6 
#
# 1 120.1454 -0.4831 33.3703 0.0000 18.8546 0.0000
# 2 -0.4831 78.9332 17.7857 0.0000 20.2647 0.0000
# 3 33.3703 17.7857 84.1063 0.0000 7.6847 0.0000
# 4 0.0000 0.0000 0.0000 19.6421 0.0000 0.7909
# 5 18.8546 20.2647 7.6847 0.0000 32.5879 0.0000
# 6 0.0000 0.0000 0.0000 0.7909 0.0000 51.7067
#
#
#
# Elastic Compliance Matrix: (Units=1/GPa)
#
#
# Indices 1 2 3 4 5 6 
#
# 1 0.010561 0.002757 -0.004148 0.000000 -0.006846 0.000000
# 2 0.002757 0.016278 -0.003542 0.000000 -0.010882 0.000000
# 3 -0.004148 -0.003542 0.014169 0.000000 0.001261 0.000000
# 4 0.000000 0.000000 0.000000 0.050942 0.000000 -0.000779
# 5 -0.006846 -0.010882 0.001261 0.000000 0.041117 0.000000
# 6 0.000000 0.000000 0.000000 -0.000779 0.000000 0.019352
#
#
# Mechanical properties :
#
#
# Convention : Reuss Voigt Hill
#
# Bulk Modulus (GPa) = 32.11029 42.72564 37.41796
# Shear Modulus (GPa) = 28.95793 36.28816 32.62305
#
# Velocity S-wave (km/s) = 3.86471 4.32629 4.10200
# Velocity P-wave (km/s) = 6.03958 6.85513 6.46024
#
# Compressibility (1/GPa) = 0.03114267
#
# Stress axis : x y z
#
# Youngs Moduli (GPa) = 94.69037 61.43405 70.57628
#
# Poissons Ratio (x) = -0.16937 0.29272
# Poissons Ratio (y) = -0.26105 0.24996
# Poissons Ratio (z) = 0.39273 0.21758
#
# Static dielectric constant tensor:
#      x y z
#    x -16.266390 0.000000 3.470350 
#    y 0.000000 3.660970 0.000000 
#    z 3.470350 0.000000 2.978880 
# 
# 
# High freq. dielectric constant tensor:
#      x y z
#    x 1.781640 0.000000 0.000250 
#    y 0.000000 1.768620 0.000000 
#    z 0.000250 0.000000 1.718870 
# 
# From -- ./inp_files/295462.got.cif
#   From: 2010.06.25/outbox.cif.g09.slc.cpg/sg15_148_cif.got.tgz:295462.got - 2010.06.28 07:06:18.
