data_PCOD8134142
_publ_section_title
;
Structure prediction by ZEFSAII (Michael W. Deem and Ramdas Pophale) SiO2 
 PCOD8134142
Probable space group: C 2/C
;
_chemical_formula_sum "Si O2"
_cell_formula_units_Z 48
_cell_length_a 9.411104
_cell_length_b 29.511592
_cell_length_c 14.470781
_cell_angle_alpha 90.000000
_cell_angle_beta 41.850638
_cell_angle_gamma 90.000000
_cell_volume 2681.485180
_symmetry_space_group_name_H-M "C 2/C"
_symmetry_group_IT_number 15
_symmetry_cell_setting 'monoclinic'
loop_
_space_group_symop_operation_xyz
x,y,z
-x,y,1/2-z
-x,-y,-z
x,-y,1/2+z
1/2+x,1/2+y,z
1/2-x,1/2+y,1/2-z
1/2-x,1/2-y,-z
1/2+x,1/2-y,1/2+z
loop_
_atom_site_type_symbol
_atom_site_label
_atom_site_fract_x
_atom_site_fract_y
_atom_site_fract_z
Si Si1 0.852885 0.636836 0.062479
Si Si2 0.267735 0.695903 0.884672
Si Si3 0.767522 0.296300 0.883782
Si Si4 0.974797 0.862915 0.613900
Si Si5 0.017191 0.966314 0.903067
Si Si6 0.818529 0.534686 0.093627
O O1 0.716838 0.644532 0.220780
O O2 0.702130 0.649119 0.048887
O O3 0.914841 0.584323 0.031514
O O4 0.070703 0.664988 0.947824
O O5 0.500000 0.673845 0.750000
O O6 0.249467 0.745964 0.846797
O O7 0.259427 0.704876 0.995532
O O8 0.574052 0.327513 0.942693
O O9 0.000000 0.317432 0.750000
O O10 0.987600 0.913509 0.564085
O O11 0.837259 0.976706 0.915133
O O12 0.230550 0.972365 0.740084
O O13 0.000000 0.000000 0.000000
O O14 0.000000 0.500000 0.000000
#
# Coordination Sequence:
#
# PCOD8134142 Si02
#       6
#     8   8   8   8   8   8
#     4   9  18  36  57  79 106 142 182 220 266 322
#     4  10  21  35  53  81 114 139 172 227 275 311
#     4  10  19  35  57  80 106 141 183 221 262 324
#     4   9  18  35  60  78 102 144 186 220 258 323
#     4   9  19  36  55  80 106 134 181 226 262 313
#     4   9  19  36  55  77 108 141 173 219 271 319
#
# _framework density 17.900528000000001
#
# number of rings (size 3 to 8) (size 9 to 14) (size 15 to 20)
#    0.000    2.667    1.667    2.000    0.000    2.667 
#    6.000    0.833    0.000    0.000    0.000    0.000 
#    0.000    0.000    0.000    0.000    0.000    0.000 
#
# Total GULP energy -297316.956728 kJ/mol
# GULP energy per Si atom -12388.206530 kJ/mol
# Density = 1.785979 g / cm^3
# Si number density = 17.900528 Si / 1000 Ang^3
#
#
#
# Elastic Constant Matrix: (Units=GPa)
#
#
# Indices 1 2 3 4 5 6 
#
# 1 87.9607 70.0848 42.0558 0.0000 -10.4972 0.0000
# 2 70.0848 102.1344 43.7752 0.0000 -17.1998 0.0000
# 3 42.0558 43.7752 83.0152 0.0000 -20.6935 0.0000
# 4 0.0000 0.0000 0.0000 31.8153 0.0000 -4.6188
# 5 -10.4972 -17.1998 -20.6935 0.0000 34.1738 0.0000
# 6 0.0000 0.0000 0.0000 -4.6188 0.0000 47.1247
#
#
#
# Elastic Compliance Matrix: (Units=1/GPa)
#
#
# Indices 1 2 3 4 5 6 
#
# 1 0.026943 -0.016614 -0.005783 0.000000 -0.003587 0.000000
# 2 -0.016614 0.023117 -0.002526 0.000000 0.005002 0.000000
# 3 -0.005783 -0.002526 0.018312 0.000000 0.008041 0.000000
# 4 0.000000 0.000000 0.000000 0.031885 0.000000 0.003125
# 5 -0.003587 0.005002 0.008041 0.000000 0.035547 0.000000
# 6 0.000000 0.000000 0.000000 0.003125 0.000000 0.021527
#
#
# Mechanical properties :
#
#
# Convention : Reuss Voigt Hill
#
# Bulk Modulus (GPa) = 53.97965 64.99354 59.48659
# Shear Modulus (GPa) = 23.43549 30.43572 26.93561
#
# Velocity S-wave (km/s) = 3.62222 4.12791 3.88330
# Velocity P-wave (km/s) = 6.90759 7.68807 7.30826
#
# Compressibility (1/GPa) = 0.01852550
#
# Stress axis : x y z
#
# Youngs Moduli (GPa) = 37.11528 43.25901 54.60850
#
# Poissons Ratio (x) = 0.71870 0.31580
# Poissons Ratio (y) = 0.61663 0.13796
# Poissons Ratio (z) = 0.21464 0.10928
#
# Static dielectric constant tensor:
#      x y z
#    x 3.183900 0.000000 0.073910 
#    y 0.000000 3.063330 0.000000 
#    z 0.073910 0.000000 3.028660 
# 
# 
# High freq. dielectric constant tensor:
#      x y z
#    x 1.687910 0.000000 -0.006320 
#    y 0.000000 1.693500 0.000000 
#    z -0.006320 0.000000 1.684130 
# 
# From -- ./inp_files/115134.got.cif
#   From: 2010.06.25/outbox.cif.g09.slc.cpg/sg15_58_cif.got.tgz:115134.got - 2010.06.28 07:06:18.
