data_PCOD8134237
_publ_section_title
;
Structure prediction by ZEFSAII (Michael W. Deem and Ramdas Pophale) SiO2 
 PCOD8134237
Probable space group: C 2/C
;
_chemical_formula_sum "Si O2"
_cell_formula_units_Z 60
_cell_length_a 15.959827
_cell_length_b 8.589420
_cell_length_c 26.526534
_cell_angle_alpha 90.000000
_cell_angle_beta 56.693143
_cell_angle_gamma 90.000000
_cell_volume 3039.097076
_symmetry_space_group_name_H-M "C 2/C"
_symmetry_group_IT_number 15
_symmetry_cell_setting 'monoclinic'
loop_
_space_group_symop_operation_xyz
x,y,z
-x,y,1/2-z
-x,-y,-z
x,-y,1/2+z
1/2+x,1/2+y,z
1/2-x,1/2+y,1/2-z
1/2-x,1/2-y,-z
1/2+x,1/2-y,1/2+z
loop_
_atom_site_type_symbol
_atom_site_label
_atom_site_fract_x
_atom_site_fract_y
_atom_site_fract_z
Si Si1 0.000000 0.618093 0.750000
Si Si2 0.891851 0.288487 0.646693
Si Si3 0.723076 0.813430 0.062856
Si Si4 0.676054 0.350527 0.674749
Si Si5 0.009982 0.429736 0.138458
Si Si6 0.598626 0.467577 0.435728
Si Si7 0.854098 0.183569 0.168176
Si Si8 0.673543 0.595497 0.746876
O O1 0.100238 0.719180 0.717189
O O2 0.997412 0.514010 0.700683
O O3 0.776616 0.324769 0.673565
O O4 0.933791 0.166873 0.592434
O O5 0.899346 0.219218 0.701527
O O6 0.959026 0.442591 0.619539
O O7 0.696829 0.666128 0.108198
O O8 0.627067 0.923178 0.086785
O O9 0.812571 0.914536 0.056595
O O10 0.750000 0.750000 0.000000
O O11 0.632875 0.519397 0.707448
O O12 0.962163 0.256658 0.147783
O O13 0.500000 0.500000 0.500000
O O14 0.636468 0.618589 0.392116
O O15 0.778677 0.328063 0.196826
O O16 0.814801 0.046154 0.217008
#
# Coordination Sequence:
#
# PCOD8134237 Si02
#       8
#     4   8   8   8   8   8   8   8
#     4  10  20  34  58  88 126 168 184 244 316 366
#     4  10  21  36  64  92 118 160 207 254 298 376
#     4  10  23  42  64  85 118 164 206 253 309 368
#     4  10  19  35  58  91 119 157 204 239 293 372
#     4  11  20  38  63  89 123 157 206 247 308 364
#     4  10  23  44  64  87 119 162 213 257 310 363
#     4  11  20  34  66  92 123 162 199 260 296 371
#     4  11  18  33  58  96 125 153 201 246 309 359
#
# _framework density 19.742706999999999
#
# number of rings (size 3 to 8) (size 9 to 14) (size 15 to 20)
#    0.000    1.600    4.000    0.800    0.000    2.133 
#    2.400    4.667    0.000    0.000    0.000    0.000 
#    0.000    0.000    0.000    0.000    0.000    0.000 
#
# Total GULP energy -371759.960432 kJ/mol
# GULP energy per Si atom -12391.998681 kJ/mol
# Density = 1.969777 g / cm^3
# Si number density = 19.742707 Si / 1000 Ang^3
#
#
#
# Elastic Constant Matrix: (Units=GPa)
#
#
# Indices 1 2 3 4 5 6 
#
# 1 99.3433 47.3397 57.0393 0.0000 -7.7186 0.0001
# 2 47.3397 88.8377 51.8162 0.0000 -0.6680 0.0002
# 3 57.0393 51.8162 156.2303 0.0000 0.5329 -0.0001
# 4 0.0000 0.0000 0.0000 27.5841 0.0000 6.6402
# 5 -7.7186 -0.6680 0.5329 0.0000 27.5694 0.0000
# 6 0.0001 0.0002 -0.0001 6.6402 0.0000 22.6534
#
#
#
# Elastic Compliance Matrix: (Units=1/GPa)
#
#
# Indices 1 2 3 4 5 6 
#
# 1 0.015347 -0.006038 -0.003615 0.000000 0.004220 0.000000
# 2 -0.006038 0.016337 -0.003210 0.000000 -0.001232 0.000000
# 3 -0.003615 -0.003210 0.008789 0.000000 -0.001260 0.000000
# 4 0.000000 0.000000 0.000000 0.039005 0.000000 -0.011433
# 5 0.004220 -0.001232 -0.001260 0.000000 0.037448 0.000000
# 6 0.000000 0.000000 0.000000 -0.011433 0.000000 0.047495
#
#
# Mechanical properties :
#
#
# Convention : Reuss Voigt Hill
#
# Bulk Modulus (GPa) = 67.80548 72.97797 70.39172
# Shear Modulus (GPa) = 25.63291 28.10911 26.87101
#
# Velocity S-wave (km/s) = 3.60717 3.77738 3.69326
# Velocity P-wave (km/s) = 7.19500 7.48796 7.34294
#
# Compressibility (1/GPa) = 0.01474807
#
# Stress axis : x y z
#
# Youngs Moduli (GPa) = 65.16063 61.21170 113.77230
#
# Poissons Ratio (x) = 0.36958 0.41128
# Poissons Ratio (y) = 0.39342 0.36518
# Poissons Ratio (z) = 0.23555 0.19648
#
# Static dielectric constant tensor:
#      x y z
#    x 3.577120 0.000000 0.094440 
#    y 0.000000 3.807730 0.000000 
#    z 0.094440 0.000000 3.776130 
# 
# 
# High freq. dielectric constant tensor:
#      x y z
#    x 1.757670 0.000000 -0.002480 
#    y 0.000000 1.757190 0.000000 
#    z -0.002480 0.000000 1.777480 
# 
# From -- ./inp_files/298392.got.cif
#   From: 2010.06.25/outbox.cif.g09.slc.cpg/sg15_150_cif.got.tgz:298392.got - 2010.06.28 07:06:18.
