data_PCOD8134464
_publ_section_title
;
Structure prediction by ZEFSAII (Michael W. Deem and Ramdas Pophale) SiO2 
 PCOD8134464
Probable space group: C 2/C
;
_chemical_formula_sum "Si O2"
_cell_formula_units_Z 52
_cell_length_a 14.395592
_cell_length_b 21.499463
_cell_length_c 9.086600
_cell_angle_alpha 90.000000
_cell_angle_beta 71.455559
_cell_angle_gamma 90.000000
_cell_volume 2666.258667
_symmetry_space_group_name_H-M "C 2/C"
_symmetry_group_IT_number 15
_symmetry_cell_setting 'monoclinic'
loop_
_space_group_symop_operation_xyz
x,y,z
-x,y,1/2-z
-x,-y,-z
x,-y,1/2+z
1/2+x,1/2+y,z
1/2-x,1/2+y,1/2-z
1/2-x,1/2-y,-z
1/2+x,1/2-y,1/2+z
loop_
_atom_site_type_symbol
_atom_site_label
_atom_site_fract_x
_atom_site_fract_y
_atom_site_fract_z
Si Si1 0.161024 0.774107 0.881977
Si Si2 0.345252 0.328976 0.042023
Si Si3 0.227433 0.153167 0.611865
Si Si4 0.500000 0.317594 0.750000
Si Si5 0.582577 0.067377 0.406271
Si Si6 0.366737 0.044273 0.451730
Si Si7 0.675623 0.808831 0.920514
O O1 0.183932 0.702544 0.911336
O O2 0.066032 0.775726 0.826068
O O3 0.254014 0.802613 0.753563
O O4 0.151053 0.818655 0.030515
O O5 0.338468 0.358118 0.207990
O O6 0.379173 0.256389 0.025210
O O7 0.427681 0.359862 0.891635
O O8 0.235601 0.331140 0.033426
O O9 0.275071 0.087412 0.543002
O O10 0.466251 0.061747 0.488128
O O11 0.618652 0.046033 0.228720
O O12 0.595845 0.140279 0.422794
O O13 0.648373 0.027514 0.489175
#
# Coordination Sequence:
#
# PCOD8134464 Si02
#       7
#     8   8   8   4   8   8   8
#     4   9  19  34  56  78 111 144 187 226 285 323
#     4   9  20  32  54  82 108 145 187 220 286 326
#     4  10  19  36  53  81 113 148 182 233 270 341
#     4  10  20  36  50  84 110 142 184 228 278 336
#     4  10  21  37  53  80 113 153 187 225 257 334
#     4  10  22  36  53  81 114 148 192 217 271 326
#     4   9  17  36  51  75 114 146 181 228 266 334
#
# _framework density 19.502984000000001
#
# number of rings (size 3 to 8) (size 9 to 14) (size 15 to 20)
#    0.000    2.462    1.538    0.923    4.308    0.615 
#    0.000    0.000    0.000    0.000    0.000   17.231 
#    0.000    0.000    0.000    0.000    0.000    0.000 
#
# Total GULP energy -322173.230873 kJ/mol
# GULP energy per Si atom -12391.278110 kJ/mol
# Density = 1.945859 g / cm^3
# Si number density = 19.502984 Si / 1000 Ang^3
#
#
#
# Elastic Constant Matrix: (Units=GPa)
#
#
# Indices 1 2 3 4 5 6 
#
# 1 54.2657 13.2898 21.3763 0.0000 1.6297 0.0000
# 2 13.2898 53.6585 4.2276 0.0000 2.3748 0.0000
# 3 21.3763 4.2276 111.7047 0.0000 -3.8072 0.0000
# 4 0.0000 0.0000 0.0000 20.9859 0.0000 0.6918
# 5 1.6297 2.3748 -3.8072 0.0000 34.1131 0.0000
# 6 0.0000 0.0000 0.0000 0.6918 0.0000 16.4507
#
#
#
# Elastic Compliance Matrix: (Units=1/GPa)
#
#
# Indices 1 2 3 4 5 6 
#
# 1 0.021200 -0.004894 -0.003909 0.000000 -0.001108 0.000000
# 2 -0.004894 0.019887 0.000145 0.000000 -0.001134 0.000000
# 3 -0.003909 0.000145 0.009738 0.000000 0.001263 0.000000
# 4 0.000000 0.000000 0.000000 0.047717 0.000000 -0.002007
# 5 -0.001108 -0.001134 0.001263 0.000000 0.029587 0.000000
# 6 0.000000 0.000000 0.000000 -0.002007 0.000000 0.060872
#
#
# Mechanical properties :
#
#
# Convention : Reuss Voigt Hill
#
# Bulk Modulus (GPa) = 29.84272 33.04622 31.44447
# Shear Modulus (GPa) = 22.98996 26.35895 24.67446
#
# Velocity S-wave (km/s) = 3.43708 3.68031 3.56077
# Velocity P-wave (km/s) = 5.57550 5.91951 5.75008
#
# Compressibility (1/GPa) = 0.03350901
#
# Stress axis : x y z
#
# Youngs Moduli (GPa) = 47.17076 50.28371 102.69185
#
# Poissons Ratio (x) = 0.24606 0.40147
# Poissons Ratio (y) = 0.23083 -0.01490
# Poissons Ratio (z) = 0.18441 -0.00730
#
# Static dielectric constant tensor:
#      x y z
#    x 3.366960 0.000000 0.091470 
#    y 0.000000 3.285520 0.000000 
#    z 0.091470 0.000000 3.880480 
# 
# 
# High freq. dielectric constant tensor:
#      x y z
#    x 1.733250 0.000000 0.007360 
#    y 0.000000 1.717560 0.000000 
#    z 0.007360 0.000000 1.782440 
# 
# From -- ./inp_files/40757.got.cif
#   From: 2010.06.25/outbox.cif.g09.slc.cpg/sg15_21_cif.got.tgz:40757.got - 2010.06.28 07:06:18.
