data_PCOD8134701
_publ_section_title
;
Structure prediction by ZEFSAII (Michael W. Deem and Ramdas Pophale) SiO2 
 PCOD8134701
Probable space group: C 2/C
;
_chemical_formula_sum "Si O2"
_cell_formula_units_Z 60
_cell_length_a 10.962036
_cell_length_b 17.701725
_cell_length_c 20.741573
_cell_angle_alpha 90.000000
_cell_angle_beta 132.302574
_cell_angle_gamma 90.000000
_cell_volume 2976.774317
_symmetry_space_group_name_H-M "C 2/C"
_symmetry_group_IT_number 15
_symmetry_cell_setting 'monoclinic'
loop_
_space_group_symop_operation_xyz
x,y,z
-x,y,1/2-z
-x,-y,-z
x,-y,1/2+z
1/2+x,1/2+y,z
1/2-x,1/2+y,1/2-z
1/2-x,1/2-y,-z
1/2+x,1/2-y,1/2+z
loop_
_atom_site_type_symbol
_atom_site_label
_atom_site_fract_x
_atom_site_fract_y
_atom_site_fract_z
Si Si1 0.166478 0.595407 0.582598
Si Si2 0.761640 0.459734 0.079778
Si Si3 0.852789 0.344027 0.747917
Si Si4 0.000000 0.638427 0.750000
Si Si5 0.731992 0.816342 0.226422
Si Si6 0.560658 0.430465 0.595076
Si Si7 0.491406 0.556967 0.821609
Si Si8 0.037019 0.544930 0.101321
O O1 0.156746 0.666614 0.628295
O O2 0.334449 0.597864 0.600357
O O3 0.169270 0.517205 0.625306
O O4 0.015352 0.596936 0.478393
O O5 0.862868 0.413713 0.168402
O O6 0.664603 0.528129 0.077311
O O7 0.881860 0.495840 0.069977
O O8 0.621050 0.406754 0.996026
O O9 0.846203 0.257784 0.768572
O O10 0.671333 0.358418 0.653385
O O11 0.883024 0.401873 0.816824
O O12 0.000000 0.356381 0.750000
O O13 0.084889 0.691050 0.726150
O O14 0.846796 0.885538 0.288309
O O15 0.534315 0.481583 0.647998
O O16 0.500000 0.536417 0.750000
#
# Coordination Sequence:
#
# PCOD8134701 Si02
#       8
#     8   8   8   4   8   8   8   8
#     4  10  21  39  64  93 125 164 207 261 311 373
#     4  11  21  39  68  94 121 153 213 270 310 367
#     4  12  24  43  62  93 129 168 210 259 315 372
#     4  12  22  44  66  86 122 176 210 252 318 378
#     4  11  24  42  61  89 128 173 211 246 316 385
#     4  11  22  38  64  97 122 151 211 270 306 364
#     4  10  19  36  60  88 122 161 205 252 305 365
#     4  11  21  39  68  96 124 159 213 263 318 370
#
# _framework density 20.156046
#
# number of rings (size 3 to 8) (size 9 to 14) (size 15 to 20)
#    0.000    1.067    5.333    3.600    0.000    0.000 
#    6.000    2.000    0.000    0.000    0.000    0.000 
#    0.000    0.000    0.000    0.000    0.000    0.000 
#
# Total GULP energy -371926.066221 kJ/mol
# GULP energy per Si atom -12397.535541 kJ/mol
# Density = 2.011017 g / cm^3
# Si number density = 20.156046 Si / 1000 Ang^3
#
#
#
# Elastic Constant Matrix: (Units=GPa)
#
#
# Indices 1 2 3 4 5 6 
#
# 1 97.1536 18.4450 21.8934 0.0000 5.2421 0.0000
# 2 18.4450 47.5837 40.9316 0.0000 -2.9543 0.0000
# 3 21.8934 40.9316 115.3210 0.0000 13.1926 0.0000
# 4 0.0000 0.0000 0.0000 15.4207 0.0000 6.0895
# 5 5.2421 -2.9543 13.1926 0.0000 26.2274 0.0000
# 6 0.0000 0.0000 0.0000 6.0895 0.0000 22.5565
#
#
#
# Elastic Compliance Matrix: (Units=1/GPa)
#
#
# Indices 1 2 3 4 5 6 
#
# 1 0.011316 -0.004247 -0.000348 0.000000 -0.002565 0.000000
# 2 -0.004247 0.034171 -0.012584 0.000000 0.011028 0.000000
# 3 -0.000348 -0.012584 0.014174 0.000000 -0.008477 0.000000
# 4 0.000000 0.000000 0.000000 0.072586 0.000000 -0.019596
# 5 -0.002565 0.011028 -0.008477 0.000000 0.044147 0.000000
# 6 0.000000 0.000000 0.000000 -0.019596 0.000000 0.049623
#
#
# Mechanical properties :
#
#
# Convention : Reuss Voigt Hill
#
# Bulk Modulus (GPa) = 39.51871 46.95537 43.23704
# Shear Modulus (GPa) = 18.60059 24.76015 21.68037
#
# Velocity S-wave (km/s) = 3.04111 3.50869 3.28323
# Velocity P-wave (km/s) = 5.65509 6.30563 5.98920
#
# Compressibility (1/GPa) = 0.02530447
#
# Stress axis : x y z
#
# Youngs Moduli (GPa) = 88.37071 29.26450 70.55316
#
# Poissons Ratio (x) = 0.12428 0.02452
# Poissons Ratio (y) = 0.37529 0.88783
# Poissons Ratio (z) = 0.03071 0.36826
#
# Static dielectric constant tensor:
#      x y z
#    x 3.943530 0.000000 0.181100 
#    y 0.000000 3.233190 0.000000 
#    z 0.181100 0.000000 4.005950 
# 
# 
# High freq. dielectric constant tensor:
#      x y z
#    x 1.807120 0.000000 0.005120 
#    y 0.000000 1.742230 0.000000 
#    z 0.005120 0.000000 1.798590 
# 
# From -- ./inp_files/270604.got.cif
#   From: 2010.06.25/outbox.cif.g09.slc.cpg/sg15_136_cif.got.tgz:270604.got - 2010.06.28 07:06:18.
