data_PCOD8134035
_publ_section_title
;
Structure prediction by ZEFSAII (Michael W. Deem and Ramdas Pophale) SiO2 
 PCOD8134035
Probable space group: C 2/C
;
_chemical_formula_sum "Si O2"
_cell_formula_units_Z 64
_cell_length_a 27.267050
_cell_length_b 14.133234
_cell_length_c 9.965732
_cell_angle_alpha 90.000000
_cell_angle_beta 113.212785
_cell_angle_gamma 90.000000
_cell_volume 3529.610838
_symmetry_space_group_name_H-M "C 2/C"
_symmetry_group_IT_number 15
_symmetry_cell_setting 'monoclinic'
loop_
_space_group_symop_operation_xyz
x,y,z
-x,y,1/2-z
-x,-y,-z
x,-y,1/2+z
1/2+x,1/2+y,z
1/2-x,1/2+y,1/2-z
1/2-x,1/2-y,-z
1/2+x,1/2-y,1/2+z
loop_
_atom_site_type_symbol
_atom_site_label
_atom_site_fract_x
_atom_site_fract_y
_atom_site_fract_z
Si Si1 0.243485 0.382860 0.616168
Si Si2 0.867208 0.718460 0.083406
Si Si3 0.811862 0.102658 0.447630
Si Si4 0.232274 0.596608 0.589957
Si Si5 0.963852 0.608828 0.579919
Si Si6 0.194752 0.111215 0.574729
Si Si7 0.964138 0.396532 0.584662
Si Si8 0.861924 0.719056 0.397278
O O1 0.290469 0.384142 0.775481
O O2 0.219130 0.486114 0.557800
O O3 0.272702 0.343497 0.514710
O O4 0.194637 0.321282 0.615015
O O5 0.920167 0.680631 0.071078
O O6 0.869425 0.705759 0.246266
O O7 0.861693 0.828264 0.032853
O O8 0.821057 0.657011 0.965849
O O9 0.766522 0.134695 0.502749
O O10 0.827649 0.992997 0.487092
O O11 0.262932 0.611360 0.760544
O O12 0.942305 0.502109 0.527210
O O13 0.911199 0.673715 0.530641
O O14 0.000000 0.619819 0.750000
O O15 0.001066 0.644472 0.499182
O O16 0.142660 0.171176 0.563271
O O17 0.000000 0.413730 0.750000
#
# Coordination Sequence:
#
# PCOD8134035 Si02
#       8
#     8   8   8   8   8   8   8   8
#     4  10  21  34  53  83 123 147 183 228 279 330
#     4  12  21  34  63  83 108 150 202 224 267 343
#     4  10  20  36  54  81 114 154 183 227 275 329
#     4  10  19  35  53  83 116 152 181 225 274 332
#     4  10  23  40  60  83 120 140 177 237 294 331
#     4  10  22  35  54  81 121 149 184 230 281 322
#     4  10  21  40  59  86 111 146 180 230 286 340
#     4  12  21  36  59  85 108 151 193 232 275 334
#
# _framework density 18.132311000000001
#
# number of rings (size 3 to 8) (size 9 to 14) (size 15 to 20)
#    0.000    1.500    3.750    2.250    0.000    2.000 
#    0.000    0.000    0.000    1.500    0.000    0.000 
#    0.000    0.000    0.000    0.000    0.000    0.000 
#
# Total GULP energy -396758.170072 kJ/mol
# GULP energy per Si atom -12398.692815 kJ/mol
# Density = 1.809104 g / cm^3
# Si number density = 18.132311 Si / 1000 Ang^3
#
#
#
# Elastic Constant Matrix: (Units=GPa)
#
#
# Indices 1 2 3 4 5 6 
#
# 1 89.3643 47.1040 21.4814 0.0000 -10.1985 0.0000
# 2 47.1040 84.8542 15.0138 0.0000 5.9639 0.0000
# 3 21.4814 15.0138 76.7152 0.0000 -13.2917 0.0000
# 4 0.0000 0.0000 0.0000 21.6078 0.0000 0.6124
# 5 -10.1985 5.9639 -13.2917 0.0000 31.8060 0.0000
# 6 0.0000 0.0000 0.0000 0.6124 0.0000 33.3030
#
#
#
# Elastic Compliance Matrix: (Units=1/GPa)
#
#
# Indices 1 2 3 4 5 6 
#
# 1 0.017642 -0.009946 -0.001822 0.000000 0.006761 0.000000
# 2 -0.009946 0.018197 -0.002070 0.000000 -0.007466 0.000000
# 3 -0.001822 -0.002070 0.015003 0.000000 0.006073 0.000000
# 4 0.000000 0.000000 0.000000 0.046304 0.000000 -0.000852
# 5 0.006761 -0.007466 0.006073 0.000000 0.037546 0.000000
# 6 0.000000 0.000000 0.000000 -0.000852 0.000000 0.030043
#
#
# Mechanical properties :
#
#
# Convention : Reuss Voigt Hill
#
# Bulk Modulus (GPa) = 43.16725 46.45911 44.81318
# Shear Modulus (GPa) = 24.98319 28.49900 26.74109
#
# Velocity S-wave (km/s) = 3.71594 3.96880 3.84445
# Velocity P-wave (km/s) = 6.50149 6.83226 6.66893
#
# Compressibility (1/GPa) = 0.02316571
#
# Stress axis : x y z
#
# Youngs Moduli (GPa) = 56.68148 54.95316 66.65391
#
# Poissons Ratio (x) = 0.54658 0.12146
# Poissons Ratio (y) = 0.56377 0.13796
# Poissons Ratio (z) = 0.10329 0.11375
#
# Static dielectric constant tensor:
#      x y z
#    x 3.140940 0.000000 -0.187580 
#    y 0.000000 3.675380 0.000000 
#    z -0.187580 0.000000 3.435280 
# 
# 
# High freq. dielectric constant tensor:
#      x y z
#    x 1.677910 0.000000 -0.021060 
#    y 0.000000 1.706270 0.000000 
#    z -0.021060 0.000000 1.712030 
# 
# From -- ./inp_files/66266.got.cif
#   From: 2010.06.25/outbox.cif.g09.slc.cpg/sg15_34_cif.got.tgz:66266.got - 2010.06.28 07:06:18.
