data_PCOD8134670
_publ_section_title
;
Structure prediction by ZEFSAII (Michael W. Deem and Ramdas Pophale) SiO2 
 PCOD8134670
Probable space group: C 2/C
;
_chemical_formula_sum "Si O2"
_cell_formula_units_Z 56
_cell_length_a 23.550842
_cell_length_b 9.630589
_cell_length_c 15.373462
_cell_angle_alpha 90.000000
_cell_angle_beta 123.369356
_cell_angle_gamma 90.000000
_cell_volume 2912.000038
_symmetry_space_group_name_H-M "C 2/C"
_symmetry_group_IT_number 15
_symmetry_cell_setting 'monoclinic'
loop_
_space_group_symop_operation_xyz
x,y,z
-x,y,1/2-z
-x,-y,-z
x,-y,1/2+z
1/2+x,1/2+y,z
1/2-x,1/2+y,1/2-z
1/2-x,1/2-y,-z
1/2+x,1/2-y,1/2+z
loop_
_atom_site_type_symbol
_atom_site_label
_atom_site_fract_x
_atom_site_fract_y
_atom_site_fract_z
Si Si1 0.548602 0.397756 0.094957
Si Si2 0.125069 0.912043 0.328339
Si Si3 0.230825 0.028599 0.532734
Si Si4 0.826467 0.242220 0.887873
Si Si5 0.839370 0.478903 0.490001
Si Si6 0.540499 0.783032 0.865972
Si Si7 0.259456 0.245920 0.153014
O O1 0.582495 0.470248 0.209469
O O2 0.609537 0.352904 0.083051
O O3 0.507537 0.262249 0.093921
O O4 0.500000 0.500000 0.000000
O O5 0.076583 0.858543 0.364238
O O6 0.170762 0.778529 0.339496
O O7 0.173275 0.031591 0.408329
O O8 0.220778 0.164858 0.581577
O O9 0.305414 0.026990 0.552478
O O10 0.222547 0.888976 0.583020
O O11 0.855470 0.385656 0.947845
O O12 0.776144 0.279287 0.767137
O O13 0.910710 0.404423 0.562451
O O14 0.789778 0.377269 0.395698
O O15 0.500000 0.846283 0.750000
#
# Coordination Sequence:
#
# PCOD8134670 Si02
#       7
#     8   8   8   8   8   8   8
#     4  10  22  37  57  85 119 155 197 240 291 345
#     4   9  17  35  61  85 106 153 204 232 271 357
#     4  11  19  37  63  86 116 151 197 239 294 350
#     4  11  24  36  56  91 125 142 186 258 304 328
#     4  11  21  38  59  86 115 153 196 240 291 347
#     4  10  19  36  60  81 109 160 203 226 273 359
#     4  10  19  36  62  87 111 152 194 236 292 350
#
# _framework density 19.230768999999999
#
# number of rings (size 3 to 8) (size 9 to 14) (size 15 to 20)
#    0.000    1.714    2.857    3.000    0.000    0.571 
#    0.000    1.429    0.000    0.000    0.000    0.000 
#    0.000    0.000    0.000    0.000    0.000    0.000 
#
# Total GULP energy -347194.403557 kJ/mol
# GULP energy per Si atom -12399.800127 kJ/mol
# Density = 1.918700 g / cm^3
# Si number density = 19.230769 Si / 1000 Ang^3
#
#
#
# Elastic Constant Matrix: (Units=GPa)
#
#
# Indices 1 2 3 4 5 6 
#
# 1 70.7175 18.7307 37.9591 0.0000 2.3143 0.0000
# 2 18.7307 69.4035 47.5753 0.0000 -3.1814 0.0000
# 3 37.9591 47.5753 131.0604 0.0000 5.1366 0.0000
# 4 0.0000 0.0000 0.0000 22.7350 0.0000 2.3458
# 5 2.3143 -3.1814 5.1366 0.0000 27.6138 0.0000
# 6 0.0000 0.0000 0.0000 2.3458 0.0000 24.9949
#
#
#
# Elastic Compliance Matrix: (Units=1/GPa)
#
#
# Indices 1 2 3 4 5 6 
#
# 1 0.016895 -0.001684 -0.004250 0.000000 -0.000819 0.000000
# 2 -0.001684 0.019697 -0.006807 0.000000 0.003677 0.000000
# 3 -0.004250 -0.006807 0.011432 0.000000 -0.002555 0.000000
# 4 0.000000 0.000000 0.000000 0.044415 0.000000 -0.004168
# 5 -0.000819 0.003677 -0.002555 0.000000 0.037181 0.000000
# 6 0.000000 0.000000 0.000000 -0.004168 0.000000 0.040399
#
#
# Mechanical properties :
#
#
# Convention : Reuss Voigt Hill
#
# Bulk Modulus (GPa) = 44.35910 53.30130 48.83020
# Shear Modulus (GPa) = 24.62873 26.19648 25.41260
#
# Velocity S-wave (km/s) = 3.58256 3.69483 3.63913
# Velocity P-wave (km/s) = 6.34270 6.78079 6.56540
#
# Compressibility (1/GPa) = 0.02254329
#
# Stress axis : x y z
#
# Youngs Moduli (GPa) = 59.18975 50.76839 87.47466
#
# Poissons Ratio (x) = 0.08549 0.37176
# Poissons Ratio (y) = 0.09967 0.59540
# Poissons Ratio (z) = 0.25155 0.34556
#
# Static dielectric constant tensor:
#      x y z
#    x 3.620720 0.000000 0.054790 
#    y 0.000000 3.148770 0.000000 
#    z 0.054790 0.000000 3.717250 
# 
# 
# High freq. dielectric constant tensor:
#      x y z
#    x 1.752140 0.000000 0.001160 
#    y 0.000000 1.717180 0.000000 
#    z 0.001160 0.000000 1.757280 
# 
# From -- ./inp_files/172454.got.cif
#   From: 2010.06.25/outbox.cif.g09.slc.cpg/sg15_87_cif.got.tgz:172454.got - 2010.06.28 07:06:18.
