data_PCOD8134458
_publ_section_title
;
Structure prediction by ZEFSAII (Michael W. Deem and Ramdas Pophale) SiO2 
 PCOD8134458
Probable space group: C 2/C
;
_chemical_formula_sum "Si O2"
_cell_formula_units_Z 64
_cell_length_a 24.437231
_cell_length_b 17.336325
_cell_length_c 26.580799
_cell_angle_alpha 90.000000
_cell_angle_beta 19.975844
_cell_angle_gamma 90.000000
_cell_volume 3847.028102
_symmetry_space_group_name_H-M "C 2/C"
_symmetry_group_IT_number 15
_symmetry_cell_setting 'monoclinic'
loop_
_space_group_symop_operation_xyz
x,y,z
-x,y,1/2-z
-x,-y,-z
x,-y,1/2+z
1/2+x,1/2+y,z
1/2-x,1/2+y,1/2-z
1/2-x,1/2-y,-z
1/2+x,1/2-y,1/2+z
loop_
_atom_site_type_symbol
_atom_site_label
_atom_site_fract_x
_atom_site_fract_y
_atom_site_fract_z
Si Si1 0.996133 0.828218 0.311704
Si Si2 0.139055 0.333231 0.667584
Si Si3 0.173858 0.165526 0.320913
Si Si4 0.762885 0.561738 0.332082
Si Si5 0.984186 0.321964 0.021070
Si Si6 0.536515 0.485534 0.910968
Si Si7 0.241491 0.915445 0.168149
Si Si8 0.002133 0.474011 0.056039
O O1 0.813252 0.824171 0.490331
O O2 0.000000 0.853949 0.250000
O O3 0.084606 0.746252 0.240704
O O4 0.100937 0.888167 0.252888
O O5 0.132831 0.400462 0.714318
O O6 0.000000 0.358778 0.750000
O O7 0.183049 0.131784 0.369490
O O8 0.063266 0.240345 0.414925
O O9 0.094417 0.102187 0.351906
O O10 0.348642 0.188185 0.151246
O O11 0.628429 0.507884 0.475278
O O12 0.853027 0.506032 0.215552
O O13 0.856067 0.346928 0.088844
O O14 0.000889 0.380985 0.054289
O O15 0.671112 0.546206 0.779056
O O16 0.500000 0.500000 0.000000
O O17 0.342320 0.984209 0.053394
O O18 0.000000 0.500000 0.000000
#
# Coordination Sequence:
#
# PCOD8134458 Si02
#       8
#     8   8   8   8   8   8   8   8
#     4  11  24  38  55  77 105 141 178 224 266 303
#     4  11  24  38  54  78 107 138 179 223 265 306
#     4  11  22  32  48  74 107 138 174 210 253 309
#     4  11  21  35  56  74 101 142 179 214 261 307
#     4  11  22  32  48  75 105 140 174 209 253 307
#     4  10  20  35  51  73 103 135 175 220 255 308
#     4  11  20  36  55  70 102 142 183 210 260 311
#     4  10  19  36  52  73 102 140 177 214 258 307
#
# _framework density 16.636218
#
# number of rings (size 3 to 8) (size 9 to 14) (size 15 to 20)
#    0.000    1.250    5.000    4.500    8.750    2.000 
#    0.000    0.000    0.000    0.000    0.000    0.000 
#    0.000    6.000    0.000    0.000    0.000    0.000 
#
# Total GULP energy -396519.089010 kJ/mol
# GULP energy per Si atom -12391.221532 kJ/mol
# Density = 1.659835 g / cm^3
# Si number density = 16.636218 Si / 1000 Ang^3
#
#
#
# Elastic Constant Matrix: (Units=GPa)
#
#
# Indices 1 2 3 4 5 6 
#
# 1 62.4159 49.0466 26.2400 -0.0058 -12.0627 -0.0051
# 2 49.0466 107.7304 52.8575 -0.0580 -10.6234 0.0136
# 3 26.2400 52.8575 119.7402 -0.1071 -12.7446 -0.0020
# 4 -0.0058 -0.0580 -0.1071 36.5374 0.0267 -3.5525
# 5 -12.0627 -10.6234 -12.7446 0.0267 26.0845 -0.0063
# 6 -0.0051 0.0136 -0.0020 -3.5525 -0.0063 22.5804
#
#
#
# Elastic Compliance Matrix: (Units=1/GPa)
#
#
# Indices 1 2 3 4 5 6 
#
# 1 0.026315 -0.011231 0.000000 -0.000018 0.007595 0.000012
# 2 -0.011231 0.016786 -0.005036 0.000010 -0.000818 -0.000012
# 3 0.000000 -0.005036 0.010924 0.000022 0.003286 0.000008
# 4 -0.000018 0.000010 0.000022 0.027794 -0.000021 0.004373
# 5 0.007595 -0.000818 0.003286 -0.000021 0.043122 0.000011
# 6 0.000012 -0.000012 0.000008 0.004373 0.000011 0.044974
#
#
# Mechanical properties :
#
#
# Convention : Reuss Voigt Hill
#
# Bulk Modulus (GPa) = 46.53262 60.68606 53.60934
# Shear Modulus (GPa) = 23.85334 27.82329 25.83832
#
# Velocity S-wave (km/s) = 3.79069 4.09400 3.94526
# Velocity P-wave (km/s) = 6.86953 7.67498 7.28340
#
# Compressibility (1/GPa) = 0.02149030
#
# Stress axis : x y z
#
# Youngs Moduli (GPa) = 38.00078 59.57404 91.53964
#
# Poissons Ratio (x) = 0.66910 0.00004
# Poissons Ratio (y) = 0.42680 0.46096
# Poissons Ratio (z) = 0.00002 0.29999
#
# Static dielectric constant tensor:
#      x y z
#    x 3.271210 0.000210 -0.222770 
#    y 0.000210 3.641770 0.000310 
#    z -0.222770 0.000310 3.612190 
# 
# 
# High freq. dielectric constant tensor:
#      x y z
#    x 1.595420 -0.000010 -0.013100 
#    y -0.000010 1.634390 0.000030 
#    z -0.013100 0.000030 1.672290 
# 
# From -- ./inp_files/282231.got.cif
#   From: 2010.06.25/outbox.cif.g09.slc.cpg/sg15_142_cif.got.tgz:282231.got - 2010.06.28 07:06:18.
