data_PCOD8134948
_publ_section_title
;
Structure prediction by ZEFSAII (Michael W. Deem and Ramdas Pophale) SiO2 
 PCOD8134948
Probable space group: C 2/C
;
_chemical_formula_sum "Si O2"
_cell_formula_units_Z 60
_cell_length_a 6.633883
_cell_length_b 28.749361
_cell_length_c 17.243106
_cell_angle_alpha 90.000000
_cell_angle_beta 76.769390
_cell_angle_gamma 90.000000
_cell_volume 3201.313242
_symmetry_space_group_name_H-M "C 2/C"
_symmetry_group_IT_number 15
_symmetry_cell_setting 'monoclinic'
loop_
_space_group_symop_operation_xyz
x,y,z
-x,y,1/2-z
-x,-y,-z
x,-y,1/2+z
1/2+x,1/2+y,z
1/2-x,1/2+y,1/2-z
1/2-x,1/2-y,-z
1/2+x,1/2-y,1/2+z
loop_
_atom_site_type_symbol
_atom_site_label
_atom_site_fract_x
_atom_site_fract_y
_atom_site_fract_z
Si Si1 0.697862 0.978836 0.387372
Si Si2 0.325512 0.219523 0.563378
Si Si3 0.790845 0.666977 0.029729
Si Si4 0.100201 0.818946 0.385775
Si Si5 0.896270 0.236049 0.338101
Si Si6 0.000000 0.470026 0.250000
Si Si7 0.385165 0.424816 0.140379
Si Si8 0.807774 0.437927 0.502475
O O1 0.581643 0.997676 0.319080
O O2 0.540687 0.947572 0.452011
O O3 0.898523 0.947293 0.350257
O O4 0.766118 0.024324 0.428437
O O5 0.250000 0.250000 0.500000
O O6 0.483176 0.180603 0.520030
O O7 0.420977 0.252814 0.619116
O O8 0.130800 0.194073 0.618187
O O9 0.739475 0.694239 0.113482
O O10 0.795128 0.612009 0.045457
O O11 0.627452 0.681067 0.976964
O O12 0.258019 0.781856 0.334114
O O13 0.130169 0.869650 0.347889
O O14 0.000000 0.218143 0.250000
O O15 0.196726 0.439740 0.210348
O O16 0.353749 0.439896 0.054001
#
# Coordination Sequence:
#
# PCOD8134948 Si02
#       8
#     8   8   8   8   8   4   8   8
#     4  10  19  38  57  84 113 146 180 233 280 332
#     4  11  18  36  61  78 103 151 191 224 271 333
#     4  10  19  37  58  82 109 145 187 234 274 326
#     4  10  20  36  58  81 106 148 189 225 277 332
#     4  11  23  36  52  80 121 146 180 235 283 326
#     4  10  22  36  54  80 124 146 170 222 290 336
#     4  10  20  35  58  85 108 143 186 230 279 332
#     4   9  20  35  62  83 106 140 194 236 270 326
#
# _framework density 18.742308000000001
#
# number of rings (size 3 to 8) (size 9 to 14) (size 15 to 20)
#    0.000    1.867    2.667    2.400    0.933    1.600 
#    2.400    1.333    2.933    0.000    0.000    0.000 
#    0.000    0.000    0.000    0.000    0.000    0.000 
#
# Total GULP energy -371927.716274 kJ/mol
# GULP energy per Si atom -12397.590542 kJ/mol
# Density = 1.869965 g / cm^3
# Si number density = 18.742308 Si / 1000 Ang^3
#
#
#
# Elastic Constant Matrix: (Units=GPa)
#
#
# Indices 1 2 3 4 5 6 
#
# 1 100.8751 23.3882 22.5136 0.0000 0.5141 0.0000
# 2 23.3882 87.1063 29.0564 0.0000 5.5109 0.0000
# 3 22.5136 29.0564 79.5338 0.0000 -1.6578 0.0000
# 4 0.0000 0.0000 0.0000 11.4366 0.0000 0.7095
# 5 0.5141 5.5109 -1.6578 0.0000 26.7184 0.0000
# 6 0.0000 0.0000 0.0000 0.7095 0.0000 23.4249
#
#
#
# Elastic Compliance Matrix: (Units=1/GPa)
#
#
# Indices 1 2 3 4 5 6 
#
# 1 0.010930 -0.002174 -0.002298 0.000000 0.000096 0.000000
# 2 -0.002174 0.013750 -0.004472 0.000000 -0.003072 0.000000
# 3 -0.002298 -0.004472 0.014897 0.000000 0.001891 0.000000
# 4 0.000000 0.000000 0.000000 0.087603 0.000000 -0.002653
# 5 0.000096 -0.003072 0.001891 0.000000 0.038176 0.000000
# 6 0.000000 0.000000 0.000000 -0.002653 0.000000 0.042770
#
#
# Mechanical properties :
#
#
# Convention : Reuss Voigt Hill
#
# Bulk Modulus (GPa) = 46.10619 46.38128 46.24373
# Shear Modulus (GPa) = 21.43683 25.15310 23.29496
#
# Velocity S-wave (km/s) = 3.38563 3.66737 3.52931
# Velocity P-wave (km/s) = 6.31956 6.53708 6.42924
#
# Compressibility (1/GPa) = 0.02168906
#
# Stress axis : x y z
#
# Youngs Moduli (GPa) = 91.49426 72.72691 67.12859
#
# Poissons Ratio (x) = 0.15813 0.15423
# Poissons Ratio (y) = 0.19893 0.30019
# Poissons Ratio (z) = 0.21021 0.32523
#
# Static dielectric constant tensor:
#      x y z
#    x 3.358760 0.000000 0.249390 
#    y 0.000000 3.341380 0.000000 
#    z 0.249390 0.000000 3.322650 
# 
# 
# High freq. dielectric constant tensor:
#      x y z
#    x 1.740870 0.000000 0.002140 
#    y 0.000000 1.714720 0.000000 
#    z 0.002140 0.000000 1.715600 
# 
# From -- ./inp_files/186525.got.cif
#   From: 2010.06.25/outbox.cif.g09.slc.cpg/sg15_94_cif.got.tgz:186525.got - 2010.06.28 07:06:18.
