data_PCOD8134515
_publ_section_title
;
Structure prediction by ZEFSAII (Michael W. Deem and Ramdas Pophale) SiO2 
 PCOD8134515
Probable space group: C 2/C
;
_chemical_formula_sum "Si O2"
_cell_formula_units_Z 56
_cell_length_a 8.864324
_cell_length_b 28.658191
_cell_length_c 11.038855
_cell_angle_alpha 90.000000
_cell_angle_beta 76.850695
_cell_angle_gamma 90.000000
_cell_volume 2730.734806
_symmetry_space_group_name_H-M "C 2/C"
_symmetry_group_IT_number 15
_symmetry_cell_setting 'monoclinic'
loop_
_space_group_symop_operation_xyz
x,y,z
-x,y,1/2-z
-x,-y,-z
x,-y,1/2+z
1/2+x,1/2+y,z
1/2-x,1/2+y,1/2-z
1/2-x,1/2-y,-z
1/2+x,1/2-y,1/2+z
loop_
_atom_site_type_symbol
_atom_site_label
_atom_site_fract_x
_atom_site_fract_y
_atom_site_fract_z
Si Si1 0.444654 0.970202 0.890562
Si Si2 0.416774 0.204900 0.385469
Si Si3 0.633447 0.380808 0.466256
Si Si4 0.905296 0.808771 0.460194
Si Si5 0.717256 0.392448 0.177216
Si Si6 0.101628 0.955066 0.995384
Si Si7 0.474157 0.119467 0.998686
O O1 0.500000 0.990667 0.750000
O O2 0.500079 0.916727 0.896159
O O3 0.261123 0.968309 0.901967
O O4 0.500000 0.000000 0.000000
O O5 0.500000 0.187631 0.250000
O O6 0.230901 0.196966 0.414945
O O7 0.452871 0.259042 0.398451
O O8 0.490699 0.173088 0.476223
O O9 0.562935 0.328759 0.490959
O O10 0.662447 0.396421 0.323410
O O11 0.501506 0.414320 0.548815
O O12 0.795328 0.385038 0.501553
O O13 0.848241 0.844148 0.366395
O O14 0.645434 0.437439 0.122519
O O15 0.905299 0.393755 0.131350
O O16 0.000000 0.000000 0.000000
#
# Coordination Sequence:
#
# PCOD8134515 Si02
#       7
#     8   8   8   8   8   8   8
#     4  11  25  44  63  85 117 156 196 238 291 352
#     4  10  19  36  57  77 112 151 185 231 289 348
#     4  11  20  36  57  84 118 148 191 242 283 333
#     4   9  19  34  57  85 106 145 197 233 281 343
#     4   9  19  36  58  82 115 152 189 236 288 340
#     4  10  21  36  57  86 111 142 187 235 287 339
#     4  10  22  36  55  85 116 152 189 231 288 347
#
# _framework density 20.507300999999998
#
# number of rings (size 3 to 8) (size 9 to 14) (size 15 to 20)
#    0.000    2.000    0.000    5.143    0.000    6.286 
#    0.000    4.286    0.000    0.000    0.000    0.000 
#    0.000    0.000    0.000    0.000    0.000    0.000 
#
# Total GULP energy -346882.293978 kJ/mol
# GULP energy per Si atom -12388.653356 kJ/mol
# Density = 2.046063 g / cm^3
# Si number density = 20.507301 Si / 1000 Ang^3
#
#
#
# Elastic Constant Matrix: (Units=GPa)
#
#
# Indices 1 2 3 4 5 6 
#
# 1 177.6887 54.6381 38.1931 0.0000 -26.1311 0.0000
# 2 54.6381 111.2080 32.3309 0.0000 3.6928 0.0000
# 3 38.1931 32.3309 93.7949 0.0000 -16.2671 0.0000
# 4 0.0000 0.0000 0.0000 15.9918 0.0000 -6.8254
# 5 -26.1311 3.6928 -16.2671 0.0000 23.1703 0.0000
# 6 0.0000 0.0000 0.0000 -6.8254 0.0000 35.8106
#
#
#
# Elastic Compliance Matrix: (Units=1/GPa)
#
#
# Indices 1 2 3 4 5 6 
#
# 1 0.008552 -0.004497 -0.000154 0.000000 0.010253 0.000000
# 2 -0.004497 0.012802 -0.004344 0.000000 -0.010162 0.000000
# 3 -0.000154 -0.004344 0.014018 0.000000 0.010361 0.000000
# 4 0.000000 0.000000 0.000000 0.068069 0.000000 0.012974
# 5 0.010253 -0.010162 0.010361 0.000000 0.063616 0.000000
# 6 0.000000 0.000000 0.000000 0.012974 0.000000 0.030397
#
#
# Mechanical properties :
#
#
# Convention : Reuss Voigt Hill
#
# Bulk Modulus (GPa) = 57.53067 70.33509 63.93288
# Shear Modulus (GPa) = 22.60002 32.16318 27.38160
#
# Velocity S-wave (km/s) = 3.32331 3.96457 3.65802
# Velocity P-wave (km/s) = 6.54527 7.43836 7.00606
#
# Compressibility (1/GPa) = 0.01738203
#
# Stress axis : x y z
#
# Youngs Moduli (GPa) = 116.93720 78.11219 71.33462
#
# Poissons Ratio (x) = 0.35129 0.01097
# Poissons Ratio (y) = 0.52590 0.30988
# Poissons Ratio (z) = 0.01798 0.33932
#
# Static dielectric constant tensor:
#      x y z
#    x 4.132680 0.000000 -0.486330 
#    y 0.000000 4.017040 0.000000 
#    z -0.486330 0.000000 3.560900 
# 
# 
# High freq. dielectric constant tensor:
#      x y z
#    x 1.811240 0.000000 -0.034120 
#    y 0.000000 1.813020 0.000000 
#    z -0.034120 0.000000 1.772760 
# 
# From -- ./inp_files/82161.got.cif
#   From: 2010.06.25/outbox.cif.g09.slc.cpg/sg15_42_cif.got.tgz:82161.got - 2010.06.28 07:06:18.
