data_PCOD8134758
_publ_section_title
;
Structure prediction by ZEFSAII (Michael W. Deem and Ramdas Pophale) SiO2 
 PCOD8134758
Probable space group: C 2/C
;
_chemical_formula_sum "Si O2"
_cell_formula_units_Z 32
_cell_length_a 13.801077
_cell_length_b 5.066661
_cell_length_c 16.445896
_cell_angle_alpha 90.000000
_cell_angle_beta 76.797997
_cell_angle_gamma 90.000000
_cell_volume 1119.592445
_symmetry_space_group_name_H-M "C 2/C"
_symmetry_group_IT_number 15
_symmetry_cell_setting 'monoclinic'
loop_
_space_group_symop_operation_xyz
x,y,z
-x,y,1/2-z
-x,-y,-z
x,-y,1/2+z
1/2+x,1/2+y,z
1/2-x,1/2+y,1/2-z
1/2-x,1/2-y,-z
1/2+x,1/2-y,1/2+z
loop_
_atom_site_type_symbol
_atom_site_label
_atom_site_fract_x
_atom_site_fract_y
_atom_site_fract_z
Si Si1 0.291098 0.060383 0.281400
Si Si2 0.458109 0.252834 0.681007
Si Si3 0.653077 0.082301 0.553775
Si Si4 0.614161 0.569148 0.462426
O O1 0.223898 0.865394 0.238495
O O2 0.404569 0.991851 0.235970
O O3 0.277217 0.006567 0.382361
O O4 0.500000 0.426713 0.750000
O O5 0.542833 0.143015 0.606389
O O6 0.378449 0.415990 0.639337
O O7 0.684056 0.351091 0.496273
O O8 0.644635 0.850278 0.491043
O O9 0.500000 0.500000 0.500000
#
# Coordination Sequence:
#
# PCOD8134758 Si02
#       4
#     8   8   8   8
#     4  11  24  41  58  84 120 156 192 236 286 341
#     4   9  20  38  62  86 113 152 195 236 285 342
#     4  10  21  39  62  87 115 150 193 239 286 341
#     4  10  19  36  61  91 115 144 191 245 286 334
#
# _framework density 28.58183
#
# number of rings (size 3 to 8) (size 9 to 14) (size 15 to 20)
#    0.000    2.000    0.000    4.500    0.000    6.000 
#    0.000   27.500    0.000    0.000    0.000    0.000 
#    0.000    0.000    0.000    0.000    0.000    0.000 
#
# Total GULP energy -198403.332928 kJ/mol
# GULP energy per Si atom -12400.208308 kJ/mol
# Density = 2.851678 g / cm^3
# Si number density = 28.581830 Si / 1000 Ang^3
#
#
#
# Elastic Constant Matrix: (Units=GPa)
#
#
# Indices 1 2 3 4 5 6 
#
# 1 107.2659 28.6006 81.6923 0.0000 41.6779 0.0000
# 2 28.6006 141.3771 82.4811 -0.0002 22.6920 -0.0001
# 3 81.6923 82.4811 247.3744 0.0000 29.2169 0.0000
# 4 0.0000 -0.0002 0.0000 46.9998 0.0000 16.0816
# 5 41.6779 22.6920 29.2169 0.0000 66.3605 0.0000
# 6 0.0000 -0.0001 0.0000 16.0816 0.0000 43.6847
#
#
#
# Elastic Compliance Matrix: (Units=1/GPa)
#
#
# Indices 1 2 3 4 5 6 
#
# 1 0.015690 0.000738 -0.004466 0.000000 -0.008140 0.000000
# 2 0.000738 0.009027 -0.002990 0.000000 -0.002234 0.000000
# 3 -0.004466 -0.002990 0.006395 0.000000 0.001012 0.000000
# 4 0.000000 0.000000 0.000000 0.024343 0.000000 -0.008961
# 5 -0.008140 -0.002234 0.001012 0.000000 0.020500 0.000000
# 6 0.000000 0.000000 0.000000 -0.008961 0.000000 0.026190
#
#
# Mechanical properties :
#
#
# Convention : Reuss Voigt Hill
#
# Bulk Modulus (GPa) = 56.57380 97.95171 77.26276
# Shear Modulus (GPa) = 41.16173 51.62522 46.39348
#
# Velocity S-wave (km/s) = 3.79903 4.25458 4.03324
# Velocity P-wave (km/s) = 6.25141 7.64724 6.98428
#
# Compressibility (1/GPa) = 0.01767603
#
# Stress axis : x y z
#
# Youngs Moduli (GPa) = 63.73478 110.78211 156.38099
#
# Poissons Ratio (x) = -0.08176 0.69841
# Poissons Ratio (y) = -0.04704 0.46752
# Poissons Ratio (z) = 0.28465 0.33120
#
# Static dielectric constant tensor:
#      x y z
#    x 6.335560 0.000000 0.248180 
#    y 0.000000 4.815230 0.000000 
#    z 0.248180 0.000000 6.565440 
# 
# 
# High freq. dielectric constant tensor:
#      x y z
#    x 2.252150 0.000000 -0.017870 
#    y 0.000000 2.122160 0.000000 
#    z -0.017870 0.000000 2.204220 
# 
# From -- ./inp_files/158027.got.cif
#   From: 2010.06.25/outbox.cif.g09.slc.cpg/sg15_80_cif.got.tgz:158027.got - 2010.06.28 07:06:18.
