data_PCOD8134085
_publ_section_title
;
Structure prediction by ZEFSAII (Michael W. Deem and Ramdas Pophale) SiO2 
 PCOD8134085
Probable space group: C 2/C
;
_chemical_formula_sum "Si O2"
_cell_formula_units_Z 56
_cell_length_a 8.177903
_cell_length_b 24.528434
_cell_length_c 16.608714
_cell_angle_alpha 90.000000
_cell_angle_beta 60.321878
_cell_angle_gamma 90.000000
_cell_volume 2894.529049
_symmetry_space_group_name_H-M "C 2/C"
_symmetry_group_IT_number 15
_symmetry_cell_setting 'monoclinic'
loop_
_space_group_symop_operation_xyz
x,y,z
-x,y,1/2-z
-x,-y,-z
x,-y,1/2+z
1/2+x,1/2+y,z
1/2-x,1/2+y,1/2-z
1/2-x,1/2-y,-z
1/2+x,1/2-y,1/2+z
loop_
_atom_site_type_symbol
_atom_site_label
_atom_site_fract_x
_atom_site_fract_y
_atom_site_fract_z
Si Si1 0.553717 0.524111 0.145402
Si Si2 0.676159 0.876340 0.965251
Si Si3 0.633110 0.784919 0.841909
Si Si4 0.812207 0.561120 0.340887
Si Si5 0.649023 0.705330 0.972521
Si Si6 0.361445 0.048580 0.516652
Si Si7 0.752210 0.186129 0.146180
O O1 0.500000 0.531053 0.250000
O O2 0.687477 0.573669 0.087582
O O3 0.362544 0.522927 0.140532
O O4 0.659745 0.466021 0.105303
O O5 0.693466 0.832336 0.889323
O O6 0.741244 0.851161 0.035547
O O7 0.459339 0.896583 0.028060
O O8 0.419962 0.793606 0.865668
O O9 0.764322 0.784470 0.730545
O O10 0.653755 0.725184 0.878556
O O11 0.841401 0.556745 0.427542
O O12 0.767348 0.622774 0.326942
O O13 0.000000 0.540685 0.250000
O O14 0.434306 0.699426 0.050942
O O15 0.750000 0.750000 0.000000
O O16 0.500000 0.000000 0.500000
#
# Coordination Sequence:
#
# PCOD8134085 Si02
#       7
#     8   8   8   8   8   8   8
#     4  11  22  35  60  89 122 154 199 248 300 356
#     4  10  19  35  55  86 120 155 197 245 297 350
#     4  10  20  35  58  90 117 151 197 247 300 355
#     4  12  20  36  61  92 117 152 196 251 306 353
#     4  10  22  34  55  89 118 156 193 245 301 352
#     4  10  21  37  56  87 120 156 194 245 298 354
#     4  11  19  35  59  86 118 150 197 249 296 354
#
# _framework density 19.346844000000001
#
# number of rings (size 3 to 8) (size 9 to 14) (size 15 to 20)
#    0.000    1.429    4.286    3.429    0.000    1.714 
#    0.000    0.000    0.000    5.143   29.714    0.000 
#    0.000    0.000    0.000    0.000    0.000    0.000 
#
# Total GULP energy -347065.262518 kJ/mol
# GULP energy per Si atom -12395.187947 kJ/mol
# Density = 1.930281 g / cm^3
# Si number density = 19.346844 Si / 1000 Ang^3
#
#
#
# Elastic Constant Matrix: (Units=GPa)
#
#
# Indices 1 2 3 4 5 6 
#
# 1 103.9954 34.3140 44.1203 0.0000 -4.8567 0.0000
# 2 34.3140 62.7711 51.3040 0.0000 -2.3956 0.0000
# 3 44.1203 51.3040 68.7986 0.0000 0.9276 0.0000
# 4 0.0000 0.0000 0.0000 46.0703 0.0000 -11.3727
# 5 -4.8567 -2.3956 0.9276 0.0000 26.8222 0.0000
# 6 0.0000 0.0000 0.0000 -11.3727 0.0000 -10.7663
#
#
#
# Elastic Compliance Matrix: (Units=1/GPa)
#
#
# Indices 1 2 3 4 5 6 
#
# 1 0.013411 -0.000436 -0.008311 0.000000 0.002677 0.000000
# 2 -0.000436 0.041409 -0.030663 0.000000 0.004680 0.000000
# 3 -0.008311 -0.030663 0.042808 0.000000 -0.005724 0.000000
# 4 0.000000 0.000000 0.000000 0.017217 0.000000 -0.018186
# 5 0.002677 0.004680 -0.005724 0.000000 0.038383 0.000000
# 6 0.000000 0.000000 0.000000 -0.018186 0.000000 -0.073672
#
#
# Mechanical properties :
#
#
# Convention : Reuss Voigt Hill
#
# Bulk Modulus (GPa) = 53.16943 55.00462 54.08702
# Shear Modulus (GPa) = 30.36825 19.48035 24.92430
#
# Velocity S-wave (km/s) = 3.96621 3.17661 3.59317
# Velocity P-wave (km/s) = 6.96537 6.47665 6.72545
#
# Compressibility (1/GPa) = 0.01880780
#
# Stress axis : x y z
#
# Youngs Moduli (GPa) = 74.56717 24.14923 23.36006
#
# Poissons Ratio (x) = 0.01053 0.19415
# Poissons Ratio (y) = 0.03250 0.71629
# Poissons Ratio (z) = 0.61975 0.74049
#
# Static dielectric constant tensor:
#      x y z
#    x 4.228190 0.000000 -0.069950 
#    y 0.000000 3.867110 0.000000 
#    z -0.069950 0.000000 3.619910 
# 
# 
# High freq. dielectric constant tensor:
#      x y z
#    x 1.780560 0.000000 0.004600 
#    y 0.000000 1.731560 0.000000 
#    z 0.004600 0.000000 1.735070 
# 
# From -- ./inp_files/138523.got.cif
#   From: 2010.06.25/outbox.cif.g09.slc.cpg/sg15_70_cif.got.tgz:138523.got - 2010.06.28 07:06:18.
