data_PCOD8134641
_publ_section_title
;
Structure prediction by ZEFSAII (Michael W. Deem and Ramdas Pophale) SiO2 
 PCOD8134641
Probable space group: C 2/C
;
_chemical_formula_sum "Si O2"
_cell_formula_units_Z 48
_cell_length_a 13.452251
_cell_length_b 19.197592
_cell_length_c 17.520242
_cell_angle_alpha 90.000000
_cell_angle_beta 147.282242
_cell_angle_gamma 90.000000
_cell_volume 2445.560489
_symmetry_space_group_name_H-M "C 2/C"
_symmetry_group_IT_number 15
_symmetry_cell_setting 'monoclinic'
loop_
_space_group_symop_operation_xyz
x,y,z
-x,y,1/2-z
-x,-y,-z
x,-y,1/2+z
1/2+x,1/2+y,z
1/2-x,1/2+y,1/2-z
1/2-x,1/2-y,-z
1/2+x,1/2-y,1/2+z
loop_
_atom_site_type_symbol
_atom_site_label
_atom_site_fract_x
_atom_site_fract_y
_atom_site_fract_z
Si Si1 0.283210 0.400888 0.117023
Si Si2 0.407999 0.839142 0.368126
Si Si3 0.281729 0.778512 0.832992
Si Si4 0.500000 0.026675 0.250000
Si Si5 0.688418 0.046256 0.995678
Si Si6 0.000000 0.136895 0.250000
Si Si7 0.519528 0.156329 0.179544
O O1 0.500000 0.398377 0.250000
O O2 0.242094 0.370168 0.172775
O O3 0.207308 0.480027 0.064056
O O4 0.183129 0.352051 0.989122
O O5 0.543098 0.783326 0.497648
O O6 0.294889 0.799732 0.228245
O O7 0.519046 0.904887 0.408970
O O8 0.335988 0.808045 0.784162
O O9 0.115061 0.819479 0.763664
O O10 0.342272 0.979341 0.110709
O O11 0.592726 0.077510 0.245672
O O12 0.874100 0.089699 0.115088
O O13 0.500000 0.196370 0.250000
#
# Coordination Sequence:
#
# PCOD8134641 Si02
#       7
#     8   8   8   4   8   4   8
#     4  10  19  36  59  87 111 145 194 235 286 340
#     4  10  23  37  58  82 116 154 189 234 282 338
#     4  10  22  40  55  83 115 154 193 227 285 334
#     4   8  18  35  58  81 110 148 182 232 292 332
#     4  10  19  37  58  84 112 148 189 239 286 333
#     4  10  22  37  60  81 116 152 192 240 274 336
#     4   8  18  37  58  80 116 151 178 237 287 334
#
# _framework density 19.627403000000001
#
# number of rings (size 3 to 8) (size 9 to 14) (size 15 to 20)
#    0.500    2.000    0.833    0.500    0.000    8.000 
#    0.000    4.167    0.000    0.000    0.000    0.000 
#    0.000    0.000    0.000    0.000    0.000    0.000 
#
# Total GULP energy -297328.699542 kJ/mol
# GULP energy per Si atom -12388.695814 kJ/mol
# Density = 1.958273 g / cm^3
# Si number density = 19.627403 Si / 1000 Ang^3
#
#
#
# Elastic Constant Matrix: (Units=GPa)
#
#
# Indices 1 2 3 4 5 6 
#
# 1 68.9136 7.4722 26.0501 0.0420 12.1947 0.0185
# 2 7.4722 52.6516 34.4474 0.1732 11.9630 0.0680
# 3 26.0501 34.4474 79.3620 0.1203 11.8644 0.0469
# 4 0.0420 0.1732 0.1203 22.2300 -0.0058 -19.5001
# 5 12.1947 11.9630 11.8644 -0.0058 28.8663 -0.0022
# 6 0.0185 0.0680 0.0469 -19.5001 -0.0022 13.8273
#
#
#
# Elastic Compliance Matrix: (Units=1/GPa)
#
#
# Indices 1 2 3 4 5 6 
#
# 1 0.017591 0.002894 -0.006116 0.000169 -0.006117 0.000220
# 2 0.002894 0.028259 -0.012024 0.001068 -0.007992 0.001403
# 3 -0.006116 -0.012024 0.019920 0.000013 -0.000620 0.000018
# 4 0.000169 0.001068 0.000013 -0.189690 -0.000578 -0.267518
# 5 -0.006117 -0.007992 -0.000620 -0.000578 0.040793 -0.000760
# 6 0.000220 0.001403 0.000018 -0.267518 -0.000760 -0.304956
#
#
# Mechanical properties :
#
#
# Convention : Reuss Voigt Hill
#
# Bulk Modulus (GPa) = 28.34588 37.42964 32.88776
# Shear Modulus (GPa) = -14.45792 21.84855 3.69532
#
# Velocity S-wave (km/s) = -2.71702 3.34003 1.37362
# Velocity P-wave (km/s) = 2.15184 5.82974 4.39411
#
# Compressibility (1/GPa) = 0.03527850
#
# Stress axis : x y z
#
# Youngs Moduli (GPa) = 56.84565 35.38690 50.20126
#
# Poissons Ratio (x) = -0.10242 0.30705
# Poissons Ratio (y) = -0.16452 0.60360
# Poissons Ratio (z) = 0.34769 0.42548
#
# Static dielectric constant tensor:
#      x y z
#    x 3.559700 -0.000010 -0.187630 
#    y -0.000010 3.608180 -0.000010 
#    z -0.187630 -0.000010 3.667890 
# 
# 
# High freq. dielectric constant tensor:
#      x y z
#    x 1.748080 0.000000 -0.007520 
#    y 0.000000 1.763440 0.000000 
#    z -0.007520 0.000000 1.767410 
# 
# From -- ./inp_files/244959.got.cif
#   From: 2010.06.25/outbox.cif.g09.slc.cpg/sg15_123_cif.got.tgz:244959.got - 2010.06.28 07:06:18.
