data_PCOD8134139
_publ_section_title
;
Structure prediction by ZEFSAII (Michael W. Deem and Ramdas Pophale) SiO2 
 PCOD8134139
Probable space group: C 2/C
;
_chemical_formula_sum "Si O2"
_cell_formula_units_Z 56
_cell_length_a 11.738759
_cell_length_b 13.526127
_cell_length_c 19.805364
_cell_angle_alpha 90.000000
_cell_angle_beta 56.445301
_cell_angle_gamma 90.000000
_cell_volume 2620.658045
_symmetry_space_group_name_H-M "C 2/C"
_symmetry_group_IT_number 15
_symmetry_cell_setting 'monoclinic'
loop_
_space_group_symop_operation_xyz
x,y,z
-x,y,1/2-z
-x,-y,-z
x,-y,1/2+z
1/2+x,1/2+y,z
1/2-x,1/2+y,1/2-z
1/2-x,1/2-y,-z
1/2+x,1/2-y,1/2+z
loop_
_atom_site_type_symbol
_atom_site_label
_atom_site_fract_x
_atom_site_fract_y
_atom_site_fract_z
Si Si1 0.279110 0.551437 0.674267
Si Si2 0.744906 0.467778 0.169811
Si Si3 0.000330 0.405447 0.603337
Si Si4 0.299996 0.433628 0.460010
Si Si5 0.500000 0.956765 0.750000
Si Si6 0.478695 0.302539 0.043604
Si Si7 0.500000 0.382307 0.750000
Si Si8 0.001772 0.114894 0.103740
O O1 0.272200 0.591054 0.754195
O O2 0.343408 0.638071 0.608796
O O3 0.366024 0.450787 0.639569
O O4 0.128872 0.528707 0.695969
O O5 0.714832 0.400554 0.113944
O O6 0.636557 0.554924 0.207096
O O7 0.897794 0.509874 0.111774
O O8 0.153514 0.442298 0.542223
O O9 0.978021 0.388190 0.691140
O O10 0.964566 0.308472 0.572841
O O11 0.386438 0.349116 0.467819
O O12 0.369727 0.540605 0.443607
O O13 0.491366 0.304630 0.958047
O O14 0.497677 0.325929 0.823714
#
# Coordination Sequence:
#
# PCOD8134139 Si02
#       8
#     8   8   8   8   4   8   4   8
#     4   9  18  34  55  79 105 145 187 216 260 324
#     4   9  19  35  56  77 107 147 185 216 256 330
#     4  11  22  34  52  85 114 137 176 234 279 306
#     4  10  19  35  57  78 106 147 182 212 267 332
#     4  10  20  36  56  74 108 150 182 220 270 328
#     4  11  21  33  54  85 112 136 177 233 273 313
#     4   8  16  34  56  74  96 142 188 212 252 314
#     4   9  17  33  57  79 103 140 185 220 257 330
#
# _framework density 21.368679
#
# number of rings (size 3 to 8) (size 9 to 14) (size 15 to 20)
#    0.000    2.286    0.000    5.143    0.000    1.143 
#    0.000    6.429    0.000    0.000    0.000    0.000 
#    0.000    0.000    0.000    0.000    0.000    0.000 
#
# Total GULP energy -347017.664757 kJ/mol
# GULP energy per Si atom -12393.488027 kJ/mol
# Density = 2.132004 g / cm^3
# Si number density = 21.368679 Si / 1000 Ang^3
#
#
#
# Elastic Constant Matrix: (Units=GPa)
#
#
# Indices 1 2 3 4 5 6 
#
# 1 100.4829 26.1694 59.5438 0.0000 -8.3744 0.0000
# 2 26.1694 29.3826 32.7863 0.0000 9.3212 0.0000
# 3 59.5438 32.7863 147.5519 0.0000 21.8049 0.0000
# 4 0.0000 0.0000 0.0000 15.5007 0.0000 6.0689
# 5 -8.3744 9.3212 21.8049 0.0000 62.3837 0.0000
# 6 0.0000 0.0000 0.0000 6.0689 0.0000 12.3996
#
#
#
# Elastic Compliance Matrix: (Units=1/GPa)
#
#
# Indices 1 2 3 4 5 6 
#
# 1 0.016089 -0.010528 -0.004961 0.000000 0.005467 0.000000
# 2 -0.010528 0.052848 -0.006452 0.000000 -0.007055 0.000000
# 3 -0.004961 -0.006452 0.010723 0.000000 -0.003450 0.000000
# 4 0.000000 0.000000 0.000000 0.079807 0.000000 -0.039061
# 5 0.005467 -0.007055 -0.003450 0.000000 0.019024 0.000000
# 6 0.000000 0.000000 0.000000 -0.039061 0.000000 0.099766
#
#
# Mechanical properties :
#
#
# Convention : Reuss Voigt Hill
#
# Bulk Modulus (GPa) = 27.95066 57.15736 42.55401
# Shear Modulus (GPa) = 14.96713 28.65132 21.80922
#
# Velocity S-wave (km/s) = 2.64942 3.66568 3.19817
# Velocity P-wave (km/s) = 4.74003 6.68749 5.79614
#
# Compressibility (1/GPa) = 0.03577733
#
# Stress axis : x y z
#
# Youngs Moduli (GPa) = 62.15239 18.92233 93.25921
#
# Poissons Ratio (x) = 0.19922 0.46269
# Poissons Ratio (y) = 0.65436 0.60168
# Poissons Ratio (z) = 0.30836 0.12208
#
# Static dielectric constant tensor:
#      x y z
#    x 4.106740 0.000000 0.145680 
#    y 0.000000 3.078640 0.000000 
#    z 0.145680 0.000000 4.455210 
# 
# 
# High freq. dielectric constant tensor:
#      x y z
#    x 1.859730 0.000000 0.003660 
#    y 0.000000 1.761990 0.000000 
#    z 0.003660 0.000000 1.868920 
# 
# From -- ./inp_files/144278.got.cif
#   From: 2010.06.25/outbox.cif.g09.slc.cpg/sg15_73_cif.got.tgz:144278.got - 2010.06.28 07:06:18.
