data_PCOD8134564
_publ_section_title
;
Structure prediction by ZEFSAII (Michael W. Deem and Ramdas Pophale) SiO2 
 PCOD8134564
Probable space group: C 2/C
;
_chemical_formula_sum "Si O2"
_cell_formula_units_Z 48
_cell_length_a 11.136964
_cell_length_b 24.818732
_cell_length_c 10.700435
_cell_angle_alpha 90.000000
_cell_angle_beta 54.957634
_cell_angle_gamma 90.000000
_cell_volume 2421.515895
_symmetry_space_group_name_H-M "C 2/C"
_symmetry_group_IT_number 15
_symmetry_cell_setting 'monoclinic'
loop_
_space_group_symop_operation_xyz
x,y,z
-x,y,1/2-z
-x,-y,-z
x,-y,1/2+z
1/2+x,1/2+y,z
1/2-x,1/2+y,1/2-z
1/2-x,1/2-y,-z
1/2+x,1/2-y,1/2+z
loop_
_atom_site_type_symbol
_atom_site_label
_atom_site_fract_x
_atom_site_fract_y
_atom_site_fract_z
Si Si1 0.774441 0.809742 0.033711
Si Si2 0.604367 0.357701 0.291665
Si Si3 0.107215 0.530980 0.288815
Si Si4 0.076815 0.057445 0.443509
Si Si5 0.000000 0.880260 0.750000
Si Si6 0.626060 0.074098 0.908853
Si Si7 0.000000 0.627993 0.750000
O O1 0.834537 0.814784 0.142215
O O2 0.615713 0.834838 0.110622
O O3 0.750000 0.750000 0.000000
O O4 0.879473 0.841273 0.878779
O O5 0.500000 0.328447 0.250000
O O6 0.504031 0.402733 0.415076
O O7 0.734726 0.388820 0.138462
O O8 0.249181 0.553650 0.130058
O O9 0.161879 0.489563 0.364658
O O10 0.000000 0.503797 0.250000
O O11 0.008663 0.578688 0.412311
O O12 0.070804 0.080109 0.307689
O O13 0.000000 0.000000 0.500000
O O14 0.583923 0.091510 0.796298
#
# Coordination Sequence:
#
# PCOD8134564 Si02
#       7
#     8   8   8   8   4   8   4
#     4  10  21  39  65  86 110 149 198 259 307 356
#     4  10  21  38  57  86 118 150 195 245 304 359
#     4  11  21  32  49  75 115 158 202 224 271 333
#     4  11  22  34  55  83 122 167 195 241 290 357
#     4  10  23  38  58  90 118 150 208 243 296 368
#     4  10  20  33  51  76 110 155 187 238 272 339
#     4  10  19  36  58  80 110 136 198 235 300 338
#
# _framework density 19.822295
#
# number of rings (size 3 to 8) (size 9 to 14) (size 15 to 20)
#    0.000    1.667    2.500    2.500    1.167    2.667 
#    0.000    0.000    0.000   20.000    0.000    0.000 
#    0.000    0.000    0.000    0.000    0.000    0.000 
#
# Total GULP energy -297415.575557 kJ/mol
# GULP energy per Si atom -12392.315648 kJ/mol
# Density = 1.977718 g / cm^3
# Si number density = 19.822295 Si / 1000 Ang^3
#
#
#
# Elastic Constant Matrix: (Units=GPa)
#
#
# Indices 1 2 3 4 5 6 
#
# 1 97.4696 33.2790 26.2044 0.0000 -13.9779 0.0000
# 2 33.2790 84.6143 33.4282 0.0000 -3.7801 0.0000
# 3 26.2044 33.4282 112.6080 0.0000 -28.3959 0.0000
# 4 0.0000 0.0000 0.0000 26.1379 0.0000 2.3001
# 5 -13.9779 -3.7801 -28.3959 0.0000 38.9416 0.0000
# 6 0.0000 0.0000 0.0000 2.3001 0.0000 19.2454
#
#
#
# Elastic Compliance Matrix: (Units=1/GPa)
#
#
# Indices 1 2 3 4 5 6 
#
# 1 0.012482 -0.004482 -0.000679 0.000000 0.003550 0.000000
# 2 -0.004482 0.015121 -0.004266 0.000000 -0.003252 0.000000
# 3 -0.000679 -0.004266 0.012423 0.000000 0.008401 0.000000
# 4 0.000000 0.000000 0.000000 0.038665 0.000000 -0.004621
# 5 0.003550 -0.003252 0.008401 0.000000 0.032764 0.000000
# 6 0.000000 0.000000 0.000000 -0.004621 0.000000 0.052513
#
#
# Mechanical properties :
#
#
# Convention : Reuss Voigt Hill
#
# Bulk Modulus (GPa) = 47.23105 53.39055 50.31080
# Shear Modulus (GPa) = 26.33256 30.31699 28.32478
#
# Velocity S-wave (km/s) = 3.64872 3.91505 3.78423
# Velocity P-wave (km/s) = 6.45212 6.88693 6.67307
#
# Compressibility (1/GPa) = 0.02117251
#
# Stress axis : x y z
#
# Youngs Moduli (GPa) = 80.11798 66.13235 80.49549
#
# Poissons Ratio (x) = 0.29643 0.05463
# Poissons Ratio (y) = 0.35911 0.34337
# Poissons Ratio (z) = 0.05438 0.28210
#
# Static dielectric constant tensor:
#      x y z
#    x 3.896430 0.000000 -0.151510 
#    y 0.000000 3.314000 0.000000 
#    z -0.151510 0.000000 3.840270 
# 
# 
# High freq. dielectric constant tensor:
#      x y z
#    x 1.780900 0.000000 -0.009980 
#    y 0.000000 1.733730 0.000000 
#    z -0.009980 0.000000 1.790330 
# 
# From -- ./inp_files/33450.got.cif
#   From: 2010.06.25/outbox.cif.g09.slc.cpg/sg15_17_cif.got.tgz:33450.got - 2010.06.28 07:06:18.
