data_PCOD8134652
_publ_section_title
;
Structure prediction by ZEFSAII (Michael W. Deem and Ramdas Pophale) SiO2 
 PCOD8134652
Probable space group: C 2/C
;
_chemical_formula_sum "Si O2"
_cell_formula_units_Z 56
_cell_length_a 17.748400
_cell_length_b 9.822233
_cell_length_c 17.652925
_cell_angle_alpha 90.000000
_cell_angle_beta 63.630908
_cell_angle_gamma 90.000000
_cell_volume 2757.214861
_symmetry_space_group_name_H-M "C 2/C"
_symmetry_group_IT_number 15
_symmetry_cell_setting 'monoclinic'
loop_
_space_group_symop_operation_xyz
x,y,z
-x,y,1/2-z
-x,-y,-z
x,-y,1/2+z
1/2+x,1/2+y,z
1/2-x,1/2+y,1/2-z
1/2-x,1/2-y,-z
1/2+x,1/2-y,1/2+z
loop_
_atom_site_type_symbol
_atom_site_label
_atom_site_fract_x
_atom_site_fract_y
_atom_site_fract_z
Si Si1 0.307204 0.020216 0.885052
Si Si2 0.119203 0.790247 0.861750
Si Si3 0.954099 0.870609 0.990712
Si Si4 0.207579 0.778368 0.154449
Si Si5 0.176301 0.961248 0.573446
Si Si6 0.903198 0.748052 0.791911
Si Si7 0.832132 0.099104 0.666816
O O1 0.392797 0.110034 0.846797
O O2 0.255462 0.077946 0.836663
O O3 0.329943 0.862971 0.860329
O O4 0.260500 0.050493 0.985479
O O5 0.190626 0.736605 0.887717
O O6 0.123905 0.710483 0.781112
O O7 0.026347 0.760915 0.938115
O O8 0.128689 0.950033 0.836947
O O9 0.904640 0.926536 0.940154
O O10 0.892445 0.813070 0.083558
O O11 0.000000 0.000000 0.000000
O O12 0.176871 0.887427 0.107181
O O13 0.174886 0.815796 0.252747
O O14 0.166981 0.856559 0.647203
O O15 0.000000 0.800377 0.750000
#
# Coordination Sequence:
#
# PCOD8134652 Si02
#       7
#     8   8   8   8   8   8   8
#     4  10  23  39  56  90 130 155 196 258 311 357
#     4  10  19  36  59  90 119 153 196 257 303 356
#     4   9  19  36  58  91 123 149 198 261 304 350
#     4  11  21  38  66  93 120 159 210 255 307 367
#     4  11  22  39  65  92 115 164 218 248 298 380
#     4  12  22  38  61  86 122 160 207 248 305 370
#     4   9  18  35  61  86 114 157 198 245 298 361
#
# _framework density 20.310351000000001
#
# number of rings (size 3 to 8) (size 9 to 14) (size 15 to 20)
#    0.000    1.714    4.286    1.714    0.000    0.000 
#    0.000    5.000    0.000    1.714    0.000    0.000 
#    0.000    0.000    0.000    0.000    0.000    0.000 
#
# Total GULP energy -346907.945437 kJ/mol
# GULP energy per Si atom -12389.569480 kJ/mol
# Density = 2.026412 g / cm^3
# Si number density = 20.310351 Si / 1000 Ang^3
#
#
#
# Elastic Constant Matrix: (Units=GPa)
#
#
# Indices 1 2 3 4 5 6 
#
# 1 45.5031 18.2925 25.4122 0.0000 -12.0446 0.0000
# 2 18.2925 91.8227 43.1260 0.0000 -22.0595 0.0000
# 3 25.4122 43.1260 129.4485 0.0000 -19.5405 0.0000
# 4 0.0000 0.0000 0.0000 22.2563 0.0000 -5.1008
# 5 -12.0446 -22.0595 -19.5405 0.0000 23.4146 0.0000
# 6 0.0000 0.0000 0.0000 -5.1008 0.0000 19.7576
#
#
#
# Elastic Compliance Matrix: (Units=1/GPa)
#
#
# Indices 1 2 3 4 5 6 
#
# 1 0.027008 -0.001477 -0.003344 0.000000 0.009711 0.000000
# 2 -0.001477 0.015315 -0.003145 0.000000 0.011044 0.000000
# 3 -0.003344 -0.003145 0.009980 0.000000 0.003645 0.000000
# 4 0.000000 0.000000 0.000000 0.047757 0.000000 0.012329
# 5 0.009711 0.011044 0.003645 0.000000 0.061151 0.000000
# 6 0.000000 0.000000 0.000000 0.012329 0.000000 0.053796
#
#
# Mechanical properties :
#
#
# Convention : Reuss Voigt Hill
#
# Bulk Modulus (GPa) = 27.49457 48.93728 38.21593
# Shear Modulus (GPa) = 20.57077 25.08194 22.82635
#
# Velocity S-wave (km/s) = 3.18594 3.51798 3.35607
# Velocity P-wave (km/s) = 5.20579 6.37562 5.82017
#
# Compressibility (1/GPa) = 0.03637082
#
# Stress axis : x y z
#
# Youngs Moduli (GPa) = 37.02561 65.29423 100.20412
#
# Poissons Ratio (x) = 0.09643 0.33510
# Poissons Ratio (y) = 0.05468 0.31516
# Poissons Ratio (z) = 0.12382 0.20536
#
# Static dielectric constant tensor:
#      x y z
#    x 3.722570 0.000000 -0.395630 
#    y 0.000000 3.479000 0.000000 
#    z -0.395630 0.000000 4.522410 
# 
# 
# High freq. dielectric constant tensor:
#      x y z
#    x 1.778220 0.000000 -0.001740 
#    y 0.000000 1.763660 0.000000 
#    z -0.001740 0.000000 1.815570 
# 
# From -- ./inp_files/213806.got.cif
#   From: 2010.06.25/outbox.cif.g09.slc.cpg/sg15_107_cif.got.tgz:213806.got - 2010.06.28 07:06:18.
