data_PCOD8134770
_publ_section_title
;
Structure prediction by ZEFSAII (Michael W. Deem and Ramdas Pophale) SiO2 
 PCOD8134770
Probable space group: C 2/C
;
_chemical_formula_sum "Si O2"
_cell_formula_units_Z 36
_cell_length_a 9.599595
_cell_length_b 35.099414
_cell_length_c 5.419033
_cell_angle_alpha 90.000000
_cell_angle_beta 68.730395
_cell_angle_gamma 90.000000
_cell_volume 1701.517161
_symmetry_space_group_name_H-M "C 2/C"
_symmetry_group_IT_number 15
_symmetry_cell_setting 'monoclinic'
loop_
_space_group_symop_operation_xyz
x,y,z
-x,y,1/2-z
-x,-y,-z
x,-y,1/2+z
1/2+x,1/2+y,z
1/2-x,1/2+y,1/2-z
1/2-x,1/2-y,-z
1/2+x,1/2-y,1/2+z
loop_
_atom_site_type_symbol
_atom_site_label
_atom_site_fract_x
_atom_site_fract_y
_atom_site_fract_z
Si Si1 0.500000 0.716718 0.250000
Si Si2 0.500000 0.139028 0.750000
Si Si3 0.500000 0.234955 0.250000
Si Si4 0.321665 0.980150 0.877388
Si Si5 0.782419 0.676349 0.246044
Si Si6 0.334826 0.896584 0.966808
O O1 0.486368 0.740392 0.510083
O O2 0.644262 0.689644 0.170760
O O3 0.570937 0.167190 0.507545
O O4 0.365756 0.111532 0.736533
O O5 0.346332 0.210275 0.378011
O O6 0.500000 0.980612 0.750000
O O7 0.259255 0.937310 0.961185
O O8 0.261738 0.995674 0.652236
O O9 0.734290 0.638088 0.425925
O O10 0.500000 0.895516 0.750000
#
# Coordination Sequence:
#
# PCOD8134770 Si02
#       6
#     4   4   4   8   8   8
#     4  12  29  40  64  90 120 148 202 256 298 340
#     4  10  19  36  62  81 118 156 208 228 297 350
#     4  12  24  44  62  87 118 158 192 248 307 356
#     4   9  18  28  45  79 117 148 184 235 287 334
#     4  11  23  41  61  88 116 159 201 242 294 359
#     4   9  19  32  56  79 115 160 194 234 288 355
#
# _framework density 21.157588000000001
#
# number of rings (size 3 to 8) (size 9 to 14) (size 15 to 20)
#    0.000    1.778    3.333    2.000   14.000    0.000 
#    0.000    0.000    0.000    0.000    0.000    1.556 
#    0.000    0.000    0.000    0.000    0.000    0.000 
#
# Total GULP energy -223018.860112 kJ/mol
# GULP energy per Si atom -12389.936673 kJ/mol
# Density = 2.110943 g / cm^3
# Si number density = 21.157588 Si / 1000 Ang^3
#
#
#
# Elastic Constant Matrix: (Units=GPa)
#
#
# Indices 1 2 3 4 5 6 
#
# 1 78.6926 56.7838 26.6117 0.0000 24.6292 0.0000
# 2 56.7838 180.5994 61.0990 0.0000 30.6649 0.0000
# 3 26.6117 61.0990 102.0738 0.0000 38.7098 0.0000
# 4 0.0000 0.0000 0.0000 21.5804 0.0000 7.8147
# 5 24.6292 30.6649 38.7098 0.0000 28.5103 0.0000
# 6 0.0000 0.0000 0.0000 7.8147 0.0000 3.8919
#
#
#
# Elastic Compliance Matrix: (Units=1/GPa)
#
#
# Indices 1 2 3 4 5 6 
#
# 1 0.020532 -0.004838 0.004733 0.000000 -0.018960 0.000000
# 2 -0.004838 0.008284 -0.003924 0.000000 0.000596 0.000000
# 3 0.004733 -0.003924 0.022391 0.000000 -0.030269 0.000000
# 4 0.000000 0.000000 0.000000 0.169810 0.000000 -0.340969
# 5 -0.018960 0.000596 -0.030269 0.000000 0.091912 0.000000
# 6 0.000000 0.000000 0.000000 -0.340969 0.000000 0.941590
#
#
# Mechanical properties :
#
#
# Convention : Reuss Voigt Hill
#
# Bulk Modulus (GPa) = 23.17452 72.26166 47.71809
# Shear Modulus (GPa) = 3.91555 25.25459 14.58507
#
# Velocity S-wave (km/s) = 1.36187 3.45866 2.62840
# Velocity P-wave (km/s) = 3.66742 7.08364 5.64039
#
# Compressibility (1/GPa) = 0.04315083
#
# Stress axis : x y z
#
# Youngs Moduli (GPa) = 48.70459 120.70940 44.66151
#
# Poissons Ratio (x) = 0.58394 -0.21139
# Poissons Ratio (y) = 0.23561 0.17523
# Poissons Ratio (z) = -0.23052 0.47361
#
# Static dielectric constant tensor:
#      x y z
#    x 3.610400 0.000000 0.697980 
#    y 0.000000 4.274010 0.000000 
#    z 0.697980 0.000000 4.213990 
# 
# 
# High freq. dielectric constant tensor:
#      x y z
#    x 1.774080 0.000000 0.042640 
#    y 0.000000 1.845330 0.000000 
#    z 0.042640 0.000000 1.820990 
# 
# From -- ./inp_files/5438.got.cif
#   From: 2010.06.25/outbox.cif.g09.slc.cpg/sg15_3_cif.got.tgz:5438.got - 2010.06.28 07:06:18.
