data_PCOD8134028
_publ_section_title
;
Structure prediction by ZEFSAII (Michael W. Deem and Ramdas Pophale) SiO2 
 PCOD8134028
Probable space group: C 2/C
;
_chemical_formula_sum "Si O2"
_cell_formula_units_Z 48
_cell_length_a 26.444122
_cell_length_b 13.305151
_cell_length_c 22.640883
_cell_angle_alpha 90.000000
_cell_angle_beta 20.261617
_cell_angle_gamma 90.000000
_cell_volume 2758.696555
_symmetry_space_group_name_H-M "C 2/C"
_symmetry_group_IT_number 15
_symmetry_cell_setting 'monoclinic'
loop_
_space_group_symop_operation_xyz
x,y,z
-x,y,1/2-z
-x,-y,-z
x,-y,1/2+z
1/2+x,1/2+y,z
1/2-x,1/2+y,1/2-z
1/2-x,1/2-y,-z
1/2+x,1/2-y,1/2+z
loop_
_atom_site_type_symbol
_atom_site_label
_atom_site_fract_x
_atom_site_fract_y
_atom_site_fract_z
Si Si1 0.464385 0.521766 0.947888
Si Si2 0.912777 0.848395 0.290234
Si Si3 0.605600 0.646946 0.361659
Si Si4 0.393743 0.123992 0.318897
Si Si5 0.432056 0.148151 0.041422
Si Si6 0.860577 0.477550 0.730519
O O1 0.550095 0.583979 0.805685
O O2 0.562761 0.424217 0.853675
O O3 0.454531 0.595007 0.014098
O O4 0.303809 0.486201 0.103136
O O5 0.745179 0.857107 0.488652
O O6 0.956639 0.732353 0.228831
O O7 0.000000 0.891824 0.250000
O O8 0.524402 0.751309 0.441994
O O9 0.779661 0.664064 0.173933
O O10 0.500000 0.070647 0.250000
O O11 0.368449 0.055626 0.289772
O O12 0.402735 0.113804 0.140836
O O13 0.525723 0.066990 0.902972
#
# Coordination Sequence:
#
# PCOD8134028 Si02
#       6
#     8   8   8   8   8   8
#     4  10  20  35  56  79 109 141 179 215 264 316
#     4  10  19  35  53  79 110 145 175 214 265 315
#     4  10  21  36  55  81 106 141 176 221 266 314
#     4  10  21  33  53  81 112 142 177 216 262 316
#     4  10  21  36  56  79 108 139 178 220 268 311
#     4  10  20  36  54  80 109 142 176 219 263 315
#
# _framework density 17.399521
#
# number of rings (size 3 to 8) (size 9 to 14) (size 15 to 20)
#    0.000    2.000    1.667    2.000    2.333    1.333 
#    0.000    0.000    0.000    2.000    0.000    0.000 
#    0.000    0.000    0.000    0.000    0.000    0.000 
#
# Total GULP energy -297563.819343 kJ/mol
# GULP energy per Si atom -12398.492473 kJ/mol
# Density = 1.735992 g / cm^3
# Si number density = 17.399521 Si / 1000 Ang^3
#
#
#
# Elastic Constant Matrix: (Units=GPa)
#
#
# Indices 1 2 3 4 5 6 
#
# 1 109.4127 46.8998 48.4347 0.0004 -17.3388 0.0001
# 2 46.8998 95.7962 53.4415 0.0011 -15.8994 0.0004
# 3 48.4347 53.4415 100.7857 0.0015 -17.7591 0.0002
# 4 0.0004 0.0011 0.0015 31.5875 0.0001 -10.4596
# 5 -17.3388 -15.8994 -17.7591 0.0001 31.9553 0.0000
# 6 0.0001 0.0004 0.0002 -10.4596 0.0000 20.9267
#
#
#
# Elastic Compliance Matrix: (Units=1/GPa)
#
#
# Indices 1 2 3 4 5 6 
#
# 1 0.012847 -0.003744 -0.003645 0.000000 0.003082 0.000000
# 2 -0.003744 0.016243 -0.006371 0.000000 0.002509 0.000000
# 3 -0.003645 -0.006371 0.015681 -0.000001 0.003567 0.000000
# 4 0.000000 0.000000 -0.000001 0.037937 -0.000001 0.018962
# 5 0.003082 0.002509 0.003567 -0.000001 0.036196 0.000000
# 6 0.000000 0.000000 0.000000 0.018962 0.000000 0.057263
#
#
# Mechanical properties :
#
#
# Convention : Reuss Voigt Hill
#
# Bulk Modulus (GPa) = 57.97629 67.06074 62.51852
# Shear Modulus (GPa) = 23.87345 27.37515 25.62430
#
# Velocity S-wave (km/s) = 3.70817 3.97082 3.84174
# Velocity P-wave (km/s) = 7.19215 7.72325 7.46243
#
# Compressibility (1/GPa) = 0.01724843
#
# Stress axis : x y z
#
# Youngs Moduli (GPa) = 77.84018 61.56623 63.77327
#
# Poissons Ratio (x) = 0.23053 0.23247
# Poissons Ratio (y) = 0.29147 0.40630
# Poissons Ratio (z) = 0.28375 0.39224
#
# Static dielectric constant tensor:
#      x y z
#    x 3.272820 0.000000 -0.215770 
#    y 0.000000 3.123540 0.000000 
#    z -0.215770 0.000000 3.319840 
# 
# 
# High freq. dielectric constant tensor:
#      x y z
#    x 1.674090 0.000000 -0.015700 
#    y 0.000000 1.656350 0.000000 
#    z -0.015700 0.000000 1.683120 
# 
# From -- ./inp_files/60522.got.cif
#   From: 2010.06.25/outbox.cif.g09.slc.cpg/sg15_31_cif.got.tgz:60522.got - 2010.06.28 07:06:18.
