data_PCOD8134547
_publ_section_title
;
Structure prediction by ZEFSAII (Michael W. Deem and Ramdas Pophale) SiO2 
 PCOD8134547
Probable space group: C 2/C
;
_chemical_formula_sum "Si O2"
_cell_formula_units_Z 52
_cell_length_a 5.402978
_cell_length_b 22.658787
_cell_length_c 18.219581
_cell_angle_alpha 90.000000
_cell_angle_beta 66.723678
_cell_angle_gamma 90.000000
_cell_volume 2048.987455
_symmetry_space_group_name_H-M "C 2/C"
_symmetry_group_IT_number 15
_symmetry_cell_setting 'monoclinic'
loop_
_space_group_symop_operation_xyz
x,y,z
-x,y,1/2-z
-x,-y,-z
x,-y,1/2+z
1/2+x,1/2+y,z
1/2-x,1/2+y,1/2-z
1/2-x,1/2-y,-z
1/2+x,1/2-y,1/2+z
loop_
_atom_site_type_symbol
_atom_site_label
_atom_site_fract_x
_atom_site_fract_y
_atom_site_fract_z
Si Si1 0.609028 0.835045 0.469595
Si Si2 0.134789 0.468228 0.416056
Si Si3 0.724745 0.234196 0.823523
Si Si4 0.809703 0.946610 0.127929
Si Si5 0.472296 0.630185 0.471288
Si Si6 0.000000 0.357834 0.250000
Si Si7 0.817833 0.131294 0.202456
O O1 0.664399 0.897846 0.423857
O O2 0.735043 0.780515 0.408693
O O3 0.286140 0.828264 0.518185
O O4 0.773704 0.832482 0.526953
O O5 0.448338 0.488950 0.371994
O O6 0.000000 0.500000 0.500000
O O7 0.968029 0.481816 0.360239
O O8 0.523621 0.184244 0.817401
O O9 0.622048 0.299651 0.819862
O O10 0.000000 0.222714 0.750000
O O11 0.753954 0.898828 0.198344
O O12 0.887793 0.919895 0.038815
O O13 0.574549 0.599110 0.383785
O O14 0.500000 0.118389 0.250000
O O15 0.000000 0.110701 0.250000
#
# Coordination Sequence:
#
# PCOD8134547 Si02
#       7
#     8   8   8   8   8   4   8
#     4  10  21  36  57  88 109 158 190 232 306 346
#     4  10  19  36  57  88 111 144 197 225 284 358
#     4  11  22  35  56  82 127 159 197 245 304 352
#     4  10  22  35  60  92 115 165 182 236 304 347
#     4  10  20  39  55  83 119 146 210 237 288 359
#     4  12  20  38  58  86 134 152 196 238 298 380
#     4  11  24  38  57  84 111 162 211 258 300 333
#
# _framework density 25.378387
#
# number of rings (size 3 to 8) (size 9 to 14) (size 15 to 20)
#    0.000    1.538    3.846    3.231    0.000    1.231 
#    0.000    0.000    0.000    0.000   80.000    0.000 
#    0.000    0.000    0.000    0.000    0.000    0.000 
#
# Total GULP energy -322154.945020 kJ/mol
# GULP energy per Si atom -12390.574808 kJ/mol
# Density = 2.532062 g / cm^3
# Si number density = 25.378387 Si / 1000 Ang^3
#
#
#
# Elastic Constant Matrix: (Units=GPa)
#
#
# Indices 1 2 3 4 5 6 
#
# 1 224.7323 -1.1016 25.4737 0.0000 7.4628 0.0000
# 2 -1.1016 30.9650 -7.8805 0.0000 -3.8056 0.0000
# 3 25.4737 -7.8805 104.2213 0.0000 -4.0030 0.0000
# 4 0.0000 0.0000 0.0000 32.8022 0.0000 -4.0195
# 5 7.4628 -3.8056 -4.0030 0.0000 46.0574 0.0000
# 6 0.0000 0.0000 0.0000 -4.0195 0.0000 11.4028
#
#
#
# Elastic Compliance Matrix: (Units=1/GPa)
#
#
# Indices 1 2 3 4 5 6 
#
# 1 0.004611 -0.000243 -0.001179 0.000000 -0.000870 0.000000
# 2 -0.000243 0.033345 0.002697 0.000000 0.003029 0.000000
# 3 -0.001179 0.002697 0.010137 0.000000 0.001295 0.000000
# 4 0.000000 0.000000 0.000000 0.031862 0.000000 0.011231
# 5 -0.000870 0.003029 0.001295 0.000000 0.022216 0.000000
# 6 0.000000 0.000000 0.000000 0.011231 0.000000 0.091657
#
#
# Mechanical properties :
#
#
# Convention : Reuss Voigt Hill
#
# Bulk Modulus (GPa) = 19.74604 43.65572 31.70088
# Shear Modulus (GPa) = 24.02029 40.94761 32.48395
#
# Velocity S-wave (km/s) = 3.07984 4.02118 3.58157
# Velocity P-wave (km/s) = 4.52159 6.22889 5.44260
#
# Compressibility (1/GPa) = 0.05064306
#
# Stress axis : x y z
#
# Youngs Moduli (GPa) = 216.87056 29.98992 98.65094
#
# Poissons Ratio (x) = 0.00728 0.11629
# Poissons Ratio (y) = 0.05266 -0.26606
# Poissons Ratio (z) = 0.25565 -0.08088
#
# Static dielectric constant tensor:
#      x y z
#    x 8.541200 0.000000 -0.010030 
#    y 0.000000 4.074570 0.000000 
#    z -0.010030 0.000000 4.468670 
# 
# 
# High freq. dielectric constant tensor:
#      x y z
#    x 2.033260 0.000000 -0.000240 
#    y 0.000000 1.976450 0.000000 
#    z -0.000240 0.000000 2.004700 
# 
# From -- ./inp_files/130697.got.cif
#   From: 2010.06.25/outbox.cif.g09.slc.cpg/sg15_66_cif.got.tgz:130697.got - 2010.06.28 07:06:18.
