data_PCOD8134230
_publ_section_title
;
Structure prediction by ZEFSAII (Michael W. Deem and Ramdas Pophale) SiO2 
 PCOD8134230
Probable space group: C 2/C
;
_chemical_formula_sum "Si O2"
_cell_formula_units_Z 64
_cell_length_a 24.448502
_cell_length_b 23.913182
_cell_length_c 11.718473
_cell_angle_alpha 90.000000
_cell_angle_beta 150.948825
_cell_angle_gamma 90.000000
_cell_volume 3326.832457
_symmetry_space_group_name_H-M "C 2/C"
_symmetry_group_IT_number 15
_symmetry_cell_setting 'monoclinic'
loop_
_space_group_symop_operation_xyz
x,y,z
-x,y,1/2-z
-x,-y,-z
x,-y,1/2+z
1/2+x,1/2+y,z
1/2-x,1/2+y,1/2-z
1/2-x,1/2-y,-z
1/2+x,1/2-y,1/2+z
loop_
_atom_site_type_symbol
_atom_site_label
_atom_site_fract_x
_atom_site_fract_y
_atom_site_fract_z
Si Si1 0.331267 0.223755 0.798464
Si Si2 0.969612 0.819464 0.562748
Si Si3 0.391310 0.052124 0.129767
Si Si4 0.551654 0.914660 0.513734
Si Si5 0.325187 0.937739 0.979947
Si Si6 0.943038 0.295063 0.899787
Si Si7 0.775671 0.333742 0.418075
Si Si8 0.200022 0.838183 0.871341
O O1 0.294222 0.214499 0.859537
O O2 0.274713 0.175263 0.618245
O O3 0.284729 0.285409 0.684765
O O4 0.466012 0.219636 0.032495
O O5 0.943274 0.754225 0.492213
O O6 0.855861 0.850876 0.315675
O O7 0.000000 0.828041 0.750000
O O8 0.069722 0.844349 0.669036
O O9 0.500000 0.039523 0.250000
O O10 0.420158 0.055632 0.316270
O O11 0.294822 0.004142 0.931583
O O12 0.342458 0.111405 0.001162
O O13 0.442153 0.942505 0.261665
O O14 0.657504 0.919725 0.619934
O O15 0.518707 0.849825 0.463411
O O16 0.236366 0.896152 0.877568
O O17 0.821435 0.307773 0.620553
#
# Coordination Sequence:
#
# PCOD8134230 Si02
#       8
#     8   8   8   8   8   8   8   8
#     4  10  19  35  58  88 119 153 192 244 308 347
#     4  11  23  38  58  86 116 161 205 243 290 365
#     4  11  23  38  59  90 122 152 197 250 298 351
#     4  10  21  34  57  92 121 149 193 235 309 353
#     4  11  22  36  60  87 120 161 188 246 298 354
#     4  10  21  35  58  88 122 145 194 250 302 360
#     4  11  22  37  58  86 119 161 194 249 302 352
#     4  10  22  36  56  88 120 154 199 243 292 355
#
# _framework density 19.237517
#
# number of rings (size 3 to 8) (size 9 to 14) (size 15 to 20)
#    0.000    1.500    3.750    2.625    3.500    0.000 
#    0.000    0.625    0.000    0.000    0.000    0.000 
#    0.000    0.000    0.000    0.000    0.000    0.000 
#
# Total GULP energy -396684.910993 kJ/mol
# GULP energy per Si atom -12396.403469 kJ/mol
# Density = 1.919373 g / cm^3
# Si number density = 19.237517 Si / 1000 Ang^3
#
#
#
# Elastic Constant Matrix: (Units=GPa)
#
#
# Indices 1 2 3 4 5 6 
#
# 1 90.9326 29.0118 24.9558 0.0000 1.4359 0.0000
# 2 29.0118 89.5360 9.2336 0.0000 5.9530 0.0000
# 3 24.9558 9.2336 86.6029 0.0000 8.7515 0.0000
# 4 0.0000 0.0000 0.0000 18.5710 0.0000 6.8930
# 5 1.4359 5.9530 8.7515 0.0000 25.8530 0.0000
# 6 0.0000 0.0000 0.0000 6.8930 0.0000 27.2781
#
#
#
# Elastic Compliance Matrix: (Units=1/GPa)
#
#
# Indices 1 2 3 4 5 6 
#
# 1 0.013222 -0.004013 -0.003522 0.000000 0.001382 0.000000
# 2 -0.004013 0.012641 0.000083 0.000000 -0.002716 0.000000
# 3 -0.003522 0.000083 0.012979 0.000000 -0.004217 0.000000
# 4 0.000000 0.000000 0.000000 0.059421 0.000000 -0.015015
# 5 0.001382 -0.002716 -0.004217 0.000000 0.040656 0.000000
# 6 0.000000 0.000000 0.000000 -0.015015 0.000000 0.040454
#
#
# Mechanical properties :
#
#
# Convention : Reuss Voigt Hill
#
# Bulk Modulus (GPa) = 41.77344 43.71934 42.74639
# Shear Modulus (GPa) = 24.72108 27.93177 26.32642
#
# Velocity S-wave (km/s) = 3.58864 3.81457 3.70333
# Velocity P-wave (km/s) = 6.23962 6.49436 6.36826
#
# Compressibility (1/GPa) = 0.02393865
#
# Stress axis : x y z
#
# Youngs Moduli (GPa) = 75.63016 79.10766 77.04674
#
# Poissons Ratio (x) = 0.31746 0.27135
# Poissons Ratio (y) = 0.30350 -0.00640
# Poissons Ratio (z) = 0.26636 -0.00657
#
# Static dielectric constant tensor:
#      x y z
#    x 3.476800 0.000000 0.030720 
#    y 0.000000 3.537220 0.000000 
#    z 0.030720 0.000000 3.521330 
# 
# 
# High freq. dielectric constant tensor:
#      x y z
#    x 1.748930 0.000000 -0.007610 
#    y 0.000000 1.745880 0.000000 
#    z -0.007610 0.000000 1.729380 
# 
# From -- ./inp_files/90862.got.cif
#   From: 2010.06.25/outbox.cif.g09.slc.cpg/sg15_46_cif.got.tgz:90862.got - 2010.06.28 07:06:18.
