data_PCOD8134404
_publ_section_title
;
Structure prediction by ZEFSAII (Michael W. Deem and Ramdas Pophale) SiO2 
 PCOD8134404
Probable space group: C 2/C
;
_chemical_formula_sum "Si O2"
_cell_formula_units_Z 48
_cell_length_a 13.105145
_cell_length_b 26.112927
_cell_length_c 10.783579
_cell_angle_alpha 90.000000
_cell_angle_beta 34.034536
_cell_angle_gamma 90.000000
_cell_volume 2065.426814
_symmetry_space_group_name_H-M "C 2/C"
_symmetry_group_IT_number 15
_symmetry_cell_setting 'monoclinic'
loop_
_space_group_symop_operation_xyz
x,y,z
-x,y,1/2-z
-x,-y,-z
x,-y,1/2+z
1/2+x,1/2+y,z
1/2-x,1/2+y,1/2-z
1/2-x,1/2-y,-z
1/2+x,1/2-y,1/2+z
loop_
_atom_site_type_symbol
_atom_site_label
_atom_site_fract_x
_atom_site_fract_y
_atom_site_fract_z
Si Si1 0.295380 0.465201 0.463022
Si Si2 0.922920 0.872765 0.695549
Si Si3 0.698957 0.478880 0.776626
Si Si4 0.143145 0.696923 0.381983
Si Si5 0.271781 0.311611 0.238979
Si Si6 0.207999 0.649342 0.060021
O O1 0.500000 0.487631 0.250000
O O2 0.200033 0.482989 0.689686
O O3 0.197782 0.489135 0.437568
O O4 0.312376 0.404065 0.443177
O O5 0.814307 0.919306 0.743554
O O6 0.770687 0.827478 0.860941
O O7 0.000000 0.889007 0.750000
O O8 0.099422 0.856811 0.438411
O O9 0.500000 0.500000 0.000000
O O10 0.147947 0.757938 0.388158
O O11 0.240591 0.678024 0.156829
O O12 0.933824 0.679011 0.603802
O O13 0.276232 0.312265 0.384018
O O14 0.000000 0.634650 0.250000
#
# Coordination Sequence:
#
# PCOD8134404 Si02
#       6
#     8   8   8   8   8   8
#     4  10  19  35  63  89 124 166 215 269 324 390
#     4  12  25  42  67  92 131 177 220 267 325 388
#     4  10  20  37  64  94 122 165 221 267 325 393
#     4  11  23  42  63  99 131 167 220 267 326 387
#     4  11  23  41  65  96 131 171 215 270 322 390
#     4  10  22  38  64  95 131 164 211 273 332 389
#
# _framework density 23.239747999999999
#
# number of rings (size 3 to 8) (size 9 to 14) (size 15 to 20)
#    0.000    1.333    3.333    4.000    0.000    1.333 
#    0.000    0.833   11.000    0.000    0.000    0.000 
#    0.000    0.000    0.000    0.000    0.000    0.000 
#
# Total GULP energy -297488.397817 kJ/mol
# GULP energy per Si atom -12395.349909 kJ/mol
# Density = 2.318685 g / cm^3
# Si number density = 23.239748 Si / 1000 Ang^3
#
#
#
# Elastic Constant Matrix: (Units=GPa)
#
#
# Indices 1 2 3 4 5 6 
#
# 1 88.6800 12.9797 33.6268 0.0000 24.5358 0.0000
# 2 12.9797 85.7368 10.8885 0.0000 18.1363 0.0000
# 3 33.6268 10.8885 60.5280 0.0000 5.9152 0.0000
# 4 0.0000 0.0000 0.0000 -6.3291 0.0000 15.6038
# 5 24.5358 18.1363 5.9152 0.0000 36.8832 0.0000
# 6 0.0000 0.0000 0.0000 15.6038 0.0000 31.7674
#
#
#
# Elastic Compliance Matrix: (Units=1/GPa)
#
#
# Indices 1 2 3 4 5 6 
#
# 1 0.017410 0.000704 -0.008771 0.000000 -0.010521 0.000000
# 2 0.000704 0.013230 -0.002123 0.000000 -0.006633 0.000000
# 3 -0.008771 -0.002123 0.021440 0.000000 0.003440 0.000000
# 4 0.000000 0.000000 0.000000 -0.071462 0.000000 0.035101
# 5 -0.010521 -0.006633 0.003440 0.000000 0.036822 0.000000
# 6 0.000000 0.000000 0.000000 0.035101 0.000000 0.014238
#
#
# Mechanical properties :
#
#
# Convention : Reuss Voigt Hill
#
# Bulk Modulus (GPa) = 31.54550 38.88165 35.21358
# Shear Modulus (GPa) = 79.84210 24.29428 52.06819
#
# Velocity S-wave (km/s) = 5.86774 3.23674 4.73851
# Velocity P-wave (km/s) = 7.71431 5.54397 6.71737
#
# Compressibility (1/GPa) = 0.03170024
#
# Stress axis : x y z
#
# Youngs Moduli (GPa) = 57.43713 75.58707 46.64248
#
# Poissons Ratio (x) = -0.05320 0.40909
# Poissons Ratio (y) = -0.04042 0.09901
# Poissons Ratio (z) = 0.50377 0.16045
#
# Static dielectric constant tensor:
#      x y z
#    x 4.518430 0.000000 0.418810 
#    y 0.000000 4.149020 0.000000 
#    z 0.418810 0.000000 4.126920 
# 
# 
# High freq. dielectric constant tensor:
#      x y z
#    x 1.920370 0.000000 0.008760 
#    y 0.000000 1.915920 0.000000 
#    z 0.008760 0.000000 1.901320 
# 
# From -- ./inp_files/101243.got.cif
#   From: 2010.06.25/outbox.cif.g09.slc.cpg/sg15_51_cif.got.tgz:101243.got - 2010.06.28 07:06:18.
