data_PCOD8134942
_publ_section_title
;
Structure prediction by ZEFSAII (Michael W. Deem and Ramdas Pophale) SiO2 
 PCOD8134942
Probable space group: C 2/C
;
_chemical_formula_sum "Si O2"
_cell_formula_units_Z 40
_cell_length_a 18.832680
_cell_length_b 9.434700
_cell_length_c 14.801162
_cell_angle_alpha 90.000000
_cell_angle_beta 44.709377
_cell_angle_gamma 90.000000
_cell_volume 1850.150002
_symmetry_space_group_name_H-M "C 2/C"
_symmetry_group_IT_number 15
_symmetry_cell_setting 'monoclinic'
loop_
_space_group_symop_operation_xyz
x,y,z
-x,y,1/2-z
-x,-y,-z
x,-y,1/2+z
1/2+x,1/2+y,z
1/2-x,1/2+y,1/2-z
1/2-x,1/2-y,-z
1/2+x,1/2-y,1/2+z
loop_
_atom_site_type_symbol
_atom_site_label
_atom_site_fract_x
_atom_site_fract_y
_atom_site_fract_z
Si Si1 0.087127 0.446482 0.600035
Si Si2 0.595528 0.457759 0.830164
Si Si3 0.920875 0.150391 0.971371
Si Si4 0.302604 0.466933 0.947014
Si Si5 0.059718 0.247489 0.103262
O O1 0.095452 0.319596 0.520358
O O2 0.189432 0.477647 0.564509
O O3 0.067165 0.591064 0.561806
O O4 0.000000 0.409375 0.750000
O O5 0.539952 0.610876 0.874585
O O6 0.679362 0.446879 0.677023
O O7 0.503547 0.343911 0.909665
O O8 0.642066 0.417964 0.886551
O O9 0.879099 0.085592 0.915664
O O10 0.328806 0.320698 0.977588
O O11 0.000000 0.243178 0.250000
#
# Coordination Sequence:
#
# PCOD8134942 Si02
#       5
#     8   8   8   8   8
#     4  11  21  34  56  87 116 146 187 240 288 327
#     4   9  19  38  58  79 111 155 194 225 280 350
#     4  10  20  35  59  85 111 146 191 240 284 333
#     4  10  19  37  58  79 114 157 190 224 281 350
#     4   8  17  34  56  78 109 149 185 224 278 340
#
# _framework density 21.619869000000001
#
# number of rings (size 3 to 8) (size 9 to 14) (size 15 to 20)
#    0.000    2.400    0.000    4.200    0.000    0.800 
#    0.000   14.000    0.000    0.000    0.000    0.000 
#    0.000    0.000    0.000    0.000    0.000    0.000 
#
# Total GULP energy -247813.379023 kJ/mol
# GULP energy per Si atom -12390.668951 kJ/mol
# Density = 2.157066 g / cm^3
# Si number density = 21.619869 Si / 1000 Ang^3
#
#
#
# Elastic Constant Matrix: (Units=GPa)
#
#
# Indices 1 2 3 4 5 6 
#
# 1 62.9634 30.2819 34.4388 0.0000 -1.6536 0.0000
# 2 30.2819 142.7977 11.1400 0.0001 0.1223 -0.0001
# 3 34.4388 11.1400 86.3895 0.0000 1.9297 0.0000
# 4 0.0000 0.0001 0.0000 10.5054 0.0000 -1.5171
# 5 -1.6536 0.1223 1.9297 0.0000 33.3564 0.0000
# 6 0.0000 -0.0001 0.0000 -1.5171 0.0000 25.0157
#
#
#
# Elastic Compliance Matrix: (Units=1/GPa)
#
#
# Indices 1 2 3 4 5 6 
#
# 1 0.022554 -0.004121 -0.008496 0.000000 0.001625 0.000000
# 2 -0.004121 0.007827 0.000640 0.000000 -0.000270 0.000000
# 3 -0.008496 0.000640 0.014909 0.000000 -0.001286 0.000000
# 4 0.000000 0.000000 0.000000 0.096030 0.000000 0.005824
# 5 0.001625 -0.000270 -0.001286 0.000000 0.030135 0.000000
# 6 0.000000 0.000000 0.000000 0.005824 0.000000 0.040328
#
#
# Mechanical properties :
#
#
# Convention : Reuss Voigt Hill
#
# Bulk Modulus (GPa) = 46.87230 49.31912 48.09571
# Shear Modulus (GPa) = 20.58882 28.19483 24.39182
#
# Velocity S-wave (km/s) = 3.08930 3.61517 3.36253
# Velocity P-wave (km/s) = 5.86961 6.34724 6.11309
#
# Compressibility (1/GPa) = 0.02133456
#
# Stress axis : x y z
#
# Youngs Moduli (GPa) = 44.33795 127.75892 67.07554
#
# Poissons Ratio (x) = 0.52655 0.56987
# Poissons Ratio (y) = 0.18274 -0.04291
# Poissons Ratio (z) = 0.37669 -0.08173
#
# Static dielectric constant tensor:
#      x y z
#    x 3.760830 0.000000 0.014970 
#    y 0.000000 4.258090 0.000000 
#    z 0.014970 0.000000 3.527060 
# 
# 
# High freq. dielectric constant tensor:
#      x y z
#    x 1.830260 0.000000 0.003500 
#    y 0.000000 1.856490 0.000000 
#    z 0.003500 0.000000 1.821130 
# 
# From -- ./inp_files/166018.got.cif
#   From: 2010.06.25/outbox.cif.g09.slc.cpg/sg15_84_cif.got.tgz:166018.got - 2010.06.28 07:06:18.
