data_PCOD8134965
_publ_section_title
;
Structure prediction by ZEFSAII (Michael W. Deem and Ramdas Pophale) SiO2 
 PCOD8134965
Probable space group: C 2/C
;
_chemical_formula_sum "Si O2"
_cell_formula_units_Z 60
_cell_length_a 20.798861
_cell_length_b 8.561614
_cell_length_c 18.427449
_cell_angle_alpha 90.000000
_cell_angle_beta 75.219012
_cell_angle_gamma 90.000000
_cell_volume 3172.821295
_symmetry_space_group_name_H-M "C 2/C"
_symmetry_group_IT_number 15
_symmetry_cell_setting 'monoclinic'
loop_
_space_group_symop_operation_xyz
x,y,z
-x,y,1/2-z
-x,-y,-z
x,-y,1/2+z
1/2+x,1/2+y,z
1/2-x,1/2+y,1/2-z
1/2-x,1/2-y,-z
1/2+x,1/2-y,1/2+z
loop_
_atom_site_type_symbol
_atom_site_label
_atom_site_fract_x
_atom_site_fract_y
_atom_site_fract_z
Si Si1 0.458193 0.143589 0.114422
Si Si2 0.916342 0.429825 0.995243
Si Si3 0.323520 0.289673 0.173447
Si Si4 0.276891 0.178802 0.564088
Si Si5 0.623877 0.885738 0.133719
Si Si6 0.500000 0.984170 0.250000
Si Si7 0.766799 0.576486 0.311471
Si Si8 0.733494 0.668521 0.078913
O O1 0.528086 0.188417 0.055099
O O2 0.404051 0.284677 0.137017
O O3 0.472684 0.089258 0.192251
O O4 0.434737 0.004330 0.067737
O O5 0.897059 0.561495 0.941105
O O6 0.855016 0.323288 0.031393
O O7 0.291209 0.459080 0.202543
O O8 0.306532 0.150728 0.233590
O O9 0.291211 0.244646 0.108201
O O10 0.250000 0.250000 0.500000
O O11 0.267460 0.281125 0.637893
O O12 0.238982 0.015725 0.582663
O O13 0.657958 0.714684 0.123147
O O14 0.559848 0.875411 0.204104
O O15 0.679923 0.000700 0.149764
O O16 0.750000 0.750000 0.000000
#
# Coordination Sequence:
#
# PCOD8134965 Si02
#       8
#     8   8   8   8   8   4   8   8
#     4  10  20  36  58  85 116 158 202 243 290 365
#     4  10  20  35  59  87 117 157 199 238 300 361
#     4  11  21  38  56  85 118 154 199 249 299 356
#     4  12  21  36  58  89 121 153 195 250 302 357
#     4  10  19  37  58  90 116 157 201 243 298 358
#     4  10  20  34  62  88 120 158 206 246 292 380
#     4  11  23  35  58  88 119 157 198 247 308 355
#     4  11  20  35  59  86 119 151 196 248 297 351
#
# _framework density 18.910615
#
# number of rings (size 3 to 8) (size 9 to 14) (size 15 to 20)
#    0.000    1.333    5.333    1.600    0.000    0.000 
#    0.000    0.667    0.000    5.600    0.000    0.000 
#    0.000    0.000    0.000    0.000    0.000    0.000 
#
# Total GULP energy -371645.496277 kJ/mol
# GULP energy per Si atom -12388.183209 kJ/mol
# Density = 1.886757 g / cm^3
# Si number density = 18.910615 Si / 1000 Ang^3
#
#
#
# Elastic Constant Matrix: (Units=GPa)
#
#
# Indices 1 2 3 4 5 6 
#
# 1 133.5947 43.2177 49.1265 0.0000 -20.0508 0.0000
# 2 43.2177 89.8218 24.0617 0.0000 -17.2772 0.0000
# 3 49.1265 24.0617 101.3627 0.0000 -0.3735 0.0000
# 4 0.0000 0.0000 0.0000 25.4920 0.0000 -0.5358
# 5 -20.0508 -17.2772 -0.3735 0.0000 42.1311 0.0000
# 6 0.0000 0.0000 0.0000 -0.5358 0.0000 26.3656
#
#
#
# Elastic Compliance Matrix: (Units=1/GPa)
#
#
# Indices 1 2 3 4 5 6 
#
# 1 0.010720 -0.003261 -0.004408 0.000000 0.003726 0.000000
# 2 -0.003261 0.013962 -0.001719 0.000000 0.004159 0.000000
# 3 -0.004408 -0.001719 0.012400 0.000000 -0.002693 0.000000
# 4 0.000000 0.000000 0.000000 0.039245 0.000000 0.000797
# 5 0.003726 0.004159 -0.002693 0.000000 0.027190 0.000000
# 6 0.000000 0.000000 0.000000 0.000797 0.000000 0.037944
#
#
# Mechanical properties :
#
#
# Convention : Reuss Voigt Hill
#
# Bulk Modulus (GPa) = 54.62116 61.95455 58.28785
# Shear Modulus (GPa) = 30.05905 32.68928 31.37416
#
# Velocity S-wave (km/s) = 3.99122 4.16218 4.07760
# Velocity P-wave (km/s) = 7.08423 7.47872 7.28415
#
# Compressibility (1/GPa) = 0.01830792
#
# Stress axis : x y z
#
# Youngs Moduli (GPa) = 93.28165 71.62116 80.64514
#
# Poissons Ratio (x) = 0.23353 0.35548
# Poissons Ratio (y) = 0.30415 0.13861
# Poissons Ratio (z) = 0.41118 0.12310
#
# Static dielectric constant tensor:
#      x y z
#    x 4.033660 0.000000 -0.144970 
#    y 0.000000 3.758320 0.000000 
#    z -0.144970 0.000000 3.746950 
# 
# 
# High freq. dielectric constant tensor:
#      x y z
#    x 1.750340 0.000000 0.000920 
#    y 0.000000 1.693450 0.000000 
#    z 0.000920 0.000000 1.760260 
# 
# From -- ./inp_files/213892.got.cif
#   From: 2010.06.25/outbox.cif.g09.slc.cpg/sg15_107_cif.got.tgz:213892.got - 2010.06.28 07:06:18.
