data_PCOD8134154
_publ_section_title
;
Structure prediction by ZEFSAII (Michael W. Deem and Ramdas Pophale) SiO2 
 PCOD8134154
Probable space group: C 2/C
;
_chemical_formula_sum "Si O2"
_cell_formula_units_Z 60
_cell_length_a 20.075540
_cell_length_b 18.410395
_cell_length_c 10.235149
_cell_angle_alpha 90.000000
_cell_angle_beta 54.492443
_cell_angle_gamma 90.000000
_cell_volume 3079.425354
_symmetry_space_group_name_H-M "C 2/C"
_symmetry_group_IT_number 15
_symmetry_cell_setting 'monoclinic'
loop_
_space_group_symop_operation_xyz
x,y,z
-x,y,1/2-z
-x,-y,-z
x,-y,1/2+z
1/2+x,1/2+y,z
1/2-x,1/2+y,1/2-z
1/2-x,1/2-y,-z
1/2+x,1/2-y,1/2+z
loop_
_atom_site_type_symbol
_atom_site_label
_atom_site_fract_x
_atom_site_fract_y
_atom_site_fract_z
Si Si1 0.500000 0.057176 0.250000
Si Si2 0.479851 0.157753 0.490164
Si Si3 0.380259 0.694532 0.467197
Si Si4 0.791258 0.950618 0.028910
Si Si5 0.052867 0.809530 0.890231
Si Si6 0.818909 0.925910 0.695990
Si Si7 0.652783 0.848507 0.896389
Si Si8 0.110399 0.567719 0.700827
O O1 0.448531 0.108723 0.406543
O O2 0.437114 0.008126 0.241894
O O3 0.448659 0.240447 0.510256
O O4 0.579363 0.152906 0.374889
O O5 0.443039 0.128015 0.666221
O O6 0.319805 0.627397 0.546040
O O7 0.400785 0.712339 0.294458
O O8 0.459505 0.671458 0.460779
O O9 0.333919 0.765990 0.570983
O O10 0.695652 0.950935 0.172300
O O11 0.832908 0.012919 0.069606
O O12 0.810031 0.960465 0.852235
O O13 0.099211 0.876723 0.905075
O O14 0.739985 0.877381 0.744897
O O15 0.623962 0.903355 0.040878
#
# Coordination Sequence:
#
# PCOD8134154 Si02
#       8
#     4   8   8   8   8   8   8   8
#     4  12  24  32  52  84 120 154 172 216 284 342
#     4  11  21  36  54  81 115 147 186 222 272 338
#     4   9  18  36  59  86 105 140 192 243 269 318
#     4  10  23  36  57  84 115 143 192 234 284 327
#     4   9  19  36  61  81 106 143 194 234 274 320
#     4  10  22  38  56  86 113 148 186 238 280 333
#     4  10  19  35  57  82 112 138 186 232 276 318
#     4  11  21  33  56  80 111 153 179 223 271 332
#
# _framework density 19.484152999999999
#
# number of rings (size 3 to 8) (size 9 to 14) (size 15 to 20)
#    0.000    1.867    2.667    1.200    5.600    2.133 
#    0.000    2.667    0.000    2.400    0.000    0.000 
#    0.000    0.000    0.000    0.000    0.000    0.000 
#
# Total GULP energy -371910.224140 kJ/mol
# GULP energy per Si atom -12397.007471 kJ/mol
# Density = 1.943981 g / cm^3
# Si number density = 19.484153 Si / 1000 Ang^3
#
#
#
# Elastic Constant Matrix: (Units=GPa)
#
#
# Indices 1 2 3 4 5 6 
#
# 1 60.7231 46.0475 21.1795 0.0000 -4.1630 0.0000
# 2 46.0475 127.4374 38.9665 0.0000 4.4567 0.0000
# 3 21.1795 38.9665 41.0343 0.0000 -2.2940 0.0000
# 4 0.0000 0.0000 0.0000 31.5778 0.0000 2.9124
# 5 -4.1630 4.4567 -2.2940 0.0000 15.7946 0.0000
# 6 0.0000 0.0000 0.0000 2.9124 0.0000 27.2904
#
#
#
# Elastic Compliance Matrix: (Units=1/GPa)
#
#
# Indices 1 2 3 4 5 6 
#
# 1 0.024520 -0.007610 -0.004988 0.000000 0.007886 0.000000
# 2 -0.007610 0.013775 -0.009559 0.000000 -0.007281 0.000000
# 3 -0.004988 -0.009559 0.036395 0.000000 0.006669 0.000000
# 4 0.000000 0.000000 0.000000 0.031983 0.000000 -0.003413
# 5 0.007886 -0.007281 0.006669 0.000000 0.068414 0.000000
# 6 0.000000 0.000000 0.000000 -0.003413 0.000000 0.037007
#
#
# Mechanical properties :
#
#
# Convention : Reuss Voigt Hill
#
# Bulk Modulus (GPa) = 32.92330 49.06465 40.99398
# Shear Modulus (GPa) = 18.75941 23.13263 20.94602
#
# Velocity S-wave (km/s) = 3.10627 3.44939 3.28232
# Velocity P-wave (km/s) = 5.45888 6.41100 5.95400
#
# Compressibility (1/GPa) = 0.03037363
#
# Stress axis : x y z
#
# Youngs Moduli (GPa) = 40.78356 72.59791 27.47648
#
# Poissons Ratio (x) = 0.55250 0.13705
# Poissons Ratio (y) = 0.31038 0.26266
# Poissons Ratio (z) = 0.20342 0.69399
#
# Static dielectric constant tensor:
#      x y z
#    x 3.684430 0.000000 -0.163350 
#    y 0.000000 3.613020 0.000000 
#    z -0.163350 0.000000 3.216780 
# 
# 
# High freq. dielectric constant tensor:
#      x y z
#    x 1.758860 0.000000 -0.011130 
#    y 0.000000 1.766760 0.000000 
#    z -0.011130 0.000000 1.723680 
# 
# From -- ./inp_files/112706.got.cif
#   From: 2010.06.25/outbox.cif.g09.slc.cpg/sg15_57_cif.got.tgz:112706.got - 2010.06.28 07:06:18.
