data_PCOD8134579
_publ_section_title
;
Structure prediction by ZEFSAII (Michael W. Deem and Ramdas Pophale) SiO2 
 PCOD8134579
Probable space group: C 2/C
;
_chemical_formula_sum "Si O2"
_cell_formula_units_Z 52
_cell_length_a 14.220233
_cell_length_b 14.399527
_cell_length_c 15.049347
_cell_angle_alpha 90.000000
_cell_angle_beta 113.888352
_cell_angle_gamma 90.000000
_cell_volume 2817.594929
_symmetry_space_group_name_H-M "C 2/C"
_symmetry_group_IT_number 15
_symmetry_cell_setting 'monoclinic'
loop_
_space_group_symop_operation_xyz
x,y,z
-x,y,1/2-z
-x,-y,-z
x,-y,1/2+z
1/2+x,1/2+y,z
1/2-x,1/2+y,1/2-z
1/2-x,1/2-y,-z
1/2+x,1/2-y,1/2+z
loop_
_atom_site_type_symbol
_atom_site_label
_atom_site_fract_x
_atom_site_fract_y
_atom_site_fract_z
Si Si1 0.171587 0.223516 0.587960
Si Si2 0.152343 0.886859 0.246636
Si Si3 0.000000 0.267742 0.750000
Si Si4 0.500000 0.465763 0.750000
Si Si5 0.634295 0.690575 0.379142
Si Si6 0.618273 0.060566 0.633379
Si Si7 0.984996 0.368604 0.922659
Si Si8 0.000000 0.654379 0.750000
O O1 0.174044 0.135564 0.653037
O O2 0.267058 0.293034 0.646863
O O3 0.180340 0.179402 0.494500
O O4 0.066850 0.279234 0.554137
O O5 0.260787 0.917206 0.330486
O O6 0.101732 0.796065 0.274161
O O7 0.072108 0.971448 0.215971
O O8 0.972348 0.334939 0.656648
O O9 0.427245 0.402961 0.661890
O O10 0.564874 0.781800 0.341561
O O11 0.573208 0.104199 0.525708
O O12 0.570334 0.094891 0.709185
O O13 0.597360 0.950777 0.622775
#
# Coordination Sequence:
#
# PCOD8134579 Si02
#       8
#     8   8   4   4   8   8   8   4
#     4  10  19  36  58  83 109 151 187 230 288 340
#     4  10  21  38  59  80 114 150 188 230 281 337
#     4   9  21  41  57  80 114 150 187 231 279 333
#     4  10  22  38  54  82 114 150 188 238 278 330
#     4  10  20  34  58  81 114 143 189 233 283 335
#     4  11  21  35  57  84 114 146 190 232 282 332
#     4  10  21  36  56  81 114 147 188 232 280 335
#     4  11  19  35  55  86 112 146 185 239 273 341
#
# _framework density 18.455456999999999
#
# number of rings (size 3 to 8) (size 9 to 14) (size 15 to 20)
#    0.000    1.846    3.077    1.385    0.000    1.231 
#    0.000    0.000    0.000    0.000    0.000    0.000 
#    0.000    0.000    0.000    0.000    0.000    0.000 
#
# Total GULP energy -322226.980357 kJ/mol
# GULP energy per Si atom -12393.345398 kJ/mol
# Density = 1.841345 g / cm^3
# Si number density = 18.455457 Si / 1000 Ang^3
#
#
#
# Elastic Constant Matrix: (Units=GPa)
#
#
# Indices 1 2 3 4 5 6 
#
# 1 104.0015 39.3682 54.7227 0.0000 3.3784 0.0000
# 2 39.3682 95.6862 53.5934 0.0000 1.9148 0.0000
# 3 54.7227 53.5934 100.2193 0.0000 1.9821 0.0000
# 4 0.0000 0.0000 0.0000 12.7030 0.0000 2.0703
# 5 3.3784 1.9148 1.9821 0.0000 29.6605 0.0000
# 6 0.0000 0.0000 0.0000 2.0703 0.0000 29.1545
#
#
#
# Elastic Compliance Matrix: (Units=1/GPa)
#
#
# Indices 1 2 3 4 5 6 
#
# 1 0.013805 -0.002068 -0.006412 0.000000 -0.001010 0.000000
# 2 -0.002068 0.015235 -0.007012 0.000000 -0.000279 0.000000
# 3 -0.006412 -0.007012 0.017228 0.000000 0.000032 0.000000
# 4 0.000000 0.000000 0.000000 0.079643 0.000000 -0.005656
# 5 -0.001010 -0.000279 0.000032 0.000000 0.033846 0.000000
# 6 0.000000 0.000000 0.000000 -0.005656 0.000000 0.034702
#
#
# Mechanical properties :
#
#
# Convention : Reuss Voigt Hill
#
# Bulk Modulus (GPa) = 65.42995 66.14173 65.78584
# Shear Modulus (GPa) = 21.68846 24.45177 23.07011
#
# Velocity S-wave (km/s) = 3.43181 3.64388 3.53943
# Velocity P-wave (km/s) = 7.15772 7.32258 7.24062
#
# Compressibility (1/GPa) = 0.01528352
#
# Stress axis : x y z
#
# Youngs Moduli (GPa) = 72.43933 65.63913 58.04394
#
# Poissons Ratio (x) = 0.13576 0.37216
# Poissons Ratio (y) = 0.14982 0.40701
# Poissons Ratio (z) = 0.46446 0.46027
#
# Static dielectric constant tensor:
#      x y z
#    x 3.506680 0.000000 -0.004030 
#    y 0.000000 3.440310 0.000000 
#    z -0.004030 0.000000 3.343070 
# 
# 
# High freq. dielectric constant tensor:
#      x y z
#    x 1.721950 0.000000 0.001130 
#    y 0.000000 1.717640 0.000000 
#    z 0.001130 0.000000 1.712210 
# 
# From -- ./inp_files/144196.got.cif
#   From: 2010.06.25/outbox.cif.g09.slc.cpg/sg15_73_cif.got.tgz:144196.got - 2010.06.28 07:06:18.
