data_PCOD8134526
_publ_section_title
;
Structure prediction by ZEFSAII (Michael W. Deem and Ramdas Pophale) SiO2 
 PCOD8134526
Probable space group: C 2/C
;
_chemical_formula_sum "Si O2"
_cell_formula_units_Z 56
_cell_length_a 24.287198
_cell_length_b 13.508958
_cell_length_c 23.687285
_cell_angle_alpha 90.000000
_cell_angle_beta 21.785805
_cell_angle_gamma 90.000000
_cell_volume 2884.361767
_symmetry_space_group_name_H-M "C 2/C"
_symmetry_group_IT_number 15
_symmetry_cell_setting 'monoclinic'
loop_
_space_group_symop_operation_xyz
x,y,z
-x,y,1/2-z
-x,-y,-z
x,-y,1/2+z
1/2+x,1/2+y,z
1/2-x,1/2+y,1/2-z
1/2-x,1/2-y,-z
1/2+x,1/2-y,1/2+z
loop_
_atom_site_type_symbol
_atom_site_label
_atom_site_fract_x
_atom_site_fract_y
_atom_site_fract_z
Si Si1 0.869326 0.566995 0.491261
Si Si2 0.675667 0.356847 0.079325
Si Si3 0.303641 0.909180 0.846659
Si Si4 0.696138 0.755122 0.374731
Si Si5 0.279829 0.976024 0.256539
Si Si6 0.923703 0.199225 0.570746
Si Si7 0.398082 0.101153 0.047332
O O1 0.728515 0.589639 0.586370
O O2 0.873149 0.638432 0.542533
O O3 0.858639 0.454359 0.525941
O O4 0.018803 0.588628 0.313515
O O5 0.500000 0.344490 0.250000
O O6 0.750000 0.250000 0.000000
O O7 0.725018 0.430840 0.981426
O O8 0.232296 0.803938 0.897394
O O9 0.265499 0.986080 0.833896
O O10 0.854659 0.768559 0.195799
O O11 0.596535 0.697585 0.422976
O O12 0.133043 0.909517 0.390680
O O13 0.289685 0.063394 0.200926
O O14 0.427726 0.912451 0.105267
O O15 0.882236 0.278942 0.560562
#
# Coordination Sequence:
#
# PCOD8134526 Si02
#       7
#     8   8   8   8   8   8   8
#     4  11  22  39  60  81 116 157 192 232 282 345
#     4  12  26  40  59  85 114 150 192 239 289 336
#     4  11  23  39  58  84 114 156 194 233 285 340
#     4  12  21  32  57  86 121 151 190 234 277 340
#     4  10  20  36  57  82 117 154 191 230 284 344
#     4  12  21  36  55  88 120 157 189 231 283 338
#     4  10  19  36  57  82 116 156 187 229 288 340
#
# _framework density 19.415040000000001
#
# number of rings (size 3 to 8) (size 9 to 14) (size 15 to 20)
#    0.000    0.857    7.143    2.143    2.000    0.571 
#    2.571    0.000    0.000    0.857    0.000    0.000 
#    0.000    0.000    0.000    0.000    0.000    0.000 
#
# Total GULP energy -347039.010234 kJ/mol
# GULP energy per Si atom -12394.250365 kJ/mol
# Density = 1.937085 g / cm^3
# Si number density = 19.415040 Si / 1000 Ang^3
#
#
#
# Elastic Constant Matrix: (Units=GPa)
#
#
# Indices 1 2 3 4 5 6 
#
# 1 92.2145 17.0594 34.8215 -0.0002 -4.8206 0.0004
# 2 17.0594 33.7393 22.7053 -0.0056 3.0991 0.0014
# 3 34.8215 22.7053 89.2239 -0.0131 -0.1044 0.0023
# 4 -0.0002 -0.0056 -0.0131 22.9568 0.0020 -1.8399
# 5 -4.8206 3.0991 -0.1044 0.0020 29.3441 0.0007
# 6 0.0004 0.0014 0.0023 -1.8399 0.0007 25.7660
#
#
#
# Elastic Compliance Matrix: (Units=1/GPa)
#
#
# Indices 1 2 3 4 5 6 
#
# 1 0.013315 -0.004196 -0.004126 -0.000003 0.002616 0.000000
# 2 -0.004196 0.037517 -0.007915 0.000005 -0.004680 -0.000001
# 3 -0.004126 -0.007915 0.014832 0.000006 0.000211 0.000000
# 4 -0.000003 0.000005 0.000006 0.043811 -0.000004 0.003128
# 5 0.002616 -0.004680 0.000211 -0.000004 0.035003 -0.000001
# 6 0.000000 -0.000001 0.000000 0.003128 -0.000001 0.039034
#
#
# Mechanical properties :
#
#
# Convention : Reuss Voigt Hill
#
# Bulk Modulus (GPa) = 30.12888 40.48333 35.30610
# Shear Modulus (GPa) = 22.02157 24.98616 23.50387
#
# Velocity S-wave (km/s) = 3.37152 3.59130 3.48314
# Velocity P-wave (km/s) = 5.54150 6.17198 5.86522
#
# Compressibility (1/GPa) = 0.03319075
#
# Stress axis : x y z
#
# Youngs Moduli (GPa) = 75.10190 26.65454 67.42054
#
# Poissons Ratio (x) = 0.11185 0.27815
# Poissons Ratio (y) = 0.31516 0.53363
# Poissons Ratio (z) = 0.30984 0.21097
#
# Static dielectric constant tensor:
#      x y z
#    x 3.346460 0.000000 0.032150 
#    y 0.000000 3.385140 0.000010 
#    z 0.032150 0.000010 3.571260 
# 
# 
# High freq. dielectric constant tensor:
#      x y z
#    x 1.736190 0.000000 -0.002340 
#    y 0.000000 1.733410 0.000000 
#    z -0.002340 0.000000 1.766150 
# 
# From -- ./inp_files/61626.got.cif
#   From: 2010.06.25/outbox.cif.g09.slc.cpg/sg15_31_cif.got.tgz:61626.got - 2010.06.28 07:06:18.
