data_PCOD8134340
_publ_section_title
;
Structure prediction by ZEFSAII (Michael W. Deem and Ramdas Pophale) SiO2 
 PCOD8134340
Probable space group: C 2/C
;
_chemical_formula_sum "Si O2"
_cell_formula_units_Z 64
_cell_length_a 17.662384
_cell_length_b 6.934459
_cell_length_c 23.964216
_cell_angle_alpha 90.000000
_cell_angle_beta 97.502106
_cell_angle_gamma 90.000000
_cell_volume 2909.990673
_symmetry_space_group_name_H-M "C 2/C"
_symmetry_group_IT_number 15
_symmetry_cell_setting 'monoclinic'
loop_
_space_group_symop_operation_xyz
x,y,z
-x,y,1/2-z
-x,-y,-z
x,-y,1/2+z
1/2+x,1/2+y,z
1/2-x,1/2+y,1/2-z
1/2-x,1/2-y,-z
1/2+x,1/2-y,1/2+z
loop_
_atom_site_type_symbol
_atom_site_label
_atom_site_fract_x
_atom_site_fract_y
_atom_site_fract_z
Si Si1 0.262009 0.031457 0.131198
Si Si2 0.228111 0.123405 0.319188
Si Si3 0.659532 0.133897 0.039927
Si Si4 0.636241 0.428962 0.532466
Si Si5 0.901530 0.435109 0.079940
Si Si6 0.570842 0.138698 0.602602
Si Si7 0.322108 0.785402 0.294532
Si Si8 0.672659 0.541921 0.423556
O O1 0.239523 0.805489 0.141437
O O2 0.212796 0.118403 0.075039
O O3 0.350771 0.048642 0.121257
O O4 0.243602 0.152859 0.184260
O O5 0.168029 0.210874 0.268167
O O6 0.188721 0.974954 0.360951
O O7 0.293206 0.007304 0.292272
O O8 0.620549 0.343384 0.035855
O O9 0.751034 0.138817 0.042422
O O10 0.635905 0.018385 0.093364
O O11 0.623781 0.009483 0.985260
O O12 0.568000 0.306477 0.554492
O O13 0.645246 0.380261 0.466278
O O14 0.890880 0.206462 0.087271
O O15 0.990868 0.473167 0.099482
O O16 0.597240 0.229157 0.664756
#
# Coordination Sequence:
#
# PCOD8134340 Si02
#       8
#     8   8   8   8   8   8   8   8
#     4  10  19  36  61  84 114 153 190 240 281 355
#     4  11  20  36  59  87 108 148 204 249 282 339
#     4  11  18  36  58  83 122 160 187 233 282 358
#     4  10  19  36  60  85 118 156 190 233 291 347
#     4  10  20  37  57  89 124 155 185 234 305 345
#     4  11  24  35  57  94 121 150 195 242 296 352
#     4  11  22  36  60  88 109 149 206 247 287 342
#     4  10  19  35  61  83 116 154 196 231 284 353
#
# _framework density 21.993199000000001
#
# number of rings (size 3 to 8) (size 9 to 14) (size 15 to 20)
#    0.000    1.500    6.250    1.125    0.000    3.500 
#    0.000    5.000    0.000    0.000    6.500    0.000 
#    0.000    0.000    0.000    0.000    0.000    0.000 
#
# Total GULP energy -396475.468338 kJ/mol
# GULP energy per Si atom -12389.858386 kJ/mol
# Density = 2.194314 g / cm^3
# Si number density = 21.993199 Si / 1000 Ang^3
#
#
#
# Elastic Constant Matrix: (Units=GPa)
#
#
# Indices 1 2 3 4 5 6 
#
# 1 64.4866 -3.9240 13.5306 0.0000 -5.0432 0.0000
# 2 -3.9240 27.2762 -8.1235 0.0000 -8.8253 0.0000
# 3 13.5306 -8.1235 140.6471 0.0000 -5.5133 0.0000
# 4 0.0000 0.0000 0.0000 21.9911 0.0000 -6.0905
# 5 -5.0432 -8.8253 -5.5133 0.0000 16.3699 0.0000
# 6 0.0000 0.0000 0.0000 -6.0905 0.0000 23.3288
#
#
#
# Elastic Compliance Matrix: (Units=1/GPa)
#
#
# Indices 1 2 3 4 5 6 
#
# 1 0.016550 0.004359 -0.001062 0.000000 0.007091 0.000000
# 2 0.004359 0.047377 0.003416 0.000000 0.028035 0.000000
# 3 -0.001062 0.003416 0.007569 0.000000 0.004063 0.000000
# 4 0.000000 0.000000 0.000000 0.049017 0.000000 0.012797
# 5 0.007091 0.028035 0.004063 0.000000 0.079755 0.000000
# 6 0.000000 0.000000 0.000000 0.012797 0.000000 0.046206
#
#
# Mechanical properties :
#
#
# Convention : Reuss Voigt Hill
#
# Bulk Modulus (GPa) = 11.77573 26.15290 18.96432
# Shear Modulus (GPa) = 19.13096 27.73309 23.43203
#
# Velocity S-wave (km/s) = 2.95254 3.55489 3.26762
# Velocity P-wave (km/s) = 4.12179 5.36347 4.78309
#
# Compressibility (1/GPa) = 0.08492043
#
# Stress axis : x y z
#
# Youngs Moduli (GPa) = 60.42382 21.10715 132.12146
#
# Poissons Ratio (x) = -0.09200 0.14037
# Poissons Ratio (y) = -0.26337 -0.45134
# Poissons Ratio (z) = 0.06420 -0.07210
#
# Static dielectric constant tensor:
#      x y z
#    x 3.387500 0.000000 -0.198340 
#    y 0.000000 3.829290 0.000000 
#    z -0.198340 0.000000 4.224890 
# 
# 
# High freq. dielectric constant tensor:
#      x y z
#    x 1.810160 0.000000 -0.010850 
#    y 0.000000 1.862170 0.000000 
#    z -0.010850 0.000000 1.872670 
# 
# From -- ./inp_files/276320.got.cif
#   From: 2010.06.25/outbox.cif.g09.slc.cpg/sg15_139_cif.got.tgz:276320.got - 2010.06.28 07:06:18.
