data_PCOD8134972
_publ_section_title
;
Structure prediction by ZEFSAII (Michael W. Deem and Ramdas Pophale) SiO2 
 PCOD8134972
Probable space group: C 2/C
;
_chemical_formula_sum "Si O2"
_cell_formula_units_Z 64
_cell_length_a 9.575048
_cell_length_b 13.480760
_cell_length_c 26.969403
_cell_angle_alpha 90.000000
_cell_angle_beta 120.496249
_cell_angle_gamma 90.000000
_cell_volume 2999.603176
_symmetry_space_group_name_H-M "C 2/C"
_symmetry_group_IT_number 15
_symmetry_cell_setting 'monoclinic'
loop_
_space_group_symop_operation_xyz
x,y,z
-x,y,1/2-z
-x,-y,-z
x,-y,1/2+z
1/2+x,1/2+y,z
1/2-x,1/2+y,1/2-z
1/2-x,1/2-y,-z
1/2+x,1/2-y,1/2+z
loop_
_atom_site_type_symbol
_atom_site_label
_atom_site_fract_x
_atom_site_fract_y
_atom_site_fract_z
Si Si1 0.134731 0.728953 0.812295
Si Si2 0.986093 0.207126 0.872701
Si Si3 0.874495 0.915132 0.183634
Si Si4 0.515600 0.111675 0.633189
Si Si5 0.060538 0.584509 0.432468
Si Si6 0.426610 0.598175 0.512883
Si Si7 0.074955 0.787463 0.953921
Si Si8 0.707184 0.592936 0.396657
O O1 0.303914 0.700072 0.817047
O O2 0.062214 0.634983 0.827869
O O3 0.187589 0.807417 0.862564
O O4 0.000000 0.770526 0.750000
O O5 0.097590 0.179754 0.846161
O O6 0.038678 0.318154 0.895358
O O7 0.994107 0.130394 0.920703
O O8 0.701296 0.911155 0.178124
O O9 0.000000 0.927990 0.250000
O O10 0.885780 0.007712 0.148770
O O11 0.510406 0.202201 0.593373
O O12 0.425524 0.013565 0.598308
O O13 0.234391 0.590667 0.491076
O O14 0.901930 0.573135 0.439952
O O15 0.500000 0.500000 0.500000
O O16 0.462070 0.688565 0.480821
O O17 0.111145 0.890593 0.930795
O O18 0.250000 0.750000 0.000000
#
# Coordination Sequence:
#
# PCOD8134972 Si02
#       8
#     8   8   8   8   8   8   8   8
#     4  10  19  37  59  81 109 147 188 236 283 329
#     4  11  23  38  57  84 114 147 189 231 282 341
#     4  11  22  39  59  84 114 151 194 243 287 332
#     4  10  22  38  58  84 114 149 193 235 279 343
#     4  10  21  39  57  82 118 152 184 231 283 338
#     4  12  23  38  59  85 117 151 184 228 284 344
#     4  11  21  38  60  87 118 152 189 233 288 348
#     4   9  21  37  59  85 113 147 193 235 283 343
#
# _framework density 21.336155999999999
#
# number of rings (size 3 to 8) (size 9 to 14) (size 15 to 20)
#    0.000    1.500    0.000    6.750    0.000    1.000 
#    0.000    5.625    0.000    0.000    0.000    0.000 
#    0.000    0.000    0.000    0.000    0.000    0.000 
#
# Total GULP energy -396665.235241 kJ/mol
# GULP energy per Si atom -12395.788601 kJ/mol
# Density = 2.128759 g / cm^3
# Si number density = 21.336156 Si / 1000 Ang^3
#
#
#
# Elastic Constant Matrix: (Units=GPa)
#
#
# Indices 1 2 3 4 5 6 
#
# 1 70.5155 12.1496 27.8519 0.0000 6.4868 0.0000
# 2 12.1496 70.5360 4.2560 0.0000 3.9288 0.0000
# 3 27.8519 4.2560 87.2299 0.0000 27.0974 0.0000
# 4 0.0000 0.0000 0.0000 11.3749 0.0000 8.3913
# 5 6.4868 3.9288 27.0974 0.0000 31.1858 0.0000
# 6 0.0000 0.0000 0.0000 8.3913 0.0000 25.4586
#
#
#
# Elastic Compliance Matrix: (Units=1/GPa)
#
#
# Indices 1 2 3 4 5 6 
#
# 1 0.016757 -0.002641 -0.005810 0.000000 0.001896 0.000000
# 2 -0.002641 0.014696 0.000727 0.000000 -0.001934 0.000000
# 3 -0.005810 0.000727 0.017720 0.000000 -0.014280 0.000000
# 4 0.000000 0.000000 0.000000 0.116156 0.000000 -0.038286
# 5 0.001896 -0.001934 -0.014280 0.000000 0.044323 0.000000
# 6 0.000000 0.000000 0.000000 -0.038286 0.000000 0.051899
#
#
# Mechanical properties :
#
#
# Convention : Reuss Voigt Hill
#
# Bulk Modulus (GPa) = 29.65344 35.19960 32.42652
# Shear Modulus (GPa) = 17.34662 25.87213 21.60937
#
# Velocity S-wave (km/s) = 2.85444 3.48601 3.18591
# Velocity P-wave (km/s) = 4.97917 5.72158 5.36324
#
# Compressibility (1/GPa) = 0.03372290
#
# Stress axis : x y z
#
# Youngs Moduli (GPa) = 59.67669 68.04592 56.43479
#
# Poissons Ratio (x) = 0.17973 0.32791
# Poissons Ratio (y) = 0.15763 -0.04103
# Poissons Ratio (z) = 0.34675 -0.04947
#
# Static dielectric constant tensor:
#      x y z
#    x 4.356940 0.000000 0.232800 
#    y 0.000000 4.459580 0.000000 
#    z 0.232800 0.000000 3.760910 
# 
# 
# High freq. dielectric constant tensor:
#      x y z
#    x 1.845850 0.000000 0.013050 
#    y 0.000000 1.844790 0.000000 
#    z 0.013050 0.000000 1.824900 
# 
# From -- ./inp_files/308035.got.cif
#   From: 2010.06.25/outbox.cif.g09.slc.cpg/sg15_155_cif.got.tgz:308035.got - 2010.06.28 07:06:18.
