data_PCOD8134478
_publ_section_title
;
Structure prediction by ZEFSAII (Michael W. Deem and Ramdas Pophale) SiO2 
 PCOD8134478
Probable space group: C 2/C
;
_chemical_formula_sum "Si O2"
_cell_formula_units_Z 56
_cell_length_a 33.296749
_cell_length_b 8.171244
_cell_length_c 25.034501
_cell_angle_alpha 90.000000
_cell_angle_beta 153.695039
_cell_angle_gamma 90.000000
_cell_volume 3018.412149
_symmetry_space_group_name_H-M "C 2/C"
_symmetry_group_IT_number 15
_symmetry_cell_setting 'monoclinic'
loop_
_space_group_symop_operation_xyz
x,y,z
-x,y,1/2-z
-x,-y,-z
x,-y,1/2+z
1/2+x,1/2+y,z
1/2-x,1/2+y,1/2-z
1/2-x,1/2-y,-z
1/2+x,1/2-y,1/2+z
loop_
_atom_site_type_symbol
_atom_site_label
_atom_site_fract_x
_atom_site_fract_y
_atom_site_fract_z
Si Si1 0.940501 0.502671 0.319938
Si Si2 0.049526 0.303630 0.364704
Si Si3 0.320253 0.808407 0.255321
Si Si4 0.347177 0.507046 0.477439
Si Si5 0.884282 0.694692 0.949517
Si Si6 0.269922 0.204200 0.084155
Si Si7 0.722874 0.994367 0.596592
O O1 0.901342 0.398662 0.322016
O O2 0.866055 0.614753 0.202330
O O3 0.980085 0.379153 0.323836
O O4 0.016864 0.616674 0.436489
O O5 0.076556 0.123450 0.416579
O O6 0.138101 0.417515 0.463273
O O7 0.000000 0.288061 0.250000
O O8 0.349618 0.762090 0.349665
O O9 0.297714 0.641858 0.197565
O O10 0.232645 0.924935 0.152213
O O11 0.393485 0.642918 0.495892
O O12 0.308297 0.585933 0.485740
O O13 0.813015 0.569258 0.890729
O O14 0.273338 0.370632 0.121830
O O15 0.250000 0.250000 0.000000
#
# Coordination Sequence:
#
# PCOD8134478 Si02
#       7
#     8   8   8   8   8   8   8
#     4  10  22  34  53  82 106 133 181 218 255 309
#     4  10  20  37  55  77 108 140 171 217 261 305
#     4  10  19  36  55  77 107 139 172 219 262 305
#     4   9  21  35  54  80 104 139 182 205 257 331
#     4  10  19  36  55  77 107 139 171 219 263 305
#     4  10  20  37  56  78 107 139 172 219 262 304
#     4   9  20  35  56  79 103 139 181 205 255 329
#
# _framework density 18.552800999999999
#
# number of rings (size 3 to 8) (size 9 to 14) (size 15 to 20)
#    0.000    2.286    0.000    2.143    0.000    3.429 
#    0.000   11.429    0.000    0.000    0.000    0.000 
#    0.000    0.000    0.000    0.000    0.000    0.000 
#
# Total GULP energy -347307.563122 kJ/mol
# GULP energy per Si atom -12403.841540 kJ/mol
# Density = 1.851057 g / cm^3
# Si number density = 18.552801 Si / 1000 Ang^3
#
#
#
# Elastic Constant Matrix: (Units=GPa)
#
#
# Indices 1 2 3 4 5 6 
#
# 1 92.7357 54.1202 70.7768 0.0000 -4.4319 0.0000
# 2 54.1202 132.0722 58.4691 0.0000 8.0754 0.0000
# 3 70.7768 58.4691 112.7106 0.0000 -9.4633 0.0000
# 4 0.0000 0.0000 0.0000 28.2600 0.0000 11.7317
# 5 -4.4319 8.0754 -9.4633 0.0000 24.8285 0.0000
# 6 0.0000 0.0000 0.0000 11.7317 0.0000 28.6232
#
#
#
# Elastic Compliance Matrix: (Units=1/GPa)
#
#
# Indices 1 2 3 4 5 6 
#
# 1 0.022079 -0.003866 -0.011800 0.000000 0.000701 0.000000
# 2 -0.003866 0.011234 -0.003889 0.000000 -0.005826 0.000000
# 3 -0.011800 -0.003889 0.018831 0.000000 0.006336 0.000000
# 4 0.000000 0.000000 0.000000 0.042641 0.000000 -0.017477
# 5 0.000701 -0.005826 0.006336 0.000000 0.044711 0.000000
# 6 0.000000 0.000000 0.000000 -0.017477 0.000000 0.042100
#
#
# Mechanical properties :
#
#
# Convention : Reuss Voigt Hill
#
# Bulk Modulus (GPa) = 76.72342 78.25007 77.48674
# Shear Modulus (GPa) = 22.21706 26.61917 24.41811
#
# Velocity S-wave (km/s) = 3.46425 3.79196 3.63180
# Velocity P-wave (km/s) = 7.57926 7.83839 7.70992
#
# Compressibility (1/GPa) = 0.01303383
#
# Stress axis : x y z
#
# Youngs Moduli (GPa) = 45.29143 89.01676 53.10264
#
# Poissons Ratio (x) = 0.34418 0.62661
# Poissons Ratio (y) = 0.17512 0.20651
# Poissons Ratio (z) = 0.53444 0.34617
#
# Static dielectric constant tensor:
#      x y z
#    x 3.359880 0.000000 0.079810 
#    y 0.000000 3.614500 0.000000 
#    z 0.079810 0.000000 3.311550 
# 
# 
# High freq. dielectric constant tensor:
#      x y z
#    x 1.718770 0.000000 0.000660 
#    y 0.000000 1.735670 0.000000 
#    z 0.000660 0.000000 1.718380 
# 
# From -- ./inp_files/171789.got.cif
#   From: 2010.06.25/outbox.cif.g09.slc.cpg/sg15_86_cif.got.tgz:171789.got - 2010.06.28 07:06:18.
