data_PCOD8134813
_publ_section_title
;
Structure prediction by ZEFSAII (Michael W. Deem and Ramdas Pophale) SiO2 
 PCOD8134813
Probable space group: C 2/C
;
_chemical_formula_sum "Si O2"
_cell_formula_units_Z 60
_cell_length_a 11.961957
_cell_length_b 30.450757
_cell_length_c 17.457425
_cell_angle_alpha 90.000000
_cell_angle_beta 150.825193
_cell_angle_gamma 90.000000
_cell_volume 3099.799222
_symmetry_space_group_name_H-M "C 2/C"
_symmetry_group_IT_number 15
_symmetry_cell_setting 'monoclinic'
loop_
_space_group_symop_operation_xyz
x,y,z
-x,y,1/2-z
-x,-y,-z
x,-y,1/2+z
1/2+x,1/2+y,z
1/2-x,1/2+y,1/2-z
1/2-x,1/2-y,-z
1/2+x,1/2-y,1/2+z
loop_
_atom_site_type_symbol
_atom_site_label
_atom_site_fract_x
_atom_site_fract_y
_atom_site_fract_z
Si Si1 0.543485 0.792488 0.154695
Si Si2 0.721687 0.374746 0.717706
Si Si3 0.450328 0.125030 0.513285
Si Si4 0.807524 0.536958 0.878171
Si Si5 0.173011 0.976175 0.462608
Si Si6 0.000000 0.417088 0.750000
Si Si7 0.887943 0.068742 0.104375
Si Si8 0.886483 0.204833 0.996594
O O1 0.594429 0.833859 0.130500
O O2 0.296279 0.801467 0.044959
O O3 0.751768 0.788468 0.337456
O O4 0.537864 0.748020 0.102297
O O5 0.904645 0.386605 0.761198
O O6 0.573666 0.417704 0.651577
O O7 0.556495 0.336136 0.590019
O O8 0.851152 0.359871 0.872235
O O9 0.605761 0.082422 0.603385
O O10 0.253475 0.112213 0.457313
O O11 0.605085 0.522035 0.699092
O O12 0.731098 0.547862 0.918292
O O13 0.000000 0.500000 0.000000
O O14 0.289236 0.948293 0.599144
O O15 0.257830 0.027379 0.515853
O O16 0.000000 0.049508 0.250000
#
# Coordination Sequence:
#
# PCOD8134813 Si02
#       8
#     8   8   8   8   8   4   8   8
#     4  10  21  37  64  99 125 156 192 249 326 380
#     4  11  23  40  60  86 128 165 209 255 311 375
#     4  11  20  36  65  93 119 159 208 258 314 371
#     4  11  20  39  65  86 119 168 219 260 305 372
#     4  11  23  40  58  85 125 169 216 262 308 369
#     4  12  28  42  54  88 132 178 212 260 316 366
#     4  10  19  36  63  88 115 159 212 263 311 366
#     4  10  21  39  62  95 133 154 191 251 320 386
#
# _framework density 19.356092
#
# number of rings (size 3 to 8) (size 9 to 14) (size 15 to 20)
#    0.000    1.333    5.333    1.600    1.867    1.600 
#    2.400    0.000    0.000    4.800    0.000    0.000 
#    0.000    0.000    0.000    0.000    0.000    0.000 
#
# Total GULP energy -371929.620430 kJ/mol
# GULP energy per Si atom -12397.654014 kJ/mol
# Density = 1.931204 g / cm^3
# Si number density = 19.356092 Si / 1000 Ang^3
#
#
#
# Elastic Constant Matrix: (Units=GPa)
#
#
# Indices 1 2 3 4 5 6 
#
# 1 81.2886 38.3121 25.7561 -0.0001 1.9185 0.0000
# 2 38.3121 134.7750 57.7918 0.0000 -9.7957 0.0000
# 3 25.7561 57.7918 111.6615 -0.0002 -5.5921 -0.0001
# 4 -0.0001 0.0000 -0.0002 37.3620 -0.0002 0.3095
# 5 1.9185 -9.7957 -5.5921 -0.0002 22.1523 -0.0001
# 6 0.0000 0.0000 -0.0001 0.3095 -0.0001 18.4164
#
#
#
# Elastic Compliance Matrix: (Units=1/GPa)
#
#
# Indices 1 2 3 4 5 6 
#
# 1 0.014642 -0.003706 -0.001625 0.000000 -0.003317 0.000000
# 2 -0.003706 0.010677 -0.004475 0.000000 0.003913 0.000000
# 3 -0.001625 -0.004475 0.011702 0.000000 0.001116 0.000000
# 4 0.000000 0.000000 0.000000 0.026769 0.000000 -0.000450
# 5 -0.003317 0.003913 0.001116 0.000000 0.047441 0.000000
# 6 0.000000 0.000000 0.000000 -0.000450 0.000000 0.054307
#
#
# Mechanical properties :
#
#
# Convention : Reuss Voigt Hill
#
# Bulk Modulus (GPa) = 57.44507 63.49388 60.46947
# Shear Modulus (GPa) = 26.18433 29.31049 27.74741
#
# Velocity S-wave (km/s) = 3.68199 3.89559 3.79030
# Velocity P-wave (km/s) = 6.91510 7.28755 7.10377
#
# Compressibility (1/GPa) = 0.01740793
#
# Stress axis : x y z
#
# Youngs Moduli (GPa) = 68.29682 93.66252 85.45215
#
# Poissons Ratio (x) = 0.34716 0.13887
# Poissons Ratio (y) = 0.25314 0.38239
# Poissons Ratio (z) = 0.11099 0.41913
#
# Static dielectric constant tensor:
#      x y z
#    x 3.443110 0.000000 0.060240 
#    y 0.000000 3.617190 0.000000 
#    z 0.060240 0.000000 3.570170 
# 
# 
# High freq. dielectric constant tensor:
#      x y z
#    x 1.730040 0.000000 -0.004910 
#    y 0.000000 1.758040 0.000000 
#    z -0.004910 0.000000 1.746730 
# 
# From -- ./inp_files/201416.got.cif
#   From: 2010.06.25/outbox.cif.g09.slc.cpg/sg15_101_cif.got.tgz:201416.got - 2010.06.28 07:06:18.
