data_PCOD8134015
_publ_section_title
;
Structure prediction by ZEFSAII (Michael W. Deem and Ramdas Pophale) SiO2 
 PCOD8134015
Probable space group: C 2/C
;
_chemical_formula_sum "Si O2"
_cell_formula_units_Z 40
_cell_length_a 24.169840
_cell_length_b 15.665015
_cell_length_c 5.346583
_cell_angle_alpha 90.000000
_cell_angle_beta 63.741757
_cell_angle_gamma 90.000000
_cell_volume 1815.435864
_symmetry_space_group_name_H-M "C 2/C"
_symmetry_group_IT_number 15
_symmetry_cell_setting 'monoclinic'
loop_
_space_group_symop_operation_xyz
x,y,z
-x,y,1/2-z
-x,-y,-z
x,-y,1/2+z
1/2+x,1/2+y,z
1/2-x,1/2+y,1/2-z
1/2-x,1/2-y,-z
1/2+x,1/2-y,1/2+z
loop_
_atom_site_type_symbol
_atom_site_label
_atom_site_fract_x
_atom_site_fract_y
_atom_site_fract_z
Si Si1 0.678379 0.277960 0.643243
Si Si2 0.229023 0.541975 0.041954
Si Si3 0.351200 0.189656 0.297600
Si Si4 0.025548 0.402794 0.948904
Si Si5 0.860139 0.972583 0.779721
O O1 0.750000 0.250000 0.500000
O O2 0.643278 0.244893 0.465509
O O3 0.669381 0.379216 0.661237
O O4 0.643278 0.244893 0.961378
O O5 0.199911 0.500000 0.850177
O O6 0.302553 0.537950 0.894893
O O7 0.215006 0.642813 0.069989
O O8 0.400973 0.111803 0.198054
O O9 0.000000 0.356826 0.750000
O O10 0.000000 0.356826 0.250000
O O11 0.000000 0.500000 0.000000
O O12 0.898616 1.000000 0.452767
#
# Coordination Sequence:
#
# PCOD8134015 Si02
#       5
#     8   8   8   8   8
#     4  12  23  38  56  89 126 165 215 261 309 388
#     4  10  20  32  51  76 106 157 208 235 294 362
#     4  12  24  38  62  85 125 169 214 261 328 364
#     4  10  23  41  61  89 121 159 221 276 308 372
#     4  10  19  35  52  77 115 159 199 246 289 366
#
# _framework density 22.033276999999998
#
# number of rings (size 3 to 8) (size 9 to 14) (size 15 to 20)
#    0.000    1.200    0.000    9.000    5.600    0.000 
#    0.000    0.000    0.000    0.000    0.000    0.000 
#    0.000   56.000    0.000    0.000    0.000    0.000 
#
# Total GULP energy -247776.117513 kJ/mol
# GULP energy per Si atom -12388.805876 kJ/mol
# Density = 2.198313 g / cm^3
# Si number density = 22.033277 Si / 1000 Ang^3
#
#
#
# Elastic Constant Matrix: (Units=GPa)
#
#
# Indices 1 2 3 4 5 6 
#
# 1 55.1357 12.4816 44.8005 0.0000 15.1669 0.0000
# 2 12.4816 62.8428 33.4872 0.0000 12.1883 0.0000
# 3 44.8005 33.4872 194.2099 0.0000 65.5298 0.0000
# 4 0.0000 0.0000 0.0000 32.3044 0.0000 2.9191
# 5 15.1669 12.1883 65.5298 0.0000 47.4597 0.0000
# 6 0.0000 0.0000 0.0000 2.9191 0.0000 27.2737
#
#
#
# Elastic Compliance Matrix: (Units=1/GPa)
#
#
# Indices 1 2 3 4 5 6 
#
# 1 0.022520 -0.001877 -0.004878 0.000000 0.000021 0.000000
# 2 -0.001877 0.017689 -0.002409 0.000000 -0.000617 0.000000
# 3 -0.004878 -0.002409 0.011149 0.000000 -0.013217 0.000000
# 4 0.000000 0.000000 0.000000 0.031258 0.000000 -0.003345
# 5 0.000021 -0.000617 -0.013217 0.000000 0.039471 0.000000
# 6 0.000000 0.000000 0.000000 -0.003345 0.000000 0.037023
#
#
# Mechanical properties :
#
#
# Convention : Reuss Voigt Hill
#
# Bulk Modulus (GPa) = 30.27636 54.85856 42.56746
# Shear Modulus (GPa) = 26.53227 36.16885 31.35056
#
# Velocity S-wave (km/s) = 3.47391 4.05601 3.77619
# Velocity P-wave (km/s) = 5.46459 6.84741 6.19471
#
# Compressibility (1/GPa) = 0.03302907
#
# Stress axis : x y z
#
# Youngs Moduli (GPa) = 44.40457 56.53286 89.69136
#
# Poissons Ratio (x) = 0.10614 0.43755
# Poissons Ratio (y) = 0.08337 0.21606
# Poissons Ratio (z) = 0.21662 0.13618
#
# Static dielectric constant tensor:
#      x y z
#    x 3.834320 0.000000 1.149180 
#    y 0.000000 3.788950 0.000000 
#    z 1.149180 0.000000 5.814840 
# 
# 
# High freq. dielectric constant tensor:
#      x y z
#    x 1.813660 0.000000 0.049460 
#    y 0.000000 1.850740 0.000000 
#    z 0.049460 0.000000 1.898910 
# 
# From -- ./inp_files/7341.got.cif
#   From: 2010.06.25/outbox.cif.g09.slc.cpg/sg15_4_cif.got.tgz:7341.got - 2010.06.28 07:06:18.
