data_PCOD8134386
_publ_section_title
;
Structure prediction by ZEFSAII (Michael W. Deem and Ramdas Pophale) SiO2 
 PCOD8134386
Probable space group: C 2/C
;
_chemical_formula_sum "Si O2"
_cell_formula_units_Z 56
_cell_length_a 10.445281
_cell_length_b 14.472352
_cell_length_c 26.057304
_cell_angle_alpha 90.000000
_cell_angle_beta 139.022027
_cell_angle_gamma 90.000000
_cell_volume 2583.089769
_symmetry_space_group_name_H-M "C 2/C"
_symmetry_group_IT_number 15
_symmetry_cell_setting 'monoclinic'
loop_
_space_group_symop_operation_xyz
x,y,z
-x,y,1/2-z
-x,-y,-z
x,-y,1/2+z
1/2+x,1/2+y,z
1/2-x,1/2+y,1/2-z
1/2-x,1/2-y,-z
1/2+x,1/2-y,1/2+z
loop_
_atom_site_type_symbol
_atom_site_label
_atom_site_fract_x
_atom_site_fract_y
_atom_site_fract_z
Si Si1 0.898224 0.683495 0.415221
Si Si2 0.518854 0.477179 0.919632
Si Si3 0.551076 0.632794 0.523708
Si Si4 0.286000 0.091452 0.925779
Si Si5 0.124523 0.287635 0.883878
Si Si6 0.721832 0.519230 0.314271
Si Si7 0.358810 0.069801 0.249259
O O1 0.726521 0.626369 0.335563
O O2 0.827982 0.773760 0.425843
O O3 0.008559 0.612802 0.485981
O O4 0.051512 0.719803 0.419948
O O5 0.630386 0.410695 0.994300
O O6 0.667504 0.516013 0.922870
O O7 0.353192 0.416053 0.840629
O O8 0.419086 0.560951 0.920885
O O9 0.321514 0.652426 0.444996
O O10 0.160321 0.183368 0.876687
O O11 0.341592 0.047566 0.887902
O O12 0.964321 0.334170 0.797628
O O13 0.500000 0.486106 0.250000
O O14 0.823677 0.508096 0.289560
O O15 0.500000 0.019941 0.250000
#
# Coordination Sequence:
#
# PCOD8134386 Si02
#       7
#     8   8   8   8   8   8   8
#     4  10  20  39  62  92 126 161 212 261 307 363
#     4  11  20  35  62  90 128 153 211 255 309 355
#     4  10  19  35  62  91 115 169 209 255 298 369
#     4  11  20  39  64  97 120 164 211 265 299 376
#     4  10  19  37  65  90 120 160 222 253 299 362
#     4  11  24  39  63  93 132 166 199 261 328 371
#     4  11  23  41  61  89 126 167 207 261 311 372
#
# _framework density 21.679462000000001
#
# number of rings (size 3 to 8) (size 9 to 14) (size 15 to 20)
#    0.000    1.429    5.714    1.286    0.000    0.571 
#    0.000    1.429    0.000    1.714    0.000    0.000 
#    0.000    0.000    0.000    0.000    0.000    0.000 
#
# Total GULP energy -347047.015658 kJ/mol
# GULP energy per Si atom -12394.536274 kJ/mol
# Density = 2.163012 g / cm^3
# Si number density = 21.679462 Si / 1000 Ang^3
#
#
#
# Elastic Constant Matrix: (Units=GPa)
#
#
# Indices 1 2 3 4 5 6 
#
# 1 103.2848 27.8752 24.8182 0.0000 -35.2701 0.0000
# 2 27.8752 74.7851 28.5480 0.0000 -13.7369 0.0000
# 3 24.8182 28.5480 76.2295 0.0000 -23.6141 0.0000
# 4 0.0000 0.0000 0.0000 25.1226 0.0000 -2.2088
# 5 -35.2701 -13.7369 -23.6141 0.0000 35.3508 0.0000
# 6 0.0000 0.0000 0.0000 -2.2088 0.0000 19.4226
#
#
#
# Elastic Compliance Matrix: (Units=1/GPa)
#
#
# Indices 1 2 3 4 5 6 
#
# 1 0.015368 -0.003345 0.000752 0.000000 0.014535 0.000000
# 2 -0.003345 0.016541 -0.005231 0.000000 -0.000404 0.000000
# 3 0.000752 -0.005231 0.018202 0.000000 0.010876 0.000000
# 4 0.000000 0.000000 0.000000 0.040207 0.000000 0.004573
# 5 0.014535 -0.000404 0.010876 0.000000 0.049898 0.000000
# 6 0.000000 0.000000 0.000000 0.004573 0.000000 0.052007
#
#
# Mechanical properties :
#
#
# Convention : Reuss Voigt Hill
#
# Bulk Modulus (GPa) = 29.01705 46.30911 37.66308
# Shear Modulus (GPa) = 22.79394 27.51640 25.15517
#
# Velocity S-wave (km/s) = 3.24606 3.56650 3.41005
# Velocity P-wave (km/s) = 5.24050 6.19412 5.73716
#
# Compressibility (1/GPa) = 0.03446249
#
# Stress axis : x y z
#
# Youngs Moduli (GPa) = 65.07229 60.45561 54.94049
#
# Poissons Ratio (x) = 0.20224 -0.04132
# Poissons Ratio (y) = 0.21769 0.28737
# Poissons Ratio (z) = -0.04894 0.31622
#
# Static dielectric constant tensor:
#      x y z
#    x 3.822120 0.000000 -0.352440 
#    y 0.000000 3.882680 0.000000 
#    z -0.352440 0.000000 3.987760 
# 
# 
# High freq. dielectric constant tensor:
#      x y z
#    x 1.835650 0.000000 -0.028260 
#    y 0.000000 1.840070 0.000000 
#    z -0.028260 0.000000 1.854560 
# 
# From -- ./inp_files/292890.got.cif
#   From: 2010.06.25/outbox.cif.g09.slc.cpg/sg15_147_cif.got.tgz:292890.got - 2010.06.28 07:06:18.
