data_PCOD8134687
_publ_section_title
;
Structure prediction by ZEFSAII (Michael W. Deem and Ramdas Pophale) SiO2 
 PCOD8134687
Probable space group: C 2/C
;
_chemical_formula_sum "Si O2"
_cell_formula_units_Z 60
_cell_length_a 24.823521
_cell_length_b 8.573721
_cell_length_c 22.920093
_cell_angle_alpha 90.000000
_cell_angle_beta 142.391364
_cell_angle_gamma 90.000000
_cell_volume 2976.920701
_symmetry_space_group_name_H-M "C 2/C"
_symmetry_group_IT_number 15
_symmetry_cell_setting 'monoclinic'
loop_
_space_group_symop_operation_xyz
x,y,z
-x,y,1/2-z
-x,-y,-z
x,-y,1/2+z
1/2+x,1/2+y,z
1/2-x,1/2+y,1/2-z
1/2-x,1/2-y,-z
1/2+x,1/2-y,1/2+z
loop_
_atom_site_type_symbol
_atom_site_label
_atom_site_fract_x
_atom_site_fract_y
_atom_site_fract_z
Si Si1 0.738330 0.217758 0.291609
Si Si2 0.104612 0.180425 0.580194
Si Si3 0.825193 0.440578 0.587075
Si Si4 0.918274 0.842742 0.896495
Si Si5 0.248956 0.404902 0.369877
Si Si6 0.000000 0.640034 0.750000
Si Si7 0.403240 0.340185 0.753593
Si Si8 0.298626 0.377585 0.121538
O O1 0.655179 0.244473 0.178056
O O2 0.828810 0.254584 0.333524
O O3 0.735122 0.337788 0.342626
O O4 0.732199 0.040414 0.307940
O O5 0.161928 0.190987 0.569387
O O6 0.006642 0.256507 0.489936
O O7 0.088800 0.996718 0.571526
O O8 0.751384 0.523586 0.565044
O O9 0.916195 0.533769 0.663175
O O10 0.786100 0.432009 0.488620
O O11 0.845345 0.268917 0.630134
O O12 0.932163 0.898195 0.841825
O O13 0.171493 0.284042 0.298096
O O14 0.983424 0.752783 0.790599
O O15 0.369801 0.484092 0.685651
#
# Coordination Sequence:
#
# PCOD8134687 Si02
#       8
#     8   8   8   8   8   4   8   8
#     4  10  19  39  59  89 122 165 197 259 307 369
#     4  10  19  36  60  86 122 163 194 257 302 366
#     4   9  21  43  60  89 120 162 204 262 306 364
#     4  10  21  35  58  92 122 153 212 242 307 360
#     4   9  20  36  60  81 125 160 193 254 321 351
#     4  10  24  40  56  90 130 148 200 266 312 348
#     4  11  21  38  59  88 119 159 200 254 298 378
#     4  10  21  39  68  85 115 169 214 238 317 373
#
# _framework density 20.155054
#
# number of rings (size 3 to 8) (size 9 to 14) (size 15 to 20)
#    0.000    2.133    2.667    0.000    0.000    4.800 
#    7.200    3.333    0.000    0.000    0.000    0.000 
#    0.000    0.000    0.000    0.000    0.000    0.000 
#
# Total GULP energy -371841.314094 kJ/mol
# GULP energy per Si atom -12394.710470 kJ/mol
# Density = 2.010918 g / cm^3
# Si number density = 20.155054 Si / 1000 Ang^3
#
#
#
# Elastic Constant Matrix: (Units=GPa)
#
#
# Indices 1 2 3 4 5 6 
#
# 1 113.4888 35.1795 51.2846 0.0000 3.0003 0.0000
# 2 35.1795 61.7152 30.2368 0.0000 -0.1368 0.0001
# 3 51.2846 30.2368 117.8485 0.0000 2.0856 0.0000
# 4 0.0000 0.0000 0.0000 20.1508 0.0000 1.6315
# 5 3.0003 -0.1368 2.0856 0.0000 29.1621 0.0000
# 6 0.0000 0.0001 0.0000 1.6315 0.0000 21.9563
#
#
#
# Elastic Compliance Matrix: (Units=1/GPa)
#
#
# Indices 1 2 3 4 5 6 
#
# 1 0.012196 -0.004990 -0.004010 0.000000 -0.000991 0.000000
# 2 -0.004990 0.020580 -0.003124 0.000000 0.000833 0.000000
# 3 -0.004010 -0.003124 0.011039 0.000000 -0.000392 0.000000
# 4 0.000000 0.000000 0.000000 0.049926 0.000000 -0.003710
# 5 -0.000991 0.000833 -0.000392 0.000000 0.034425 0.000000
# 6 0.000000 0.000000 0.000000 -0.003710 0.000000 0.045821
#
#
# Mechanical properties :
#
#
# Convention : Reuss Voigt Hill
#
# Bulk Modulus (GPa) = 51.10185 58.49493 54.79839
# Shear Modulus (GPa) = 24.41923 26.01061 25.21492
#
# Velocity S-wave (km/s) = 3.48454 3.59629 3.54085
# Velocity P-wave (km/s) = 6.44971 6.80660 6.63056
#
# Compressibility (1/GPa) = 0.01956876
#
# Stress axis : x y z
#
# Youngs Moduli (GPa) = 81.99130 48.59064 90.59003
#
# Poissons Ratio (x) = 0.24247 0.36324
# Poissons Ratio (y) = 0.40914 0.28296
# Poissons Ratio (z) = 0.32876 0.15177
#
# Static dielectric constant tensor:
#      x y z
#    x 4.187700 0.000000 0.077400 
#    y 0.000000 3.601480 0.000000 
#    z 0.077400 0.000000 3.658750 
# 
# 
# High freq. dielectric constant tensor:
#      x y z
#    x 1.796970 0.000000 -0.004850 
#    y 0.000000 1.777340 0.000000 
#    z -0.004850 0.000000 1.777430 
# 
# From -- ./inp_files/255180.got.cif
#   From: 2010.06.25/outbox.cif.g09.slc.cpg/sg15_128_cif.got.tgz:255180.got - 2010.06.28 07:06:18.
