data_PCOD8134431
_publ_section_title
;
Structure prediction by ZEFSAII (Michael W. Deem and Ramdas Pophale) SiO2 
 PCOD8134431
Probable space group: C 2/C
;
_chemical_formula_sum "Si O2"
_cell_formula_units_Z 48
_cell_length_a 11.259409
_cell_length_b 10.136999
_cell_length_c 21.235861
_cell_angle_alpha 90.000000
_cell_angle_beta 65.732292
_cell_angle_gamma 90.000000
_cell_volume 2209.611355
_symmetry_space_group_name_H-M "C 2/C"
_symmetry_group_IT_number 15
_symmetry_cell_setting 'monoclinic'
loop_
_space_group_symop_operation_xyz
x,y,z
-x,y,1/2-z
-x,-y,-z
x,-y,1/2+z
1/2+x,1/2+y,z
1/2-x,1/2+y,1/2-z
1/2-x,1/2-y,-z
1/2+x,1/2-y,1/2+z
loop_
_atom_site_type_symbol
_atom_site_label
_atom_site_fract_x
_atom_site_fract_y
_atom_site_fract_z
Si Si1 0.294348 0.732781 0.418609
Si Si2 0.847574 0.053407 0.090703
Si Si3 0.557594 0.112658 0.408089
Si Si4 0.646228 0.839322 0.447540
Si Si5 0.573585 0.975246 0.171183
Si Si6 0.384459 0.530914 0.940018
O O1 0.250000 0.750000 0.500000
O O2 0.173335 0.718866 0.395222
O O3 0.395979 0.846063 0.377280
O O4 0.366837 0.594394 0.399118
O O5 0.886887 0.208048 0.085133
O O6 0.958876 0.953814 0.093023
O O7 0.714561 0.036061 0.158322
O O8 0.826164 0.007423 0.022959
O O9 0.430861 0.172368 0.469952
O O10 0.596980 0.968832 0.424097
O O11 0.515524 0.085113 0.345015
O O12 0.802328 0.848180 0.427660
O O13 0.500000 0.931594 0.250000
#
# Coordination Sequence:
#
# PCOD8134431 Si02
#       6
#     8   8   8   8   8   8
#     4  11  20  41  68  93 121 165 224 275 318 381
#     4  11  21  34  59  93 128 158 204 266 326 384
#     4  10  21  38  64  93 124 165 210 261 325 392
#     4  10  19  35  64  95 122 149 203 272 326 370
#     4  12  26  43  59  90 134 175 211 263 342 409
#     4  10  20  33  61  94 119 152 205 272 318 367
#
# _framework density 21.723279000000002
#
# number of rings (size 3 to 8) (size 9 to 14) (size 15 to 20)
#    0.000    1.333    3.333    4.500    2.333    0.000 
#    6.000    0.000    0.000    0.000    0.000    0.000 
#    0.000    0.000    0.000    0.000    0.000    0.000 
#
# Total GULP energy -297330.172165 kJ/mol
# GULP energy per Si atom -12388.757174 kJ/mol
# Density = 2.167384 g / cm^3
# Si number density = 21.723279 Si / 1000 Ang^3
#
#
#
# Elastic Constant Matrix: (Units=GPa)
#
#
# Indices 1 2 3 4 5 6 
#
# 1 111.6953 9.1377 23.3841 0.0000 -15.7784 0.0000
# 2 9.1377 49.1912 7.0748 0.0000 -13.9263 0.0000
# 3 23.3841 7.0748 96.4955 0.0000 -17.7302 0.0000
# 4 0.0000 0.0000 0.0000 22.0215 0.0000 -2.5006
# 5 -15.7784 -13.9263 -17.7302 0.0000 18.8923 0.0000
# 6 0.0000 0.0000 0.0000 -2.5006 0.0000 43.0219
#
#
#
# Elastic Compliance Matrix: (Units=1/GPa)
#
#
# Indices 1 2 3 4 5 6 
#
# 1 0.010256 0.000493 -0.001064 0.000000 0.007930 0.000000
# 2 0.000493 0.026014 0.001900 0.000000 0.021371 0.000000
# 3 -0.001064 0.001900 0.012779 0.000000 0.012505 0.000000
# 4 0.000000 0.000000 0.000000 0.045712 0.000000 0.002657
# 5 0.007930 0.021371 0.012505 0.000000 0.087043 0.000000
# 6 0.000000 0.000000 0.000000 0.002657 0.000000 0.023398
#
#
# Mechanical properties :
#
#
# Convention : Reuss Voigt Hill
#
# Bulk Modulus (GPa) = 19.34000 37.39726 28.36863
# Shear Modulus (GPa) = 22.74988 31.30617 27.02802
#
# Velocity S-wave (km/s) = 3.23965 3.80035 3.53114
# Velocity P-wave (km/s) = 4.78706 6.04231 5.45094
#
# Compressibility (1/GPa) = 0.05170632
#
# Stress axis : x y z
#
# Youngs Moduli (GPa) = 97.50760 38.44052 78.25040
#
# Poissons Ratio (x) = -0.01895 0.08329
# Poissons Ratio (y) = -0.04807 -0.14867
# Poissons Ratio (z) = 0.10379 -0.07304
#
# Static dielectric constant tensor:
#      x y z
#    x 4.326590 0.000000 -0.067570 
#    y 0.000000 4.100140 0.000000 
#    z -0.067570 0.000000 3.231070 
# 
# 
# High freq. dielectric constant tensor:
#      x y z
#    x 1.879960 0.000000 -0.010820 
#    y 0.000000 1.872540 0.000000 
#    z -0.010820 0.000000 1.765240 
# 
# From -- ./inp_files/236825.got.cif
#   From: 2010.06.25/outbox.cif.g09.slc.cpg/sg15_119_cif.got.tgz:236825.got - 2010.06.28 07:06:18.
