data_PCOD8134945
_publ_section_title
;
Structure prediction by ZEFSAII (Michael W. Deem and Ramdas Pophale) SiO2 
 PCOD8134945
Probable space group: C 2/C
;
_chemical_formula_sum "Si O2"
_cell_formula_units_Z 40
_cell_length_a 4.916527
_cell_length_b 32.784089
_cell_length_c 12.296330
_cell_angle_alpha 90.000000
_cell_angle_beta 77.909632
_cell_angle_gamma 90.000000
_cell_volume 1938.006777
_symmetry_space_group_name_H-M "C 2/C"
_symmetry_group_IT_number 15
_symmetry_cell_setting 'monoclinic'
loop_
_space_group_symop_operation_xyz
x,y,z
-x,y,1/2-z
-x,-y,-z
x,-y,1/2+z
1/2+x,1/2+y,z
1/2-x,1/2+y,1/2-z
1/2-x,1/2-y,-z
1/2+x,1/2-y,1/2+z
loop_
_atom_site_type_symbol
_atom_site_label
_atom_site_fract_x
_atom_site_fract_y
_atom_site_fract_z
Si Si1 0.952668 0.610565 0.379314
Si Si2 0.467760 0.801021 0.555702
Si Si3 0.084862 0.756875 0.863034
Si Si4 0.921083 0.939047 0.944053
Si Si5 0.696909 0.480664 0.325819
O O1 0.015465 0.650327 0.445583
O O2 0.637274 0.598058 0.432066
O O3 0.000000 0.621482 0.250000
O O4 0.157610 0.573817 0.394330
O O5 0.623627 0.781157 0.647891
O O6 0.607923 0.783903 0.433735
O O7 0.146172 0.788886 0.577769
O O8 0.000000 0.742886 0.750000
O O9 0.800676 0.950192 0.072490
O O10 0.073140 0.976198 0.872560
O O11 0.500000 0.461329 0.250000
O O12 0.000000 0.486903 0.250000
#
# Coordination Sequence:
#
# PCOD8134945 Si02
#       5
#     8   8   8   8   8
#     4  12  22  37  58  87 121 149 185 243 296 335
#     4  10  22  35  57  87 113 147 193 232 281 341
#     4  10  19  37  58  81 113 152 192 232 275 333
#     4  11  24  38  60  89 115 149 196 234 284 349
#     4  11  22  41  63  84 114 154 193 236 282 338
#
# _framework density 20.639761
#
# number of rings (size 3 to 8) (size 9 to 14) (size 15 to 20)
#    0.000    1.200    0.000    7.800    0.000    3.200 
#    0.000    3.000    0.000    2.400    0.000    0.000 
#    0.000    0.000    0.000    0.000    0.000    0.000 
#
# Total GULP energy -248052.063780 kJ/mol
# GULP energy per Si atom -12402.603189 kJ/mol
# Density = 2.059278 g / cm^3
# Si number density = 20.639761 Si / 1000 Ang^3
#
#
#
# Elastic Constant Matrix: (Units=GPa)
#
#
# Indices 1 2 3 4 5 6 
#
# 1 87.3393 1.3346 23.1831 0.0000 8.1674 0.0000
# 2 1.3346 75.3094 35.0834 0.0000 2.1650 0.0000
# 3 23.1831 35.0834 110.5966 0.0000 4.2016 0.0000
# 4 0.0000 0.0000 0.0000 21.6056 0.0000 6.9511
# 5 8.1674 2.1650 4.2016 0.0000 37.7864 0.0000
# 6 0.0000 0.0000 0.0000 6.9511 0.0000 17.3238
#
#
#
# Elastic Compliance Matrix: (Units=1/GPa)
#
#
# Indices 1 2 3 4 5 6 
#
# 1 0.012427 0.001197 -0.002892 0.000000 -0.002433 0.000000
# 2 0.001197 0.015701 -0.005210 0.000000 -0.000579 0.000000
# 3 -0.002892 -0.005210 0.011313 0.000000 -0.000334 0.000000
# 4 0.000000 0.000000 0.000000 0.053145 0.000000 -0.021324
# 5 -0.002433 -0.000579 -0.000334 0.000000 0.027061 0.000000
# 6 0.000000 0.000000 0.000000 -0.021324 0.000000 0.066280
#
#
# Mechanical properties :
#
#
# Convention : Reuss Voigt Hill
#
# Bulk Modulus (GPa) = 39.01447 43.60527 41.30987
# Shear Modulus (GPa) = 24.00616 29.58608 26.79612
#
# Velocity S-wave (km/s) = 3.41413 3.79020 3.60707
# Velocity P-wave (km/s) = 5.87242 6.35034 6.11605
#
# Compressibility (1/GPa) = 0.02563152
#
# Stress axis : x y z
#
# Youngs Moduli (GPa) = 80.47317 63.69063 88.39087
#
# Poissons Ratio (x) = -0.07624 0.25564
# Poissons Ratio (y) = -0.09633 0.46048
# Poissons Ratio (z) = 0.23274 0.33180
#
# Static dielectric constant tensor:
#      x y z
#    x 3.978540 0.000000 0.100190 
#    y 0.000000 3.500140 0.000000 
#    z 0.100190 0.000000 3.821100 
# 
# 
# High freq. dielectric constant tensor:
#      x y z
#    x 1.829710 0.000000 0.007200 
#    y 0.000000 1.788550 0.000000 
#    z 0.007200 0.000000 1.807390 
# 
# From -- ./inp_files/73597.got.cif
#   From: 2010.06.25/outbox.cif.g09.slc.cpg/sg15_37_cif.got.tgz:73597.got - 2010.06.28 07:06:18.
