data_PCOD8134994
_publ_section_title
;
Structure prediction by ZEFSAII (Michael W. Deem and Ramdas Pophale) SiO2 
 PCOD8134994
Probable space group: C 2/C
;
_chemical_formula_sum "Si O2"
_cell_formula_units_Z 44
_cell_length_a 26.496237
_cell_length_b 11.802793
_cell_length_c 21.191611
_cell_angle_alpha 90.000000
_cell_angle_beta 160.878657
_cell_angle_gamma 90.000000
_cell_volume 2170.885503
_symmetry_space_group_name_H-M "C 2/C"
_symmetry_group_IT_number 15
_symmetry_cell_setting 'monoclinic'
loop_
_space_group_symop_operation_xyz
x,y,z
-x,y,1/2-z
-x,-y,-z
x,-y,1/2+z
1/2+x,1/2+y,z
1/2-x,1/2+y,1/2-z
1/2-x,1/2-y,-z
1/2+x,1/2-y,1/2+z
loop_
_atom_site_type_symbol
_atom_site_label
_atom_site_fract_x
_atom_site_fract_y
_atom_site_fract_z
Si Si1 0.890178 0.831740 0.170518
Si Si2 0.568880 0.334135 0.958124
Si Si3 0.509377 0.281882 0.075267
Si Si4 0.713475 0.370831 0.788117
Si Si5 0.000000 0.953915 0.750000
Si Si6 0.264509 0.112404 0.802108
O O1 0.000000 0.770561 0.250000
O O2 0.966168 0.838683 0.328570
O O3 0.750000 0.750000 0.000000
O O4 0.864641 0.963018 0.118123
O O5 0.394876 0.338992 0.780116
O O6 0.571978 0.378796 0.890383
O O7 0.632680 0.205402 0.030052
O O8 0.683880 0.407668 0.138612
O O9 0.668918 0.286275 0.224414
O O10 0.381996 0.355388 0.888737
O O11 0.441397 0.153959 0.001722
O O12 0.764221 0.502308 0.846692
#
# Coordination Sequence:
#
# PCOD8134994 Si02
#       6
#     8   8   8   8   4   8
#     4  10  21  35  57  87 117 151 194 232 296 350
#     4  10  21  40  60  87 115 160 198 234 301 344
#     4  10  19  37  59  88 117 153 196 245 297 341
#     4  10  21  39  61  86 119 154 201 244 287 352
#     4  10  22  38  64  78 126 158 186 240 292 356
#     4  10  20  37  64  86 119 149 197 253 289 343
#
# _framework density 20.268228000000001
#
# number of rings (size 3 to 8) (size 9 to 14) (size 15 to 20)
#    0.545    1.455    0.000    5.455    0.000    0.727 
#    3.273    9.091    2.000    0.000    0.000    0.000 
#    0.000    0.000    0.000    0.000    0.000    0.000 
#
# Total GULP energy -272550.392906 kJ/mol
# GULP energy per Si atom -12388.654223 kJ/mol
# Density = 2.022210 g / cm^3
# Si number density = 20.268228 Si / 1000 Ang^3
#
#
#
# Elastic Constant Matrix: (Units=GPa)
#
#
# Indices 1 2 3 4 5 6 
#
# 1 130.6795 48.4675 58.4298 0.0001 -24.1285 0.0002
# 2 48.4675 120.8908 55.6493 0.0009 10.8727 0.0010
# 3 58.4298 55.6493 64.9121 0.0003 -4.2950 0.0004
# 4 0.0001 0.0009 0.0003 22.0917 0.0003 3.2316
# 5 -24.1285 10.8727 -4.2950 0.0003 34.6189 0.0003
# 6 0.0002 0.0010 0.0004 3.2316 0.0003 35.3512
#
#
#
# Elastic Compliance Matrix: (Units=1/GPa)
#
#
# Indices 1 2 3 4 5 6 
#
# 1 0.015290 -0.001589 -0.011759 0.000000 0.009697 0.000000
# 2 -0.001589 0.015088 -0.011990 0.000000 -0.007334 0.000000
# 3 -0.011759 -0.011990 0.036273 0.000000 0.000070 0.000000
# 4 0.000000 0.000000 0.000000 0.045879 0.000000 -0.004194
# 5 0.009697 -0.007334 0.000070 0.000000 0.037956 0.000000
# 6 0.000000 0.000000 0.000000 -0.004194 0.000000 0.028671
#
#
# Mechanical properties :
#
#
# Convention : Reuss Voigt Hill
#
# Bulk Modulus (GPa) = 62.59513 71.28619 66.94066
# Shear Modulus (GPa) = 21.26230 28.67476 24.96853
#
# Velocity S-wave (km/s) = 3.24241 3.76542 3.51366
# Velocity P-wave (km/s) = 6.70582 7.35882 7.03990
#
# Compressibility (1/GPa) = 0.01597568
#
# Stress axis : x y z
#
# Youngs Moduli (GPa) = 65.40303 66.27903 27.56843
#
# Poissons Ratio (x) = 0.10533 0.32418
# Poissons Ratio (y) = 0.10393 0.33053
# Poissons Ratio (z) = 0.76907 0.79465
#
# Static dielectric constant tensor:
#      x y z
#    x 3.891470 0.000000 -0.004580 
#    y 0.000000 3.564270 0.000000 
#    z -0.004580 0.000000 3.460990 
# 
# 
# High freq. dielectric constant tensor:
#      x y z
#    x 1.806930 0.000000 -0.005430 
#    y 0.000000 1.777040 0.000000 
#    z -0.005430 0.000000 1.760820 
# 
# From -- ./inp_files/257560.got.cif
#   From: 2010.06.25/outbox.cif.g09.slc.cpg/sg15_129_cif.got.tgz:257560.got - 2010.06.28 07:06:18.
