data_PCOD8134418
_publ_section_title
;
Structure prediction by ZEFSAII (Michael W. Deem and Ramdas Pophale) SiO2 
 PCOD8134418
Probable space group: C 2/C
;
_chemical_formula_sum "Si O2"
_cell_formula_units_Z 32
_cell_length_a 12.447335
_cell_length_b 12.315760
_cell_length_c 9.693339
_cell_angle_alpha 90.000000
_cell_angle_beta 81.723123
_cell_angle_gamma 90.000000
_cell_volume 1470.495320
_symmetry_space_group_name_H-M "C 2/C"
_symmetry_group_IT_number 15
_symmetry_cell_setting 'monoclinic'
loop_
_space_group_symop_operation_xyz
x,y,z
-x,y,1/2-z
-x,-y,-z
x,-y,1/2+z
1/2+x,1/2+y,z
1/2-x,1/2+y,1/2-z
1/2-x,1/2-y,-z
1/2+x,1/2-y,1/2+z
loop_
_atom_site_type_symbol
_atom_site_label
_atom_site_fract_x
_atom_site_fract_y
_atom_site_fract_z
Si Si1 0.084111 0.807306 0.121340
Si Si2 0.117927 0.561125 0.177255
Si Si3 0.248615 0.997372 0.589594
Si Si4 0.036152 0.101784 0.085336
O O1 0.125539 0.689886 0.157002
O O2 0.186754 0.887147 0.095322
O O3 0.000000 0.853939 0.250000
O O4 0.019414 0.797297 0.985448
O O5 0.210559 0.525747 0.265532
O O6 0.000000 0.522882 0.250000
O O7 0.147245 0.500243 0.029949
O O8 0.167471 0.899309 0.560507
O O9 0.000000 0.096547 0.250000
O O10 0.000000 0.000000 0.000000
#
# Coordination Sequence:
#
# PCOD8134418 Si02
#       4
#     8   8   8   8
#     4  10  21  40  62  90 118 147 194 250 293 344
#     4  11  24  40  57  85 122 159 196 238 286 348
#     4  11  20  39  63  85 114 156 193 238 296 347
#     4  10  19  35  63  94 115 142 190 248 296 341
#
# _framework density 21.761375000000001
#
# number of rings (size 3 to 8) (size 9 to 14) (size 15 to 20)
#    0.000    1.500    0.000    9.000    0.000    0.000 
#    0.000   20.000    0.000    0.000    0.000    0.000 
#    0.000    0.000    0.000    0.000    0.000    0.000 
#
# Total GULP energy -198328.222183 kJ/mol
# GULP energy per Si atom -12395.513886 kJ/mol
# Density = 2.171185 g / cm^3
# Si number density = 21.761375 Si / 1000 Ang^3
#
#
#
# Elastic Constant Matrix: (Units=GPa)
#
#
# Indices 1 2 3 4 5 6 
#
# 1 103.4481 24.2306 35.2704 0.0000 -13.2054 0.0000
# 2 24.2306 43.2911 27.8442 0.0000 -3.4452 0.0000
# 3 35.2704 27.8442 156.6921 0.0000 -7.3412 0.0000
# 4 0.0000 0.0000 0.0000 16.7969 0.0000 3.4046
# 5 -13.2054 -3.4452 -7.3412 0.0000 46.5648 0.0000
# 6 0.0000 0.0000 0.0000 3.4046 0.0000 13.8418
#
#
#
# Elastic Compliance Matrix: (Units=1/GPa)
#
#
# Indices 1 2 3 4 5 6 
#
# 1 0.011809 -0.005382 -0.001575 0.000000 0.002703 0.000000
# 2 -0.005382 0.028600 -0.003872 0.000000 -0.000021 0.000000
# 3 -0.001575 -0.003872 0.007445 0.000000 0.000441 0.000000
# 4 0.000000 0.000000 0.000000 0.062659 0.000000 -0.015412
# 5 0.002703 -0.000021 0.000441 0.000000 0.022310 0.000000
# 6 0.000000 0.000000 0.000000 -0.015412 0.000000 0.076036
#
#
# Mechanical properties :
#
#
# Convention : Reuss Voigt Hill
#
# Bulk Modulus (GPa) = 38.17182 53.12465 45.64823
# Shear Modulus (GPa) = 20.89872 29.84643 25.37258
#
# Velocity S-wave (km/s) = 3.10233 3.70744 3.41830
# Velocity P-wave (km/s) = 5.51468 6.54157 6.04995
#
# Compressibility (1/GPa) = 0.02619733
#
# Stress axis : x y z
#
# Youngs Moduli (GPa) = 84.67920 34.96466 134.31466
#
# Poissons Ratio (x) = 0.18816 0.21158
# Poissons Ratio (y) = 0.45571 0.52005
# Poissons Ratio (z) = 0.13339 0.13538
#
# Static dielectric constant tensor:
#      x y z
#    x 4.305380 0.000000 0.211230 
#    y 0.000000 3.685160 0.000000 
#    z 0.211230 0.000000 4.514710 
# 
# 
# High freq. dielectric constant tensor:
#      x y z
#    x 1.867950 0.000000 0.000970 
#    y 0.000000 1.817210 0.000000 
#    z 0.000970 0.000000 1.876230 
# 
# From -- ./inp_files/27599.got.cif
#   From: 2010.06.25/outbox.cif.g09.slc.cpg/sg15_14_cif.got.tgz:27599.got - 2010.06.28 07:06:18.
