data_PCOD8134287
_publ_section_title
;
Structure prediction by ZEFSAII (Michael W. Deem and Ramdas Pophale) SiO2 
 PCOD8134287
Probable space group: C 2/C
;
_chemical_formula_sum "Si O2"
_cell_formula_units_Z 48
_cell_length_a 15.538097
_cell_length_b 8.874398
_cell_length_c 18.828868
_cell_angle_alpha 90.000000
_cell_angle_beta 120.253763
_cell_angle_gamma 90.000000
_cell_volume 2242.721550
_symmetry_space_group_name_H-M "C 2/C"
_symmetry_group_IT_number 15
_symmetry_cell_setting 'monoclinic'
loop_
_space_group_symop_operation_xyz
x,y,z
-x,y,1/2-z
-x,-y,-z
x,-y,1/2+z
1/2+x,1/2+y,z
1/2-x,1/2+y,1/2-z
1/2-x,1/2-y,-z
1/2+x,1/2-y,1/2+z
loop_
_atom_site_type_symbol
_atom_site_label
_atom_site_fract_x
_atom_site_fract_y
_atom_site_fract_z
Si Si1 0.114914 0.269153 0.307908
Si Si2 0.638623 0.622840 0.178078
Si Si3 0.939166 0.293662 0.065445
Si Si4 0.033910 0.373781 0.878213
Si Si5 0.950100 0.133535 0.936483
Si Si6 0.345005 0.906853 0.706143
O O1 0.144516 0.134024 0.266895
O O2 0.179446 0.416594 0.317056
O O3 0.000000 0.322722 0.250000
O O4 0.123687 0.221016 0.394653
O O5 0.553698 0.736075 0.114870
O O6 0.619387 0.446660 0.151302
O O7 0.742480 0.674366 0.185725
O O8 0.935201 0.474122 0.067841
O O9 0.891534 0.237489 0.970582
O O10 0.034088 0.235132 0.933173
O O11 0.922280 0.389597 0.802354
O O12 0.112157 0.334734 0.848502
O O13 0.000000 0.000000 0.000000
#
# Coordination Sequence:
#
# PCOD8134287 Si02
#       6
#     8   8   8   8   8   8
#     4   9  16  37  58  77 112 151 185 229 281 331
#     4  10  20  34  59  87 117 137 188 249 273 325
#     4   9  18  39  61  76 112 158 188 220 284 348
#     4  10  19  38  61  79 113 154 188 227 284 337
#     4  10  22  37  55  87 118 147 186 230 287 338
#     4  10  19  35  59  89 106 142 199 236 272 328
#
# _framework density 21.402567999999999
#
# number of rings (size 3 to 8) (size 9 to 14) (size 15 to 20)
#    0.000    2.333    5.000    0.500    2.333    0.000 
#   15.000    6.667    3.667    0.000    0.000    0.000 
#    0.000    0.000    0.000    0.000    0.000    0.000 
#
# Total GULP energy -297410.129031 kJ/mol
# GULP energy per Si atom -12392.088710 kJ/mol
# Density = 2.135386 g / cm^3
# Si number density = 21.402568 Si / 1000 Ang^3
#
#
#
# Elastic Constant Matrix: (Units=GPa)
#
#
# Indices 1 2 3 4 5 6 
#
# 1 98.7054 33.9690 33.2624 0.0000 -31.6670 0.0000
# 2 33.9690 96.5729 66.2954 0.0000 -26.4122 0.0000
# 3 33.2624 66.2954 118.8201 0.0000 -45.9424 0.0000
# 4 0.0000 0.0000 0.0000 33.4120 0.0000 -6.8704
# 5 -31.6670 -26.4122 -45.9424 0.0000 28.0486 0.0000
# 6 0.0000 0.0000 0.0000 -6.8704 0.0000 21.4892
#
#
#
# Elastic Compliance Matrix: (Units=1/GPa)
#
#
# Indices 1 2 3 4 5 6 
#
# 1 0.019335 -0.004543 0.010659 0.000000 0.035010 0.000000
# 2 -0.004543 0.017867 -0.011386 0.000000 -0.006954 0.000000
# 3 0.010659 -0.011386 0.033524 0.000000 0.056223 0.000000
# 4 0.000000 0.000000 0.000000 0.032035 0.000000 0.010242
# 5 0.035010 -0.006954 0.056223 0.000000 0.160721 0.000000
# 6 0.000000 0.000000 0.000000 0.010242 0.000000 0.049809
#
#
# Mechanical properties :
#
#
# Convention : Reuss Voigt Hill
#
# Bulk Modulus (GPa) = 16.61528 64.57245 40.59387
# Shear Modulus (GPa) = 14.53939 28.62809 21.58374
#
# Velocity S-wave (km/s) = 2.60922 3.66129 3.17908
# Velocity P-wave (km/s) = 4.10578 6.93609 5.69942
#
# Compressibility (1/GPa) = 0.06018556
#
# Stress axis : x y z
#
# Youngs Moduli (GPa) = 51.72065 55.96830 29.82948
#
# Poissons Ratio (x) = 0.25426 -0.31795
# Poissons Ratio (y) = 0.23497 0.33964
# Poissons Ratio (z) = -0.55129 0.63726
#
# Static dielectric constant tensor:
#      x y z
#    x 3.560600 0.000000 -0.375400 
#    y 0.000000 3.845570 0.000000 
#    z -0.375400 0.000000 4.468310 
# 
# 
# High freq. dielectric constant tensor:
#      x y z
#    x 1.814110 0.000000 -0.031320 
#    y 0.000000 1.821500 0.000000 
#    z -0.031320 0.000000 1.840470 
# 
# From -- ./inp_files/203025.got.cif
#   From: 2010.06.25/outbox.cif.g09.slc.cpg/sg15_102_cif.got.tgz:203025.got - 2010.06.28 07:06:18.
