data_PCOD8134134
_publ_section_title
;
Structure prediction by ZEFSAII (Michael W. Deem and Ramdas Pophale) SiO2 
 PCOD8134134
Probable space group: C 2/C
;
_chemical_formula_sum "Si O2"
_cell_formula_units_Z 52
_cell_length_a 28.840728
_cell_length_b 8.906950
_cell_length_c 13.185137
_cell_angle_alpha 90.000000
_cell_angle_beta 131.845908
_cell_angle_gamma 90.000000
_cell_volume 2523.144759
_symmetry_space_group_name_H-M "C 2/C"
_symmetry_group_IT_number 15
_symmetry_cell_setting 'monoclinic'
loop_
_space_group_symop_operation_xyz
x,y,z
-x,y,1/2-z
-x,-y,-z
x,-y,1/2+z
1/2+x,1/2+y,z
1/2-x,1/2+y,1/2-z
1/2-x,1/2-y,-z
1/2+x,1/2-y,1/2+z
loop_
_atom_site_type_symbol
_atom_site_label
_atom_site_fract_x
_atom_site_fract_y
_atom_site_fract_z
Si Si1 0.663369 0.424306 0.955867
Si Si2 0.090734 0.307760 0.238315
Si Si3 0.814593 0.319348 0.857263
Si Si4 0.202358 0.244292 0.055507
Si Si5 0.000000 0.527075 0.750000
Si Si6 0.215890 0.542525 0.983983
Si Si7 0.603112 0.088596 0.538742
O O1 0.608756 0.361409 0.801824
O O2 0.660532 0.340321 0.061260
O O3 0.659725 0.603679 0.958182
O O4 0.730404 0.383765 0.005299
O O5 0.031238 0.364879 0.212667
O O6 0.148862 0.413613 0.345705
O O7 0.076642 0.323597 0.098322
O O8 0.768741 0.306014 0.696003
O O9 0.874035 0.417176 0.906527
O O10 0.776160 0.404438 0.888877
O O11 0.162791 0.323482 0.085282
O O12 0.217769 0.359775 0.985848
O O13 0.951163 0.417125 0.624020
#
# Coordination Sequence:
#
# PCOD8134134 Si02
#       7
#     8   8   8   8   4   8   8
#     4  11  20  34  59  91 133 157 197 266 314 370
#     4  11  22  40  65  90 118 166 215 261 306 362
#     4  10  19  35  57  89 126 160 205 253 306 368
#     4  11  20  34  58  94 132 162 196 257 317 375
#     4  12  22  46  66  86 120 164 226 252 292 382
#     4  10  19  35  56  93 129 163 202 249 317 373
#     4  11  23  41  65  90 120 168 212 254 313 368
#
# _framework density 20.609202
#
# number of rings (size 3 to 8) (size 9 to 14) (size 15 to 20)
#    0.000    1.231    4.615    7.385    0.000    0.000 
#    0.000    0.769    0.000    1.846    0.000    0.000 
#    0.000    0.000    0.000    0.000    0.000    0.000 
#
# Total GULP energy -322340.069657 kJ/mol
# GULP energy per Si atom -12397.694987 kJ/mol
# Density = 2.056229 g / cm^3
# Si number density = 20.609202 Si / 1000 Ang^3
#
#
#
# Elastic Constant Matrix: (Units=GPa)
#
#
# Indices 1 2 3 4 5 6 
#
# 1 50.8766 -24.8302 12.1383 0.0000 -1.8193 0.0000
# 2 -24.8302 67.0568 18.4648 0.0000 -9.9090 0.0000
# 3 12.1383 18.4648 98.1253 0.0000 -7.8897 0.0000
# 4 0.0000 0.0000 0.0000 22.9412 0.0000 -1.2411
# 5 -1.8193 -9.9090 -7.8897 0.0000 26.8156 0.0000
# 6 0.0000 0.0000 0.0000 -1.2411 0.0000 14.8901
#
#
#
# Elastic Compliance Matrix: (Units=1/GPa)
#
#
# Indices 1 2 3 4 5 6 
#
# 1 0.027007 0.012150 -0.005243 0.000000 0.004780 0.000000
# 2 0.012150 0.021894 -0.005025 0.000000 0.007436 0.000000
# 3 -0.005243 -0.005025 0.011889 0.000000 0.001285 0.000000
# 4 0.000000 0.000000 0.000000 0.043787 0.000000 0.003650
# 5 0.004780 0.007436 0.001285 0.000000 0.040742 0.000000
# 6 0.000000 0.000000 0.000000 0.003650 0.000000 0.067463
#
#
# Mechanical properties :
#
#
# Convention : Reuss Voigt Hill
#
# Bulk Modulus (GPa) = 15.49073 25.28939 20.39006
# Shear Modulus (GPa) = 21.68859 26.94844 24.31851
#
# Velocity S-wave (km/s) = 3.24755 3.61999 3.43881
# Velocity P-wave (km/s) = 4.64703 5.45619 5.06778
#
# Compressibility (1/GPa) = 0.06455476
#
# Stress axis : x y z
#
# Youngs Moduli (GPa) = 37.02720 45.67373 84.11449
#
# Poissons Ratio (x) = -0.55495 0.44101
# Poissons Ratio (y) = -0.44989 0.42268
# Poissons Ratio (z) = 0.19413 0.22952
#
# Static dielectric constant tensor:
#      x y z
#    x 3.890950 0.000000 -0.242480 
#    y 0.000000 3.950810 0.000000 
#    z -0.242480 0.000000 3.567190 
# 
# 
# High freq. dielectric constant tensor:
#      x y z
#    x 1.801240 0.000000 -0.015590 
#    y 0.000000 1.806590 0.000000 
#    z -0.015590 0.000000 1.786760 
# 
# From -- ./inp_files/181208.got.cif
#   From: 2010.06.25/outbox.cif.g09.slc.cpg/sg15_91_cif.got.tgz:181208.got - 2010.06.28 07:06:18.
