data_PCOD8134892
_publ_section_title
;
Structure prediction by ZEFSAII (Michael W. Deem and Ramdas Pophale) SiO2 
 PCOD8134892
Probable space group: C 2/C
;
_chemical_formula_sum "Si O2"
_cell_formula_units_Z 48
_cell_length_a 28.794728
_cell_length_b 9.019262
_cell_length_c 14.298634
_cell_angle_alpha 90.000000
_cell_angle_beta 37.649535
_cell_angle_gamma 90.000000
_cell_volume 2268.291299
_symmetry_space_group_name_H-M "C 2/C"
_symmetry_group_IT_number 15
_symmetry_cell_setting 'monoclinic'
loop_
_space_group_symop_operation_xyz
x,y,z
-x,y,1/2-z
-x,-y,-z
x,-y,1/2+z
1/2+x,1/2+y,z
1/2-x,1/2+y,1/2-z
1/2-x,1/2-y,-z
1/2+x,1/2-y,1/2+z
loop_
_atom_site_type_symbol
_atom_site_label
_atom_site_fract_x
_atom_site_fract_y
_atom_site_fract_z
Si Si1 0.688434 0.235206 0.305468
Si Si2 0.010682 0.393167 0.840955
Si Si3 0.095475 0.233455 0.353858
Si Si4 0.264294 0.538060 0.335729
Si Si5 0.831072 0.471591 0.833267
Si Si6 0.480583 0.771064 0.387969
O O1 0.737929 0.383379 0.216417
O O2 0.711279 0.151643 0.363957
O O3 0.703956 0.135769 0.189261
O O4 0.601711 0.289034 0.453920
O O5 0.099255 0.387305 0.727160
O O6 0.000000 0.358950 0.750000
O O7 0.978832 0.555162 0.918682
O O8 0.963324 0.267343 0.969175
O O9 0.149675 0.097974 0.294821
O O10 0.145784 0.376840 0.253010
O O11 0.045537 0.187124 0.343219
O O12 0.232884 0.513126 0.489609
O O13 0.500000 0.745093 0.250000
#
# Coordination Sequence:
#
# PCOD8134892 Si02
#       6
#     8   8   8   8   8   8
#     4  12  24  45  64  96 135 172 220 270 332 399
#     4  10  19  36  71  95 125 172 229 266 320 401
#     4  11  21  42  66 100 128 169 224 279 326 389
#     4  12  28  40  68  97 136 175 216 276 336 395
#     4  11  22  43  68  96 129 177 222 270 326 401
#     4  10  20  39  68  95 127 173 221 268 327 395
#
# _framework density 21.161304000000001
#
# number of rings (size 3 to 8) (size 9 to 14) (size 15 to 20)
#    0.000    1.000    3.333    6.000    2.333    2.000 
#    0.000    0.833    0.000    0.000    0.000    0.000 
#    0.000    0.000    0.000    0.000    0.000    0.000 
#
# Total GULP energy -297731.074794 kJ/mol
# GULP energy per Si atom -12405.461450 kJ/mol
# Density = 2.111314 g / cm^3
# Si number density = 21.161304 Si / 1000 Ang^3
#
#
#
# Elastic Constant Matrix: (Units=GPa)
#
#
# Indices 1 2 3 4 5 6 
#
# 1 103.7668 25.7041 25.5305 0.0000 0.4113 0.0000
# 2 25.7041 69.6955 33.8885 -0.0001 -0.4439 0.0000
# 3 25.5305 33.8885 85.8844 0.0000 3.0173 0.0000
# 4 0.0000 -0.0001 0.0000 25.4497 0.0000 -9.8019
# 5 0.4113 -0.4439 3.0173 0.0000 31.9416 0.0000
# 6 0.0000 0.0000 0.0000 -9.8019 0.0000 28.4908
#
#
#
# Elastic Compliance Matrix: (Units=1/GPa)
#
#
# Indices 1 2 3 4 5 6 
#
# 1 0.010889 -0.003021 -0.002045 0.000000 0.000011 0.000000
# 2 -0.003021 0.018619 -0.006481 0.000000 0.000910 0.000000
# 3 -0.002045 -0.006481 0.014860 0.000000 -0.001467 0.000000
# 4 0.000000 0.000000 0.000000 0.045295 0.000000 0.015583
# 5 0.000011 0.000910 -0.001467 0.000000 0.031458 0.000000
# 6 0.000000 0.000000 0.000000 0.015583 0.000000 0.040460
#
#
# Mechanical properties :
#
#
# Convention : Reuss Voigt Hill
#
# Bulk Modulus (GPa) = 47.00572 47.73254 47.36913
# Shear Modulus (GPa) = 26.07333 28.79133 27.43233
#
# Velocity S-wave (km/s) = 3.51397 3.69259 3.60438
# Velocity P-wave (km/s) = 6.22296 6.38637 6.30520
#
# Compressibility (1/GPa) = 0.02127401
#
# Stress axis : x y z
#
# Youngs Moduli (GPa) = 91.83994 53.70758 67.29387
#
# Poissons Ratio (x) = 0.16227 0.13762
# Poissons Ratio (y) = 0.27748 0.43611
# Poissons Ratio (z) = 0.18781 0.34806
#
# Static dielectric constant tensor:
#      x y z
#    x 3.962360 0.000000 -0.017150 
#    y 0.000000 3.552510 0.000000 
#    z -0.017150 0.000000 3.803630 
# 
# 
# High freq. dielectric constant tensor:
#      x y z
#    x 1.842550 0.000000 0.005280 
#    y 0.000000 1.801030 0.000000 
#    z 0.005280 0.000000 1.837560 
# 
# From -- ./inp_files/180718.got.cif
#   From: 2010.06.25/outbox.cif.g09.slc.cpg/sg15_91_cif.got.tgz:180718.got - 2010.06.28 07:06:18.
