data_PCOD8134174
_publ_section_title
;
Structure prediction by ZEFSAII (Michael W. Deem and Ramdas Pophale) SiO2 
 PCOD8134174
Probable space group: C 2/C
;
_chemical_formula_sum "Si O2"
_cell_formula_units_Z 48
_cell_length_a 20.405753
_cell_length_b 8.837536
_cell_length_c 15.335199
_cell_angle_alpha 90.000000
_cell_angle_beta 119.042548
_cell_angle_gamma 90.000000
_cell_volume 2417.762127
_symmetry_space_group_name_H-M "C 2/C"
_symmetry_group_IT_number 15
_symmetry_cell_setting 'monoclinic'
loop_
_space_group_symop_operation_xyz
x,y,z
-x,y,1/2-z
-x,-y,-z
x,-y,1/2+z
1/2+x,1/2+y,z
1/2-x,1/2+y,1/2-z
1/2-x,1/2-y,-z
1/2+x,1/2-y,1/2+z
loop_
_atom_site_type_symbol
_atom_site_label
_atom_site_fract_x
_atom_site_fract_y
_atom_site_fract_z
Si Si1 0.597666 0.653271 0.062496
Si Si2 0.667506 0.813842 0.943601
Si Si3 0.228835 0.049653 0.258686
Si Si4 0.697224 0.139043 0.017577
Si Si5 0.067149 0.190613 0.525516
Si Si6 0.346463 0.239818 0.256940
O O1 0.658723 0.649931 0.179035
O O2 0.585055 0.484422 0.019034
O O3 0.622023 0.757685 0.997714
O O4 0.520308 0.721371 0.051223
O O5 0.629236 0.754806 0.828698
O O6 0.750000 0.750000 0.000000
O O7 0.672612 0.994902 0.945247
O O8 0.249704 0.094149 0.369021
O O9 0.300782 0.083347 0.243378
O O10 0.209932 0.872413 0.246960
O O11 0.619417 0.215557 0.994911
O O12 0.750000 0.250000 0.000000
O O13 0.080549 0.243132 0.634892
#
# Coordination Sequence:
#
# PCOD8134174 Si02
#       6
#     8   8   8   8   8   8
#     4  10  20  39  63  83 121 157 195 240 293 357
#     4  12  21  36  60  91 116 153 199 246 294 343
#     4  10  19  35  57  86 113 155 194 237 293 344
#     4  11  23  37  60  87 117 151 201 252 285 348
#     4   9  22  40  59  88 119 159 194 237 299 351
#     4  10  21  35  59  88 117 154 195 241 290 351
#
# _framework density 19.853071
#
# number of rings (size 3 to 8) (size 9 to 14) (size 15 to 20)
#    0.000    1.667    3.333    1.000    4.667    1.333 
#    0.000    0.833    3.667    0.000    0.000    0.000 
#    0.000    0.000    0.000    0.000    0.000    0.000 
#
# Total GULP energy -297521.552985 kJ/mol
# GULP energy per Si atom -12396.731374 kJ/mol
# Density = 1.980788 g / cm^3
# Si number density = 19.853071 Si / 1000 Ang^3
#
#
#
# Elastic Constant Matrix: (Units=GPa)
#
#
# Indices 1 2 3 4 5 6 
#
# 1 86.1853 32.5679 18.4579 0.0000 4.0423 0.0000
# 2 32.5679 85.8166 12.6968 0.0000 -5.7898 0.0000
# 3 18.4579 12.6968 72.9434 0.0000 -1.8121 0.0000
# 4 0.0000 0.0000 0.0000 22.8125 0.0000 -6.1340
# 5 4.0423 -5.7898 -1.8121 0.0000 31.0486 0.0000
# 6 0.0000 0.0000 0.0000 -6.1340 0.0000 28.5545
#
#
#
# Elastic Compliance Matrix: (Units=1/GPa)
#
#
# Indices 1 2 3 4 5 6 
#
# 1 0.014314 -0.005222 -0.002788 0.000000 -0.003000 0.000000
# 2 -0.005222 0.014006 -0.001036 0.000000 0.003231 0.000000
# 3 -0.002788 -0.001036 0.014620 0.000000 0.001023 0.000000
# 4 0.000000 0.000000 0.000000 0.046523 0.000000 0.009994
# 5 -0.003000 0.003231 0.001023 0.000000 0.033260 0.000000
# 6 0.000000 0.000000 0.000000 0.009994 0.000000 0.037168
#
#
# Mechanical properties :
#
#
# Convention : Reuss Voigt Hill
#
# Bulk Modulus (GPa) = 40.24418 41.37671 40.81045
# Shear Modulus (GPa) = 26.84335 28.56465 27.70400
#
# Velocity S-wave (km/s) = 3.68108 3.79727 3.73963
# Velocity P-wave (km/s) = 6.19533 6.33343 6.26476
#
# Compressibility (1/GPa) = 0.02484831
#
# Stress axis : x y z
#
# Youngs Moduli (GPa) = 69.86164 71.39833 68.39743
#
# Poissons Ratio (x) = 0.37286 0.19066
# Poissons Ratio (y) = 0.36483 0.07087
# Poissons Ratio (z) = 0.19475 0.07398
#
# Static dielectric constant tensor:
#      x y z
#    x 3.896860 0.000000 0.042490 
#    y 0.000000 4.009820 0.000000 
#    z 0.042490 0.000000 3.924860 
# 
# 
# High freq. dielectric constant tensor:
#      x y z
#    x 1.760430 0.000000 0.002560 
#    y 0.000000 1.778010 0.000000 
#    z 0.002560 0.000000 1.773870 
# 
# From -- ./inp_files/166109.got.cif
#   From: 2010.06.25/outbox.cif.g09.slc.cpg/sg15_84_cif.got.tgz:166109.got - 2010.06.28 07:06:18.
