data_PCOD8134825
_publ_section_title
;
Structure prediction by ZEFSAII (Michael W. Deem and Ramdas Pophale) SiO2 
 PCOD8134825
Probable space group: C 2/C
;
_chemical_formula_sum "Si O2"
_cell_formula_units_Z 48
_cell_length_a 28.452656
_cell_length_b 13.477574
_cell_length_c 13.927944
_cell_angle_alpha 90.000000
_cell_angle_beta 26.137503
_cell_angle_gamma 90.000000
_cell_volume 2352.848499
_symmetry_space_group_name_H-M "C 2/C"
_symmetry_group_IT_number 15
_symmetry_cell_setting 'monoclinic'
loop_
_space_group_symop_operation_xyz
x,y,z
-x,y,1/2-z
-x,-y,-z
x,-y,1/2+z
1/2+x,1/2+y,z
1/2-x,1/2+y,1/2-z
1/2-x,1/2-y,-z
1/2+x,1/2-y,1/2+z
loop_
_atom_site_type_symbol
_atom_site_label
_atom_site_fract_x
_atom_site_fract_y
_atom_site_fract_z
Si Si1 0.306748 0.402362 0.905683
Si Si2 0.754237 0.606616 0.514871
Si Si3 0.221430 0.267835 0.899350
Si Si4 0.000000 0.911683 0.250000
Si Si5 0.000000 0.243413 0.250000
Si Si6 0.675364 0.270368 0.994084
Si Si7 0.543974 0.576263 0.023398
O O1 0.220882 0.493161 0.061371
O O2 0.288415 0.338630 0.844495
O O3 0.430382 0.438903 0.676970
O O4 0.286075 0.341579 0.040589
O O5 0.758228 0.672819 0.411264
O O6 0.838117 0.659096 0.434968
O O7 0.638474 0.594282 0.775977
O O8 0.284205 0.257018 0.686666
O O9 0.100632 0.308911 0.102634
O O10 0.928889 0.838494 0.315783
O O11 0.065121 0.982564 0.056550
O O12 0.955608 0.176973 0.417276
#
# Coordination Sequence:
#
# PCOD8134825 Si02
#       7
#     8   8   8   4   4   8   8
#     4  10  21  36  62  89 117 156 208 257 302 359
#     4  11  22  38  56  90 125 161 191 253 318 358
#     4  10  21  38  58  90 118 162 208 254 302 369
#     4  11  22  38  65  98 122 164 205 260 305 358
#     4   9  18  36  59  84 118 160 205 246 295 356
#     4  11  24  36  57  90 130 156 194 253 319 364
#     4  10  19  36  63  91 120 152 209 258 302 351
#
# _framework density 20.400804000000001
#
# number of rings (size 3 to 8) (size 9 to 14) (size 15 to 20)
#    0.000    1.667    3.333    1.500    2.333    1.333 
#    0.000    0.833    0.000    2.000    0.000    0.000 
#    0.000    0.000    0.000    0.000    0.000    0.000 
#
# Total GULP energy -297375.930196 kJ/mol
# GULP energy per Si atom -12390.663758 kJ/mol
# Density = 2.035437 g / cm^3
# Si number density = 20.400804 Si / 1000 Ang^3
#
#
#
# Elastic Constant Matrix: (Units=GPa)
#
#
# Indices 1 2 3 4 5 6 
#
# 1 102.8134 28.6756 20.5673 0.0000 4.9217 0.0000
# 2 28.6756 85.0022 16.6878 0.0000 -4.1723 0.0000
# 3 20.5673 16.6878 39.6769 0.0000 9.8322 0.0000
# 4 0.0000 0.0000 0.0000 22.6620 0.0000 -9.8908
# 5 4.9217 -4.1723 9.8322 0.0000 29.7733 0.0000
# 6 0.0000 0.0000 0.0000 -9.8908 0.0000 35.9032
#
#
#
# Elastic Compliance Matrix: (Units=1/GPa)
#
#
# Indices 1 2 3 4 5 6 
#
# 1 0.011512 -0.003047 -0.004475 0.000000 -0.000852 0.000000
# 2 -0.003047 0.014059 -0.005387 0.000000 0.004253 0.000000
# 3 -0.004475 -0.005387 0.032448 0.000000 -0.010731 0.000000
# 4 0.000000 0.000000 0.000000 0.050158 0.000000 0.013818
# 5 -0.000852 0.004253 -0.010731 0.000000 0.037868 0.000000
# 6 0.000000 0.000000 0.000000 0.013818 0.000000 0.031659
#
#
# Mechanical properties :
#
#
# Convention : Reuss Voigt Hill
#
# Bulk Modulus (GPa) = 31.05521 39.92822 35.49171
# Shear Modulus (GPa) = 23.33660 28.43850 25.88755
#
# Velocity S-wave (km/s) = 3.38584 3.73767 3.56609
# Velocity P-wave (km/s) = 5.52637 6.18395 5.86439
#
# Compressibility (1/GPa) = 0.03220072
#
# Stress axis : x y z
#
# Youngs Moduli (GPa) = 86.86475 71.13024 30.81823
#
# Poissons Ratio (x) = 0.21673 0.13791
# Poissons Ratio (y) = 0.26467 0.16603
# Poissons Ratio (z) = 0.38871 0.38321
#
# Static dielectric constant tensor:
#      x y z
#    x 4.174370 0.000000 -0.018850 
#    y 0.000000 4.008300 0.000000 
#    z -0.018850 0.000000 3.377370 
# 
# 
# High freq. dielectric constant tensor:
#      x y z
#    x 1.822200 0.000000 0.019960 
#    y 0.000000 1.794500 0.000000 
#    z 0.019960 0.000000 1.758150 
# 
# From -- ./inp_files/144406.got.cif
#   From: 2010.06.25/outbox.cif.g09.slc.cpg/sg15_73_cif.got.tgz:144406.got - 2010.06.28 07:06:18.
