data_PCOD8134720
_publ_section_title
;
Structure prediction by ZEFSAII (Michael W. Deem and Ramdas Pophale) SiO2 
 PCOD8134720
Probable space group: C 2/C
;
_chemical_formula_sum "Si O2"
_cell_formula_units_Z 52
_cell_length_a 23.907216
_cell_length_b 6.803724
_cell_length_c 19.649581
_cell_angle_alpha 90.000000
_cell_angle_beta 129.631846
_cell_angle_gamma 90.000000
_cell_volume 2461.553547
_symmetry_space_group_name_H-M "C 2/C"
_symmetry_group_IT_number 15
_symmetry_cell_setting 'monoclinic'
loop_
_space_group_symop_operation_xyz
x,y,z
-x,y,1/2-z
-x,-y,-z
x,-y,1/2+z
1/2+x,1/2+y,z
1/2-x,1/2+y,1/2-z
1/2-x,1/2-y,-z
1/2+x,1/2-y,1/2+z
loop_
_atom_site_type_symbol
_atom_site_label
_atom_site_fract_x
_atom_site_fract_y
_atom_site_fract_z
Si Si1 0.500000 0.926381 0.250000
Si Si2 0.758949 0.470984 0.484519
Si Si3 0.992739 0.570342 0.387921
Si Si4 0.861690 0.461195 0.936772
Si Si5 0.573688 0.600910 0.581686
Si Si6 0.155531 0.263438 0.350618
Si Si7 0.369332 0.213529 0.821038
O O1 0.570251 0.787246 0.299049
O O2 0.509783 0.072247 0.321181
O O3 0.750000 0.250000 0.500000
O O4 0.806672 0.515644 0.455319
O O5 0.795495 0.568555 0.578128
O O6 0.679728 0.557752 0.403967
O O7 0.943837 0.758571 0.367724
O O8 0.950904 0.368120 0.372871
O O9 0.065354 0.581383 0.488639
O O10 0.884035 0.232618 0.942194
O O11 0.829304 0.567055 0.843787
O O12 0.500000 0.500000 0.500000
O O13 0.629081 0.433796 0.648729
O O14 0.173047 0.278099 0.283628
#
# Coordination Sequence:
#
# PCOD8134720 Si02
#       7
#     4   8   8   8   8   8   8
#     4  10  20  42  70  94 138 166 218 288 332 380
#     4  11  26  49  68  93 140 186 227 272 340 416
#     4  10  19  36  60  97 133 166 215 278 332 393
#     4  11  21  40  64  93 133 181 219 274 337 397
#     4  11  19  35  64  97 134 168 219 274 339 398
#     4  10  24  46  67 100 134 175 226 285 331 408
#     4  10  21  39  64 100 132 166 221 286 328 398
#
# _framework density 21.124869
#
# number of rings (size 3 to 8) (size 9 to 14) (size 15 to 20)
#    0.000    1.538    4.615    0.923    0.000    6.154 
#   11.077    1.538    0.000    0.000    0.000    0.000 
#    0.000    0.000    0.000    0.000    0.000    0.000 
#
# Total GULP energy -322327.714043 kJ/mol
# GULP energy per Si atom -12397.219771 kJ/mol
# Density = 2.107679 g / cm^3
# Si number density = 21.124869 Si / 1000 Ang^3
#
#
#
# Elastic Constant Matrix: (Units=GPa)
#
#
# Indices 1 2 3 4 5 6 
#
# 1 86.7839 50.1104 42.7922 0.0002 -23.3855 0.0001
# 2 50.1104 152.7748 57.6272 0.0007 -14.4664 -0.0012
# 3 42.7922 57.6272 134.8512 0.0000 -17.9552 0.0000
# 4 0.0002 0.0007 0.0000 18.5963 0.0001 -6.7296
# 5 -23.3855 -14.4664 -17.9552 0.0001 38.3448 0.0001
# 6 0.0001 -0.0012 0.0000 -6.7296 0.0001 23.2195
#
#
#
# Elastic Compliance Matrix: (Units=1/GPa)
#
#
# Indices 1 2 3 4 5 6 
#
# 1 0.017209 -0.003863 -0.002780 0.000000 0.007736 0.000000
# 2 -0.003863 0.008750 -0.002546 0.000000 -0.000247 0.000000
# 3 -0.002780 -0.002546 0.009633 0.000000 0.001855 0.000000
# 4 0.000000 0.000000 0.000000 0.060075 0.000000 0.017411
# 5 0.007736 -0.000247 0.001855 0.000000 0.031572 0.000000
# 6 0.000000 0.000000 0.000000 0.017411 0.000000 0.048113
#
#
# Mechanical properties :
#
#
# Convention : Reuss Voigt Hill
#
# Bulk Modulus (GPa) = 58.09671 75.05219 66.57445
# Shear Modulus (GPa) = 25.06664 30.95747 28.01206
#
# Velocity S-wave (km/s) = 3.44843 3.83227 3.64541
# Velocity P-wave (km/s) = 6.58915 7.42878 7.02153
#
# Compressibility (1/GPa) = 0.01721268
#
# Stress axis : x y z
#
# Youngs Moduli (GPa) = 58.10882 114.28870 103.81316
#
# Poissons Ratio (x) = 0.44155 0.28859
# Poissons Ratio (y) = 0.22450 0.26432
# Poissons Ratio (z) = 0.16154 0.29099
#
# Static dielectric constant tensor:
#      x y z
#    x 3.732290 0.000000 -0.231830 
#    y 0.000000 3.869730 0.000000 
#    z -0.231830 0.000000 4.038110 
# 
# 
# High freq. dielectric constant tensor:
#      x y z
#    x 1.817770 0.000000 -0.016700 
#    y 0.000000 1.821890 0.000000 
#    z -0.016700 0.000000 1.836420 
# 
# From -- ./inp_files/256729.got.cif
#   From: 2010.06.25/outbox.cif.g09.slc.cpg/sg15_129_cif.got.tgz:256729.got - 2010.06.28 07:06:18.
