data_PCOD8134554
_publ_section_title
;
Structure prediction by ZEFSAII (Michael W. Deem and Ramdas Pophale) SiO2 
 PCOD8134554
Probable space group: C 2/C
;
_chemical_formula_sum "Si O2"
_cell_formula_units_Z 56
_cell_length_a 7.658014
_cell_length_b 36.638844
_cell_length_c 18.444896
_cell_angle_alpha 90.000000
_cell_angle_beta 146.190170
_cell_angle_gamma 90.000000
_cell_volume 2879.725206
_symmetry_space_group_name_H-M "C 2/C"
_symmetry_group_IT_number 15
_symmetry_cell_setting 'monoclinic'
loop_
_space_group_symop_operation_xyz
x,y,z
-x,y,1/2-z
-x,-y,-z
x,-y,1/2+z
1/2+x,1/2+y,z
1/2-x,1/2+y,1/2-z
1/2-x,1/2-y,-z
1/2+x,1/2-y,1/2+z
loop_
_atom_site_type_symbol
_atom_site_label
_atom_site_fract_x
_atom_site_fract_y
_atom_site_fract_z
Si Si1 0.734938 0.166626 0.016891
Si Si2 0.894259 0.910627 0.598058
Si Si3 0.790322 0.785368 0.749550
Si Si4 0.831548 0.666605 0.016133
Si Si5 0.502276 0.910609 0.901988
Si Si6 0.794663 0.296617 0.250231
Si Si7 0.804654 0.966471 0.902290
O O1 0.827316 0.125426 0.026156
O O2 0.031648 0.194047 0.123127
O O3 0.608090 0.163225 0.053976
O O4 0.475274 0.181984 0.874351
O O5 0.606431 0.920643 0.553281
O O6 0.202095 0.901470 0.750021
O O7 0.954356 0.943899 0.564491
O O8 0.458209 0.805781 0.621610
O O9 0.715521 0.744227 0.749728
O O10 0.000000 0.783572 0.750000
O O11 0.520591 0.681684 0.873071
O O12 0.776961 0.625451 0.025975
O O13 0.696780 0.943863 0.935526
O O14 0.000000 0.295901 0.250000
O O15 0.500000 0.978645 0.750000
O O16 0.000000 0.000000 0.000000
#
# Coordination Sequence:
#
# PCOD8134554 Si02
#       7
#     8   8   8   8   8   8   8
#     4  10  19  36  58  77 107 150 195 241 286 341
#     4   9  18  36  63  87 110 151 198 234 278 342
#     4   9  18  35  57  77 105 146 197 243 292 339
#     4  10  19  36  58  77 107 150 195 241 286 341
#     4   9  18  36  63  87 110 151 198 234 278 342
#     4  11  23  33  47  81 119 150 183 241 300 342
#     4  10  22  40  62  90 122 148 184 234 290 348
#
# _framework density 19.446300999999998
#
# number of rings (size 3 to 8) (size 9 to 14) (size 15 to 20)
#    0.000    2.286    1.429    1.286    2.000    0.571 
#    2.571    2.143    0.000    0.000    0.000    0.000 
#    0.000    0.000    0.000    0.000    0.000    0.000 
#
# Total GULP energy -347139.743162 kJ/mol
# GULP energy per Si atom -12397.847970 kJ/mol
# Density = 1.940204 g / cm^3
# Si number density = 19.446301 Si / 1000 Ang^3
#
#
#
# Elastic Constant Matrix: (Units=GPa)
#
#
# Indices 1 2 3 4 5 6 
#
# 1 67.8519 52.5180 17.4115 0.0000 0.0069 0.0000
# 2 52.5180 182.7219 89.6284 0.0000 -1.3169 0.0000
# 3 17.4115 89.6284 134.0971 0.0000 -2.1313 0.0000
# 4 0.0000 0.0000 0.0000 69.3326 0.0000 -1.1532
# 5 0.0069 -1.3169 -2.1313 0.0000 3.3126 0.0000
# 6 0.0000 0.0000 0.0000 -1.1532 0.0000 19.7231
#
#
#
# Elastic Compliance Matrix: (Units=1/GPa)
#
#
# Indices 1 2 3 4 5 6 
#
# 1 0.019244 -0.006404 0.001759 0.000000 -0.001455 0.000000
# 2 -0.006404 0.010274 -0.006032 0.000000 0.000217 0.000000
# 3 0.001759 -0.006032 0.011338 0.000000 0.004893 0.000000
# 4 0.000000 0.000000 0.000000 0.014437 0.000000 0.000844
# 5 -0.001455 0.000217 0.004893 0.000000 0.305111 0.000000
# 6 0.000000 0.000000 0.000000 0.000844 0.000000 0.050751
#
#
# Mechanical properties :
#
#
# Convention : Reuss Voigt Hill
#
# Bulk Modulus (GPa) = 51.27917 78.19853 64.73885
# Shear Modulus (GPa) = 11.38926 33.48122 22.43524
#
# Velocity S-wave (km/s) = 2.42270 4.15387 3.40030
# Velocity P-wave (km/s) = 5.85259 7.95651 6.98423
#
# Compressibility (1/GPa) = 0.01950110
#
# Stress axis : x y z
#
# Youngs Moduli (GPa) = 51.96496 97.33511 88.19664
#
# Poissons Ratio (x) = 0.62335 -0.15511
# Poissons Ratio (y) = 0.33279 0.53199
# Poissons Ratio (z) = -0.09139 0.58711
#
# Static dielectric constant tensor:
#      x y z
#    x 3.704130 0.000000 0.004170 
#    y 0.000000 3.591350 0.000000 
#    z 0.004170 0.000000 3.325560 
# 
# 
# High freq. dielectric constant tensor:
#      x y z
#    x 1.751560 0.000000 -0.000050 
#    y 0.000000 1.756380 0.000000 
#    z -0.000050 0.000000 1.745640 
# 
# From -- ./inp_files/234957.got.cif
#   From: 2010.06.25/outbox.cif.g09.slc.cpg/sg15_118_cif.got.tgz:234957.got - 2010.06.28 07:06:18.
