data_PCOD8134587
_publ_section_title
;
Structure prediction by ZEFSAII (Michael W. Deem and Ramdas Pophale) SiO2 
 PCOD8134587
Probable space group: C 2/C
;
_chemical_formula_sum "Si O2"
_cell_formula_units_Z 52
_cell_length_a 13.850802
_cell_length_b 20.994607
_cell_length_c 16.630988
_cell_angle_alpha 90.000000
_cell_angle_beta 146.838679
_cell_angle_gamma 90.000000
_cell_volume 2645.371274
_symmetry_space_group_name_H-M "C 2/C"
_symmetry_group_IT_number 15
_symmetry_cell_setting 'monoclinic'
loop_
_space_group_symop_operation_xyz
x,y,z
-x,y,1/2-z
-x,-y,-z
x,-y,1/2+z
1/2+x,1/2+y,z
1/2-x,1/2+y,1/2-z
1/2-x,1/2-y,-z
1/2+x,1/2-y,1/2+z
loop_
_atom_site_type_symbol
_atom_site_label
_atom_site_fract_x
_atom_site_fract_y
_atom_site_fract_z
Si Si1 0.357823 0.704182 0.218148
Si Si2 0.121726 0.899255 0.538977
Si Si3 0.876432 0.048612 0.733970
Si Si4 0.257177 0.922078 0.802052
Si Si5 0.500000 0.132193 0.250000
Si Si6 0.902419 0.646987 0.009975
Si Si7 0.997341 0.770596 0.509285
O O1 0.500000 0.722578 0.250000
O O2 0.293990 0.630821 0.165277
O O3 0.427853 0.706971 0.355582
O O4 0.206264 0.757480 0.112364
O O5 0.122166 0.922390 0.631904
O O6 0.322132 0.907744 0.644973
O O7 0.044133 0.826968 0.479545
O O8 0.988603 0.940238 0.392906
O O9 0.783886 0.112376 0.634580
O O10 0.000000 0.022399 0.750000
O O11 0.739319 0.991886 0.656372
O O12 0.453092 0.906052 0.909920
O O13 0.443745 0.171712 0.130382
O O14 0.907248 0.707435 0.955807
#
# Coordination Sequence:
#
# PCOD8134587 Si02
#       7
#     8   8   8   8   4   8   8
#     4  10  19  36  58  85 108 146 185 228 278 334
#     4  10  21  38  56  81 115 147 190 226 285 328
#     4  12  21  35  56  87 106 143 194 235 270 330
#     4   9  21  37  58  76 113 150 181 228 286 334
#     4  10  20  38  52  80 112 154 184 228 278 330
#     4  10  21  38  56  81 115 147 190 226 285 328
#     4  10  21  37  56  82 114 150 182 229 281 338
#
# _framework density 19.656976
#
# number of rings (size 3 to 8) (size 9 to 14) (size 15 to 20)
#    0.000    1.846    1.538    3.692    0.000    0.615 
#    2.769    0.000    0.000    0.000    4.000    0.000 
#    0.000    0.000    0.000    0.000    0.000    0.000 
#
# Total GULP energy -322129.496172 kJ/mol
# GULP energy per Si atom -12389.596007 kJ/mol
# Density = 1.961224 g / cm^3
# Si number density = 19.656976 Si / 1000 Ang^3
#
#
#
# Elastic Constant Matrix: (Units=GPa)
#
#
# Indices 1 2 3 4 5 6 
#
# 1 95.3008 31.2249 12.0381 0.0006 10.3603 0.0003
# 2 31.2249 86.2108 14.6956 -0.0004 4.4782 -0.0005
# 3 12.0381 14.6956 59.9544 0.0033 6.4744 0.0025
# 4 0.0006 -0.0004 0.0033 22.0856 0.0021 8.3693
# 5 10.3603 4.4782 6.4744 0.0021 32.1663 0.0016
# 6 0.0003 -0.0005 0.0025 8.3693 0.0016 30.5353
#
#
#
# Elastic Compliance Matrix: (Units=1/GPa)
#
#
# Indices 1 2 3 4 5 6 
#
# 1 0.012326 -0.004108 -0.001126 0.000000 -0.003172 0.000000
# 2 -0.004108 0.013513 -0.002481 0.000001 -0.000059 0.000000
# 3 -0.001126 -0.002481 0.017824 -0.000002 -0.002880 -0.000001
# 4 0.000000 0.000001 -0.000002 0.050526 -0.000002 -0.013848
# 5 -0.003172 -0.000059 -0.002880 -0.000002 0.032698 -0.000001
# 6 0.000000 0.000000 -0.000001 -0.013848 -0.000001 0.036545
#
#
# Mechanical properties :
#
#
# Convention : Reuss Voigt Hill
#
# Bulk Modulus (GPa) = 35.41727 39.70925 37.56326
# Shear Modulus (GPa) = 26.55721 29.19126 27.87424
#
# Velocity S-wave (km/s) = 3.67963 3.85779 3.76976
# Velocity P-wave (km/s) = 6.00913 6.33154 6.17244
#
# Compressibility (1/GPa) = 0.02823481
#
# Stress axis : x y z
#
# Youngs Moduli (GPa) = 81.12966 74.00131 56.10261
#
# Poissons Ratio (x) = 0.30398 0.06315
# Poissons Ratio (y) = 0.33326 0.13920
# Poissons Ratio (z) = 0.09132 0.18361
#
# Static dielectric constant tensor:
#      x y z
#    x 3.589650 0.000000 -0.058600 
#    y 0.000000 3.408070 -0.000010 
#    z -0.058600 -0.000010 3.558470 
# 
# 
# High freq. dielectric constant tensor:
#      x y z
#    x 1.770600 0.000000 -0.001510 
#    y 0.000000 1.747730 0.000000 
#    z -0.001510 0.000000 1.769900 
# 
# From -- ./inp_files/40834.got.cif
#   From: 2010.06.25/outbox.cif.g09.slc.cpg/sg15_21_cif.got.tgz:40834.got - 2010.06.28 07:06:18.
