data_PCOD8134785
_publ_section_title
;
Structure prediction by ZEFSAII (Michael W. Deem and Ramdas Pophale) SiO2 
 PCOD8134785
Probable space group: C 2/C
;
_chemical_formula_sum "Si O2"
_cell_formula_units_Z 64
_cell_length_a 31.140675
_cell_length_b 9.369353
_cell_length_c 23.891110
_cell_angle_alpha 90.000000
_cell_angle_beta 27.366899
_cell_angle_gamma 90.000000
_cell_volume 3204.320756
_symmetry_space_group_name_H-M "C 2/C"
_symmetry_group_IT_number 15
_symmetry_cell_setting 'monoclinic'
loop_
_space_group_symop_operation_xyz
x,y,z
-x,y,1/2-z
-x,-y,-z
x,-y,1/2+z
1/2+x,1/2+y,z
1/2-x,1/2+y,1/2-z
1/2-x,1/2-y,-z
1/2+x,1/2-y,1/2+z
loop_
_atom_site_type_symbol
_atom_site_label
_atom_site_fract_x
_atom_site_fract_y
_atom_site_fract_z
Si Si1 0.895221 0.352624 0.979923
Si Si2 0.621444 0.587897 0.660585
Si Si3 0.093071 0.418765 0.946251
Si Si4 0.599966 0.091174 0.210148
Si Si5 0.382245 0.944298 0.195275
Si Si6 0.796976 0.466885 0.509825
Si Si7 0.910284 0.951204 0.429152
Si Si8 0.197605 0.223021 0.910661
O O1 0.810059 0.413021 0.042160
O O2 0.886573 0.183120 0.996471
O O3 0.988344 0.396708 0.837774
O O4 0.897685 0.422472 0.038210
O O5 0.643262 0.751576 0.651509
O O6 0.692266 0.481232 0.608694
O O7 0.636022 0.574783 0.577413
O O8 0.520957 0.532638 0.795827
O O9 0.123379 0.435149 0.846789
O O10 0.161122 0.309435 0.898924
O O11 0.984566 0.369613 0.076877
O O12 0.638552 0.027180 0.223282
O O13 0.630559 0.985329 0.125044
O O14 0.304586 0.822232 0.276247
O O15 0.811096 0.312556 0.521858
O O16 0.868981 0.087586 0.507182
#
# Coordination Sequence:
#
# PCOD8134785 Si02
#       8
#     8   8   8   8   8   8   8   8
#     4   9  19  37  62  84 118 161 205 247 296 369
#     4  10  21  35  57  86 126 160 199 245 298 374
#     4   9  22  45  63  88 119 161 212 256 303 371
#     4  10  19  36  62  88 117 167 204 243 295 375
#     4  10  22  41  67  84 122 166 210 252 310 366
#     4  11  21  35  58  91 123 157 200 242 306 382
#     4  10  21  38  56  88 124 158 198 254 306 358
#     4  11  25  39  61  97 123 160 199 264 323 356
#
# _framework density 19.973032
#
# number of rings (size 3 to 8) (size 9 to 14) (size 15 to 20)
#    0.000    2.000    1.250    1.500    3.500    3.000 
#   13.500    0.000    0.000    3.750    0.000    0.000 
#    0.000    0.000    0.000    0.000    0.000    0.000 
#
# Total GULP energy -396859.613151 kJ/mol
# GULP energy per Si atom -12401.862911 kJ/mol
# Density = 1.992757 g / cm^3
# Si number density = 19.973032 Si / 1000 Ang^3
#
#
#
# Elastic Constant Matrix: (Units=GPa)
#
#
# Indices 1 2 3 4 5 6 
#
# 1 110.9255 46.9355 39.3889 0.0011 -8.8241 0.0000
# 2 46.9355 113.5695 41.9133 0.0133 -5.5231 -0.0057
# 3 39.3889 41.9133 65.7152 0.0080 -4.6797 -0.0030
# 4 0.0011 0.0133 0.0080 28.3423 -0.0047 -5.0051
# 5 -8.8241 -5.5231 -4.6797 -0.0047 34.2613 0.0012
# 6 0.0000 -0.0057 -0.0030 -5.0051 0.0012 30.4884
#
#
#
# Elastic Compliance Matrix: (Units=1/GPa)
#
#
# Indices 1 2 3 4 5 6 
#
# 1 0.012349 -0.003045 -0.005320 0.000003 0.001963 -0.000001
# 2 -0.003045 0.012292 -0.005988 -0.000004 0.000379 0.000001
# 3 -0.005320 -0.005988 0.022275 -0.000003 0.000707 0.000001
# 4 0.000003 -0.000004 -0.000003 0.036336 0.000004 0.005965
# 5 0.001963 0.000379 0.000707 0.000004 0.029851 0.000000
# 6 -0.000001 0.000001 0.000001 0.005965 0.000000 0.033779
#
#
# Mechanical properties :
#
#
# Convention : Reuss Voigt Hill
#
# Bulk Modulus (GPa) = 54.91205 60.74283 57.82744
# Shear Modulus (GPa) = 27.52454 29.41656 28.47055
#
# Velocity S-wave (km/s) = 3.71628 3.84189 3.77961
# Velocity P-wave (km/s) = 6.77991 7.08227 6.93274
#
# Compressibility (1/GPa) = 0.01821094
#
# Stress axis : x y z
#
# Youngs Moduli (GPa) = 80.98139 81.35585 44.89284
#
# Poissons Ratio (x) = 0.24769 0.23883
# Poissons Ratio (y) = 0.24655 0.26881
# Poissons Ratio (z) = 0.43082 0.48714
#
# Static dielectric constant tensor:
#      x y z
#    x 3.704900 0.000000 -0.113730 
#    y 0.000000 3.461550 0.000010 
#    z -0.113730 0.000010 3.549630 
# 
# 
# High freq. dielectric constant tensor:
#      x y z
#    x 1.789310 0.000000 -0.011950 
#    y 0.000000 1.763260 0.000000 
#    z -0.011950 0.000000 1.774390 
# 
# From -- ./inp_files/176561.got.cif
#   From: 2010.06.25/outbox.cif.g09.slc.cpg/sg15_89_cif.got.tgz:176561.got - 2010.06.28 07:06:18.
