data_PCOD8134493
_publ_section_title
;
Structure prediction by ZEFSAII (Michael W. Deem and Ramdas Pophale) SiO2 
 PCOD8134493
Probable space group: C 2/C
;
_chemical_formula_sum "Si O2"
_cell_formula_units_Z 44
_cell_length_a 9.453089
_cell_length_b 27.596748
_cell_length_c 8.947740
_cell_angle_alpha 90.000000
_cell_angle_beta 92.962628
_cell_angle_gamma 90.000000
_cell_volume 2331.117529
_symmetry_space_group_name_H-M "C 2/C"
_symmetry_group_IT_number 15
_symmetry_cell_setting 'monoclinic'
loop_
_space_group_symop_operation_xyz
x,y,z
-x,y,1/2-z
-x,-y,-z
x,-y,1/2+z
1/2+x,1/2+y,z
1/2-x,1/2+y,1/2-z
1/2-x,1/2-y,-z
1/2+x,1/2-y,1/2+z
loop_
_atom_site_type_symbol
_atom_site_label
_atom_site_fract_x
_atom_site_fract_y
_atom_site_fract_z
Si Si1 0.246545 0.848302 0.096518
Si Si2 0.500000 0.993881 0.750000
Si Si3 0.689173 0.139796 0.554157
Si Si4 0.058284 0.432086 0.489587
Si Si5 0.521499 0.779197 0.425316
Si Si6 0.470906 0.670003 0.423908
O O1 0.253944 0.854470 0.274549
O O2 0.334262 0.889113 0.018586
O O3 0.314929 0.797028 0.042081
O O4 0.088264 0.856171 0.030559
O O5 0.590650 0.958436 0.648436
O O6 0.408049 0.028754 0.638222
O O7 0.604158 0.088926 0.530396
O O8 0.585482 0.183581 0.500766
O O9 0.822040 0.144214 0.449670
O O10 0.500000 0.784006 0.250000
O O11 0.482116 0.725845 0.480161
O O12 0.500000 0.665483 0.250000
#
# Coordination Sequence:
#
# PCOD8134493 Si02
#       6
#     8   4   8   8   8   8
#     4  10  19  36  56  78 112 147 181 218 270 322
#     4  10  20  36  64  88 104 126 176 232 272 330
#     4  10  19  36  56  78 112 147 181 218 270 322
#     4  10  20  37  62  88 104 132 177 225 275 321
#     4   8  17  34  54  77 107 147 193 225 251 305
#     4  11  22  32  50  81 116 150 182 223 261 309
#
# _framework density 18.875066
#
# number of rings (size 3 to 8) (size 9 to 14) (size 15 to 20)
#    0.000    2.182    1.818    2.727    2.545    0.000 
#    0.000    1.818    0.000    6.545    0.000    0.000 
#    0.000    0.000    0.000    0.000    0.000    0.000 
#
# Total GULP energy -272588.193968 kJ/mol
# GULP energy per Si atom -12390.372453 kJ/mol
# Density = 1.883211 g / cm^3
# Si number density = 18.875066 Si / 1000 Ang^3
#
#
#
# Elastic Constant Matrix: (Units=GPa)
#
#
# Indices 1 2 3 4 5 6 
#
# 1 105.6435 26.7315 32.6156 0.0000 -12.6424 0.0000
# 2 26.7315 83.3763 44.1271 0.0000 -15.0371 0.0000
# 3 32.6156 44.1271 85.1664 0.0000 -5.8347 0.0000
# 4 0.0000 0.0000 0.0000 22.6113 0.0000 -4.9164
# 5 -12.6424 -15.0371 -5.8347 0.0000 21.1867 0.0000
# 6 0.0000 0.0000 0.0000 -4.9164 0.0000 7.8907
#
#
#
# Elastic Compliance Matrix: (Units=1/GPa)
#
#
# Indices 1 2 3 4 5 6 
#
# 1 0.011406 -0.000813 -0.003588 0.000000 0.005241 0.000000
# 2 -0.000813 0.018725 -0.008677 0.000000 0.010415 0.000000
# 3 -0.003588 -0.008677 0.017371 0.000000 -0.003516 0.000000
# 4 0.000000 0.000000 0.000000 0.051156 0.000000 0.031874
# 5 0.005241 0.010415 -0.003516 0.000000 0.056751 0.000000
# 6 0.000000 0.000000 0.000000 0.031874 0.000000 0.146591
#
#
# Mechanical properties :
#
#
# Convention : Reuss Voigt Hill
#
# Bulk Modulus (GPa) = 46.84624 53.45941 50.15282
# Shear Modulus (GPa) = 14.91324 21.71854 18.31589
#
# Velocity S-wave (km/s) = 2.81393 3.39580 3.11846
# Velocity P-wave (km/s) = 5.95236 6.61510 6.29246
#
# Compressibility (1/GPa) = 0.02134643
#
# Stress axis : x y z
#
# Youngs Moduli (GPa) = 87.66972 53.40365 57.56764
#
# Poissons Ratio (x) = 0.04341 0.20655
# Poissons Ratio (y) = 0.07126 0.49953
# Poissons Ratio (z) = 0.31456 0.46340
#
# Static dielectric constant tensor:
#      x y z
#    x 3.372390 0.000000 -0.017910 
#    y 0.000000 3.649970 0.000000 
#    z -0.017910 0.000000 3.385140 
# 
# 
# High freq. dielectric constant tensor:
#      x y z
#    x 1.711090 0.000000 -0.003460 
#    y 0.000000 1.732400 0.000000 
#    z -0.003460 0.000000 1.730640 
# 
# From -- ./inp_files/25551.got.cif
#   From: 2010.06.25/outbox.cif.g09.slc.cpg/sg15_13_cif.got.tgz:25551.got - 2010.06.28 07:06:18.
