data_PCOD8134113
_publ_section_title
;
Structure prediction by ZEFSAII (Michael W. Deem and Ramdas Pophale) SiO2 
 PCOD8134113
Probable space group: C 2/C
;
_chemical_formula_sum "Si O2"
_cell_formula_units_Z 36
_cell_length_a 11.945774
_cell_length_b 22.052825
_cell_length_c 8.978847
_cell_angle_alpha 90.000000
_cell_angle_beta 125.105622
_cell_angle_gamma 90.000000
_cell_volume 1935.093386
_symmetry_space_group_name_H-M "C 2/C"
_symmetry_group_IT_number 15
_symmetry_cell_setting 'monoclinic'
loop_
_space_group_symop_operation_xyz
x,y,z
-x,y,1/2-z
-x,-y,-z
x,-y,1/2+z
1/2+x,1/2+y,z
1/2-x,1/2+y,1/2-z
1/2-x,1/2-y,-z
1/2+x,1/2-y,1/2+z
loop_
_atom_site_type_symbol
_atom_site_label
_atom_site_fract_x
_atom_site_fract_y
_atom_site_fract_z
Si Si1 0.232489 0.274002 0.700767
Si Si2 0.381162 0.579307 0.922172
Si Si3 0.979520 0.192822 0.567518
Si Si4 0.343644 0.158461 0.631052
Si Si5 0.000000 0.009456 0.750000
O O1 0.326402 0.223581 0.694753
O O2 0.215197 0.333126 0.581975
O O3 0.081158 0.250036 0.624238
O O4 0.320453 0.291637 0.914674
O O5 0.481466 0.637533 0.012605
O O6 0.229187 0.604744 0.832855
O O7 0.395794 0.549637 0.769542
O O8 0.409388 0.530884 0.071539
O O9 0.000000 0.169205 0.750000
O O10 0.500000 0.139149 0.750000
#
# Coordination Sequence:
#
# PCOD8134113 Si02
#       5
#     8   8   8   8   4
#     4  10  20  32  54  81 120 152 181 215 275 338
#     4  10  21  35  61  77 111 138 196 235 285 319
#     4  11  20  34  52  86 116 151 180 227 273 343
#     4  10  19  35  56  83 111 151 184 224 272 343
#     4  10  20  40  56  84  98 146 190 254 278 320
#
# _framework density 18.603753000000001
#
# number of rings (size 3 to 8) (size 9 to 14) (size 15 to 20)
#    0.000    1.778    3.333    2.000    0.000    0.000 
#    0.000    1.111    0.000    0.000    0.000    0.000 
#    0.000    0.000    0.000    0.000    0.000    0.000 
#
# Total GULP energy -223135.599529 kJ/mol
# GULP energy per Si atom -12396.422196 kJ/mol
# Density = 1.856141 g / cm^3
# Si number density = 18.603753 Si / 1000 Ang^3
#
#
#
# Elastic Constant Matrix: (Units=GPa)
#
#
# Indices 1 2 3 4 5 6 
#
# 1 115.2086 53.1894 50.9561 0.0000 7.9633 0.0000
# 2 53.1894 86.7592 40.9713 0.0000 1.3222 0.0000
# 3 50.9561 40.9713 122.7471 0.0000 6.0484 0.0000
# 4 0.0000 0.0000 0.0000 17.1895 0.0000 -10.9317
# 5 7.9633 1.3222 6.0484 0.0000 30.7510 0.0000
# 6 0.0000 0.0000 0.0000 -10.9317 0.0000 25.8707
#
#
#
# Elastic Compliance Matrix: (Units=1/GPa)
#
#
# Indices 1 2 3 4 5 6 
#
# 1 0.013326 -0.006622 -0.003197 0.000000 -0.002537 0.000000
# 2 -0.006622 0.016976 -0.002995 0.000000 0.001574 0.000000
# 3 -0.003197 -0.002995 0.010529 0.000000 -0.001114 0.000000
# 4 0.000000 0.000000 0.000000 0.079553 0.000000 0.033615
# 5 -0.002537 0.001574 -0.001114 0.000000 0.033328 0.000000
# 6 0.000000 0.000000 0.000000 0.033615 0.000000 0.052858
#
#
# Mechanical properties :
#
#
# Convention : Reuss Voigt Hill
#
# Bulk Modulus (GPa) = 65.77323 68.32761 67.05042
# Shear Modulus (GPa) = 21.07348 26.73543 23.90445
#
# Velocity S-wave (km/s) = 3.36929 3.79502 3.58848
# Velocity P-wave (km/s) = 7.11110 7.48402 7.29994
#
# Compressibility (1/GPa) = 0.01520375
#
# Stress axis : x y z
#
# Youngs Moduli (GPa) = 75.03943 58.90640 94.97930
#
# Poissons Ratio (x) = 0.39005 0.30364
# Poissons Ratio (y) = 0.49688 0.28447
# Poissons Ratio (z) = 0.23990 0.17643
#
# Static dielectric constant tensor:
#      x y z
#    x 3.386910 0.000000 -0.198450 
#    y 0.000000 3.331760 0.000000 
#    z -0.198450 0.000000 3.349890 
# 
# 
# High freq. dielectric constant tensor:
#      x y z
#    x 1.718820 0.000000 -0.011100 
#    y 0.000000 1.706830 0.000000 
#    z -0.011100 0.000000 1.715540 
# 
# From -- ./inp_files/28964.got.cif
#   From: 2010.06.25/outbox.cif.g09.slc.cpg/sg15_15_cif.got.tgz:28964.got - 2010.06.28 07:06:18.
