data_PCOD8134883
_publ_section_title
;
Structure prediction by ZEFSAII (Michael W. Deem and Ramdas Pophale) SiO2 
 PCOD8134883
Probable space group: C 2/C
;
_chemical_formula_sum "Si O2"
_cell_formula_units_Z 40
_cell_length_a 23.169372
_cell_length_b 17.207141
_cell_length_c 14.617091
_cell_angle_alpha 90.000000
_cell_angle_beta 18.333942
_cell_angle_gamma 90.000000
_cell_volume 1833.075289
_symmetry_space_group_name_H-M "C 2/C"
_symmetry_group_IT_number 15
_symmetry_cell_setting 'monoclinic'
loop_
_space_group_symop_operation_xyz
x,y,z
-x,y,1/2-z
-x,-y,-z
x,-y,1/2+z
1/2+x,1/2+y,z
1/2-x,1/2+y,1/2-z
1/2-x,1/2-y,-z
1/2+x,1/2-y,1/2+z
loop_
_atom_site_type_symbol
_atom_site_label
_atom_site_fract_x
_atom_site_fract_y
_atom_site_fract_z
Si Si1 0.215524 0.506699 0.655776
Si Si2 0.393534 0.693084 0.089159
Si Si3 0.328967 0.091897 0.953320
Si Si4 0.512289 0.243470 0.592901
Si Si5 0.000000 0.871469 0.750000
Si Si6 0.500000 0.377414 0.250000
O O1 0.243819 0.525943 0.505809
O O2 0.325296 0.575310 0.543736
O O3 0.311746 0.426313 0.538590
O O4 0.000000 0.500000 0.000000
O O5 0.330351 0.613985 0.235266
O O6 0.221159 0.739786 0.309741
O O7 0.500808 0.747237 0.000460
O O8 0.519868 0.673489 0.812046
O O9 0.500000 0.054659 0.750000
O O10 0.397032 0.169635 0.798660
O O11 0.432523 0.319567 0.765263
#
# Coordination Sequence:
#
# PCOD8134883 Si02
#       6
#     8   8   8   8   4   4
#     4  11  23  42  62  91 134 171 213 260 316 387
#     4  11  22  40  64  94 133 165 215 274 320 389
#     4  10  19  36  67  97 123 159 211 280 319 379
#     4  11  20  38  70 102 122 157 220 275 337 369
#     4  11  20  38  70 102 122 167 212 274 324 381
#     4  11  28  44  58  90 136 185 210 256 324 385
#
# _framework density 21.821252999999999
#
# number of rings (size 3 to 8) (size 9 to 14) (size 15 to 20)
#    0.000    1.200    5.000    4.200    0.000    1.600 
#    3.600    0.000    0.000    0.000    0.000    0.000 
#    0.000    0.000    0.000    0.000    0.000    0.000 
#
# Total GULP energy -247949.503104 kJ/mol
# GULP energy per Si atom -12397.475155 kJ/mol
# Density = 2.177159 g / cm^3
# Si number density = 21.821253 Si / 1000 Ang^3
#
#
#
# Elastic Constant Matrix: (Units=GPa)
#
#
# Indices 1 2 3 4 5 6 
#
# 1 162.9961 29.5383 31.2277 0.0024 5.3181 -0.0013
# 2 29.5383 50.5122 15.3895 -0.0021 2.7614 -0.0003
# 3 31.2277 15.3895 90.8493 -0.0010 -3.1628 0.0003
# 4 0.0024 -0.0021 -0.0010 8.6395 -0.0061 6.8090
# 5 5.3181 2.7614 -3.1628 -0.0061 44.4941 0.0024
# 6 -0.0013 -0.0003 0.0003 6.8090 0.0024 37.0066
#
#
#
# Elastic Compliance Matrix: (Units=1/GPa)
#
#
# Indices 1 2 3 4 5 6 
#
# 1 0.007169 -0.003576 -0.001885 -0.000004 -0.000769 0.000001
# 2 -0.003576 0.022766 -0.002668 0.000006 -0.001175 -0.000001
# 3 -0.001885 -0.002668 0.012151 0.000003 0.001255 -0.000001
# 4 -0.000004 0.000006 0.000003 0.135378 0.000020 -0.024909
# 5 -0.000769 -0.001175 0.001255 0.000020 0.022729 -0.000005
# 6 0.000001 -0.000001 -0.000001 -0.024909 -0.000005 0.031605
#
#
# Mechanical properties :
#
#
# Convention : Reuss Voigt Hill
#
# Bulk Modulus (GPa) = 38.71938 50.74096 44.73017
# Shear Modulus (GPa) = 19.48057 33.24153 26.36105
#
# Velocity S-wave (km/s) = 2.99111 3.90725 3.47946
# Velocity P-wave (km/s) = 5.45081 6.60749 6.05683
#
# Compressibility (1/GPa) = 0.02582686
#
# Stress axis : x y z
#
# Youngs Moduli (GPa) = 139.48024 43.92608 82.29818
#
# Poissons Ratio (x) = 0.15708 0.15516
# Poissons Ratio (y) = 0.49879 0.21958
# Poissons Ratio (z) = 0.26297 0.11720
#
# Static dielectric constant tensor:
#      x y z
#    x 4.300740 -0.000020 -0.181690 
#    y -0.000020 3.766850 0.000030 
#    z -0.181690 0.000030 3.762990 
# 
# 
# High freq. dielectric constant tensor:
#      x y z
#    x 1.880010 0.000000 -0.024900 
#    y 0.000000 1.830620 0.000000 
#    z -0.024900 0.000000 1.835940 
# 
# From -- ./inp_files/77892.got.cif
#   From: 2010.06.25/outbox.cif.g09.slc.cpg/sg15_39_cif.got.tgz:77892.got - 2010.06.28 07:06:18.
