data_PCOD8134759
_publ_section_title
;
Structure prediction by ZEFSAII (Michael W. Deem and Ramdas Pophale) SiO2 
 PCOD8134759
Probable space group: C 2/C
;
_chemical_formula_sum "Si O2"
_cell_formula_units_Z 44
_cell_length_a 4.907349
_cell_length_b 24.626793
_cell_length_c 16.980536
_cell_angle_alpha 90.000000
_cell_angle_beta 114.537196
_cell_angle_gamma 90.000000
_cell_volume 1866.811683
_symmetry_space_group_name_H-M "C 2/C"
_symmetry_group_IT_number 15
_symmetry_cell_setting 'monoclinic'
loop_
_space_group_symop_operation_xyz
x,y,z
-x,y,1/2-z
-x,-y,-z
x,-y,1/2+z
1/2+x,1/2+y,z
1/2-x,1/2+y,1/2-z
1/2-x,1/2-y,-z
1/2+x,1/2-y,1/2+z
loop_
_atom_site_type_symbol
_atom_site_label
_atom_site_fract_x
_atom_site_fract_y
_atom_site_fract_z
Si Si1 0.000000 0.453126 0.250000
Si Si2 0.183391 0.706241 0.692688
Si Si3 0.262009 0.940291 0.492353
Si Si4 0.000000 0.119120 0.250000
Si Si5 0.635369 0.112433 0.913806
Si Si6 0.443771 0.532117 0.370307
Si Si7 0.500000 0.192203 0.250000
O O1 0.951556 0.416577 0.321487
O O2 0.712823 0.491636 0.209188
O O3 0.500000 0.674903 0.750000
O O4 0.972271 0.675234 0.603970
O O5 0.277292 0.767207 0.673252
O O6 0.000000 0.713422 0.750000
O O7 0.552345 0.911731 0.489607
O O8 0.293202 0.949967 0.589734
O O9 0.985739 0.898569 0.443080
O O10 0.217111 0.999453 0.444829
O O11 0.050351 0.084349 0.335145
O O12 0.698822 0.154757 0.217297
#
# Coordination Sequence:
#
# PCOD8134759 Si02
#       7
#     4   8   8   4   8   8   4
#     4  10  21  35  62  94 120 157 207 250 282 364
#     4  10  19  36  61  91 115 146 192 268 310 343
#     4  10  24  39  57  89 128 165 187 243 299 370
#     4  12  22  39  63  86 115 165 204 246 282 358
#     4  11  21  36  63  90 120 152 200 245 315 353
#     4  10  23  39  59  87 127 162 204 236 295 349
#     4  10  23  36  61  92 117 146 203 268 300 332
#
# _framework density 23.569596000000001
#
# number of rings (size 3 to 8) (size 9 to 14) (size 15 to 20)
#    0.545    1.091    1.818    2.727    2.545   10.909 
#    0.000    0.000    0.000    6.545    0.000    0.000 
#    0.000    0.000    0.000    0.000    0.000    0.000 
#
# Total GULP energy -272665.700663 kJ/mol
# GULP energy per Si atom -12393.895485 kJ/mol
# Density = 2.351595 g / cm^3
# Si number density = 23.569596 Si / 1000 Ang^3
#
#
#
# Elastic Constant Matrix: (Units=GPa)
#
#
# Indices 1 2 3 4 5 6 
#
# 1 82.8543 36.8558 6.9996 0.0000 -20.5977 0.0000
# 2 36.8558 132.1585 29.2880 0.0000 -13.0814 0.0000
# 3 6.9996 29.2880 77.4283 0.0000 -14.9808 0.0000
# 4 0.0000 0.0000 0.0000 12.0727 0.0000 -2.4207
# 5 -20.5977 -13.0814 -14.9808 0.0000 35.9315 0.0000
# 6 0.0000 0.0000 0.0000 -2.4207 0.0000 26.2860
#
#
#
# Elastic Compliance Matrix: (Units=1/GPa)
#
#
# Indices 1 2 3 4 5 6 
#
# 1 0.015741 -0.003940 0.001670 0.000000 0.008285 0.000000
# 2 -0.003940 0.009360 -0.003222 0.000000 -0.000194 0.000000
# 3 0.001670 -0.003222 0.015164 0.000000 0.006107 0.000000
# 4 0.000000 0.000000 0.000000 0.084390 0.000000 0.007772
# 5 0.008285 -0.000194 0.006107 0.000000 0.035056 0.000000
# 6 0.000000 0.000000 0.000000 0.007772 0.000000 0.038759
#
#
# Mechanical properties :
#
#
# Convention : Reuss Voigt Hill
#
# Bulk Modulus (GPa) = 34.15015 48.74754 41.44884
# Shear Modulus (GPa) = 22.80889 29.47789 26.14339
#
# Velocity S-wave (km/s) = 3.11420 3.54032 3.33408
# Velocity P-wave (km/s) = 5.23942 6.11875 5.69608
#
# Compressibility (1/GPa) = 0.02928245
#
# Stress axis : x y z
#
# Youngs Moduli (GPa) = 63.53037 106.83552 65.94354
#
# Poissons Ratio (x) = 0.42090 -0.11015
# Poissons Ratio (y) = 0.25029 0.21247
# Poissons Ratio (z) = -0.10611 0.34422
#
# Static dielectric constant tensor:
#      x y z
#    x 4.314680 0.000000 -0.098950 
#    y 0.000000 4.360710 0.000000 
#    z -0.098950 0.000000 4.018100 
# 
# 
# High freq. dielectric constant tensor:
#      x y z
#    x 1.947670 0.000000 -0.015680 
#    y 0.000000 1.924730 0.000000 
#    z -0.015680 0.000000 1.900500 
# 
# From -- ./inp_files/129826.got.cif
#   From: 2010.06.25/outbox.cif.g09.slc.cpg/sg15_65_cif.got.tgz:129826.got - 2010.06.28 07:06:18.
