data_PCOD8134323
_publ_section_title
;
Structure prediction by ZEFSAII (Michael W. Deem and Ramdas Pophale) SiO2 
 PCOD8134323
Probable space group: C 2/C
;
_chemical_formula_sum "Si O2"
_cell_formula_units_Z 64
_cell_length_a 22.158495
_cell_length_b 19.309451
_cell_length_c 9.341137
_cell_angle_alpha 90.000000
_cell_angle_beta 59.213313
_cell_angle_gamma 90.000000
_cell_volume 3433.546669
_symmetry_space_group_name_H-M "C 2/C"
_symmetry_group_IT_number 15
_symmetry_cell_setting 'monoclinic'
loop_
_space_group_symop_operation_xyz
x,y,z
-x,y,1/2-z
-x,-y,-z
x,-y,1/2+z
1/2+x,1/2+y,z
1/2-x,1/2+y,1/2-z
1/2-x,1/2-y,-z
1/2+x,1/2-y,1/2+z
loop_
_atom_site_type_symbol
_atom_site_label
_atom_site_fract_x
_atom_site_fract_y
_atom_site_fract_z
Si Si1 0.577512 0.727150 0.148759
Si Si2 0.735788 0.996406 0.639128
Si Si3 0.421308 0.864173 0.845395
Si Si4 0.770583 0.142158 0.243328
Si Si5 0.387451 0.147169 0.059085
Si Si6 0.634916 0.996736 0.006669
Si Si7 0.205603 0.862887 0.463181
Si Si8 0.338463 0.778089 0.181038
O O1 0.500000 0.691883 0.250000
O O2 0.632649 0.674191 0.007066
O O3 0.605418 0.756917 0.265944
O O4 0.564162 0.791746 0.058212
O O5 0.773771 0.923305 0.630570
O O6 0.707183 0.000046 0.511528
O O7 0.663401 0.006569 0.812062
O O8 0.788672 0.059897 0.610123
O O9 0.500000 0.834908 0.750000
O O10 0.391572 0.859841 0.723712
O O11 0.421654 0.944853 0.888836
O O12 0.373272 0.823902 0.016119
O O13 0.692528 0.166963 0.373611
O O14 0.803048 0.124500 0.357285
O O15 0.812235 0.208549 0.130731
O O16 0.404963 0.077278 0.947127
O O17 0.273117 0.817375 0.335208
#
# Coordination Sequence:
#
# PCOD8134323 Si02
#       8
#     8   8   8   8   8   8   8   8
#     4  11  22  38  61  85 114 149 186 237 288 336
#     4  11  19  36  58  85 111 140 188 240 279 319
#     4  12  26  38  52  81 122 156 184 227 285 342
#     4  10  19  35  60  88 108 138 192 244 272 321
#     4  11  21  38  53  85 117 144 192 232 272 336
#     4  11  21  35  57  80 114 149 187 232 275 328
#     4  11  19  36  63  88 111 143 199 234 277 331
#     4  11  21  39  62  81 112 157 190 232 282 328
#
# _framework density 18.639617999999999
#
# number of rings (size 3 to 8) (size 9 to 14) (size 15 to 20)
#    0.000    1.000    8.750    1.500    0.000    1.500 
#    2.250    0.000    0.000    3.750    0.000    0.000 
#    0.000    0.000    0.000    0.000    0.000    0.000 
#
# Total GULP energy -396551.615198 kJ/mol
# GULP energy per Si atom -12392.237975 kJ/mol
# Density = 1.859719 g / cm^3
# Si number density = 18.639618 Si / 1000 Ang^3
#
#
#
# Elastic Constant Matrix: (Units=GPa)
#
#
# Indices 1 2 3 4 5 6 
#
# 1 52.5171 30.2067 26.6051 0.0000 -14.5899 0.0000
# 2 30.2067 108.6349 33.3441 0.0000 -7.7155 0.0000
# 3 26.6051 33.3441 55.6502 0.0000 -3.0770 0.0000
# 4 0.0000 0.0000 0.0000 22.4306 0.0000 3.7129
# 5 -14.5899 -7.7155 -3.0770 0.0000 30.6366 0.0000
# 6 0.0000 0.0000 0.0000 3.7129 0.0000 19.4424
#
#
#
# Elastic Compliance Matrix: (Units=1/GPa)
#
#
# Indices 1 2 3 4 5 6 
#
# 1 0.030699 -0.004117 -0.011523 0.000000 0.012425 0.000000
# 2 -0.004117 0.011977 -0.005179 0.000000 0.000536 0.000000
# 3 -0.011523 -0.005179 0.026352 0.000000 -0.004145 0.000000
# 4 0.000000 0.000000 0.000000 0.046037 0.000000 -0.008792
# 5 0.012425 0.000536 -0.004145 0.000000 0.038277 0.000000
# 6 0.000000 0.000000 0.000000 -0.008792 0.000000 0.053113
#
#
# Mechanical properties :
#
#
# Convention : Reuss Voigt Hill
#
# Bulk Modulus (GPa) = 36.50760 44.12377 40.31569
# Shear Modulus (GPa) = 19.43850 22.94501 21.19175
#
# Velocity S-wave (km/s) = 3.23284 3.51234 3.37548
# Velocity P-wave (km/s) = 5.79340 6.33815 6.07189
#
# Compressibility (1/GPa) = 0.02739156
#
# Stress axis : x y z
#
# Youngs Moduli (GPa) = 32.57485 83.49022 37.94795
#
# Poissons Ratio (x) = 0.34371 0.43726
# Poissons Ratio (y) = 0.13410 0.19653
# Poissons Ratio (z) = 0.37535 0.43238
#
# Static dielectric constant tensor:
#      x y z
#    x 3.504140 0.000000 0.049150 
#    y 0.000000 3.704660 0.000000 
#    z 0.049150 0.000000 3.273030 
# 
# 
# High freq. dielectric constant tensor:
#      x y z
#    x 1.702660 0.000000 0.013880 
#    y 0.000000 1.728880 0.000000 
#    z 0.013880 0.000000 1.712410 
# 
# From -- ./inp_files/57865.got.cif
#   From: 2010.06.25/outbox.cif.g09.slc.cpg/sg15_29_cif.got.tgz:57865.got - 2010.06.28 07:06:18.
