data_PCOD8134120
_publ_section_title
;
Structure prediction by ZEFSAII (Michael W. Deem and Ramdas Pophale) SiO2 
 PCOD8134120
Probable space group: C 2/C
;
_chemical_formula_sum "Si O2"
_cell_formula_units_Z 48
_cell_length_a 18.328012
_cell_length_b 7.613533
_cell_length_c 22.811950
_cell_angle_alpha 90.000000
_cell_angle_beta 130.169607
_cell_angle_gamma 90.000000
_cell_volume 2432.405514
_symmetry_space_group_name_H-M "C 2/C"
_symmetry_group_IT_number 15
_symmetry_cell_setting 'monoclinic'
loop_
_space_group_symop_operation_xyz
x,y,z
-x,y,1/2-z
-x,-y,-z
x,-y,1/2+z
1/2+x,1/2+y,z
1/2-x,1/2+y,1/2-z
1/2-x,1/2-y,-z
1/2+x,1/2-y,1/2+z
loop_
_atom_site_type_symbol
_atom_site_label
_atom_site_fract_x
_atom_site_fract_y
_atom_site_fract_z
Si Si1 0.712480 0.593681 0.796214
Si Si2 0.607776 0.511786 0.535218
Si Si3 0.124042 0.361480 0.037011
Si Si4 0.781331 0.502306 0.208108
Si Si5 0.527175 0.176182 0.937235
Si Si6 0.429188 0.280231 0.766612
O O1 0.776250 0.560100 0.887333
O O2 0.778241 0.550396 0.774437
O O3 0.681397 0.798039 0.778413
O O4 0.620707 0.468334 0.748891
O O5 0.500000 0.500000 0.500000
O O6 0.637664 0.333122 0.515807
O O7 0.676711 0.529700 0.626964
O O8 0.610845 0.682264 0.495353
O O9 0.056240 0.329934 0.058118
O O10 0.079212 0.486748 0.964547
O O11 0.853589 0.372273 0.212192
O O12 0.486833 0.220474 0.853313
O O13 0.500000 0.303522 0.750000
#
# Coordination Sequence:
#
# PCOD8134120 Si02
#       6
#     8   8   8   8   8   8
#     4  11  20  38  64  90 119 161 209 261 309 367
#     4   9  18  32  56  91 117 147 199 260 307 357
#     4   9  18  33  59  91 113 148 208 257 303 355
#     4  11  21  37  66  93 122 162 213 261 309 374
#     4  10  19  35  56  84 120 158 196 252 311 363
#     4  12  26  41  58  92 132 169 207 255 320 378
#
# _framework density 19.733550999999999
#
# number of rings (size 3 to 8) (size 9 to 14) (size 15 to 20)
#    0.000    1.667    3.333    3.000    0.000    3.333 
#    0.000    3.333    0.000    4.000    0.000    0.000 
#    0.000    0.000    0.000    0.000    0.000    0.000 
#
# Total GULP energy -297490.042252 kJ/mol
# GULP energy per Si atom -12395.418427 kJ/mol
# Density = 1.968864 g / cm^3
# Si number density = 19.733551 Si / 1000 Ang^3
#
#
#
# Elastic Constant Matrix: (Units=GPa)
#
#
# Indices 1 2 3 4 5 6 
#
# 1 57.1977 29.5321 15.1360 0.0000 0.0406 0.0000
# 2 29.5321 145.8874 63.3014 0.0000 7.4206 0.0000
# 3 15.1360 63.3014 116.7773 0.0000 12.0355 0.0000
# 4 0.0000 0.0000 0.0000 36.4717 0.0000 7.7730
# 5 0.0406 7.4206 12.0355 0.0000 15.4287 0.0000
# 6 0.0000 0.0000 0.0000 7.7730 0.0000 15.0772
#
#
#
# Elastic Compliance Matrix: (Units=1/GPa)
#
#
# Indices 1 2 3 4 5 6 
#
# 1 0.019624 -0.003770 -0.000741 0.000000 0.002340 0.000000
# 2 -0.003770 0.009691 -0.004660 0.000000 -0.001016 0.000000
# 3 -0.000741 -0.004660 0.011912 0.000000 -0.007049 0.000000
# 4 0.000000 0.000000 0.000000 0.030803 0.000000 -0.015880
# 5 0.002340 -0.001016 -0.007049 0.000000 0.070795 0.000000
# 6 0.000000 0.000000 0.000000 -0.015880 0.000000 0.074512
#
#
# Mechanical properties :
#
#
# Convention : Reuss Voigt Hill
#
# Bulk Modulus (GPa) = 43.69630 59.53348 51.61489
# Shear Modulus (GPa) = 20.54999 27.52172 24.03586
#
# Velocity S-wave (km/s) = 3.23053 3.73857 3.49380
# Velocity P-wave (km/s) = 6.00886 6.99071 6.51830
#
# Compressibility (1/GPa) = 0.02288523
#
# Stress axis : x y z
#
# Youngs Moduli (GPa) = 50.95754 103.18334 83.94929
#
# Poissons Ratio (x) = 0.38900 0.06222
# Poissons Ratio (y) = 0.19211 0.39121
# Poissons Ratio (z) = 0.03777 0.48084
#
# Static dielectric constant tensor:
#      x y z
#    x 3.385900 0.000000 0.001540 
#    y 0.000000 4.363270 0.000000 
#    z 0.001540 0.000000 3.829780 
# 
# 
# High freq. dielectric constant tensor:
#      x y z
#    x 1.704890 0.000000 0.024720 
#    y 0.000000 1.798460 0.000000 
#    z 0.024720 0.000000 1.776380 
# 
# From -- ./inp_files/247634.got.cif
#   From: 2010.06.25/outbox.cif.g09.slc.cpg/sg15_124_cif.got.tgz:247634.got - 2010.06.28 07:06:18.
