data_PCOD8134814
_publ_section_title
;
Structure prediction by ZEFSAII (Michael W. Deem and Ramdas Pophale) SiO2 
 PCOD8134814
Probable space group: C 2/C
;
_chemical_formula_sum "Si O2"
_cell_formula_units_Z 64
_cell_length_a 25.783381
_cell_length_b 18.868225
_cell_length_c 9.819967
_cell_angle_alpha 90.000000
_cell_angle_beta 44.496724
_cell_angle_gamma 90.000000
_cell_volume 3348.246866
_symmetry_space_group_name_H-M "C 2/C"
_symmetry_group_IT_number 15
_symmetry_cell_setting 'monoclinic'
loop_
_space_group_symop_operation_xyz
x,y,z
-x,y,1/2-z
-x,-y,-z
x,-y,1/2+z
1/2+x,1/2+y,z
1/2-x,1/2+y,1/2-z
1/2-x,1/2-y,-z
1/2+x,1/2-y,1/2+z
loop_
_atom_site_type_symbol
_atom_site_label
_atom_site_fract_x
_atom_site_fract_y
_atom_site_fract_z
Si Si1 0.333438 0.193712 0.734894
Si Si2 0.967509 0.789110 0.455435
Si Si3 0.770687 0.091177 0.142054
Si Si4 0.254615 0.432760 0.173580
Si Si5 0.694373 0.215634 0.404537
Si Si6 0.561874 0.701267 0.021966
Si Si7 0.358558 0.572479 0.723389
Si Si8 0.134950 0.085404 0.266446
O O1 0.411264 0.224161 0.536295
O O2 0.319695 0.114251 0.703068
O O3 0.270320 0.243657 0.791015
O O4 0.337757 0.190952 0.890515
O O5 0.929771 0.856939 0.600630
O O6 0.000000 0.813170 0.250000
O O7 0.032555 0.763982 0.435802
O O8 0.706959 0.149904 0.276990
O O9 0.810614 0.092818 0.210647
O O10 0.736292 0.014149 0.168287
O O11 0.831557 0.109932 0.913387
O O12 0.284987 0.432495 0.269386
O O13 0.317594 0.398197 0.958003
O O14 0.637641 0.264076 0.429082
O O15 0.500000 0.710473 0.250000
O O16 0.577445 0.618321 0.965818
O O17 0.394986 0.495312 0.683284
#
# Coordination Sequence:
#
# PCOD8134814 Si02
#       8
#     8   8   8   8   8   8   8   8
#     4  11  20  39  65  85 113 166 203 236 302 361
#     4  12  25  38  59  87 124 163 200 244 296 356
#     4  10  20  35  61  91 117 147 201 258 294 338
#     4  10  19  36  63  89 113 152 203 249 294 352
#     4  11  21  38  65  86 115 160 204 248 294 358
#     4  12  24  38  55  88 122 160 201 242 300 353
#     4  10  22  34  55  89 124 152 196 251 289 350
#     4  10  19  38  57  82 120 167 197 225 300 368
#
# _framework density 19.11448
#
# number of rings (size 3 to 8) (size 9 to 14) (size 15 to 20)
#    0.000    1.250    5.000    2.250    0.000    2.500 
#    0.000    0.000    0.000    1.500    0.000    0.000 
#    0.000    0.000    0.000    0.000    0.000    0.000 
#
# Total GULP energy -396774.555966 kJ/mol
# GULP energy per Si atom -12399.204874 kJ/mol
# Density = 1.907097 g / cm^3
# Si number density = 19.114480 Si / 1000 Ang^3
#
#
#
# Elastic Constant Matrix: (Units=GPa)
#
#
# Indices 1 2 3 4 5 6 
#
# 1 79.9761 24.4013 13.5535 0.0000 0.2051 0.0000
# 2 24.4013 77.8845 30.6554 0.0000 0.3959 0.0000
# 3 13.5535 30.6554 68.2321 0.0000 7.8614 0.0000
# 4 0.0000 0.0000 0.0000 27.2817 0.0000 1.9428
# 5 0.2051 0.3959 7.8614 0.0000 20.8368 0.0000
# 6 0.0000 0.0000 0.0000 1.9428 0.0000 20.3954
#
#
#
# Elastic Compliance Matrix: (Units=1/GPa)
#
#
# Indices 1 2 3 4 5 6 
#
# 1 0.013881 -0.003949 -0.001020 0.000000 0.000323 0.000000
# 2 -0.003949 0.016842 -0.007057 0.000000 0.002381 0.000000
# 3 -0.001020 -0.007057 0.018831 0.000000 -0.006960 0.000000
# 4 0.000000 0.000000 0.000000 0.036905 0.000000 -0.003515
# 5 0.000323 0.002381 -0.006960 0.000000 0.050570 0.000000
# 6 0.000000 0.000000 0.000000 -0.003515 0.000000 0.049365
#
#
# Mechanical properties :
#
#
# Convention : Reuss Voigt Hill
#
# Bulk Modulus (GPa) = 39.21300 40.36813 39.79056
# Shear Modulus (GPa) = 22.83663 24.20163 23.51913
#
# Velocity S-wave (km/s) = 3.46024 3.56215 3.51156
# Velocity P-wave (km/s) = 6.04348 6.17118 6.10767
#
# Compressibility (1/GPa) = 0.02550175
#
# Stress axis : x y z
#
# Youngs Moduli (GPa) = 72.04277 59.37474 53.10395
#
# Poissons Ratio (x) = 0.23446 0.05418
# Poissons Ratio (y) = 0.28449 0.37475
# Poissons Ratio (z) = 0.07351 0.41900
#
# Static dielectric constant tensor:
#      x y z
#    x 3.551100 0.000000 0.215130 
#    y 0.000000 3.813520 0.000000 
#    z 0.215130 0.000000 3.441420 
# 
# 
# High freq. dielectric constant tensor:
#      x y z
#    x 1.736650 0.000000 0.026570 
#    y 0.000000 1.738370 0.000000 
#    z 0.026570 0.000000 1.731030 
# 
# From -- ./inp_files/63386.got.cif
#   From: 2010.06.25/outbox.cif.g09.slc.cpg/sg15_32_cif.got.tgz:63386.got - 2010.06.28 07:06:18.
