data_PCOD8134151
_publ_section_title
;
Structure prediction by ZEFSAII (Michael W. Deem and Ramdas Pophale) SiO2 
 PCOD8134151
Probable space group: C 2/C
;
_chemical_formula_sum "Si O2"
_cell_formula_units_Z 48
_cell_length_a 15.111927
_cell_length_b 8.814563
_cell_length_c 20.645717
_cell_angle_alpha 90.000000
_cell_angle_beta 68.385230
_cell_angle_gamma 90.000000
_cell_volume 2556.729716
_symmetry_space_group_name_H-M "C 2/C"
_symmetry_group_IT_number 15
_symmetry_cell_setting 'monoclinic'
loop_
_space_group_symop_operation_xyz
x,y,z
-x,y,1/2-z
-x,-y,-z
x,-y,1/2+z
1/2+x,1/2+y,z
1/2-x,1/2+y,1/2-z
1/2-x,1/2-y,-z
1/2+x,1/2-y,1/2+z
loop_
_atom_site_type_symbol
_atom_site_label
_atom_site_fract_x
_atom_site_fract_y
_atom_site_fract_z
Si Si1 0.039165 0.180099 0.672133
Si Si2 0.960835 0.819901 0.827867
Si Si3 0.243649 0.820495 0.572207
Si Si4 0.572320 0.678509 0.923606
Si Si5 0.927680 0.821491 0.576394
Si Si6 0.756351 0.820495 0.427793
O O1 0.146578 0.237012 0.631934
O O2 0.000000 0.249119 0.750000
O O3 0.972089 0.235784 0.631805
O O4 0.037500 1.000000 0.674810
O O5 0.853422 0.762987 0.868066
O O6 0.000000 0.750881 0.750000
O O7 0.027911 0.764217 0.868195
O O8 0.250000 0.750000 0.500000
O O9 0.329500 0.766923 0.594161
O O10 0.244452 1.000000 0.564348
O O11 0.593232 0.500000 0.918557
O O12 0.499999 0.722790 1.000000
O O13 0.829499 0.733076 0.594161
O O14 0.750000 0.750000 0.500000
#
# Coordination Sequence:
#
# PCOD8134151 Si02
#       6
#     8   8   8   8   8   8
#     4   9  19  36  56  78 110 148 181 218 271 329
#     4   9  19  36  56  78 110 148 181 218 271 329
#     4  11  21  35  57  84 110 142 185 226 270 320
#     4  10  19  35  57  82 109 144 184 221 269 324
#     4  10  19  35  57  82 109 144 184 221 269 324
#     4  11  21  35  57  84 110 142 185 226 270 320
#
# _framework density 18.773982
#
# number of rings (size 3 to 8) (size 9 to 14) (size 15 to 20)
#    0.000    2.000    3.333    1.000    0.000    2.000 
#    0.000    0.000    0.000    7.000    0.000    0.000 
#    0.000    0.000    0.000    0.000    0.000    0.000 
#
# Total GULP energy -297644.622298 kJ/mol
# GULP energy per Si atom -12401.859262 kJ/mol
# Density = 1.873125 g / cm^3
# Si number density = 18.773982 Si / 1000 Ang^3
#
#
#
# Elastic Constant Matrix: (Units=GPa)
#
#
# Indices 1 2 3 4 5 6 
#
# 1 193.8297 41.3778 101.6824 0.0000 -3.8756 0.0000
# 2 41.3778 41.1097 32.4667 0.0000 -5.9128 0.0000
# 3 101.6824 32.4667 185.9800 0.0000 0.4190 0.0000
# 4 0.0000 0.0000 0.0000 11.4039 0.0000 -1.0752
# 5 -3.8756 -5.9128 0.4190 0.0000 36.5316 0.0000
# 6 0.0000 0.0000 0.0000 -1.0752 0.0000 36.0176
#
#
#
# Elastic Compliance Matrix: (Units=1/GPa)
#
#
# Indices 1 2 3 4 5 6 
#
# 1 0.008164 -0.005438 -0.003514 0.000000 0.000026 0.000000
# 2 -0.005438 0.032641 -0.002736 0.000000 0.004737 0.000000
# 3 -0.003514 -0.002736 0.007778 0.000000 -0.000905 0.000000
# 4 0.000000 0.000000 0.000000 0.087937 0.000000 0.002625
# 5 0.000026 0.004737 -0.000905 0.000000 0.028154 0.000000
# 6 0.000000 0.000000 0.000000 0.002625 0.000000 0.027843
#
#
# Mechanical properties :
#
#
# Convention : Reuss Voigt Hill
#
# Bulk Modulus (GPa) = 39.67216 85.77480 62.72348
# Shear Modulus (GPa) = 22.29216 33.15011 27.72113
#
# Velocity S-wave (km/s) = 3.44960 4.20664 3.84679
# Velocity P-wave (km/s) = 6.08635 8.32957 7.29470
#
# Compressibility (1/GPa) = 0.02520659
#
# Stress axis : x y z
#
# Youngs Moduli (GPa) = 122.48492 30.63669 128.56811
#
# Poissons Ratio (x) = 0.16661 0.45184
# Poissons Ratio (y) = 0.66610 0.35170
# Poissons Ratio (z) = 0.43046 0.08381
#
# Static dielectric constant tensor:
#      x y z
#    x 3.805830 0.000000 -0.010350 
#    y 0.000000 3.124410 0.000000 
#    z -0.010350 0.000000 3.711740 
# 
# 
# High freq. dielectric constant tensor:
#      x y z
#    x 1.747500 0.000000 0.000860 
#    y 0.000000 1.696450 0.000000 
#    z 0.000860 0.000000 1.732470 
# 
# From -- ./inp_files/166113.got.cif
#   From: 2010.06.25/outbox.cif.g09.slc.cpg/sg15_84_cif.got.tgz:166113.got - 2010.06.28 07:06:18.
