data_PCOD8134795
_publ_section_title
;
Structure prediction by ZEFSAII (Michael W. Deem and Ramdas Pophale) SiO2 
 PCOD8134795
Probable space group: C 2/C
;
_chemical_formula_sum "Si O2"
_cell_formula_units_Z 64
_cell_length_a 18.240901
_cell_length_b 8.013910
_cell_length_c 21.264384
_cell_angle_alpha 90.000000
_cell_angle_beta 84.162222
_cell_angle_gamma 90.000000
_cell_volume 3092.326778
_symmetry_space_group_name_H-M "C 2/C"
_symmetry_group_IT_number 15
_symmetry_cell_setting 'monoclinic'
loop_
_space_group_symop_operation_xyz
x,y,z
-x,y,1/2-z
-x,-y,-z
x,-y,1/2+z
1/2+x,1/2+y,z
1/2-x,1/2+y,1/2-z
1/2-x,1/2-y,-z
1/2+x,1/2-y,1/2+z
loop_
_atom_site_type_symbol
_atom_site_label
_atom_site_fract_x
_atom_site_fract_y
_atom_site_fract_z
Si Si1 0.850844 0.641163 0.776928
Si Si2 0.335069 0.181775 0.586267
Si Si3 0.276040 0.594333 0.194102
Si Si4 0.942589 0.502814 0.170448
Si Si5 0.034818 0.093429 0.439430
Si Si6 0.380243 0.327115 0.136851
Si Si7 0.921411 0.344957 0.397191
Si Si8 0.316570 0.859060 0.521399
O O1 0.805241 0.466355 0.779767
O O2 0.810833 0.795737 0.746518
O O3 0.929817 0.591356 0.738343
O O4 0.863922 0.701474 0.847185
O O5 0.277015 0.301494 0.628033
O O6 0.395764 0.292993 0.543325
O O7 0.380411 0.078234 0.632653
O O8 0.292349 0.046692 0.545920
O O9 0.316565 0.416052 0.182257
O O10 0.922990 0.697417 0.177482
O O11 0.024207 0.489540 0.133734
O O12 0.971200 0.188960 0.408906
O O13 0.060965 0.967001 0.384544
O O14 0.000000 0.000000 0.500000
O O15 0.350936 0.244700 0.075162
O O16 0.877591 0.397970 0.463147
O O17 0.250000 0.750000 0.500000
#
# Coordination Sequence:
#
# PCOD8134795 Si02
#       8
#     8   8   8   8   8   8   8   8
#     4  11  22  41  63  86 123 160 209 250 310 368
#     4   8  20  37  61  88 119 158 205 248 305 370
#     4  10  21  40  65  88 117 167 204 252 304 377
#     4   9  20  37  61  87 115 159 200 255 301 366
#     4  10  19  36  62  90 120 160 201 250 313 375
#     4  10  20  38  61  88 120 157 210 243 312 377
#     4  11  23  38  60  91 122 158 204 259 313 365
#     4  11  22  38  61  89 127 165 203 256 315 374
#
# _framework density 20.696387999999999
#
# number of rings (size 3 to 8) (size 9 to 14) (size 15 to 20)
#    0.000    2.000    1.250    2.625    1.750    3.500 
#    0.000   10.625    2.750    0.000    0.000    0.000 
#    0.000    0.000    0.000    0.000    0.000    0.000 
#
# Total GULP energy -396575.436335 kJ/mol
# GULP energy per Si atom -12392.982385 kJ/mol
# Density = 2.064928 g / cm^3
# Si number density = 20.696388 Si / 1000 Ang^3
#
#
#
# Elastic Constant Matrix: (Units=GPa)
#
#
# Indices 1 2 3 4 5 6 
#
# 1 74.6609 39.2317 32.4632 0.0000 -10.3802 0.0000
# 2 39.2317 121.7412 44.5117 0.0000 -1.8125 0.0000
# 3 32.4632 44.5117 84.9159 0.0000 -0.3930 0.0000
# 4 0.0000 0.0000 0.0000 33.9597 0.0000 -5.3048
# 5 -10.3802 -1.8125 -0.3930 0.0000 32.8486 0.0000
# 6 0.0000 0.0000 0.0000 -5.3048 0.0000 29.1089
#
#
#
# Elastic Compliance Matrix: (Units=1/GPa)
#
#
# Indices 1 2 3 4 5 6 
#
# 1 0.018427 -0.004069 -0.004886 0.000000 0.005540 0.000000
# 2 -0.004069 0.011068 -0.004250 0.000000 -0.000726 0.000000
# 3 -0.004886 -0.004250 0.015864 0.000000 -0.001589 0.000000
# 4 0.000000 0.000000 0.000000 0.030310 0.000000 0.005524
# 5 0.005540 -0.000726 -0.001589 0.000000 0.032134 0.000000
# 6 0.000000 0.000000 0.000000 0.005524 0.000000 0.035360
#
#
# Mechanical properties :
#
#
# Convention : Reuss Voigt Hill
#
# Bulk Modulus (GPa) = 52.76979 57.08126 54.92552
# Shear Modulus (GPa) = 28.42688 30.19087 29.30887
#
# Velocity S-wave (km/s) = 3.71012 3.82350 3.76724
# Velocity P-wave (km/s) = 6.62614 6.86530 6.74678
#
# Compressibility (1/GPa) = 0.01895024
#
# Stress axis : x y z
#
# Youngs Moduli (GPa) = 54.26885 90.34693 63.03404
#
# Poissons Ratio (x) = 0.36764 0.30797
# Poissons Ratio (y) = 0.22083 0.26787
# Poissons Ratio (z) = 0.26515 0.38394
#
# Static dielectric constant tensor:
#      x y z
#    x 3.761220 0.000000 -0.394620 
#    y 0.000000 4.079450 0.000000 
#    z -0.394620 0.000000 3.997450 
# 
# 
# High freq. dielectric constant tensor:
#      x y z
#    x 1.797470 0.000000 -0.022710 
#    y 0.000000 1.816340 0.000000 
#    z -0.022710 0.000000 1.808950 
# 
# From -- ./inp_files/247456.got.cif
#   From: 2010.06.25/outbox.cif.g09.slc.cpg/sg15_124_cif.got.tgz:247456.got - 2010.06.28 07:06:18.
