data_PCOD8134899
_publ_section_title
;
Structure prediction by ZEFSAII (Michael W. Deem and Ramdas Pophale) SiO2 
 PCOD8134899
Probable space group: C 2/C
;
_chemical_formula_sum "Si O2"
_cell_formula_units_Z 52
_cell_length_a 16.685395
_cell_length_b 11.103676
_cell_length_c 26.448822
_cell_angle_alpha 90.000000
_cell_angle_beta 29.353874
_cell_angle_gamma 90.000000
_cell_volume 2402.065711
_symmetry_space_group_name_H-M "C 2/C"
_symmetry_group_IT_number 15
_symmetry_cell_setting 'monoclinic'
loop_
_space_group_symop_operation_xyz
x,y,z
-x,y,1/2-z
-x,-y,-z
x,-y,1/2+z
1/2+x,1/2+y,z
1/2-x,1/2+y,1/2-z
1/2-x,1/2-y,-z
1/2+x,1/2-y,1/2+z
loop_
_atom_site_type_symbol
_atom_site_label
_atom_site_fract_x
_atom_site_fract_y
_atom_site_fract_z
Si Si1 0.771359 0.247868 0.091581
Si Si2 0.673820 0.357453 0.837009
Si Si3 0.034724 0.019984 0.122248
Si Si4 0.200041 0.587434 0.690515
Si Si5 0.000000 0.052954 0.750000
Si Si6 0.843425 0.501655 0.890063
Si Si7 0.913367 0.223553 0.642448
O O1 0.857900 0.232792 0.098889
O O2 0.658641 0.364169 0.156148
O O3 0.665731 0.131431 0.131067
O O4 0.917467 0.273738 0.972388
O O5 0.535663 0.363037 0.869100
O O6 0.669173 0.488122 0.864553
O O7 0.849316 0.324119 0.716340
O O8 0.001223 0.035043 0.200527
O O9 0.941683 0.898250 0.158033
O O10 0.226587 0.010680 0.002868
O O11 0.207415 0.598211 0.625661
O O12 0.269497 0.707333 0.679192
O O13 0.024209 0.540898 0.807472
#
# Coordination Sequence:
#
# PCOD8134899 Si02
#       7
#     8   8   8   8   4   8   8
#     4  10  20  34  60  82 111 143 194 233 280 320
#     4  10  19  37  53  81 113 150 181 232 273 343
#     4  10  22  35  56  80 119 145 186 230 291 326
#     4   9  18  33  56  84 108 135 193 232 275 329
#     4  12  22  36  52  92 118 144 182 242 276 340
#     4   9  18  34  57  82 106 142 182 243 275 321
#     4  10  20  35  57  80 106 152 188 230 274 338
#
# _framework density 21.648033999999999
#
# number of rings (size 3 to 8) (size 9 to 14) (size 15 to 20)
#    0.000    2.154    1.538    2.769    2.154    4.923 
#    0.000    4.615    0.000    0.000    0.000    0.000 
#    0.000    0.000    0.000    0.000    0.000    0.000 
#
# Total GULP energy -322151.734864 kJ/mol
# GULP energy per Si atom -12390.451341 kJ/mol
# Density = 2.159876 g / cm^3
# Si number density = 21.648034 Si / 1000 Ang^3
#
#
#
# Elastic Constant Matrix: (Units=GPa)
#
#
# Indices 1 2 3 4 5 6 
#
# 1 76.9857 -0.4646 19.3424 0.0021 7.7860 0.0006
# 2 -0.4646 10.5869 0.5274 0.0027 -3.2937 -0.0003
# 3 19.3424 0.5274 109.4984 0.0250 13.2422 -0.0103
# 4 0.0021 0.0027 0.0250 15.5161 -0.0051 1.3852
# 5 7.7860 -3.2937 13.2422 -0.0051 34.7149 0.0018
# 6 0.0006 -0.0003 -0.0103 1.3852 0.0018 19.7599
#
#
#
# Elastic Compliance Matrix: (Units=1/GPa)
#
#
# Indices 1 2 3 4 5 6 
#
# 1 0.013760 0.000007 -0.002157 0.000001 -0.002263 -0.000001
# 2 0.000007 0.097619 -0.001668 -0.000011 0.009897 0.000000
# 3 -0.002157 -0.001668 0.009941 -0.000017 -0.003466 0.000007
# 4 0.000001 -0.000011 -0.000017 0.064855 0.000015 -0.004547
# 5 -0.002263 0.009897 -0.003466 0.000015 0.031575 -0.000006
# 6 -0.000001 0.000000 0.000007 -0.004547 -0.000006 0.050926
#
#
# Mechanical properties :
#
#
# Convention : Reuss Voigt Hill
#
# Bulk Modulus (GPa) = 8.79634 26.20905 17.50269
# Shear Modulus (GPa) = 15.91310 25.84257 20.87784
#
# Velocity S-wave (km/s) = 2.71418 3.45883 3.10888
# Velocity P-wave (km/s) = 3.72754 5.29949 4.58143
#
# Compressibility (1/GPa) = 0.11368364
#
# Stress axis : x y z
#
# Youngs Moduli (GPa) = 72.67302 10.24395 100.59505
#
# Poissons Ratio (x) = -0.00008 0.21699
# Poissons Ratio (y) = -0.00053 0.16782
# Poissons Ratio (z) = 0.15676 0.01709
#
# Static dielectric constant tensor:
#      x y z
#    x 4.218960 0.000000 0.099740 
#    y 0.000000 3.487550 0.000000 
#    z 0.099740 0.000000 3.844460 
# 
# 
# High freq. dielectric constant tensor:
#      x y z
#    x 1.852170 0.000000 0.006760 
#    y 0.000000 1.795340 0.000000 
#    z 0.006760 0.000000 1.856160 
# 
# From -- ./inp_files/96958.got.cif
#   From: 2010.06.25/outbox.cif.g09.slc.cpg/sg15_49_cif.got.tgz:96958.got - 2010.06.28 07:06:18.
