data_PCOD8134852
_publ_section_title
;
Structure prediction by ZEFSAII (Michael W. Deem and Ramdas Pophale) SiO2 
 PCOD8134852
Probable space group: C 2/C
;
_chemical_formula_sum "Si O2"
_cell_formula_units_Z 56
_cell_length_a 8.241019
_cell_length_b 17.312908
_cell_length_c 26.616738
_cell_angle_alpha 90.000000
_cell_angle_beta 137.558017
_cell_angle_gamma 90.000000
_cell_volume 2562.764557
_symmetry_space_group_name_H-M "C 2/C"
_symmetry_group_IT_number 15
_symmetry_cell_setting 'monoclinic'
loop_
_space_group_symop_operation_xyz
x,y,z
-x,y,1/2-z
-x,-y,-z
x,-y,1/2+z
1/2+x,1/2+y,z
1/2-x,1/2+y,1/2-z
1/2-x,1/2-y,-z
1/2+x,1/2-y,1/2+z
loop_
_atom_site_type_symbol
_atom_site_label
_atom_site_fract_x
_atom_site_fract_y
_atom_site_fract_z
Si Si1 0.257553 0.241603 0.322939
Si Si2 0.692361 0.671731 0.566514
Si Si3 0.356081 0.105563 0.860856
Si Si4 0.132158 0.102627 0.702351
Si Si5 0.193063 0.633721 0.414850
Si Si6 0.628174 0.015441 0.477577
Si Si7 0.660499 0.491899 0.113712
O O1 0.301127 0.257921 0.392108
O O2 0.244334 0.322383 0.291509
O O3 0.477202 0.191133 0.351272
O O4 0.000000 0.201356 0.250000
O O5 0.452744 0.677521 0.477143
O O6 0.711967 0.587810 0.597056
O O7 0.944298 0.675075 0.592281
O O8 0.245903 0.087686 0.781766
O O9 0.152817 0.120628 0.856663
O O10 0.483257 0.025533 0.900969
O O11 0.185428 0.027755 0.679057
O O12 0.145243 0.603512 0.461362
O O13 0.185899 0.564808 0.371452
O O14 0.891810 0.979455 0.540986
O O15 0.500000 0.000000 0.500000
#
# Coordination Sequence:
#
# PCOD8134852 Si02
#       7
#     8   8   8   8   8   8   8
#     4  11  23  42  63  88 131 177 214 261 333 397
#     4  10  19  38  66  90 118 174 221 255 304 401
#     4  11  19  38  67  91 127 163 228 267 307 380
#     4  10  23  37  65  95 121 178 226 259 314 402
#     4  11  22  39  64  96 131 163 210 278 333 377
#     4  11  20  38  64  96 128 163 211 271 330 380
#     4  10  19  36  64  94 126 163 215 265 324 385
#
# _framework density 21.851402
#
# number of rings (size 3 to 8) (size 9 to 14) (size 15 to 20)
#    0.000    1.429    5.714    1.286    0.000    0.000 
#    2.571    2.143    9.429    0.000    0.000    0.000 
#    0.000    0.000    0.000    0.000    0.000    0.000 
#
# Total GULP energy -346898.303369 kJ/mol
# GULP energy per Si atom -12389.225120 kJ/mol
# Density = 2.180167 g / cm^3
# Si number density = 21.851402 Si / 1000 Ang^3
#
#
#
# Elastic Constant Matrix: (Units=GPa)
#
#
# Indices 1 2 3 4 5 6 
#
# 1 116.9314 34.2205 34.6381 0.0000 11.5510 0.0000
# 2 34.2205 63.6545 37.0622 -0.0001 8.2299 -0.0001
# 3 34.6381 37.0622 89.4716 -0.0001 19.8008 -0.0001
# 4 0.0000 -0.0001 -0.0001 24.3393 -0.0001 4.6186
# 5 11.5510 8.2299 19.8008 -0.0001 42.8162 -0.0001
# 6 0.0000 -0.0001 -0.0001 4.6186 -0.0001 34.2475
#
#
#
# Elastic Compliance Matrix: (Units=1/GPa)
#
#
# Indices 1 2 3 4 5 6 
#
# 1 0.010531 -0.004332 -0.002048 0.000000 -0.001061 0.000000
# 2 -0.004332 0.022485 -0.007730 0.000000 0.000422 0.000000
# 3 -0.002048 -0.007730 0.016399 0.000000 -0.005546 0.000000
# 4 0.000000 0.000000 0.000000 0.042165 0.000000 -0.005686
# 5 -0.001061 0.000422 -0.005546 0.000000 0.026126 0.000000
# 6 0.000000 0.000000 0.000000 -0.005686 0.000000 0.029966
#
#
# Mechanical properties :
#
#
# Convention : Reuss Voigt Hill
#
# Bulk Modulus (GPa) = 47.18063 53.54434 50.36249
# Shear Modulus (GPa) = 27.32884 31.22305 29.27594
#
# Velocity S-wave (km/s) = 3.54031 3.78415 3.66426
# Velocity P-wave (km/s) = 6.19276 6.60683 6.40314
#
# Compressibility (1/GPa) = 0.02119514
#
# Stress axis : x y z
#
# Youngs Moduli (GPa) = 94.95545 44.47390 60.97970
#
# Poissons Ratio (x) = 0.19267 0.12487
# Poissons Ratio (y) = 0.41136 0.47139
# Poissons Ratio (z) = 0.19444 0.34380
#
# Static dielectric constant tensor:
#      x y z
#    x 4.675020 0.000000 0.200370 
#    y 0.000000 3.502390 0.000000 
#    z 0.200370 0.000000 4.035160 
# 
# 
# High freq. dielectric constant tensor:
#      x y z
#    x 1.875840 0.000000 0.017840 
#    y 0.000000 1.813920 0.000000 
#    z 0.017840 0.000000 1.861540 
# 
# From -- ./inp_files/289769.got.cif
#   From: 2010.06.25/outbox.cif.g09.slc.cpg/sg15_145_cif.got.tgz:289769.got - 2010.06.28 07:06:18.
