data_PCOD8134265
_publ_section_title
;
Structure prediction by ZEFSAII (Michael W. Deem and Ramdas Pophale) SiO2 
 PCOD8134265
Probable space group: C 2/C
;
_chemical_formula_sum "Si O2"
_cell_formula_units_Z 64
_cell_length_a 12.660226
_cell_length_b 21.675298
_cell_length_c 20.424559
_cell_angle_alpha 90.000000
_cell_angle_beta 142.393630
_cell_angle_gamma 90.000000
_cell_volume 3420.228232
_symmetry_space_group_name_H-M "C 2/C"
_symmetry_group_IT_number 15
_symmetry_cell_setting 'monoclinic'
loop_
_space_group_symop_operation_xyz
x,y,z
-x,y,1/2-z
-x,-y,-z
x,-y,1/2+z
1/2+x,1/2+y,z
1/2-x,1/2+y,1/2-z
1/2-x,1/2-y,-z
1/2+x,1/2-y,1/2+z
loop_
_atom_site_type_symbol
_atom_site_label
_atom_site_fract_x
_atom_site_fract_y
_atom_site_fract_z
Si Si1 0.372851 0.135320 0.308406
Si Si2 0.877812 0.946711 0.749993
Si Si3 0.655975 0.846450 0.046960
Si Si4 0.936657 0.019015 0.540342
Si Si5 0.032734 0.507870 0.339715
Si Si6 0.346010 0.255803 0.224563
Si Si7 0.662944 0.943962 0.144855
Si Si8 0.487477 0.368737 0.349156
O O1 0.205737 0.117645 0.269028
O O2 0.523973 0.168941 0.423894
O O3 0.445867 0.074926 0.307214
O O4 0.297986 0.186957 0.222721
O O5 0.000000 0.931271 0.750000
O O6 0.965609 0.980036 0.855766
O O7 0.721442 0.989556 0.646126
O O8 0.681716 0.786756 0.106578
O O9 0.563925 0.903869 0.041001
O O10 0.839233 0.869116 0.108789
O O11 0.735113 0.008866 0.452876
O O12 0.000000 0.000000 0.500000
O O13 0.976483 0.092839 0.566476
O O14 0.000000 0.486037 0.250000
O O15 0.949501 0.454898 0.344923
O O16 0.500000 0.249427 0.250000
O O17 0.413500 0.298710 0.319054
O O18 0.837731 0.904876 0.238237
#
# Coordination Sequence:
#
# PCOD8134265 Si02
#       8
#     8   8   8   8   8   8   8   8
#     4  11  22  36  56  88 113 148 192 242 282 329
#     4  10  22  36  58  82 118 152 188 238 284 346
#     4  10  19  35  59  85 111 149 189 235 283 343
#     4  11  21  37  56  85 121 155 184 230 302 345
#     4  11  22  35  54  86 121 148 186 234 280 352
#     4   9  20  36  56  80 115 147 189 235 285 342
#     4   9  18  32  57  80 114 145 187 223 282 338
#     4   9  17  35  54  82 112 149 183 230 281 343
#
# _framework density 18.712202000000001
#
# number of rings (size 3 to 8) (size 9 to 14) (size 15 to 20)
#    0.000    2.000    1.250    5.250    1.750    3.500 
#    4.500    0.000    0.000    6.750    0.000    0.000 
#    0.000    0.000    0.000    0.000    0.000    0.000 
#
# Total GULP energy -396455.775638 kJ/mol
# GULP energy per Si atom -12389.242989 kJ/mol
# Density = 1.866961 g / cm^3
# Si number density = 18.712202 Si / 1000 Ang^3
#
#
#
# Elastic Constant Matrix: (Units=GPa)
#
#
# Indices 1 2 3 4 5 6 
#
# 1 94.8546 30.5060 12.7363 -0.0011 1.2659 -0.0003
# 2 30.5060 83.4666 9.6819 -0.0027 -3.5840 -0.0011
# 3 12.7363 9.6819 41.8101 -0.0046 0.4997 -0.0018
# 4 -0.0011 -0.0027 -0.0046 24.9521 -0.0011 -7.5422
# 5 1.2659 -3.5840 0.4997 -0.0011 25.1682 -0.0003
# 6 -0.0003 -0.0011 -0.0018 -7.5422 -0.0003 28.9905
#
#
#
# Elastic Compliance Matrix: (Units=1/GPa)
#
#
# Indices 1 2 3 4 5 6 
#
# 1 0.012285 -0.004221 -0.002751 -0.000001 -0.001164 0.000000
# 2 -0.004221 0.013845 -0.001947 0.000001 0.002222 0.000001
# 3 -0.002751 -0.001947 0.025214 0.000005 -0.000639 0.000003
# 4 -0.000001 0.000001 0.000005 0.043497 0.000002 0.011316
# 5 -0.001164 0.002222 -0.000639 0.000002 0.040120 0.000001
# 6 0.000000 0.000001 0.000003 0.011316 0.000001 0.037438
#
#
# Mechanical properties :
#
#
# Convention : Reuss Voigt Hill
#
# Bulk Modulus (GPa) = 29.84486 36.21997 33.03242
# Shear Modulus (GPa) = 24.82554 26.96930 25.89742
#
# Velocity S-wave (km/s) = 3.64635 3.80052 3.72423
# Velocity P-wave (km/s) = 5.80619 6.21747 6.01535
#
# Compressibility (1/GPa) = 0.03350660
#
# Stress axis : x y z
#
# Youngs Moduli (GPa) = 81.40129 72.22947 39.66029
#
# Poissons Ratio (x) = 0.30487 0.10910
# Poissons Ratio (y) = 0.34358 0.07721
# Poissons Ratio (z) = 0.22393 0.14062
#
# Static dielectric constant tensor:
#      x y z
#    x 3.462660 0.000000 -0.130120 
#    y 0.000000 3.714730 0.000000 
#    z -0.130120 0.000000 3.629640 
# 
# 
# High freq. dielectric constant tensor:
#      x y z
#    x 1.708860 0.000000 -0.003040 
#    y 0.000000 1.715980 0.000000 
#    z -0.003040 0.000000 1.729090 
# 
# From -- ./inp_files/240411.got.cif
#   From: 2010.06.25/outbox.cif.g09.slc.cpg/sg15_121_cif.got.tgz:240411.got - 2010.06.28 07:06:18.
