data_PCOD8134925
_publ_section_title
;
Structure prediction by ZEFSAII (Michael W. Deem and Ramdas Pophale) SiO2 
 PCOD8134925
Probable space group: C 2/C
;
_chemical_formula_sum "Si O2"
_cell_formula_units_Z 56
_cell_length_a 8.659255
_cell_length_b 26.910189
_cell_length_c 14.313723
_cell_angle_alpha 90.000000
_cell_angle_beta 59.408739
_cell_angle_gamma 90.000000
_cell_volume 2871.190853
_symmetry_space_group_name_H-M "C 2/C"
_symmetry_group_IT_number 15
_symmetry_cell_setting 'monoclinic'
loop_
_space_group_symop_operation_xyz
x,y,z
-x,y,1/2-z
-x,-y,-z
x,-y,1/2+z
1/2+x,1/2+y,z
1/2-x,1/2+y,1/2-z
1/2-x,1/2-y,-z
1/2+x,1/2-y,1/2+z
loop_
_atom_site_type_symbol
_atom_site_label
_atom_site_fract_x
_atom_site_fract_y
_atom_site_fract_z
Si Si1 0.870691 0.937220 0.209421
Si Si2 0.332092 0.449311 0.739428
Si Si3 0.389485 0.308248 0.037099
Si Si4 0.052709 0.695538 0.507184
Si Si5 0.835851 0.342683 0.234514
Si Si6 0.614235 0.596721 0.472253
Si Si7 0.992012 0.621970 0.143081
O O1 0.697977 0.901661 0.259519
O O2 0.000000 0.916782 0.250000
O O3 0.798017 0.991800 0.255112
O O4 0.983636 0.933918 0.079679
O O5 0.500000 0.432814 0.750000
O O6 0.381724 0.436651 0.619693
O O7 0.152472 0.421688 0.828564
O O8 0.230440 0.317142 0.011624
O O9 0.330677 0.315191 0.163720
O O10 0.471626 0.253882 0.001483
O O11 0.543127 0.348346 0.968358
O O12 0.064274 0.668656 0.403408
O O13 0.876242 0.678095 0.618746
O O14 0.000000 0.330733 0.250000
O O15 0.815540 0.601717 0.450842
O O16 0.000000 0.638050 0.250000
#
# Coordination Sequence:
#
# PCOD8134925 Si02
#       7
#     8   8   8   8   8   8   8
#     4  10  20  36  56  79 106 141 180 222 273 324
#     4  10  21  37  56  79 107 144 184 221 266 322
#     4   9  20  35  58  82 106 144 186 221 267 321
#     4  10  19  37  57  80 111 146 182 224 267 316
#     4   9  19  34  54  81 108 138 181 226 267 318
#     4  10  20  37  55  79 111 142 177 226 275 320
#     4  10  22  36  54  82 113 142 179 222 270 323
#
# _framework density 19.504102
#
# number of rings (size 3 to 8) (size 9 to 14) (size 15 to 20)
#    0.000    2.286    0.000    2.143    0.000    4.571 
#    0.000   15.000    0.000    0.000    0.000    0.000 
#    0.000    0.000    0.000    0.000    0.000    0.000 
#
# Total GULP energy -347186.791779 kJ/mol
# GULP energy per Si atom -12399.528278 kJ/mol
# Density = 1.945971 g / cm^3
# Si number density = 19.504102 Si / 1000 Ang^3
#
#
#
# Elastic Constant Matrix: (Units=GPa)
#
#
# Indices 1 2 3 4 5 6 
#
# 1 69.0441 34.1120 20.0136 0.0000 -2.7035 0.0000
# 2 34.1120 78.7812 28.3746 0.0000 -1.8718 0.0000
# 3 20.0136 28.3746 61.3128 0.0000 0.3964 0.0000
# 4 0.0000 0.0000 0.0000 27.5477 0.0000 4.9594
# 5 -2.7035 -1.8718 0.3964 0.0000 28.8081 0.0000
# 6 0.0000 0.0000 0.0000 4.9594 0.0000 23.0509
#
#
#
# Elastic Compliance Matrix: (Units=1/GPa)
#
#
# Indices 1 2 3 4 5 6 
#
# 1 0.018883 -0.007105 -0.002884 0.000000 0.001350 0.000000
# 2 -0.007105 0.017940 -0.005987 0.000000 0.000581 0.000000
# 3 -0.002884 -0.005987 0.020028 0.000000 -0.000935 0.000000
# 4 0.000000 0.000000 0.000000 0.037763 0.000000 -0.008125
# 5 0.001350 0.000581 -0.000935 0.000000 0.034890 0.000000
# 6 0.000000 0.000000 0.000000 -0.008125 0.000000 0.045130
#
#
# Mechanical properties :
#
#
# Convention : Reuss Voigt Hill
#
# Bulk Modulus (GPa) = 40.16368 41.57094 40.86731
# Shear Modulus (GPa) = 23.26811 24.32387 23.79599
#
# Velocity S-wave (km/s) = 3.45771 3.53528 3.49671
# Velocity P-wave (km/s) = 6.04799 6.16640 6.10748
#
# Compressibility (1/GPa) = 0.02489812
#
# Stress axis : x y z
#
# Youngs Moduli (GPa) = 52.95804 55.74115 49.93037
#
# Poissons Ratio (x) = 0.39606 0.14401
# Poissons Ratio (y) = 0.37629 0.29892
# Poissons Ratio (z) = 0.15274 0.33371
#
# Static dielectric constant tensor:
#      x y z
#    x 3.623870 0.000000 -0.009550 
#    y 0.000000 3.429520 0.000000 
#    z -0.009550 0.000000 3.708910 
# 
# 
# High freq. dielectric constant tensor:
#      x y z
#    x 1.757490 0.000000 0.002430 
#    y 0.000000 1.756950 0.000000 
#    z 0.002430 0.000000 1.766900 
# 
# From -- ./inp_files/137692.got.cif
#   From: 2010.06.25/outbox.cif.g09.slc.cpg/sg15_69_cif.got.tgz:137692.got - 2010.06.28 07:06:18.
