data_PCOD8134866
_publ_section_title
;
Structure prediction by ZEFSAII (Michael W. Deem and Ramdas Pophale) SiO2 
 PCOD8134866
Probable space group: C 2/C
;
_chemical_formula_sum "Si O2"
_cell_formula_units_Z 64
_cell_length_a 17.020638
_cell_length_b 11.212018
_cell_length_c 28.176682
_cell_angle_alpha 90.000000
_cell_angle_beta 35.529876
_cell_angle_gamma 90.000000
_cell_volume 3124.789836
_symmetry_space_group_name_H-M "C 2/C"
_symmetry_group_IT_number 15
_symmetry_cell_setting 'monoclinic'
loop_
_space_group_symop_operation_xyz
x,y,z
-x,y,1/2-z
-x,-y,-z
x,-y,1/2+z
1/2+x,1/2+y,z
1/2-x,1/2+y,1/2-z
1/2-x,1/2-y,-z
1/2+x,1/2-y,1/2+z
loop_
_atom_site_type_symbol
_atom_site_label
_atom_site_fract_x
_atom_site_fract_y
_atom_site_fract_z
Si Si1 0.892662 0.321011 0.588351
Si Si2 0.696756 0.803874 0.244547
Si Si3 0.521712 0.993606 0.870199
Si Si4 0.208514 0.447696 0.955019
Si Si5 0.191099 0.697801 0.924466
Si Si6 0.433848 0.844670 0.827692
Si Si7 0.142863 0.851648 0.245326
Si Si8 0.007080 0.100763 0.303838
O O1 0.793365 0.210707 0.650760
O O2 0.825833 0.394659 0.579155
O O3 0.904833 0.412468 0.626575
O O4 0.034086 0.265045 0.501991
O O5 0.799032 0.781593 0.237832
O O6 0.575435 0.710686 0.297349
O O7 0.633525 0.933935 0.285038
O O8 0.439664 0.915676 0.873127
O O9 0.411464 0.082802 0.948663
O O10 0.212837 0.591521 0.951219
O O11 0.355099 0.402524 0.899526
O O12 0.276530 0.814375 0.896723
O O13 0.233495 0.648579 0.852352
O O14 0.500000 0.915713 0.750000
O O15 0.514055 0.719857 0.790029
O O16 0.093278 0.986262 0.277656
O O17 0.000000 0.112143 0.250000
#
# Coordination Sequence:
#
# PCOD8134866 Si02
#       8
#     8   8   8   8   8   8   8   8
#     4  11  22  39  63  97 125 162 216 267 324 374
#     4  12  24  37  62  88 131 166 209 261 321 382
#     4  11  24  40  59  95 129 167 205 270 324 385
#     4  11  21  39  66  96 123 160 217 268 318 369
#     4  10  19  36  65  92 124 159 212 272 312 372
#     4  10  21  38  62  89 125 168 206 254 322 387
#     4  11  20  39  63  95 122 164 211 262 315 378
#     4  12  22  40  66  95 124 170 218 260 317 381
#
# _framework density 20.481376999999998
#
# number of rings (size 3 to 8) (size 9 to 14) (size 15 to 20)
#    0.000    1.000    5.000    4.125    0.000    4.000 
#    0.000    0.000    0.000    1.500    0.000    0.000 
#    0.000    0.000    0.000    0.000    0.000    0.000 
#
# Total GULP energy -396646.080087 kJ/mol
# GULP energy per Si atom -12395.190003 kJ/mol
# Density = 2.043476 g / cm^3
# Si number density = 20.481377 Si / 1000 Ang^3
#
#
#
# Elastic Constant Matrix: (Units=GPa)
#
#
# Indices 1 2 3 4 5 6 
#
# 1 106.1624 34.2751 36.1858 0.0000 -5.9548 0.0000
# 2 34.2751 52.3411 41.2277 0.0000 3.2740 0.0000
# 3 36.1858 41.2277 142.5419 0.0000 -22.1176 0.0000
# 4 0.0000 0.0000 0.0000 27.9766 0.0000 1.8807
# 5 -5.9548 3.2740 -22.1176 0.0000 35.0021 0.0000
# 6 0.0000 0.0000 0.0000 1.8807 0.0000 31.4922
#
#
#
# Elastic Compliance Matrix: (Units=1/GPa)
#
#
# Indices 1 2 3 4 5 6 
#
# 1 0.012239 -0.007814 -0.000455 0.000000 0.002526 0.000000
# 2 -0.007814 0.031688 -0.008701 0.000000 -0.009791 0.000000
# 3 -0.000455 -0.008701 0.010823 0.000000 0.007575 0.000000
# 4 0.000000 0.000000 0.000000 0.035888 0.000000 -0.002143
# 5 0.002526 -0.009791 0.007575 0.000000 0.034702 0.000000
# 6 0.000000 0.000000 0.000000 -0.002143 0.000000 0.031882
#
#
# Mechanical properties :
#
#
# Convention : Reuss Voigt Hill
#
# Bulk Modulus (GPa) = 48.05316 58.26918 53.16117
# Shear Modulus (GPa) = 25.23977 31.51795 28.37886
#
# Velocity S-wave (km/s) = 3.51426 3.92709 3.72639
# Velocity P-wave (km/s) = 6.32294 7.00530 6.67285
#
# Compressibility (1/GPa) = 0.02081029
#
# Stress axis : x y z
#
# Youngs Moduli (GPa) = 81.70488 31.55722 92.39562
#
# Poissons Ratio (x) = 0.24660 0.04204
# Poissons Ratio (y) = 0.63846 0.80392
# Poissons Ratio (z) = 0.03718 0.27458
#
# Static dielectric constant tensor:
#      x y z
#    x 3.725870 0.000000 -0.110290 
#    y 0.000000 3.323250 0.000000 
#    z -0.110290 0.000000 4.105020 
# 
# 
# High freq. dielectric constant tensor:
#      x y z
#    x 1.802510 0.000000 -0.014500 
#    y 0.000000 1.761520 0.000000 
#    z -0.014500 0.000000 1.816910 
# 
# From -- ./inp_files/296127.got.cif
#   From: 2010.06.25/outbox.cif.g09.slc.cpg/sg15_149_cif.got.tgz:296127.got - 2010.06.28 07:06:18.
