data_PCOD8134199
_publ_section_title
;
Structure prediction by ZEFSAII (Michael W. Deem and Ramdas Pophale) SiO2 
 PCOD8134199
Probable space group: C 2/C
;
_chemical_formula_sum "Si O2"
_cell_formula_units_Z 48
_cell_length_a 10.578718
_cell_length_b 13.579662
_cell_length_c 16.176376
_cell_angle_alpha 90.000000
_cell_angle_beta 94.396595
_cell_angle_gamma 90.000000
_cell_volume 2316.985711
_symmetry_space_group_name_H-M "C 2/C"
_symmetry_group_IT_number 15
_symmetry_cell_setting 'monoclinic'
loop_
_space_group_symop_operation_xyz
x,y,z
-x,y,1/2-z
-x,-y,-z
x,-y,1/2+z
1/2+x,1/2+y,z
1/2-x,1/2+y,1/2-z
1/2-x,1/2-y,-z
1/2+x,1/2-y,1/2+z
loop_
_atom_site_type_symbol
_atom_site_label
_atom_site_fract_x
_atom_site_fract_y
_atom_site_fract_z
Si Si1 0.538750 0.348791 0.845398
Si Si2 0.111026 0.709156 0.469655
Si Si3 0.480591 0.054311 0.154374
Si Si4 0.231335 0.550134 0.060626
Si Si5 0.593000 0.409696 0.510007
Si Si6 0.413560 0.855897 0.083131
O O1 0.500000 0.366897 0.750000
O O2 0.648712 0.423960 0.877230
O O3 0.413272 0.369604 0.895058
O O4 0.598710 0.240075 0.860450
O O5 0.250000 0.750000 0.500000
O O6 0.040679 0.816141 0.453564
O O7 0.101765 0.644938 0.386184
O O8 0.046690 0.646942 0.540201
O O9 0.500000 0.080952 0.250000
O O10 0.612794 0.038055 0.114243
O O11 0.406690 0.951292 0.141807
O O12 0.266499 0.447189 0.012551
O O13 0.200202 0.633459 0.989961
O O14 0.500000 0.500000 0.500000
#
# Coordination Sequence:
#
# PCOD8134199 Si02
#       6
#     8   8   8   8   8   8
#     4  10  21  36  57  88 115 143 190 245 291 335
#     4  10  19  35  58  81 110 151 190 226 281 352
#     4  11  23  37  56  88 118 147 194 247 288 330
#     4  10  20  38  59  81 113 156 193 232 283 353
#     4   9  19  36  59  80 108 151 189 222 278 349
#     4  10  20  36  58  82 111 152 194 228 286 357
#
# _framework density 20.716571999999999
#
# number of rings (size 3 to 8) (size 9 to 14) (size 15 to 20)
#    0.000    2.000    0.000    5.000    0.000    5.333 
#    0.000    5.000    0.000    0.000    0.000    0.000 
#    0.000    0.000    0.000    0.000    0.000    0.000 
#
# Total GULP energy -297315.905912 kJ/mol
# GULP energy per Si atom -12388.162746 kJ/mol
# Density = 2.066942 g / cm^3
# Si number density = 20.716572 Si / 1000 Ang^3
#
#
#
# Elastic Constant Matrix: (Units=GPa)
#
#
# Indices 1 2 3 4 5 6 
#
# 1 77.1723 23.3046 37.7676 0.0000 -0.3883 0.0000
# 2 23.3046 135.7399 64.5059 0.0000 -5.3446 0.0000
# 3 37.7676 64.5059 150.1498 0.0000 9.0445 0.0000
# 4 0.0000 0.0000 0.0000 27.7595 0.0000 2.9039
# 5 -0.3883 -5.3446 9.0445 0.0000 25.1679 0.0000
# 6 0.0000 0.0000 0.0000 2.9039 0.0000 29.5580
#
#
#
# Elastic Compliance Matrix: (Units=1/GPa)
#
#
# Indices 1 2 3 4 5 6 
#
# 1 0.014919 -0.000868 -0.003457 0.000000 0.001288 0.000000
# 2 -0.000868 0.009614 -0.004123 0.000000 0.003510 0.000000
# 3 -0.003457 -0.004123 0.009564 0.000000 -0.004366 0.000000
# 4 0.000000 0.000000 0.000000 0.036398 0.000000 -0.003576
# 5 0.001288 0.003510 -0.004366 0.000000 0.042067 0.000000
# 6 0.000000 0.000000 0.000000 -0.003576 0.000000 0.034183
#
#
# Mechanical properties :
#
#
# Convention : Reuss Voigt Hill
#
# Bulk Modulus (GPa) = 58.14062 68.24647 63.19354
# Shear Modulus (GPa) = 29.52040 32.32932 30.92486
#
# Velocity S-wave (km/s) = 3.77897 3.95467 3.86782
# Velocity P-wave (km/s) = 6.86779 7.33941 7.10751
#
# Compressibility (1/GPa) = 0.01719968
#
# Stress axis : x y z
#
# Youngs Moduli (GPa) = 67.03086 104.01869 104.55788
#
# Poissons Ratio (x) = 0.09024 0.36150
# Poissons Ratio (y) = 0.05815 0.43113
# Poissons Ratio (z) = 0.23175 0.42890
#
# Static dielectric constant tensor:
#      x y z
#    x 3.998880 0.000000 -0.155980 
#    y 0.000000 4.791800 0.000000 
#    z -0.155980 0.000000 3.501800 
# 
# 
# High freq. dielectric constant tensor:
#      x y z
#    x 1.809120 0.000000 -0.003910 
#    y 0.000000 1.838990 0.000000 
#    z -0.003910 0.000000 1.777040 
# 
# From -- ./inp_files/143835.got.cif
#   From: 2010.06.25/outbox.cif.g09.slc.cpg/sg15_72_cif.got.tgz:143835.got - 2010.06.28 07:06:18.
