data_PCOD8134193
_publ_section_title
;
Structure prediction by ZEFSAII (Michael W. Deem and Ramdas Pophale) SiO2 
 PCOD8134193
Probable space group: C 2/C
;
_chemical_formula_sum "Si O2"
_cell_formula_units_Z 60
_cell_length_a 28.171221
_cell_length_b 22.801776
_cell_length_c 13.983494
_cell_angle_alpha 90.000000
_cell_angle_beta 21.295892
_cell_angle_gamma 90.000000
_cell_volume 3262.250201
_symmetry_space_group_name_H-M "C 2/C"
_symmetry_group_IT_number 15
_symmetry_cell_setting 'monoclinic'
loop_
_space_group_symop_operation_xyz
x,y,z
-x,y,1/2-z
-x,-y,-z
x,-y,1/2+z
1/2+x,1/2+y,z
1/2-x,1/2+y,1/2-z
1/2-x,1/2-y,-z
1/2+x,1/2-y,1/2+z
loop_
_atom_site_type_symbol
_atom_site_label
_atom_site_fract_x
_atom_site_fract_y
_atom_site_fract_z
Si Si1 0.284446 0.019517 0.393294
Si Si2 0.000000 0.843605 0.750000
Si Si3 0.882377 0.652013 0.612780
Si Si4 0.444441 0.260322 0.251332
Si Si5 0.395301 0.623513 0.726566
Si Si6 0.265158 0.322637 0.296025
Si Si7 0.997219 0.530329 0.141642
Si Si8 0.642840 0.399566 0.650221
O O1 0.188628 0.075580 0.557138
O O2 0.354710 0.016129 0.365378
O O3 0.188429 0.965492 0.565070
O O4 0.394877 0.015143 0.103258
O O5 0.938414 0.889043 0.792278
O O6 0.105855 0.800493 0.502819
O O7 0.831224 0.646829 0.599294
O O8 0.978184 0.596716 0.441581
O O9 0.958461 0.713775 0.483934
O O10 0.767706 0.645679 0.908642
O O11 0.500000 0.278949 0.250000
O O12 0.413656 0.316535 0.247880
O O13 0.301913 0.232315 0.529216
O O14 0.310463 0.630777 0.789682
O O15 0.546775 0.607135 0.421221
O O16 0.000000 0.522885 0.250000
#
# Coordination Sequence:
#
# PCOD8134193 Si02
#       8
#     8   4   8   8   8   8   8   8
#     4  10  21  35  52  78 109 133 177 218 253 322
#     4   8  16  32  54  78 100 122 176 224 260 288
#     4   9  17  33  56  79  98 125 175 230 260 295
#     4  10  20  33  49  74 105 137 171 209 261 317
#     4  11  20  33  50  75 107 139 168 207 259 321
#     4   9  17  31  55  75  98 127 174 221 255 292
#     4  10  19  35  58  79  98 134 178 225 267 294
#     4   9  19  34  52  78 102 136 173 218 262 299
#
# _framework density 18.392212000000001
#
# number of rings (size 3 to 8) (size 9 to 14) (size 15 to 20)
#    0.000    2.400    0.000    3.600    0.000    1.600 
#    3.600    0.000    1.467    0.000    0.000    0.000 
#    0.000    0.000    0.000    0.000    0.000    0.000 
#
# Total GULP energy -371678.069236 kJ/mol
# GULP energy per Si atom -12389.268975 kJ/mol
# Density = 1.835035 g / cm^3
# Si number density = 18.392212 Si / 1000 Ang^3
#
#
#
# Elastic Constant Matrix: (Units=GPa)
#
#
# Indices 1 2 3 4 5 6 
#
# 1 38.1505 19.9185 35.8907 -0.0003 1.2655 -0.0007
# 2 19.9185 98.3962 69.0971 -0.0007 2.1653 -0.0004
# 3 35.8907 69.0971 139.3079 -0.0026 0.9433 0.0002
# 4 -0.0003 -0.0007 -0.0026 23.5455 0.0007 -2.2614
# 5 1.2655 2.1653 0.9433 0.0007 21.6482 0.0004
# 6 -0.0007 -0.0004 0.0002 -2.2614 0.0004 20.4234
#
#
#
# Elastic Compliance Matrix: (Units=1/GPa)
#
#
# Indices 1 2 3 4 5 6 
#
# 1 0.034733 -0.001105 -0.008390 0.000000 -0.001554 0.000001
# 2 -0.001105 0.015662 -0.007476 0.000000 -0.001176 0.000000
# 3 -0.008390 -0.007476 0.013043 0.000001 0.000670 0.000000
# 4 0.000000 0.000000 0.000001 0.042927 -0.000002 0.004753
# 5 -0.001554 -0.001176 0.000670 -0.000002 0.046372 -0.000001
# 6 0.000001 0.000000 0.000000 0.004753 -0.000001 0.049490
#
#
# Mechanical properties :
#
#
# Convention : Reuss Voigt Hill
#
# Bulk Modulus (GPa) = 33.90144 58.40744 46.15444
# Shear Modulus (GPa) = 20.32492 23.18665 21.75578
#
# Velocity S-wave (km/s) = 3.32789 3.55445 3.44303
# Velocity P-wave (km/s) = 5.76532 6.97647 6.39961
#
# Compressibility (1/GPa) = 0.02949727
#
# Stress axis : x y z
#
# Youngs Moduli (GPa) = 28.79065 63.84700 76.66724
#
# Poissons Ratio (x) = 0.07057 0.64322
# Poissons Ratio (y) = 0.03182 0.57315
# Poissons Ratio (z) = 0.24155 0.47731
#
# Static dielectric constant tensor:
#      x y z
#    x 3.297300 0.000000 0.014340 
#    y 0.000000 3.115300 0.000000 
#    z 0.014340 0.000000 3.988610 
# 
# 
# High freq. dielectric constant tensor:
#      x y z
#    x 1.696530 0.000000 -0.008820 
#    y 0.000000 1.688960 0.000000 
#    z -0.008820 0.000000 1.737540 
# 
# From -- ./inp_files/146727.got.cif
#   From: 2010.06.25/outbox.cif.g09.slc.cpg/sg15_74_cif.got.tgz:146727.got - 2010.06.28 07:06:18.
