data_PCOD8134485
_publ_section_title
;
Structure prediction by ZEFSAII (Michael W. Deem and Ramdas Pophale) SiO2 
 PCOD8134485
Probable space group: C 2/C
;
_chemical_formula_sum "Si O2"
_cell_formula_units_Z 64
_cell_length_a 17.843323
_cell_length_b 20.451564
_cell_length_c 8.954881
_cell_angle_alpha 90.000000
_cell_angle_beta 81.873705
_cell_angle_gamma 90.000000
_cell_volume 3235.036919
_symmetry_space_group_name_H-M "C 2/C"
_symmetry_group_IT_number 15
_symmetry_cell_setting 'monoclinic'
loop_
_space_group_symop_operation_xyz
x,y,z
-x,y,1/2-z
-x,-y,-z
x,-y,1/2+z
1/2+x,1/2+y,z
1/2-x,1/2+y,1/2-z
1/2-x,1/2-y,-z
1/2+x,1/2-y,1/2+z
loop_
_atom_site_type_symbol
_atom_site_label
_atom_site_fract_x
_atom_site_fract_y
_atom_site_fract_z
Si Si1 0.278344 0.294325 0.206003
Si Si2 0.115800 0.672382 0.825642
Si Si3 0.268724 0.655858 0.376820
Si Si4 0.849586 0.441319 0.662473
Si Si5 0.924958 0.182133 0.186922
Si Si6 0.575160 0.845446 0.654845
Si Si7 0.582972 0.049272 0.668114
Si Si8 0.423857 0.309324 0.347143
O O1 0.204598 0.313363 0.323103
O O2 0.279574 0.215229 0.186860
O O3 0.349102 0.326044 0.273873
O O4 0.276090 0.328695 0.048091
O O5 0.073246 0.739439 0.801062
O O6 0.099295 0.625433 0.691688
O O7 0.084336 0.633580 0.979506
O O8 0.232101 0.582652 0.376282
O O9 0.352275 0.650868 0.285240
O O10 0.861905 0.377123 0.760171
O O11 0.852863 0.504631 0.768798
O O12 0.908609 0.456826 0.512478
O O13 0.000000 0.155658 0.250000
O O14 0.922142 0.161118 0.013943
O O15 0.500000 0.874814 0.750000
O O16 0.575360 0.768255 0.651626
O O17 0.500000 0.027611 0.750000
O O18 0.500000 0.337174 0.250000
#
# Coordination Sequence:
#
# PCOD8134485 Si02
#       8
#     8   8   8   8   8   8   8   8
#     4  10  19  36  55  83 114 150 193 233 290 344
#     4  10  21  35  57  82 114 156 191 234 280 338
#     4  10  21  35  58  81 115 151 188 241 290 343
#     4  12  23  39  55  81 110 154 198 241 281 331
#     4  10  21  35  57  88 120 149 185 234 291 349
#     4  10  20  33  51  78 111 150 189 233 275 331
#     4  12  24  39  57  79 112 156 199 239 276 330
#     4  10  20  32  54  83 117 152 186 226 281 347
#
# _framework density 19.783391999999999
#
# number of rings (size 3 to 8) (size 9 to 14) (size 15 to 20)
#    0.000    1.500    2.500    3.375    1.750    3.500 
#    0.000    0.000    0.000    0.000    0.000    1.750 
#    0.000    0.000    0.000    0.000    0.000    0.000 
#
# Total GULP energy -396573.592609 kJ/mol
# GULP energy per Si atom -12392.924769 kJ/mol
# Density = 1.973836 g / cm^3
# Si number density = 19.783392 Si / 1000 Ang^3
#
#
#
# Elastic Constant Matrix: (Units=GPa)
#
#
# Indices 1 2 3 4 5 6 
#
# 1 84.0534 4.1363 12.5406 0.0000 0.4316 0.0000
# 2 4.1363 39.9444 8.4772 0.0000 0.4220 0.0000
# 3 12.5406 8.4772 87.7170 0.0000 -3.7541 0.0000
# 4 0.0000 0.0000 0.0000 7.1304 0.0000 8.5556
# 5 0.4316 0.4220 -3.7541 0.0000 30.8175 0.0000
# 6 0.0000 0.0000 0.0000 8.5556 0.0000 15.3281
#
#
#
# Elastic Compliance Matrix: (Units=1/GPa)
#
#
# Indices 1 2 3 4 5 6 
#
# 1 0.012193 -0.000904 -0.001671 0.000000 -0.000362 0.000000
# 2 -0.000904 0.025639 -0.002375 0.000000 -0.000628 0.000000
# 3 -0.001671 -0.002375 0.011933 0.000000 0.001510 0.000000
# 4 0.000000 0.000000 0.000000 0.424642 0.000000 -0.237020
# 5 -0.000362 -0.000628 0.001510 0.000000 0.032647 0.000000
# 6 0.000000 0.000000 0.000000 -0.237020 0.000000 0.197536
#
#
# Mechanical properties :
#
#
# Convention : Reuss Voigt Hill
#
# Bulk Modulus (GPa) = 25.08540 29.11367 27.09954
# Shear Modulus (GPa) = 6.87021 23.09259 14.98140
#
# Velocity S-wave (km/s) = 1.86554 3.42024 2.75484
# Velocity P-wave (km/s) = 4.16508 5.50868 4.88331
#
# Compressibility (1/GPa) = 0.03986383
#
# Stress axis : x y z
#
# Youngs Moduli (GPa) = 82.01492 39.00282 83.79828
#
# Poissons Ratio (x) = 0.03526 0.14005
# Poissons Ratio (y) = 0.07415 0.19906
# Poissons Ratio (z) = 0.13707 0.09265
#
# Static dielectric constant tensor:
#      x y z
#    x 3.707590 0.000000 -0.128210 
#    y 0.000000 3.160190 0.000000 
#    z -0.128210 0.000000 3.859830 
# 
# 
# High freq. dielectric constant tensor:
#      x y z
#    x 1.765960 0.000000 0.000650 
#    y 0.000000 1.720980 0.000000 
#    z 0.000650 0.000000 1.790740 
# 
# From -- ./inp_files/51243.got.cif
#   From: 2010.06.25/outbox.cif.g09.slc.cpg/sg15_26_cif.got.tgz:51243.got - 2010.06.28 07:06:18.
