data_PCOD8134225
_publ_section_title
;
Structure prediction by ZEFSAII (Michael W. Deem and Ramdas Pophale) SiO2 
 PCOD8134225
Probable space group: C 2/C
;
_chemical_formula_sum "Si O2"
_cell_formula_units_Z 56
_cell_length_a 16.765686
_cell_length_b 10.194466
_cell_length_c 23.491997
_cell_angle_alpha 90.000000
_cell_angle_beta 137.000202
_cell_angle_gamma 90.000000
_cell_volume 2738.340408
_symmetry_space_group_name_H-M "C 2/C"
_symmetry_group_IT_number 15
_symmetry_cell_setting 'monoclinic'
loop_
_space_group_symop_operation_xyz
x,y,z
-x,y,1/2-z
-x,-y,-z
x,-y,1/2+z
1/2+x,1/2+y,z
1/2-x,1/2+y,1/2-z
1/2-x,1/2-y,-z
1/2+x,1/2-y,1/2+z
loop_
_atom_site_type_symbol
_atom_site_label
_atom_site_fract_x
_atom_site_fract_y
_atom_site_fract_z
Si Si1 0.000000 0.574148 0.750000
Si Si2 0.975926 0.117381 0.946792
Si Si3 0.208122 0.020524 0.377671
Si Si4 0.500000 0.355387 0.250000
Si Si5 0.749336 0.811691 0.373494
Si Si6 0.440000 0.885112 0.503109
Si Si7 0.078402 0.634487 0.376885
Si Si8 0.178723 0.004996 0.989896
O O1 0.112777 0.660743 0.793058
O O2 0.020335 0.488393 0.815934
O O3 0.834254 0.137179 0.865767
O O4 0.024072 0.246207 0.005051
O O5 0.055434 0.084314 0.933086
O O6 0.000000 0.000000 0.000000
O O7 0.260001 0.154318 0.379155
O O8 0.302812 0.905567 0.426852
O O9 0.171554 0.054620 0.423287
O O10 0.103705 0.955727 0.286746
O O11 0.541889 0.268208 0.325570
O O12 0.799283 0.882311 0.456390
O O13 0.476782 0.872347 0.588925
O O14 0.500000 0.000000 0.500000
O O15 0.219041 0.614460 0.449634
#
# Coordination Sequence:
#
# PCOD8134225 Si02
#       8
#     4   8   8   4   8   8   8   8
#     4   9  19  38  60  82 123 167 194 236 308 376
#     4  10  20  35  57  86 117 148 193 255 304 351
#     4  11  21  35  59  89 119 156 201 258 306 366
#     4  11  21  34  56  86 121 149 204 252 312 380
#     4  10  19  35  58  86 125 157 201 252 304 366
#     4  11  21  39  63  85 119 155 207 257 300 353
#     4   9  20  38  61  85 113 161 206 250 299 368
#     4   9  19  36  61  87 111 158 211 251 301 355
#
# _framework density 20.450343
#
# number of rings (size 3 to 8) (size 9 to 14) (size 15 to 20)
#    0.000    2.000    1.429    2.571    0.000    3.429 
#    0.000    2.857    0.000    0.000    0.000    0.000 
#    0.000    0.000    0.000    0.000    0.000    0.000 
#
# Total GULP energy -346899.647721 kJ/mol
# GULP energy per Si atom -12389.273133 kJ/mol
# Density = 2.040380 g / cm^3
# Si number density = 20.450343 Si / 1000 Ang^3
#
#
#
# Elastic Constant Matrix: (Units=GPa)
#
#
# Indices 1 2 3 4 5 6 
#
# 1 108.4559 36.3970 43.2870 0.0000 20.8045 0.0000
# 2 36.3970 127.1695 29.9595 0.0000 8.8692 0.0000
# 3 43.2870 29.9595 82.0140 0.0000 20.2493 0.0000
# 4 0.0000 0.0000 0.0000 23.2909 0.0000 10.1127
# 5 20.8045 8.8692 20.2493 0.0000 33.4725 0.0000
# 6 0.0000 0.0000 0.0000 10.1127 0.0000 33.7995
#
#
#
# Elastic Compliance Matrix: (Units=1/GPa)
#
#
# Indices 1 2 3 4 5 6 
#
# 1 0.012731 -0.002199 -0.004827 0.000000 -0.004410 0.000000
# 2 -0.002199 0.008989 -0.002201 0.000000 0.000316 0.000000
# 3 -0.004827 -0.002201 0.017234 0.000000 -0.006842 0.000000
# 4 0.000000 0.000000 0.000000 0.049346 0.000000 -0.014764
# 5 -0.004410 0.000316 -0.006842 0.000000 0.036672 0.000000
# 6 0.000000 0.000000 0.000000 -0.014764 0.000000 0.034004
#
#
# Mechanical properties :
#
#
# Convention : Reuss Voigt Hill
#
# Bulk Modulus (GPa) = 48.78155 59.65848 54.22001
# Shear Modulus (GPa) = 27.13501 31.97898 29.55699
#
# Velocity S-wave (km/s) = 3.64658 3.95870 3.80584
# Velocity P-wave (km/s) = 6.45256 7.08031 6.77371
#
# Compressibility (1/GPa) = 0.02049955
#
# Stress axis : x y z
#
# Youngs Moduli (GPa) = 78.54935 111.24211 58.02330
#
# Poissons Ratio (x) = 0.24461 0.28010
# Poissons Ratio (y) = 0.17272 0.12773
# Poissons Ratio (z) = 0.37918 0.24489
#
# Static dielectric constant tensor:
#      x y z
#    x 4.449190 0.000000 0.081420 
#    y 0.000000 3.896530 0.000000 
#    z 0.081420 0.000000 4.289280 
# 
# 
# High freq. dielectric constant tensor:
#      x y z
#    x 1.800950 0.000000 0.024950 
#    y 0.000000 1.817380 0.000000 
#    z 0.024950 0.000000 1.773520 
# 
# From -- ./inp_files/298612.got.cif
#   From: 2010.06.25/outbox.cif.g09.slc.cpg/sg15_150_cif.got.tgz:298612.got - 2010.06.28 07:06:18.
