data_PCOD8134763
_publ_section_title
;
Structure prediction by ZEFSAII (Michael W. Deem and Ramdas Pophale) SiO2 
 PCOD8134763
Probable space group: C 2/C
;
_chemical_formula_sum "Si O2"
_cell_formula_units_Z 36
_cell_length_a 15.402687
_cell_length_b 9.629560
_cell_length_c 16.560749
_cell_angle_alpha 90.000000
_cell_angle_beta 131.162610
_cell_angle_gamma 90.000000
_cell_volume 1849.218568
_symmetry_space_group_name_H-M "C 2/C"
_symmetry_group_IT_number 15
_symmetry_cell_setting 'monoclinic'
loop_
_space_group_symop_operation_xyz
x,y,z
-x,y,1/2-z
-x,-y,-z
x,-y,1/2+z
1/2+x,1/2+y,z
1/2-x,1/2+y,1/2-z
1/2-x,1/2-y,-z
1/2+x,1/2-y,1/2+z
loop_
_atom_site_type_symbol
_atom_site_label
_atom_site_fract_x
_atom_site_fract_y
_atom_site_fract_z
Si Si1 0.119825 0.769077 0.448198
Si Si2 0.564405 0.441713 0.961495
Si Si3 0.858180 0.220487 0.354175
Si Si4 0.500000 0.923269 0.750000
Si Si5 0.220972 0.450290 0.312664
O O1 0.250000 0.750000 0.500000
O O2 0.109648 0.728094 0.536150
O O3 0.033972 0.672372 0.346231
O O4 0.082756 0.930424 0.410618
O O5 0.476213 0.322058 0.876708
O O6 0.500000 0.500000 0.000000
O O7 0.689161 0.385011 0.067056
O O8 0.795506 0.343974 0.270056
O O9 0.769052 0.093015 0.304901
O O10 0.396774 0.023039 0.712401
#
# Coordination Sequence:
#
# PCOD8134763 Si02
#       5
#     8   8   8   4   8
#     4  10  19  36  61  92 113 156 198 246 286 360
#     4   8  18  37  59  83 121 147 195 242 290 343
#     4  10  22  39  63  87 122 155 199 240 301 348
#     4  12  22  36  62  86 124 150 208 240 296 344
#     4  10  22  39  61  88 117 157 197 248 290 357
#
# _framework density 19.467682
#
# number of rings (size 3 to 8) (size 9 to 14) (size 15 to 20)
#    0.000    2.667    4.444    0.000    9.333    0.889 
#    0.000    4.444    0.000    0.000    0.000    0.000 
#    0.000    0.000    0.000    0.000    0.000    0.000 
#
# Total GULP energy -223055.757428 kJ/mol
# GULP energy per Si atom -12391.986524 kJ/mol
# Density = 1.942337 g / cm^3
# Si number density = 19.467682 Si / 1000 Ang^3
#
#
#
# Elastic Constant Matrix: (Units=GPa)
#
#
# Indices 1 2 3 4 5 6 
#
# 1 99.2408 35.2108 30.7185 0.0000 29.2123 0.0000
# 2 35.2108 67.4312 37.5476 0.0000 -2.0736 0.0000
# 3 30.7185 37.5476 63.8750 0.0000 21.5063 0.0000
# 4 0.0000 0.0000 0.0000 27.8000 0.0000 2.3834
# 5 29.2123 -2.0736 21.5063 0.0000 31.5766 0.0000
# 6 0.0000 0.0000 0.0000 2.3834 0.0000 36.3938
#
#
#
# Elastic Compliance Matrix: (Units=1/GPa)
#
#
# Indices 1 2 3 4 5 6 
#
# 1 0.021071 -0.016507 0.008432 0.000000 -0.026319 0.000000
# 2 -0.016507 0.040358 -0.028311 0.000000 0.037203 0.000000
# 3 0.008432 -0.028311 0.040867 0.000000 -0.037493 0.000000
# 4 0.000000 0.000000 0.000000 0.036174 0.000000 -0.002369
# 5 -0.026319 0.037203 -0.037493 0.000000 0.083996 0.000000
# 6 0.000000 0.000000 0.000000 -0.002369 0.000000 0.027632
#
#
# Mechanical properties :
#
#
# Convention : Reuss Voigt Hill
#
# Bulk Modulus (GPa) = 33.87307 48.61118 41.24213
# Shear Modulus (GPa) = 15.02803 27.62544 21.32673
#
# Velocity S-wave (km/s) = 2.78141 3.77110 3.31342
# Velocity P-wave (km/s) = 5.26805 6.63220 5.98909
#
# Compressibility (1/GPa) = 0.02952198
#
# Stress axis : x y z
#
# Youngs Moduli (GPa) = 47.45955 24.77832 24.46992
#
# Poissons Ratio (x) = 0.40901 -0.20632
# Poissons Ratio (y) = 0.78340 0.69277
# Poissons Ratio (z) = -0.40016 0.70151
#
# Static dielectric constant tensor:
#      x y z
#    x 3.822900 0.000000 0.509240 
#    y 0.000000 3.949250 0.000000 
#    z 0.509240 0.000000 4.025980 
# 
# 
# High freq. dielectric constant tensor:
#      x y z
#    x 1.754700 0.000000 0.028090 
#    y 0.000000 1.740490 0.000000 
#    z 0.028090 0.000000 1.759020 
# 
# From -- ./inp_files/151144.got.cif
#   From: 2010.06.25/outbox.cif.g09.slc.cpg/sg15_76_cif.got.tgz:151144.got - 2010.06.28 07:06:18.
