data_PCOD8134973
_publ_section_title
;
Structure prediction by ZEFSAII (Michael W. Deem and Ramdas Pophale) SiO2 
 PCOD8134973
Probable space group: C 2/C
;
_chemical_formula_sum "Si O2"
_cell_formula_units_Z 56
_cell_length_a 11.926876
_cell_length_b 15.192545
_cell_length_c 18.653366
_cell_angle_alpha 90.000000
_cell_angle_beta 61.349145
_cell_angle_gamma 90.000000
_cell_volume 2966.129803
_symmetry_space_group_name_H-M "C 2/C"
_symmetry_group_IT_number 15
_symmetry_cell_setting 'monoclinic'
loop_
_space_group_symop_operation_xyz
x,y,z
-x,y,1/2-z
-x,-y,-z
x,-y,1/2+z
1/2+x,1/2+y,z
1/2-x,1/2+y,1/2-z
1/2-x,1/2-y,-z
1/2+x,1/2-y,1/2+z
loop_
_atom_site_type_symbol
_atom_site_label
_atom_site_fract_x
_atom_site_fract_y
_atom_site_fract_z
Si Si1 0.314907 0.660674 0.464196
Si Si2 0.072103 0.880109 0.934881
Si Si3 0.810879 0.600782 0.865728
Si Si4 0.859329 0.206921 0.305413
Si Si5 0.000000 0.837125 0.250000
Si Si6 0.807018 0.314940 0.783464
Si Si7 0.500000 0.960083 0.750000
Si Si8 0.454959 0.569686 0.615916
O O1 0.250000 0.750000 0.500000
O O2 0.461626 0.683213 0.439791
O O3 0.249450 0.587208 0.535588
O O4 0.298462 0.641633 0.384412
O O5 0.213206 0.842405 0.877349
O O6 0.045133 0.965460 0.893811
O O7 0.052343 0.892052 0.026132
O O8 0.876494 0.694679 0.832445
O O9 0.913753 0.522527 0.826754
O O10 0.692403 0.598921 0.846966
O O11 0.772577 0.204181 0.262801
O O12 0.000000 0.169360 0.250000
O O13 0.876100 0.774365 0.286542
O O14 0.004893 0.899263 0.178327
O O15 0.905412 0.394763 0.735362
#
# Coordination Sequence:
#
# PCOD8134973 Si02
#       8
#     8   8   8   8   4   8   4   8
#     4   9  20  34  58  89 115 148 201 256 294 348
#     4  10  20  38  62  86 117 158 204 248 304 365
#     4  10  19  37  59  81 113 160 201 243 303 357
#     4  11  19  34  60  88 115 154 206 248 296 361
#     4  11  24  40  60  89 130 160 200 257 296 372
#     4  11  23  37  59  93 123 161 201 245 313 355
#     4  11  22  38  60  83 124 158 200 249 302 376
#     4  10  21  38  61  85 116 160 205 246 300 361
#
# _framework density 18.879822000000001
#
# number of rings (size 3 to 8) (size 9 to 14) (size 15 to 20)
#    0.000    1.714    5.000    0.000    0.000    1.714 
#    0.000    0.714    0.000    0.000    0.000    0.000 
#    0.000    0.000    0.000    0.000    0.000    0.000 
#
# Total GULP energy -346884.285704 kJ/mol
# GULP energy per Si atom -12388.724489 kJ/mol
# Density = 1.883685 g / cm^3
# Si number density = 18.879822 Si / 1000 Ang^3
#
#
#
# Elastic Constant Matrix: (Units=GPa)
#
#
# Indices 1 2 3 4 5 6 
#
# 1 105.0760 39.6718 66.4024 0.0000 -1.1359 0.0000
# 2 39.6718 66.5894 46.4452 0.0000 5.4261 0.0000
# 3 66.4024 46.4452 138.7723 0.0000 5.9691 0.0000
# 4 0.0000 0.0000 0.0000 23.0833 0.0000 -3.8634
# 5 -1.1359 5.4261 5.9691 0.0000 33.3916 0.0000
# 6 0.0000 0.0000 0.0000 -3.8634 0.0000 24.7491
#
#
#
# Elastic Compliance Matrix: (Units=1/GPa)
#
#
# Indices 1 2 3 4 5 6 
#
# 1 0.015031 -0.005296 -0.005521 0.000000 0.002359 0.000000
# 2 -0.005296 0.021594 -0.004569 0.000000 -0.002872 0.000000
# 3 -0.005521 -0.004569 0.011441 0.000000 -0.001491 0.000000
# 4 0.000000 0.000000 0.000000 0.044484 0.000000 0.006944
# 5 0.002359 -0.002872 -0.001491 0.000000 0.030761 0.000000
# 6 0.000000 0.000000 0.000000 0.006944 0.000000 0.041489
#
#
# Mechanical properties :
#
#
# Convention : Reuss Voigt Hill
#
# Bulk Modulus (GPa) = 57.82818 68.38627 63.10723
# Shear Modulus (GPa) = 24.83377 26.77269 25.80323
#
# Velocity S-wave (km/s) = 3.63072 3.76980 3.70091
# Velocity P-wave (km/s) = 6.94783 7.43297 7.19449
#
# Compressibility (1/GPa) = 0.01729261
#
# Stress axis : x y z
#
# Youngs Moduli (GPa) = 66.52820 46.30943 87.40188
#
# Poissons Ratio (x) = 0.24527 0.48257
# Poissons Ratio (y) = 0.35235 0.39937
# Poissons Ratio (z) = 0.36732 0.21160
#
# Static dielectric constant tensor:
#      x y z
#    x 3.479410 0.000000 -0.141960 
#    y 0.000000 3.332890 0.000000 
#    z -0.141960 0.000000 4.472630 
# 
# 
# High freq. dielectric constant tensor:
#      x y z
#    x 1.726510 0.000000 -0.015410 
#    y 0.000000 1.722190 0.000000 
#    z -0.015410 0.000000 1.742470 
# 
# From -- ./inp_files/145783.got.cif
#   From: 2010.06.25/outbox.cif.g09.slc.cpg/sg15_73_cif.got.tgz:145783.got - 2010.06.28 07:06:18.
