data_PCOD8134880
_publ_section_title
;
Structure prediction by ZEFSAII (Michael W. Deem and Ramdas Pophale) SiO2 
 PCOD8134880
Probable space group: C 2/C
;
_chemical_formula_sum "Si O2"
_cell_formula_units_Z 52
_cell_length_a 19.057756
_cell_length_b 9.662203
_cell_length_c 16.062114
_cell_angle_alpha 90.000000
_cell_angle_beta 118.310797
_cell_angle_gamma 90.000000
_cell_volume 2603.902616
_symmetry_space_group_name_H-M "C 2/C"
_symmetry_group_IT_number 15
_symmetry_cell_setting 'monoclinic'
loop_
_space_group_symop_operation_xyz
x,y,z
-x,y,1/2-z
-x,-y,-z
x,-y,1/2+z
1/2+x,1/2+y,z
1/2-x,1/2+y,1/2-z
1/2-x,1/2-y,-z
1/2+x,1/2-y,1/2+z
loop_
_atom_site_type_symbol
_atom_site_label
_atom_site_fract_x
_atom_site_fract_y
_atom_site_fract_z
Si Si1 0.607013 0.229642 0.229049
Si Si2 0.045210 0.891076 0.923448
Si Si3 0.178283 0.915488 0.129782
Si Si4 0.568742 0.700779 0.886937
Si Si5 0.353951 0.924548 0.255897
Si Si6 0.500000 0.806293 0.250000
Si Si7 0.614504 0.702955 0.089083
O O1 0.646037 0.349807 0.196511
O O2 0.513009 0.213419 0.160292
O O3 0.621111 0.268519 0.334185
O O4 0.648911 0.086961 0.225497
O O5 0.035508 0.782128 0.844765
O O6 0.971495 0.870469 0.945054
O O7 0.045949 0.039391 0.879831
O O8 0.126801 0.866653 0.021032
O O9 0.270737 0.874913 0.168123
O O10 0.177752 0.081815 0.142062
O O11 0.619313 0.749529 0.995407
O O12 0.426523 0.902066 0.234017
O O13 0.368568 0.837987 0.347942
#
# Coordination Sequence:
#
# PCOD8134880 Si02
#       7
#     8   8   8   8   8   4   8
#     4  11  21  37  61  93 120 155 201 247 298 354
#     4  10  19  38  67  92 114 157 210 242 293 360
#     4  11  21  41  62  88 120 159 203 249 296 359
#     4  10  19  36  67  90 116 155 207 248 286 356
#     4  11  25  39  58  88 128 158 195 249 309 356
#     4  10  22  40  60  86 120 160 198 252 298 360
#     4  10  20  41  64  89 122 160 201 244 300 360
#
# _framework density 19.970025
#
# number of rings (size 3 to 8) (size 9 to 14) (size 15 to 20)
#    0.000    1.538    3.077    3.692    2.154    1.231 
#    2.769    6.923    0.000    0.000    0.000    0.000 
#    0.000    0.000    0.000    0.000    0.000    0.000 
#
# Total GULP energy -322396.481882 kJ/mol
# GULP energy per Si atom -12399.864688 kJ/mol
# Density = 1.992457 g / cm^3
# Si number density = 19.970025 Si / 1000 Ang^3
#
#
#
# Elastic Constant Matrix: (Units=GPa)
#
#
# Indices 1 2 3 4 5 6 
#
# 1 93.0817 28.7600 68.0532 0.0000 2.5180 0.0000
# 2 28.7600 80.3038 54.6459 0.0000 -10.1153 0.0000
# 3 68.0532 54.6459 122.4015 0.0000 -0.4361 0.0000
# 4 0.0000 0.0000 0.0000 21.0761 0.0000 0.1019
# 5 2.5180 -10.1153 -0.4361 0.0000 36.0028 0.0000
# 6 0.0000 0.0000 0.0000 0.1019 0.0000 15.7910
#
#
#
# Elastic Compliance Matrix: (Units=1/GPa)
#
#
# Indices 1 2 3 4 5 6 
#
# 1 0.018175 0.000294 -0.010241 0.000000 -0.001312 0.000000
# 2 0.000294 0.018811 -0.008544 0.000000 0.005161 0.000000
# 3 -0.010241 -0.008544 0.017673 0.000000 -0.001470 0.000000
# 4 0.000000 0.000000 0.000000 0.047449 0.000000 -0.000306
# 5 -0.001312 0.005161 -0.001470 0.000000 0.029300 0.000000
# 6 0.000000 0.000000 0.000000 -0.000306 0.000000 0.063329
#
#
# Mechanical properties :
#
#
# Convention : Reuss Voigt Hill
#
# Bulk Modulus (GPa) = 56.56570 66.52282 61.54426
# Shear Modulus (GPa) = 21.04283 24.19582 22.61932
#
# Velocity S-wave (km/s) = 3.24963 3.48459 3.36916
# Velocity P-wave (km/s) = 6.51666 7.04084 6.78382
#
# Compressibility (1/GPa) = 0.01767856
#
# Stress axis : x y z
#
# Youngs Moduli (GPa) = 55.01960 53.15991 56.58385
#
# Poissons Ratio (x) = -0.01566 0.57949
# Poissons Ratio (y) = -0.01620 0.48343
# Poissons Ratio (z) = 0.56347 0.45418
#
# Static dielectric constant tensor:
#      x y z
#    x 3.616620 0.000000 -0.046940 
#    y 0.000000 3.496520 0.000000 
#    z -0.046940 0.000000 3.689310 
# 
# 
# High freq. dielectric constant tensor:
#      x y z
#    x 1.771590 0.000000 -0.003530 
#    y 0.000000 1.775350 0.000000 
#    z -0.003530 0.000000 1.783850 
# 
# From -- ./inp_files/214334.got.cif
#   From: 2010.06.25/outbox.cif.g09.slc.cpg/sg15_108_cif.got.tgz:214334.got - 2010.06.28 07:06:18.
