data_PCOD8134428
_publ_section_title
;
Structure prediction by ZEFSAII (Michael W. Deem and Ramdas Pophale) SiO2 
 PCOD8134428
Probable space group: C 2/C
;
_chemical_formula_sum "Si O2"
_cell_formula_units_Z 40
_cell_length_a 17.018213
_cell_length_b 11.073562
_cell_length_c 16.356448
_cell_angle_alpha 90.000000
_cell_angle_beta 32.054580
_cell_angle_gamma 90.000000
_cell_volume 1635.917408
_symmetry_space_group_name_H-M "C 2/C"
_symmetry_group_IT_number 15
_symmetry_cell_setting 'monoclinic'
loop_
_space_group_symop_operation_xyz
x,y,z
-x,y,1/2-z
-x,-y,-z
x,-y,1/2+z
1/2+x,1/2+y,z
1/2-x,1/2+y,1/2-z
1/2-x,1/2-y,-z
1/2+x,1/2-y,1/2+z
loop_
_atom_site_type_symbol
_atom_site_label
_atom_site_fract_x
_atom_site_fract_y
_atom_site_fract_z
Si Si1 0.061278 0.482262 0.282425
Si Si2 0.346959 0.596264 0.962317
Si Si3 0.267689 0.213672 0.776353
Si Si4 0.993909 0.909712 0.580361
Si Si5 0.185134 0.347875 0.446962
O O1 0.107344 0.366777 0.292414
O O2 0.000000 0.435518 0.250000
O O3 0.940336 0.550541 0.443605
O O4 0.197290 0.571471 0.144813
O O5 0.464003 0.487681 0.875977
O O6 0.681699 0.610525 0.609621
O O7 0.399373 0.726527 0.948789
O O8 0.329602 0.351293 0.730921
O O9 0.244489 0.170175 0.703910
O O10 0.111919 0.198978 0.960722
O O11 0.000000 0.000000 0.500000
#
# Coordination Sequence:
#
# PCOD8134428 Si02
#       5
#     8   8   8   8   8
#     4   9  20  39  60  90 128 166 214 271 323 391
#     4   9  20  38  60  91 132 163 212 286 326 375
#     4  11  24  40  69  94 131 176 217 267 332 395
#     4  11  24  45  65  98 138 170 221 280 327 392
#     4  10  19  35  64  94 122 172 222 264 331 383
#
# _framework density 24.451111999999998
#
# number of rings (size 3 to 8) (size 9 to 14) (size 15 to 20)
#    0.000    2.000    2.000    0.600    2.800    1.600 
#    0.000   12.000    0.000    0.000    0.000    0.000 
#    0.000    0.000    0.000    0.000    0.000    0.000 
#
# Total GULP energy -247997.733284 kJ/mol
# GULP energy per Si atom -12399.886664 kJ/mol
# Density = 2.439546 g / cm^3
# Si number density = 24.451112 Si / 1000 Ang^3
#
#
#
# Elastic Constant Matrix: (Units=GPa)
#
#
# Indices 1 2 3 4 5 6 
#
# 1 113.8593 35.0766 14.8212 0.0001 8.5316 0.0000
# 2 35.0766 86.1470 21.4413 0.0001 -0.7799 0.0000
# 3 14.8212 21.4413 48.7768 0.0002 6.1477 0.0000
# 4 0.0001 0.0001 0.0002 29.1743 -0.0001 -3.7906
# 5 8.5316 -0.7799 6.1477 -0.0001 20.7059 0.0000
# 6 0.0000 0.0000 0.0000 -3.7906 0.0000 46.0342
#
#
#
# Elastic Compliance Matrix: (Units=1/GPa)
#
#
# Indices 1 2 3 4 5 6 
#
# 1 0.010469 -0.004089 -0.000853 0.000000 -0.004215 0.000000
# 2 -0.004089 0.014735 -0.005732 0.000000 0.003941 0.000000
# 3 -0.000853 -0.005732 0.024167 0.000000 -0.007040 0.000000
# 4 0.000000 0.000000 0.000000 0.034647 0.000000 0.002853
# 5 -0.004215 0.003941 -0.007040 0.000000 0.052271 0.000000
# 6 0.000000 0.000000 0.000000 0.002853 0.000000 0.021958
#
#
# Mechanical properties :
#
#
# Convention : Reuss Voigt Hill
#
# Bulk Modulus (GPa) = 35.68142 43.49569 39.58855
# Shear Modulus (GPa) = 26.46406 31.01248 28.73827
#
# Velocity S-wave (km/s) = 3.29344 3.56525 3.43204
# Velocity P-wave (km/s) = 5.39323 5.89707 5.65077
#
# Compressibility (1/GPa) = 0.02802579
#
# Stress axis : x y z
#
# Youngs Moduli (GPa) = 95.51868 67.86517 41.37796
#
# Poissons Ratio (x) = 0.27748 0.03528
# Poissons Ratio (y) = 0.39055 0.23716
# Poissons Ratio (z) = 0.08144 0.38898
#
# Static dielectric constant tensor:
#      x y z
#    x 4.772240 0.000000 -0.094540 
#    y 0.000000 4.397030 0.000000 
#    z -0.094540 0.000000 4.087560 
# 
# 
# High freq. dielectric constant tensor:
#      x y z
#    x 1.980840 0.000000 -0.007220 
#    y 0.000000 1.969720 0.000000 
#    z -0.007220 0.000000 1.958260 
# 
# From -- ./inp_files/255408.got.cif
#   From: 2010.06.25/outbox.cif.g09.slc.cpg/sg15_128_cif.got.tgz:255408.got - 2010.06.28 07:06:18.
