data_PCOD8134604
_publ_section_title
;
Structure prediction by ZEFSAII (Michael W. Deem and Ramdas Pophale) SiO2 
 PCOD8134604
Probable space group: C 2/C
;
_chemical_formula_sum "Si O2"
_cell_formula_units_Z 64
_cell_length_a 16.604778
_cell_length_b 16.980289
_cell_length_c 11.765072
_cell_angle_alpha 90.000000
_cell_angle_beta 91.489428
_cell_angle_gamma 90.000000
_cell_volume 3316.087519
_symmetry_space_group_name_H-M "C 2/C"
_symmetry_group_IT_number 15
_symmetry_cell_setting 'monoclinic'
loop_
_space_group_symop_operation_xyz
x,y,z
-x,y,1/2-z
-x,-y,-z
x,-y,1/2+z
1/2+x,1/2+y,z
1/2-x,1/2+y,1/2-z
1/2-x,1/2-y,-z
1/2+x,1/2-y,1/2+z
loop_
_atom_site_type_symbol
_atom_site_label
_atom_site_fract_x
_atom_site_fract_y
_atom_site_fract_z
Si Si1 0.884375 0.832163 0.842355
Si Si2 0.699866 0.359687 0.046491
Si Si3 0.676658 0.057670 0.809494
Si Si4 0.711725 0.117413 0.362923
Si Si5 0.179233 0.313160 0.629529
Si Si6 0.057287 0.834533 0.902253
Si Si7 0.128578 0.652620 0.593310
Si Si8 0.555366 0.155828 0.952316
O O1 0.808785 0.884229 0.879175
O O2 0.908377 0.860576 0.717640
O O3 0.864336 0.739020 0.850976
O O4 0.963054 0.852884 0.921631
O O5 0.734335 0.419607 0.141049
O O6 0.702710 0.275789 0.105757
O O7 0.755022 0.365310 0.935432
O O8 0.608028 0.377691 0.003913
O O9 0.663939 0.086806 0.680005
O O10 0.605336 0.092950 0.882367
O O11 0.673012 0.964050 0.819690
O O12 0.686150 0.178660 0.264575
O O13 0.679199 0.148605 0.480492
O O14 0.089946 0.338853 0.582662
O O15 0.070450 0.740728 0.898109
O O16 0.037252 0.630673 0.555935
#
# Coordination Sequence:
#
# PCOD8134604 Si02
#       8
#     8   8   8   8   8   8   8   8
#     4  10  19  36  58  87 112 141 195 238 285 337
#     4   9  17  35  62  81 106 144 196 242 270 326
#     4  11  23  36  56  83 116 156 190 229 284 348
#     4  12  25  35  53  85 124 151 181 237 293 355
#     4   9  18  34  58  84 107 143 197 238 274 326
#     4   9  16  33  67  86  99 142 199 251 264 318
#     4  11  23  39  57  81 116 158 186 236 292 336
#     4   9  19  38  60  83 108 147 203 233 274 337
#
# _framework density 19.299852000000001
#
# number of rings (size 3 to 8) (size 9 to 14) (size 15 to 20)
#    0.000    2.000    2.500    2.250    3.500    1.000 
#    2.250    0.625    0.000    2.250    0.000    0.000 
#    0.000    0.000    0.000    0.000    0.000    0.000 
#
# Total GULP energy -396616.554214 kJ/mol
# GULP energy per Si atom -12394.267319 kJ/mol
# Density = 1.925592 g / cm^3
# Si number density = 19.299852 Si / 1000 Ang^3
#
#
#
# Elastic Constant Matrix: (Units=GPa)
#
#
# Indices 1 2 3 4 5 6 
#
# 1 134.1647 18.7151 45.9183 0.0000 14.1197 0.0000
# 2 18.7151 28.6124 8.0459 0.0000 -1.8515 0.0000
# 3 45.9183 8.0459 102.5266 0.0000 2.4235 0.0000
# 4 0.0000 0.0000 0.0000 13.6517 0.0000 2.6866
# 5 14.1197 -1.8515 2.4235 0.0000 32.4208 0.0000
# 6 0.0000 0.0000 0.0000 2.6866 0.0000 21.5721
#
#
#
# Elastic Compliance Matrix: (Units=1/GPa)
#
#
# Indices 1 2 3 4 5 6 
#
# 1 0.010077 -0.005765 -0.003956 0.000000 -0.004422 0.000000
# 2 -0.005765 0.039202 -0.000608 0.000000 0.004795 0.000000
# 3 -0.003956 -0.000608 0.011554 0.000000 0.000825 0.000000
# 4 0.000000 0.000000 0.000000 0.075091 0.000000 -0.009352
# 5 -0.004422 0.004795 0.000825 0.000000 0.032983 0.000000
# 6 0.000000 0.000000 0.000000 -0.009352 0.000000 0.047521
#
#
# Mechanical properties :
#
#
# Convention : Reuss Voigt Hill
#
# Bulk Modulus (GPa) = 24.89140 45.62915 35.26028
# Shear Modulus (GPa) = 19.96191 26.37055 23.16623
#
# Velocity S-wave (km/s) = 3.21955 3.70044 3.46834
# Velocity P-wave (km/s) = 5.17164 6.47698 5.86076
#
# Compressibility (1/GPa) = 0.04017451
#
# Stress axis : x y z
#
# Youngs Moduli (GPa) = 99.23428 25.50899 86.55266
#
# Poissons Ratio (x) = 0.14706 0.34243
# Poissons Ratio (y) = 0.57209 0.05261
# Poissons Ratio (z) = 0.39260 0.01550
#
# Static dielectric constant tensor:
#      x y z
#    x 3.832790 0.000000 0.354740 
#    y 0.000000 3.162780 0.000000 
#    z 0.354740 0.000000 3.493170 
# 
# 
# High freq. dielectric constant tensor:
#      x y z
#    x 1.759160 0.000000 0.024540 
#    y 0.000000 1.715820 0.000000 
#    z 0.024540 0.000000 1.743530 
# 
# From -- ./inp_files/105716.got.cif
#   From: 2010.06.25/outbox.cif.g09.slc.cpg/sg15_53_cif.got.tgz:105716.got - 2010.06.28 07:06:18.
