data_PCOD8134056
_publ_section_title
;
Structure prediction by ZEFSAII (Michael W. Deem and Ramdas Pophale) SiO2 
 PCOD8134056
Probable space group: C 2/C
;
_chemical_formula_sum "Si O2"
_cell_formula_units_Z 48
_cell_length_a 17.372208
_cell_length_b 8.499290
_cell_length_c 23.060489
_cell_angle_alpha 90.000000
_cell_angle_beta 131.007478
_cell_angle_gamma 90.000000
_cell_volume 2569.429843
_symmetry_space_group_name_H-M "C 2/C"
_symmetry_group_IT_number 15
_symmetry_cell_setting 'monoclinic'
loop_
_space_group_symop_operation_xyz
x,y,z
-x,y,1/2-z
-x,-y,-z
x,-y,1/2+z
1/2+x,1/2+y,z
1/2-x,1/2+y,1/2-z
1/2-x,1/2-y,-z
1/2+x,1/2-y,1/2+z
loop_
_atom_site_type_symbol
_atom_site_label
_atom_site_fract_x
_atom_site_fract_y
_atom_site_fract_z
Si Si1 0.841076 0.339471 0.075505
Si Si2 0.916084 0.044759 0.879881
Si Si3 0.357509 0.959009 0.967479
Si Si4 0.031627 0.131369 0.201821
Si Si5 0.726498 0.785007 0.339811
Si Si6 0.544833 0.743771 0.025118
O O1 0.807286 0.399320 0.123015
O O2 0.939795 0.227718 0.127675
O O3 0.750000 0.250000 0.000000
O O4 0.857356 0.481109 0.037686
O O5 0.810144 0.135111 0.839872
O O6 0.937500 0.020084 0.822087
O O7 0.909854 0.870877 0.904078
O O8 0.010694 0.141708 0.952626
O O9 0.260788 0.878229 0.888212
O O10 0.366551 0.134053 0.947219
O O11 0.450188 0.841521 0.001463
O O12 0.128682 0.248267 0.252349
O O13 0.000000 0.070010 0.250000
#
# Coordination Sequence:
#
# PCOD8134056 Si02
#       6
#     8   8   8   8   8   8
#     4   9  17  33  58  79 102 143 187 223 259 338
#     4  10  19  35  54  83 110 141 182 233 274 329
#     4   9  16  33  54  82 104 142 181 224 268 333
#     4  10  20  36  57  79 109 154 187 222 274 337
#     4   9  20  33  55  81 108 144 186 219 280 331
#     4   9  18  30  57  82 106 135 183 230 277 313
#
# _framework density 18.681187999999999
#
# number of rings (size 3 to 8) (size 9 to 14) (size 15 to 20)
#    0.000    2.667    1.667    0.000    2.333    1.333 
#    3.000    0.833    3.667    0.000    0.000    0.000 
#    0.000    0.000    0.000    0.000    0.000    0.000 
#
# Total GULP energy -297361.855032 kJ/mol
# GULP energy per Si atom -12390.077293 kJ/mol
# Density = 1.863867 g / cm^3
# Si number density = 18.681188 Si / 1000 Ang^3
#
#
#
# Elastic Constant Matrix: (Units=GPa)
#
#
# Indices 1 2 3 4 5 6 
#
# 1 89.5653 32.0210 45.0482 0.0000 -8.7797 0.0000
# 2 32.0210 76.8305 29.0710 0.0000 -5.9246 0.0000
# 3 45.0482 29.0710 99.1482 0.0000 3.2305 0.0000
# 4 0.0000 0.0000 0.0000 17.1032 0.0000 -2.5904
# 5 -8.7797 -5.9246 3.2305 0.0000 32.7288 0.0000
# 6 0.0000 0.0000 0.0000 -2.5904 0.0000 32.2674
#
#
#
# Elastic Compliance Matrix: (Units=1/GPa)
#
#
# Indices 1 2 3 4 5 6 
#
# 1 0.016199 -0.004035 -0.006315 0.000000 0.004238 0.000000
# 2 -0.004035 0.015962 -0.002915 0.000000 0.002095 0.000000
# 3 -0.006315 -0.002915 0.013927 0.000000 -0.003596 0.000000
# 4 0.000000 0.000000 0.000000 0.059188 0.000000 0.004752
# 5 0.004238 0.002095 -0.003596 0.000000 0.032425 0.000000
# 6 0.000000 0.000000 0.000000 0.004752 0.000000 0.031373
#
#
# Mechanical properties :
#
#
# Convention : Reuss Voigt Hill
#
# Bulk Modulus (GPa) = 51.13067 53.09160 52.11113
# Shear Modulus (GPa) = 24.73724 27.04681 25.89203
#
# Velocity S-wave (km/s) = 3.64287 3.80914 3.72693
# Velocity P-wave (km/s) = 6.71741 6.91575 6.81730
#
# Compressibility (1/GPa) = 0.01955773
#
# Stress axis : x y z
#
# Youngs Moduli (GPa) = 61.73044 62.64910 71.80228
#
# Poissons Ratio (x) = 0.25280 0.45345
# Poissons Ratio (y) = 0.24909 0.20931
# Poissons Ratio (z) = 0.38984 0.18262
#
# Static dielectric constant tensor:
#      x y z
#    x 3.954890 0.000000 -0.256940 
#    y 0.000000 3.217260 0.000000 
#    z -0.256940 0.000000 3.595920 
# 
# 
# High freq. dielectric constant tensor:
#      x y z
#    x 1.735380 0.000000 -0.002910 
#    y 0.000000 1.682230 0.000000 
#    z -0.002910 0.000000 1.729140 
# 
# From -- ./inp_files/208529.got.cif
#   From: 2010.06.25/outbox.cif.g09.slc.cpg/sg15_105_cif.got.tgz:208529.got - 2010.06.28 07:06:18.
