data_PCOD8134476
_publ_section_title
;
Structure prediction by ZEFSAII (Michael W. Deem and Ramdas Pophale) SiO2 
 PCOD8134476
Probable space group: C 2/C
;
_chemical_formula_sum "Si O2"
_cell_formula_units_Z 56
_cell_length_a 28.761637
_cell_length_b 9.258328
_cell_length_c 13.470147
_cell_angle_alpha 90.000000
_cell_angle_beta 49.310642
_cell_angle_gamma 90.000000
_cell_volume 2719.781622
_symmetry_space_group_name_H-M "C 2/C"
_symmetry_group_IT_number 15
_symmetry_cell_setting 'monoclinic'
loop_
_space_group_symop_operation_xyz
x,y,z
-x,y,1/2-z
-x,-y,-z
x,-y,1/2+z
1/2+x,1/2+y,z
1/2-x,1/2+y,1/2-z
1/2-x,1/2-y,-z
1/2+x,1/2-y,1/2+z
loop_
_atom_site_type_symbol
_atom_site_label
_atom_site_fract_x
_atom_site_fract_y
_atom_site_fract_z
Si Si1 0.119900 0.520604 0.538310
Si Si2 0.257896 0.030776 0.542031
Si Si3 0.945758 0.415834 0.682374
Si Si4 0.575003 0.161532 0.938672
Si Si5 0.624826 0.243914 0.382672
Si Si6 0.755230 0.163316 0.140655
Si Si7 0.348813 0.436712 0.672975
O O1 0.183349 0.561664 0.505131
O O2 0.073074 0.444044 0.678328
O O3 0.128116 0.411805 0.432463
O O4 0.092826 0.667033 0.523164
O O5 0.254681 0.036387 0.427162
O O6 0.273240 0.189986 0.560700
O O7 0.195183 0.962312 0.670947
O O8 0.941263 0.572896 0.637550
O O9 0.901322 0.304283 0.687594
O O10 0.012563 0.341907 0.590084
O O11 0.598375 0.320391 0.874871
O O12 0.695317 0.191292 0.289905
O O13 0.616993 0.415098 0.402848
O O14 0.810156 0.113068 0.132936
#
# Coordination Sequence:
#
# PCOD8134476 Si02
#       7
#     8   8   8   8   8   8   8
#     4  11  19  38  61  86 118 159 207 248 298 366
#     4  10  20  33  59  85 120 165 195 245 301 377
#     4  10  22  41  61  85 113 163 217 253 292 366
#     4  10  23  40  62  83 118 163 208 253 302 367
#     4  10  22  35  60  91 123 158 197 261 309 355
#     4  10  19  36  54  87 125 158 198 237 312 376
#     4  11  22  37  59  91 128 159 196 255 321 364
#
# _framework density 20.589887999999998
#
# number of rings (size 3 to 8) (size 9 to 14) (size 15 to 20)
#    0.000    1.714    4.286    0.429    0.000    1.714 
#    0.000    1.429    0.000    5.143    0.000    0.000 
#    0.000    0.000    0.000    0.000    0.000    0.000 
#
# Total GULP energy -347074.276982 kJ/mol
# GULP energy per Si atom -12395.509892 kJ/mol
# Density = 2.054302 g / cm^3
# Si number density = 20.589888 Si / 1000 Ang^3
#
#
#
# Elastic Constant Matrix: (Units=GPa)
#
#
# Indices 1 2 3 4 5 6 
#
# 1 69.2837 33.6940 19.9571 0.0000 1.1775 0.0000
# 2 33.6940 130.2401 36.9294 0.0000 -7.1782 0.0000
# 3 19.9571 36.9294 67.2903 0.0000 3.2548 0.0000
# 4 0.0000 0.0000 0.0000 27.0095 0.0000 -8.2567
# 5 1.1775 -7.1782 3.2548 0.0000 28.5788 0.0000
# 6 0.0000 0.0000 0.0000 -8.2567 0.0000 26.3023
#
#
#
# Elastic Compliance Matrix: (Units=1/GPa)
#
#
# Indices 1 2 3 4 5 6 
#
# 1 0.017092 -0.003638 -0.003011 0.000000 -0.001275 0.000000
# 2 -0.003638 0.010108 -0.004624 0.000000 0.003215 0.000000
# 3 -0.003011 -0.004624 0.018443 0.000000 -0.003138 0.000000
# 4 0.000000 0.000000 0.000000 0.040954 0.000000 0.012856
# 5 -0.001275 0.003215 -0.003138 0.000000 0.036208 0.000000
# 6 0.000000 0.000000 0.000000 0.012856 0.000000 0.042055
#
#
# Mechanical properties :
#
#
# Convention : Reuss Voigt Hill
#
# Bulk Modulus (GPa) = 43.29520 49.77500 46.53510
# Shear Modulus (GPa) = 25.62732 28.12704 26.87718
#
# Velocity S-wave (km/s) = 3.53180 3.70004 3.61689
# Velocity P-wave (km/s) = 6.14040 6.51772 6.33187
#
# Compressibility (1/GPa) = 0.02309725
#
# Stress axis : x y z
#
# Youngs Moduli (GPa) = 58.50799 98.93537 54.22080
#
# Poissons Ratio (x) = 0.35996 0.16324
# Poissons Ratio (y) = 0.21287 0.25069
# Poissons Ratio (z) = 0.17615 0.45743
#
# Static dielectric constant tensor:
#      x y z
#    x 3.680620 0.000000 0.038700 
#    y 0.000000 3.685710 0.000000 
#    z 0.038700 0.000000 3.663280 
# 
# 
# High freq. dielectric constant tensor:
#      x y z
#    x 1.809730 0.000000 0.007520 
#    y 0.000000 1.785160 0.000000 
#    z 0.007520 0.000000 1.793480 
# 
# From -- ./inp_files/176675.got.cif
#   From: 2010.06.25/outbox.cif.g09.slc.cpg/sg15_89_cif.got.tgz:176675.got - 2010.06.28 07:06:18.
