data_PCOD8134563
_publ_section_title
;
Structure prediction by ZEFSAII (Michael W. Deem and Ramdas Pophale) SiO2 
 PCOD8134563
Probable space group: C 2/C
;
_chemical_formula_sum "Si O2"
_cell_formula_units_Z 56
_cell_length_a 30.478627
_cell_length_b 9.038439
_cell_length_c 18.768657
_cell_angle_alpha 90.000000
_cell_angle_beta 142.555904
_cell_angle_gamma 90.000000
_cell_volume 3143.520973
_symmetry_space_group_name_H-M "C 2/C"
_symmetry_group_IT_number 15
_symmetry_cell_setting 'monoclinic'
loop_
_space_group_symop_operation_xyz
x,y,z
-x,y,1/2-z
-x,-y,-z
x,-y,1/2+z
1/2+x,1/2+y,z
1/2-x,1/2+y,1/2-z
1/2-x,1/2-y,-z
1/2+x,1/2-y,1/2+z
loop_
_atom_site_type_symbol
_atom_site_label
_atom_site_fract_x
_atom_site_fract_y
_atom_site_fract_z
Si Si1 0.846289 0.017811 0.775935
Si Si2 0.054357 0.161604 0.190287
Si Si3 0.887476 0.882125 0.483557
Si Si4 0.172807 0.259673 0.865958
Si Si5 0.165660 0.403347 0.354726
Si Si6 0.080291 0.934963 0.343827
Si Si7 0.222392 0.698909 0.074071
O O1 0.856385 0.058896 0.870258
O O2 0.833117 0.164805 0.713217
O O3 0.918372 0.934269 0.841786
O O4 0.777079 0.912755 0.682243
O O5 0.091701 0.321768 0.237429
O O6 0.082486 0.082113 0.298198
O O7 0.968498 0.180158 0.077975
O O8 0.836742 0.749538 0.444827
O O9 0.885749 0.019028 0.536659
O O10 0.153328 0.426322 0.819296
O O11 0.120685 0.201144 0.860514
O O12 0.250000 0.250000 0.000000
O O13 0.181577 0.387692 0.458829
O O14 0.234443 0.340859 0.400305
O O15 0.000000 0.875823 0.250000
#
# Coordination Sequence:
#
# PCOD8134563 Si02
#       7
#     8   8   8   8   8   8   8
#     4  10  22  37  55  84 117 148 187 231 296 344
#     4   9  19  38  61  79 106 154 195 226 280 344
#     4  11  20  35  61  85 114 146 192 241 283 340
#     4  11  20  35  58  78 107 152 187 225 281 344
#     4  10  19  36  58  80 107 144 196 236 272 335
#     4   9  19  35  54  80 106 142 188 228 276 338
#     4  10  20  35  55  83 108 147 190 234 279 339
#
# _framework density 17.814418
#
# number of rings (size 3 to 8) (size 9 to 14) (size 15 to 20)
#    0.000    2.000    2.857    1.286    0.000    2.286 
#    2.571    0.714    0.000    0.000    0.000    0.000 
#    0.000    0.000    0.000    0.000    0.000    0.000 
#
# Total GULP energy -347263.397977 kJ/mol
# GULP energy per Si atom -12402.264213 kJ/mol
# Density = 1.777387 g / cm^3
# Si number density = 17.814418 Si / 1000 Ang^3
#
#
#
# Elastic Constant Matrix: (Units=GPa)
#
#
# Indices 1 2 3 4 5 6 
#
# 1 116.2951 57.3742 62.5893 0.0000 2.4578 0.0000
# 2 57.3742 132.6955 54.2144 0.0000 4.8818 0.0000
# 3 62.5893 54.2144 98.4339 0.0000 -11.7728 0.0000
# 4 0.0000 0.0000 0.0000 15.8575 0.0000 -0.3879
# 5 2.4578 4.8818 -11.7728 0.0000 36.5651 0.0000
# 6 0.0000 0.0000 0.0000 -0.3879 0.0000 22.8817
#
#
#
# Elastic Compliance Matrix: (Units=1/GPa)
#
#
# Indices 1 2 3 4 5 6 
#
# 1 0.014331 -0.002845 -0.007920 0.000000 -0.003134 0.000000
# 2 -0.002845 0.010649 -0.004372 0.000000 -0.002638 0.000000
# 3 -0.007920 -0.004372 0.018447 0.000000 0.007055 0.000000
# 4 0.000000 0.000000 0.000000 0.063088 0.000000 0.001069
# 5 -0.003134 -0.002638 0.007055 0.000000 0.030183 0.000000
# 6 0.000000 0.000000 0.000000 0.001069 0.000000 0.043721
#
#
# Mechanical properties :
#
#
# Convention : Reuss Voigt Hill
#
# Bulk Modulus (GPa) = 76.02790 77.30891 76.66840
# Shear Modulus (GPa) = 23.24731 26.61064 24.92897
#
# Velocity S-wave (km/s) = 3.61636 3.86912 3.74487
# Velocity P-wave (km/s) = 7.75937 7.96563 7.86317
#
# Compressibility (1/GPa) = 0.01315307
#
# Stress axis : x y z
#
# Youngs Moduli (GPa) = 69.77658 93.90134 54.20973
#
# Poissons Ratio (x) = 0.26718 0.42936
# Poissons Ratio (y) = 0.19854 0.23699
# Poissons Ratio (z) = 0.55265 0.41051
#
# Static dielectric constant tensor:
#      x y z
#    x 3.306120 0.000000 0.055920 
#    y 0.000000 2.751160 0.000000 
#    z 0.055920 0.000000 3.160760 
# 
# 
# High freq. dielectric constant tensor:
#      x y z
#    x 1.697880 0.000000 0.008380 
#    y 0.000000 1.677310 0.000000 
#    z 0.008380 0.000000 1.685570 
# 
# From -- ./inp_files/214012.got.cif
#   From: 2010.06.25/outbox.cif.g09.slc.cpg/sg15_108_cif.got.tgz:214012.got - 2010.06.28 07:06:18.
