data_PCOD8134931
_publ_section_title
;
Structure prediction by ZEFSAII (Michael W. Deem and Ramdas Pophale) SiO2 
 PCOD8134931
Probable space group: C 2/C
;
_chemical_formula_sum "Si O2"
_cell_formula_units_Z 64
_cell_length_a 18.289988
_cell_length_b 19.310416
_cell_length_c 12.034119
_cell_angle_alpha 90.000000
_cell_angle_beta 132.073321
_cell_angle_gamma 90.000000
_cell_volume 3154.944720
_symmetry_space_group_name_H-M "C 2/C"
_symmetry_group_IT_number 15
_symmetry_cell_setting 'monoclinic'
loop_
_space_group_symop_operation_xyz
x,y,z
-x,y,1/2-z
-x,-y,-z
x,-y,1/2+z
1/2+x,1/2+y,z
1/2-x,1/2+y,1/2-z
1/2-x,1/2-y,-z
1/2+x,1/2-y,1/2+z
loop_
_atom_site_type_symbol
_atom_site_label
_atom_site_fract_x
_atom_site_fract_y
_atom_site_fract_z
Si Si1 0.230830 0.052014 0.598676
Si Si2 0.795351 0.423926 0.780098
Si Si3 0.890195 0.401558 0.643855
Si Si4 0.388177 0.659020 0.453997
Si Si5 0.775790 0.713650 0.912601
Si Si6 0.109416 0.136969 0.633447
Si Si7 0.605213 0.444807 0.343747
Si Si8 0.393445 0.063407 0.607435
O O1 0.149583 0.106251 0.558136
O O2 0.316003 0.093180 0.619269
O O3 0.277347 0.006314 0.745808
O O4 0.188500 0.997361 0.466247
O O5 0.846738 0.391118 0.723421
O O6 0.690376 0.386378 0.696014
O O7 0.866607 0.410949 0.956854
O O8 0.823791 0.360734 0.487237
O O9 0.892718 0.480647 0.609636
O O10 0.000000 0.370086 0.750000
O O11 0.351884 0.738205 0.422686
O O12 0.495242 0.658687 0.503811
O O13 0.395459 0.626055 0.584662
O O14 0.677069 0.702017 0.738856
O O15 0.750000 0.750000 0.000000
O O16 0.121749 0.074707 0.733462
O O17 0.500000 0.482443 0.250000
O O18 0.500000 0.092936 0.750000
#
# Coordination Sequence:
#
# PCOD8134931 Si02
#       8
#     8   8   8   8   8   8   8   8
#     4  10  20  34  55  83 116 154 195 240 290 346
#     4  10  19  37  57  82 120 156 194 236 297 352
#     4  10  22  34  56  91 120 157 196 237 293 350
#     4  10  22  35  55  85 116 154 191 236 288 349
#     4  12  21  35  57  83 120 154 192 241 283 343
#     4  11  22  36  56  86 122 153 192 239 294 346
#     4   9  18  32  53  82 118 152 188 231 287 350
#     4  10  22  38  57  84 119 154 191 240 289 357
#
# _framework density 20.285616000000001
#
# number of rings (size 3 to 8) (size 9 to 14) (size 15 to 20)
#    0.000    1.750    2.500    3.000    1.750   11.000 
#    0.000    0.000    0.000    0.750    0.000    2.625 
#    0.000    0.000    0.000    0.000    0.000    0.000 
#
# Total GULP energy -396774.577663 kJ/mol
# GULP energy per Si atom -12399.205552 kJ/mol
# Density = 2.023944 g / cm^3
# Si number density = 20.285616 Si / 1000 Ang^3
#
#
#
# Elastic Constant Matrix: (Units=GPa)
#
#
# Indices 1 2 3 4 5 6 
#
# 1 144.2867 37.4880 51.6990 0.0000 28.3406 0.0000
# 2 37.4880 44.4748 18.7593 0.0000 1.7126 0.0000
# 3 51.6990 18.7593 117.3280 0.0000 19.9679 0.0000
# 4 0.0000 0.0000 0.0000 18.0223 0.0000 5.9735
# 5 28.3406 1.7126 19.9679 0.0000 34.3100 0.0000
# 6 0.0000 0.0000 0.0000 5.9735 0.0000 27.9528
#
#
#
# Elastic Compliance Matrix: (Units=1/GPa)
#
#
# Indices 1 2 3 4 5 6 
#
# 1 0.011470 -0.008354 -0.002416 0.000000 -0.007651 0.000000
# 2 -0.008354 0.030237 -0.002299 0.000000 0.006729 0.000000
# 3 -0.002416 -0.002299 0.010651 0.000000 -0.004088 0.000000
# 4 0.000000 0.000000 0.000000 0.059717 0.000000 -0.012761
# 5 -0.007651 0.006729 -0.004088 0.000000 0.037509 0.000000
# 6 0.000000 0.000000 0.000000 -0.012761 0.000000 0.038502
#
#
# Mechanical properties :
#
#
# Convention : Reuss Voigt Hill
#
# Bulk Modulus (GPa) = 38.13907 57.99803 48.06855
# Shear Modulus (GPa) = 22.42527 29.26657 25.84592
#
# Velocity S-wave (km/s) = 3.32848 3.80244 3.57333
# Velocity P-wave (km/s) = 5.79772 6.92321 6.38531
#
# Compressibility (1/GPa) = 0.02621983
#
# Stress axis : x y z
#
# Youngs Moduli (GPa) = 87.18627 33.07235 93.88754
#
# Poissons Ratio (x) = 0.27629 0.22684
# Poissons Ratio (y) = 0.72836 0.21581
# Poissons Ratio (z) = 0.21065 0.07602
#
# Static dielectric constant tensor:
#      x y z
#    x 3.846260 0.000000 0.423750 
#    y 0.000000 3.376130 0.000000 
#    z 0.423750 0.000000 3.718670 
# 
# 
# High freq. dielectric constant tensor:
#      x y z
#    x 1.797440 0.000000 0.027320 
#    y 0.000000 1.751160 0.000000 
#    z 0.027320 0.000000 1.783100 
# 
# From -- ./inp_files/107532.got.cif
#   From: 2010.06.25/outbox.cif.g09.slc.cpg/sg15_54_cif.got.tgz:107532.got - 2010.06.28 07:06:18.
