data_PCOD8134469
_publ_section_title
;
Structure prediction by ZEFSAII (Michael W. Deem and Ramdas Pophale) SiO2 
 PCOD8134469
Probable space group: C 2/C
;
_chemical_formula_sum "Si O2"
_cell_formula_units_Z 64
_cell_length_a 13.169552
_cell_length_b 28.485030
_cell_length_c 9.619661
_cell_angle_alpha 90.000000
_cell_angle_beta 91.184673
_cell_angle_gamma 90.000000
_cell_volume 3607.900981
_symmetry_space_group_name_H-M "C 2/C"
_symmetry_group_IT_number 15
_symmetry_cell_setting 'monoclinic'
loop_
_space_group_symop_operation_xyz
x,y,z
-x,y,1/2-z
-x,-y,-z
x,-y,1/2+z
1/2+x,1/2+y,z
1/2-x,1/2+y,1/2-z
1/2-x,1/2-y,-z
1/2+x,1/2-y,1/2+z
loop_
_atom_site_type_symbol
_atom_site_label
_atom_site_fract_x
_atom_site_fract_y
_atom_site_fract_z
Si Si1 0.928235 0.715157 0.870373
Si Si2 0.060886 0.942011 0.112729
Si Si3 0.645098 0.648577 0.542431
Si Si4 0.899003 0.681728 0.165472
Si Si5 0.801620 0.781903 0.216822
Si Si6 0.417338 0.454703 0.864272
Si Si7 0.295671 0.369558 0.763304
Si Si8 0.568843 0.685755 0.029142
O O1 0.816203 0.726637 0.812538
O O2 0.974839 0.763731 0.927153
O O3 0.000000 0.694361 0.750000
O O4 0.923583 0.680438 0.001576
O O5 0.150257 0.902914 0.113476
O O6 0.000000 0.938272 0.250000
O O7 0.117459 0.992424 0.094653
O O8 0.975160 0.931021 0.994184
O O9 0.691168 0.689985 0.638043
O O10 0.703564 0.644160 0.398820
O O11 0.525708 0.656372 0.523987
O O12 0.857528 0.731598 0.222327
O O13 0.816968 0.640861 0.185941
O O14 0.000000 0.668010 0.250000
O O15 0.849408 0.811933 0.093162
O O16 0.500000 0.460804 0.750000
O O17 0.323422 0.423571 0.803082
O O18 0.380396 0.337376 0.836049
#
# Coordination Sequence:
#
# PCOD8134469 Si02
#       8
#     8   8   8   8   8   8   8   8
#     4  11  22  38  57  77 111 152 195 236 284 332
#     4  10  20  32  54  83 120 147 178 226 282 339
#     4  12  23  32  57  87 115 152 189 230 272 350
#     4  11  24  40  56  79 112 153 194 247 278 323
#     4  11  22  38  53  81 115 149 195 233 283 326
#     4  10  19  36  54  82 117 148 181 224 281 350
#     4  12  21  36  56  78 114 152 194 223 283 340
#     4  11  19  37  53  78 110 154 188 221 276 336
#
# _framework density 17.738845999999999
#
# number of rings (size 3 to 8) (size 9 to 14) (size 15 to 20)
#    0.000    1.000    5.000    4.500    1.750    0.500 
#    0.000    0.000    0.000    0.000    0.000    1.750 
#    0.000    0.000    0.000    0.000    0.000    0.000 
#
# Total GULP energy -396728.788076 kJ/mol
# GULP energy per Si atom -12397.774627 kJ/mol
# Density = 1.769847 g / cm^3
# Si number density = 17.738846 Si / 1000 Ang^3
#
#
#
# Elastic Constant Matrix: (Units=GPa)
#
#
# Indices 1 2 3 4 5 6 
#
# 1 65.2380 29.6435 12.3173 0.0000 -1.2720 0.0000
# 2 29.6435 81.0290 27.5916 0.0000 -2.3331 0.0000
# 3 12.3173 27.5916 98.5878 0.0000 -4.9745 0.0000
# 4 0.0000 0.0000 0.0000 25.9731 0.0000 0.1390
# 5 -1.2720 -2.3331 -4.9745 0.0000 28.3036 0.0000
# 6 0.0000 0.0000 0.0000 0.1390 0.0000 19.3131
#
#
#
# Elastic Compliance Matrix: (Units=1/GPa)
#
#
# Indices 1 2 3 4 5 6 
#
# 1 0.018405 -0.006574 -0.000449 0.000000 0.000206 0.000000
# 2 -0.006574 0.015996 -0.003636 0.000000 0.000384 0.000000
# 3 -0.000449 -0.003636 0.011301 0.000000 0.001666 0.000000
# 4 0.000000 0.000000 0.000000 0.038503 0.000000 -0.000277
# 5 0.000206 0.000384 0.001666 0.000000 0.035665 0.000000
# 6 0.000000 0.000000 0.000000 -0.000277 0.000000 0.051780
#
#
# Mechanical properties :
#
#
# Convention : Reuss Voigt Hill
#
# Bulk Modulus (GPa) = 41.01278 42.66218 41.83748
# Shear Modulus (GPa) = 24.86384 26.40479 25.63432
#
# Velocity S-wave (km/s) = 3.74794 3.86233 3.80556
# Velocity P-wave (km/s) = 6.47301 6.63268 6.55333
#
# Compressibility (1/GPa) = 0.02438264
#
# Stress axis : x y z
#
# Youngs Moduli (GPa) = 54.33433 62.51756 88.48781
#
# Poissons Ratio (x) = 0.41101 0.03974
# Poissons Ratio (y) = 0.35721 0.32173
# Poissons Ratio (z) = 0.02440 0.22731
#
# Static dielectric constant tensor:
#      x y z
#    x 3.061120 0.000000 -0.009030 
#    y 0.000000 3.468550 0.000000 
#    z -0.009030 0.000000 3.480180 
# 
# 
# High freq. dielectric constant tensor:
#      x y z
#    x 1.651560 0.000000 -0.002100 
#    y 0.000000 1.673280 0.000000 
#    z -0.002100 0.000000 1.706720 
# 
# From -- ./inp_files/35664.got.cif
#   From: 2010.06.25/outbox.cif.g09.slc.cpg/sg15_18_cif.got.tgz:35664.got - 2010.06.28 07:06:18.
