data_PCOD8134053
_publ_section_title
;
Structure prediction by ZEFSAII (Michael W. Deem and Ramdas Pophale) SiO2 
 PCOD8134053
Probable space group: C 2/C
;
_chemical_formula_sum "Si O2"
_cell_formula_units_Z 60
_cell_length_a 22.789220
_cell_length_b 20.810776
_cell_length_c 19.633462
_cell_angle_alpha 90.000000
_cell_angle_beta 19.803938
_cell_angle_gamma 90.000000
_cell_volume 3154.723783
_symmetry_space_group_name_H-M "C 2/C"
_symmetry_group_IT_number 15
_symmetry_cell_setting 'monoclinic'
loop_
_space_group_symop_operation_xyz
x,y,z
-x,y,1/2-z
-x,-y,-z
x,-y,1/2+z
1/2+x,1/2+y,z
1/2-x,1/2+y,1/2-z
1/2-x,1/2-y,-z
1/2+x,1/2-y,1/2+z
loop_
_atom_site_type_symbol
_atom_site_label
_atom_site_fract_x
_atom_site_fract_y
_atom_site_fract_z
Si Si1 0.026188 0.318415 0.867367
Si Si2 0.876017 0.459288 0.725759
Si Si3 0.500000 0.149469 0.250000
Si Si4 0.863598 0.815094 0.203239
Si Si5 0.269946 0.002608 0.192117
Si Si6 0.055876 0.028357 0.117378
Si Si7 0.492610 0.406977 0.964418
Si Si8 0.123075 0.100197 0.680890
O O1 0.140514 0.382303 0.753534
O O2 0.011318 0.303758 0.802746
O O3 0.118541 0.261003 0.805918
O O4 0.832407 0.329686 0.106144
O O5 0.833060 0.484714 0.698723
O O6 0.073106 0.480071 0.528167
O O7 0.741344 0.492411 0.924892
O O8 0.327933 0.104806 0.439503
O O9 0.922177 0.850615 0.208669
O O10 0.979905 0.835515 0.010034
O O11 0.123991 0.947464 0.354431
O O12 0.189952 0.068355 0.250147
O O13 0.069779 0.084684 0.045711
O O14 0.000000 0.060253 0.250000
O O15 0.917711 0.972377 0.247945
O O16 0.000000 0.115787 0.750000
#
# Coordination Sequence:
#
# PCOD8134053 Si02
#       8
#     8   8   4   8   8   8   8   8
#     4  11  24  35  51  78 110 150 197 223 268 323
#     4  10  19  35  54  81 112 142 184 229 277 336
#     4  10  24  36  52  74 114 158 198 226 262 322
#     4  11  24  35  54  77 109 153 192 229 268 322
#     4   9  18  32  58  79 106 142 174 231 291 327
#     4  10  21  36  58  81 111 146 180 231 296 339
#     4  10  19  36  54  79 110 139 185 232 285 329
#     4  10  21  37  54  78 113 155 190 225 276 323
#
# _framework density 19.019098
#
# number of rings (size 3 to 8) (size 9 to 14) (size 15 to 20)
#    0.000    1.867    1.333    4.000    8.400    1.067 
#    0.000    0.000    0.000    0.000    0.000    0.933 
#    0.000    0.000    0.000    0.000    0.000    0.000 
#
# Total GULP energy -371832.929683 kJ/mol
# GULP energy per Si atom -12394.430989 kJ/mol
# Density = 1.897581 g / cm^3
# Si number density = 19.019098 Si / 1000 Ang^3
#
#
#
# Elastic Constant Matrix: (Units=GPa)
#
#
# Indices 1 2 3 4 5 6 
#
# 1 50.8884 26.1183 30.5309 0.0309 9.7042 -0.0186
# 2 26.1183 63.7382 28.5841 -0.0084 12.2524 0.0156
# 3 30.5309 28.5841 107.7010 -0.0810 3.8298 0.0331
# 4 0.0309 -0.0084 -0.0810 18.1643 0.0319 -0.0298
# 5 9.7042 12.2524 3.8298 0.0319 26.7177 0.0016
# 6 -0.0186 0.0156 0.0331 -0.0298 0.0016 19.6495
#
#
#
# Elastic Compliance Matrix: (Units=1/GPa)
#
#
# Indices 1 2 3 4 5 6 
#
# 1 0.028232 -0.007894 -0.005701 -0.000067 -0.005817 0.000043
# 2 -0.007894 0.021661 -0.003277 0.000020 -0.006597 -0.000019
# 3 -0.005701 -0.003277 0.011703 0.000057 0.001896 -0.000023
# 4 -0.000067 0.000020 0.000057 0.055054 -0.000059 0.000083
# 5 -0.005817 -0.006597 0.001896 -0.000059 0.042295 -0.000007
# 6 0.000043 -0.000019 -0.000023 0.000083 -0.000007 0.050892
#
#
# Mechanical properties :
#
#
# Convention : Reuss Voigt Hill
#
# Bulk Modulus (GPa) = 35.90229 43.64380 39.77304
# Shear Modulus (GPa) = 19.77332 22.04591 20.90961
#
# Velocity S-wave (km/s) = 3.22787 3.40832 3.31932
# Velocity P-wave (km/s) = 5.72801 6.20371 5.97060
#
# Compressibility (1/GPa) = 0.02785338
#
# Stress axis : x y z
#
# Youngs Moduli (GPa) = 35.42047 46.16496 85.44478
#
# Poissons Ratio (x) = 0.36442 0.48716
# Poissons Ratio (y) = 0.27960 0.27998
# Poissons Ratio (z) = 0.20195 0.15127
#
# Static dielectric constant tensor:
#      x y z
#    x 3.407040 -0.000080 -0.067080 
#    y -0.000080 3.165210 0.000120 
#    z -0.067080 0.000120 3.938690 
# 
# 
# High freq. dielectric constant tensor:
#      x y z
#    x 1.730520 -0.000010 -0.009320 
#    y -0.000010 1.693660 0.000020 
#    z -0.009320 0.000020 1.750450 
# 
# From -- ./inp_files/256117.got.cif
#   From: 2010.06.25/outbox.cif.g09.slc.cpg/sg15_129_cif.got.tgz:256117.got - 2010.06.28 07:06:18.
