data_PCOD8134415
_publ_section_title
;
Structure prediction by ZEFSAII (Michael W. Deem and Ramdas Pophale) SiO2 
 PCOD8134415
Probable space group: C 2/C
;
_chemical_formula_sum "Si O2"
_cell_formula_units_Z 56
_cell_length_a 18.606097
_cell_length_b 20.167257
_cell_length_c 12.627332
_cell_angle_alpha 90.000000
_cell_angle_beta 146.381227
_cell_angle_gamma 90.000000
_cell_volume 2623.374745
_symmetry_space_group_name_H-M "C 2/C"
_symmetry_group_IT_number 15
_symmetry_cell_setting 'monoclinic'
loop_
_space_group_symop_operation_xyz
x,y,z
-x,y,1/2-z
-x,-y,-z
x,-y,1/2+z
1/2+x,1/2+y,z
1/2-x,1/2+y,1/2-z
1/2-x,1/2-y,-z
1/2+x,1/2-y,1/2+z
loop_
_atom_site_type_symbol
_atom_site_label
_atom_site_fract_x
_atom_site_fract_y
_atom_site_fract_z
Si Si1 0.856996 0.600303 0.028713
Si Si2 0.524265 0.332186 0.394556
Si Si3 0.966664 0.303429 0.512355
Si Si4 0.519065 0.405320 0.588243
Si Si5 0.214678 0.615068 0.329996
Si Si6 0.295613 0.497238 0.296349
Si Si7 0.603204 0.267786 0.787655
O O1 0.765617 0.616270 0.017874
O O2 0.000000 0.585932 0.250000
O O3 0.853909 0.662860 0.944370
O O4 0.813825 0.537581 0.907654
O O5 0.500000 0.363386 0.250000
O O6 0.476512 0.256673 0.346645
O O7 0.457996 0.375927 0.404120
O O8 0.680790 0.337755 0.600314
O O9 0.914393 0.275118 0.338971
O O10 0.075925 0.357688 0.623938
O O11 0.394731 0.446452 0.479400
O O12 0.632726 0.456288 0.701118
O O13 0.574616 0.346244 0.730789
O O14 0.227769 0.539626 0.305377
O O15 0.500000 0.244384 0.750000
O O16 0.750000 0.250000 0.000000
#
# Coordination Sequence:
#
# PCOD8134415 Si02
#       7
#     8   8   8   8   8   8   8
#     4  10  22  40  60  93 126 166 218 269 342 403
#     4  10  19  35  63  93 123 163 210 265 345 389
#     4  10  24  40  62  90 133 165 214 281 338 405
#     4   9  22  41  63  95 130 172 224 285 335 405
#     4  10  22  39  61  92 128 168 219 274 331 415
#     4  10  21  40  65  90 131 173 225 278 337 403
#     4  11  27  46  70 103 136 181 234 284 348 418
#
# _framework density 21.346549
#
# number of rings (size 3 to 8) (size 9 to 14) (size 15 to 20)
#    0.000    2.000    0.000    2.143    8.000    6.857 
#    2.571    1.429    0.000    0.000    0.000    0.000 
#    0.000    0.000    0.000    0.000    0.000    0.000 
#
# Total GULP energy -347025.936302 kJ/mol
# GULP energy per Si atom -12393.783439 kJ/mol
# Density = 2.129796 g / cm^3
# Si number density = 21.346549 Si / 1000 Ang^3
#
#
#
# Elastic Constant Matrix: (Units=GPa)
#
#
# Indices 1 2 3 4 5 6 
#
# 1 99.6841 47.7535 21.2544 0.0000 -2.0342 0.0000
# 2 47.7535 137.5970 45.1279 0.0000 -1.6017 0.0000
# 3 21.2544 45.1279 69.5271 0.0000 -7.5705 0.0000
# 4 0.0000 0.0000 0.0000 33.4742 0.0000 4.1587
# 5 -2.0342 -1.6017 -7.5705 0.0000 29.0536 0.0000
# 6 0.0000 0.0000 0.0000 4.1587 0.0000 40.6238
#
#
#
# Elastic Compliance Matrix: (Units=1/GPa)
#
#
# Indices 1 2 3 4 5 6 
#
# 1 0.012118 -0.003810 -0.001196 0.000000 0.000327 0.000000
# 2 -0.003810 0.010464 -0.005757 0.000000 -0.001190 0.000000
# 3 -0.001196 -0.005757 0.018980 0.000000 0.004545 0.000000
# 4 0.000000 0.000000 0.000000 0.030259 0.000000 -0.003098
# 5 0.000327 -0.001190 0.004545 0.000000 0.035561 0.000000
# 6 0.000000 0.000000 0.000000 -0.003098 0.000000 0.024933
#
#
# Mechanical properties :
#
#
# Convention : Reuss Voigt Hill
#
# Bulk Modulus (GPa) = 49.90788 59.45331 54.68060
# Shear Modulus (GPa) = 31.14895 33.47516 32.31205
#
# Velocity S-wave (km/s) = 3.82410 3.96432 3.89484
# Velocity P-wave (km/s) = 6.55201 6.99045 6.77478
#
# Compressibility (1/GPa) = 0.02003691
#
# Stress axis : x y z
#
# Youngs Moduli (GPa) = 82.51918 95.56639 52.68703
#
# Poissons Ratio (x) = 0.36407 0.06303
# Poissons Ratio (y) = 0.31436 0.30331
# Poissons Ratio (z) = 0.09872 0.55016
#
# Static dielectric constant tensor:
#      x y z
#    x 4.140550 0.000000 0.040760 
#    y 0.000000 3.979900 0.000000 
#    z 0.040760 0.000000 3.606130 
# 
# 
# High freq. dielectric constant tensor:
#      x y z
#    x 1.846080 0.000000 0.004240 
#    y 0.000000 1.839990 0.000000 
#    z 0.004240 0.000000 1.825780 
# 
# From -- ./inp_files/169179.got.cif
#   From: 2010.06.25/outbox.cif.g09.slc.cpg/sg15_85_cif.got.tgz:169179.got - 2010.06.28 07:06:18.
