data_PCOD8134659
_publ_section_title
;
Structure prediction by ZEFSAII (Michael W. Deem and Ramdas Pophale) SiO2 
 PCOD8134659
Probable space group: C 2/C
;
_chemical_formula_sum "Si O2"
_cell_formula_units_Z 56
_cell_length_a 13.423864
_cell_length_b 18.355351
_cell_length_c 11.848736
_cell_angle_alpha 90.000000
_cell_angle_beta 64.817245
_cell_angle_gamma 90.000000
_cell_volume 2642.039600
_symmetry_space_group_name_H-M "C 2/C"
_symmetry_group_IT_number 15
_symmetry_cell_setting 'monoclinic'
loop_
_space_group_symop_operation_xyz
x,y,z
-x,y,1/2-z
-x,-y,-z
x,-y,1/2+z
1/2+x,1/2+y,z
1/2-x,1/2+y,1/2-z
1/2-x,1/2-y,-z
1/2+x,1/2-y,1/2+z
loop_
_atom_site_type_symbol
_atom_site_label
_atom_site_fract_x
_atom_site_fract_y
_atom_site_fract_z
Si Si1 0.512451 0.215629 0.376300
Si Si2 0.132129 0.095394 0.070015
Si Si3 0.000000 0.782520 0.750000
Si Si4 0.953273 0.542835 0.659758
Si Si5 0.863962 0.405281 0.571070
Si Si6 0.000000 0.025940 0.750000
Si Si7 0.869162 0.858790 0.177632
Si Si8 0.857516 0.684302 0.654420
O O1 0.500000 0.198008 0.250000
O O2 0.617930 0.168347 0.366410
O O3 0.530641 0.301669 0.388192
O O4 0.405491 0.192137 0.503513
O O5 0.238029 0.086538 0.098372
O O6 0.071108 0.169336 0.131342
O O7 0.164919 0.103277 0.923866
O O8 0.054887 0.025006 0.127298
O O9 0.082725 0.736518 0.786367
O O10 0.908875 0.476574 0.610619
O O11 0.857242 0.602177 0.706333
O O12 0.000000 0.506793 0.750000
O O13 0.055707 0.595354 0.574201
O O14 0.094252 0.076047 0.758348
O O15 0.775069 0.807134 0.280647
#
# Coordination Sequence:
#
# PCOD8134659 Si02
#       8
#     8   8   4   8   8   4   8   8
#     4  11  24  44  64 100 143 177 230 281 336 414
#     4  11  24  42  68  98 133 176 229 284 343 401
#     4  11  22  40  64 101 136 164 228 293 332 400
#     4  10  19  36  59  91 133 169 223 276 324 393
#     4  10  22  37  61  95 127 173 220 273 335 391
#     4  11  26  48  64  99 138 178 232 279 336 422
#     4  12  24  44  72  95 138 186 222 282 348 402
#     4  11  23  39  69 101 133 183 228 283 337 405
#
# _framework density 21.195746
#
# number of rings (size 3 to 8) (size 9 to 14) (size 15 to 20)
#    0.000    1.143    2.857    3.429    2.000    1.714 
#    0.000    2.857    0.000    0.000    0.000    0.000 
#    0.000    0.000    0.000    0.000    0.000    0.000 
#
# Total GULP energy -346985.449057 kJ/mol
# GULP energy per Si atom -12392.337466 kJ/mol
# Density = 2.114750 g / cm^3
# Si number density = 21.195746 Si / 1000 Ang^3
#
#
#
# Elastic Constant Matrix: (Units=GPa)
#
#
# Indices 1 2 3 4 5 6 
#
# 1 91.9921 22.1519 55.5398 0.0000 -1.5509 0.0000
# 2 22.1519 102.4194 35.0376 0.0000 -5.0313 0.0000
# 3 55.5398 35.0376 119.3215 0.0000 8.7407 0.0000
# 4 0.0000 0.0000 0.0000 77.5816 0.0000 -60.9305
# 5 -1.5509 -5.0313 8.7407 0.0000 30.4006 0.0000
# 6 0.0000 0.0000 0.0000 -60.9305 0.0000 88.6275
#
#
#
# Elastic Compliance Matrix: (Units=1/GPa)
#
#
# Indices 1 2 3 4 5 6 
#
# 1 0.015417 -0.000754 -0.007154 0.000000 0.002719 0.000000
# 2 -0.000754 0.011124 -0.003113 0.000000 0.002698 0.000000
# 3 -0.007154 -0.003113 0.012962 0.000000 -0.004607 0.000000
# 4 0.000000 0.000000 0.000000 0.028017 0.000000 0.019261
# 5 0.002719 0.002698 -0.004607 0.000000 0.034804 0.000000
# 6 0.000000 0.000000 0.000000 0.019261 0.000000 0.024525
#
#
# Mechanical properties :
#
#
# Convention : Reuss Voigt Hill
#
# Bulk Modulus (GPa) = 57.26776 59.91020 58.58898
# Shear Modulus (GPa) = 32.31810 52.72219 42.52015
#
# Velocity S-wave (km/s) = 3.90903 4.99279 4.48378
# Velocity P-wave (km/s) = 6.88849 7.84626 7.38292
#
# Compressibility (1/GPa) = 0.01746183
#
# Stress axis : x y z
#
# Youngs Moduli (GPa) = 64.86387 89.89256 77.14681
#
# Poissons Ratio (x) = 0.06774 0.55190
# Poissons Ratio (y) = 0.04888 0.24019
# Poissons Ratio (z) = 0.46403 0.27987
#
# Static dielectric constant tensor:
#      x y z
#    x 3.799820 0.000000 -0.088400 
#    y 0.000000 3.845030 0.000000 
#    z -0.088400 0.000000 3.785870 
# 
# 
# High freq. dielectric constant tensor:
#      x y z
#    x 1.828900 0.000000 0.000790 
#    y 0.000000 1.844960 0.000000 
#    z 0.000790 0.000000 1.829730 
# 
# From -- ./inp_files/98696.got.cif
#   From: 2010.06.25/outbox.cif.g09.slc.cpg/sg15_50_cif.got.tgz:98696.got - 2010.06.28 07:06:18.
