data_PCOD8134821
_publ_section_title
;
Structure prediction by ZEFSAII (Michael W. Deem and Ramdas Pophale) SiO2 
 PCOD8134821
Probable space group: C 2/C
;
_chemical_formula_sum "Si O2"
_cell_formula_units_Z 48
_cell_length_a 10.994514
_cell_length_b 15.380226
_cell_length_c 15.339639
_cell_angle_alpha 90.000000
_cell_angle_beta 80.734670
_cell_angle_gamma 90.000000
_cell_volume 2560.062137
_symmetry_space_group_name_H-M "C 2/C"
_symmetry_group_IT_number 15
_symmetry_cell_setting 'monoclinic'
loop_
_space_group_symop_operation_xyz
x,y,z
-x,y,1/2-z
-x,-y,-z
x,-y,1/2+z
1/2+x,1/2+y,z
1/2-x,1/2+y,1/2-z
1/2-x,1/2-y,-z
1/2+x,1/2-y,1/2+z
loop_
_atom_site_type_symbol
_atom_site_label
_atom_site_fract_x
_atom_site_fract_y
_atom_site_fract_z
Si Si1 0.322905 0.494315 0.445253
Si Si2 0.443296 0.755103 0.468214
Si Si3 0.791402 0.317506 0.067888
Si Si4 0.072688 0.094801 0.912883
Si Si5 0.747288 0.833670 0.882921
Si Si6 0.138893 0.217547 0.757313
O O1 0.226958 0.415450 0.464770
O O2 0.332271 0.539017 0.539748
O O3 0.457178 0.463165 0.396604
O O4 0.276602 0.563661 0.378550
O O5 0.565663 0.805090 0.424184
O O6 0.482417 0.673716 0.523716
O O7 0.357046 0.820078 0.532058
O O8 0.369916 0.721401 0.392061
O O9 0.710661 0.306261 0.162803
O O10 0.750000 0.250000 0.000000
O O11 0.143651 0.133948 0.821255
O O12 0.700823 0.802243 0.794118
O O13 0.000000 0.242963 0.750000
#
# Coordination Sequence:
#
# PCOD8134821 Si02
#       6
#     8   8   8   8   8   8
#     4  10  19  36  63  91 114 146 208 247 296 347
#     4   9  18  37  61  83 120 157 193 236 307 366
#     4  12  22  37  59  92 121 159 197 245 297 360
#     4   9  18  38  63  87 114 158 204 246 289 358
#     4   9  20  38  61  86 113 158 199 245 297 357
#     4  11  21  40  62  82 120 163 199 241 303 357
#
# _framework density 18.749545000000001
#
# number of rings (size 3 to 8) (size 9 to 14) (size 15 to 20)
#    0.000    2.000    3.333    2.000    0.000    1.333 
#    3.000    3.333    3.667    0.000    0.000    0.000 
#    0.000    0.000    0.000    0.000    0.000    0.000 
#
# Total GULP energy -297622.203527 kJ/mol
# GULP energy per Si atom -12400.925147 kJ/mol
# Density = 1.870687 g / cm^3
# Si number density = 18.749545 Si / 1000 Ang^3
#
#
#
# Elastic Constant Matrix: (Units=GPa)
#
#
# Indices 1 2 3 4 5 6 
#
# 1 126.0249 61.7926 43.4813 0.0000 1.4755 0.0000
# 2 61.7926 139.6366 48.3634 0.0000 10.1557 0.0000
# 3 43.4813 48.3634 102.4750 0.0000 3.3478 0.0000
# 4 0.0000 0.0000 0.0000 24.9252 0.0000 6.4410
# 5 1.4755 10.1557 3.3478 0.0000 26.8210 0.0000
# 6 0.0000 0.0000 0.0000 6.4410 0.0000 41.1166
#
#
#
# Elastic Compliance Matrix: (Units=1/GPa)
#
#
# Indices 1 2 3 4 5 6 
#
# 1 0.010793 -0.003904 -0.002777 0.000000 0.001231 0.000000
# 2 -0.003904 0.010179 -0.003041 0.000000 -0.003260 0.000000
# 3 -0.002777 -0.003041 0.012380 0.000000 -0.000241 0.000000
# 4 0.000000 0.000000 0.000000 0.041813 0.000000 -0.006550
# 5 0.001231 -0.003260 -0.000241 0.000000 0.038481 0.000000
# 6 0.000000 0.000000 0.000000 -0.006550 0.000000 0.025347
#
#
# Mechanical properties :
#
#
# Convention : Reuss Voigt Hill
#
# Bulk Modulus (GPa) = 71.90288 75.04567 73.47428
# Shear Modulus (GPa) = 30.66099 32.87251 31.76675
#
# Velocity S-wave (km/s) = 4.04826 4.19172 4.12061
# Velocity P-wave (km/s) = 7.76425 7.97117 7.86839
#
# Compressibility (1/GPa) = 0.01390765
#
# Stress axis : x y z
#
# Youngs Moduli (GPa) = 92.65402 98.23780 80.77417
#
# Poissons Ratio (x) = 0.38349 0.22434
# Poissons Ratio (y) = 0.36169 0.24566
# Poissons Ratio (z) = 0.25734 0.29877
#
# Static dielectric constant tensor:
#      x y z
#    x 3.598930 0.000000 0.197490 
#    y 0.000000 3.620360 0.000000 
#    z 0.197490 0.000000 3.252190 
# 
# 
# High freq. dielectric constant tensor:
#      x y z
#    x 1.732920 0.000000 0.015420 
#    y 0.000000 1.726740 0.000000 
#    z 0.015420 0.000000 1.704840 
# 
# From -- ./inp_files/143522.got.cif
#   From: 2010.06.25/outbox.cif.g09.slc.cpg/sg15_72_cif.got.tgz:143522.got - 2010.06.28 07:06:18.
