data_PCOD8134849
_publ_section_title
;
Structure prediction by ZEFSAII (Michael W. Deem and Ramdas Pophale) SiO2 
 PCOD8134849
Probable space group: C 2/C
;
_chemical_formula_sum "Si O2"
_cell_formula_units_Z 40
_cell_length_a 10.159939
_cell_length_b 18.970761
_cell_length_c 14.184561
_cell_angle_alpha 90.000000
_cell_angle_beta 136.345050
_cell_angle_gamma 90.000000
_cell_volume 1887.288424
_symmetry_space_group_name_H-M "C 2/C"
_symmetry_group_IT_number 15
_symmetry_cell_setting 'monoclinic'
loop_
_space_group_symop_operation_xyz
x,y,z
-x,y,1/2-z
-x,-y,-z
x,-y,1/2+z
1/2+x,1/2+y,z
1/2-x,1/2+y,1/2-z
1/2-x,1/2-y,-z
1/2+x,1/2-y,1/2+z
loop_
_atom_site_type_symbol
_atom_site_label
_atom_site_fract_x
_atom_site_fract_y
_atom_site_fract_z
Si Si1 0.006308 0.254446 0.464661
Si Si2 0.169525 0.350549 0.407229
Si Si3 0.536220 0.557901 0.660858
Si Si4 0.786646 0.495132 0.631518
Si Si5 0.095537 0.778035 0.204027
O O1 0.117005 0.323490 0.484478
O O2 0.130668 0.183910 0.517867
O O3 0.974155 0.260991 0.560070
O O4 0.807065 0.245953 0.308580
O O5 0.196871 0.433683 0.421128
O O6 0.000000 0.326011 0.250000
O O7 0.500000 0.530692 0.750000
O O8 0.694602 0.510346 0.687632
O O9 0.342595 0.556882 0.498209
O O10 0.611521 0.637503 0.703289
O O11 0.000000 0.462520 0.750000
O O12 0.000000 0.754132 0.250000
#
# Coordination Sequence:
#
# PCOD8134849 Si02
#       5
#     8   8   8   8   8
#     4  11  20  37  60  90 119 156 196 249 308 349
#     4  10  19  36  64  91 122 147 195 261 306 349
#     4  10  22  41  62  87 128 161 202 252 302 360
#     4  10  20  41  67  89 118 163 207 252 301 358
#     4  11  22  39  59  85 126 167 196 242 301 370
#
# _framework density 21.194429
#
# number of rings (size 3 to 8) (size 9 to 14) (size 15 to 20)
#    0.000    1.600    4.000    1.800    0.000    0.800 
#    3.600    5.000    0.000    0.000    0.000    0.000 
#    0.000    0.000    0.000    0.000    0.000    0.000 
#
# Total GULP energy -247923.006369 kJ/mol
# GULP energy per Si atom -12396.150318 kJ/mol
# Density = 2.114619 g / cm^3
# Si number density = 21.194429 Si / 1000 Ang^3
#
#
#
# Elastic Constant Matrix: (Units=GPa)
#
#
# Indices 1 2 3 4 5 6 
#
# 1 107.6253 4.6493 42.1813 -0.0003 -11.3366 -0.0001
# 2 4.6493 26.3791 20.6495 0.0001 1.2034 0.0000
# 3 42.1813 20.6495 104.4895 -0.0004 8.5891 -0.0001
# 4 -0.0003 0.0001 -0.0004 28.3842 0.0000 2.9790
# 5 -11.3366 1.2034 8.5891 0.0000 58.5256 0.0000
# 6 -0.0001 0.0000 -0.0001 2.9790 0.0000 19.3223
#
#
#
# Elastic Compliance Matrix: (Units=1/GPa)
#
#
# Indices 1 2 3 4 5 6 
#
# 1 0.011607 0.001985 -0.005324 0.000000 0.002989 0.000000
# 2 0.001985 0.045194 -0.009806 0.000000 0.000894 0.000000
# 3 -0.005324 -0.009806 0.013893 0.000000 -0.002869 0.000000
# 4 0.000000 0.000000 0.000000 0.035810 0.000000 -0.005521
# 5 0.002989 0.000894 -0.002869 0.000000 0.018068 0.000000
# 6 0.000000 0.000000 0.000000 -0.005521 0.000000 0.052605
#
#
# Mechanical properties :
#
#
# Convention : Reuss Voigt Hill
#
# Bulk Modulus (GPa) = 22.51993 41.49489 32.00741
# Shear Modulus (GPa) = 22.90750 32.64735 27.77742
#
# Velocity S-wave (km/s) = 3.29116 3.92902 3.62415
# Velocity P-wave (km/s) = 5.00907 6.34063 5.71377
#
# Compressibility (1/GPa) = 0.04440512
#
# Stress axis : x y z
#
# Youngs Moduli (GPa) = 86.15457 22.12660 71.97763
#
# Poissons Ratio (x) = -0.04393 0.38318
# Poissons Ratio (y) = -0.17104 0.70584
# Poissons Ratio (z) = 0.45866 0.21698
#
# Static dielectric constant tensor:
#      x y z
#    x 4.303910 0.000000 -0.106800 
#    y 0.000000 3.402050 0.000000 
#    z -0.106800 0.000000 4.179970 
# 
# 
# High freq. dielectric constant tensor:
#      x y z
#    x 1.852210 0.000000 0.002290 
#    y 0.000000 1.793640 0.000000 
#    z 0.002290 0.000000 1.830690 
# 
# From -- ./inp_files/146896.got.cif
#   From: 2010.06.25/outbox.cif.g09.slc.cpg/sg15_74_cif.got.tgz:146896.got - 2010.06.28 07:06:18.
