data_PCOD8134480
_publ_section_title
;
Structure prediction by ZEFSAII (Michael W. Deem and Ramdas Pophale) SiO2 
 PCOD8134480
Probable space group: C 2/C
;
_chemical_formula_sum "Si O2"
_cell_formula_units_Z 56
_cell_length_a 14.489128
_cell_length_b 8.590783
_cell_length_c 24.892141
_cell_angle_alpha 90.000000
_cell_angle_beta 113.565404
_cell_angle_gamma 90.000000
_cell_volume 2840.005233
_symmetry_space_group_name_H-M "C 2/C"
_symmetry_group_IT_number 15
_symmetry_cell_setting 'monoclinic'
loop_
_space_group_symop_operation_xyz
x,y,z
-x,y,1/2-z
-x,-y,-z
x,-y,1/2+z
1/2+x,1/2+y,z
1/2-x,1/2+y,1/2-z
1/2-x,1/2-y,-z
1/2+x,1/2-y,1/2+z
loop_
_atom_site_type_symbol
_atom_site_label
_atom_site_fract_x
_atom_site_fract_y
_atom_site_fract_z
Si Si1 0.315993 0.399880 0.828331
Si Si2 0.717965 0.482663 0.396852
Si Si3 0.269760 0.052635 0.790334
Si Si4 0.990831 0.517851 0.810543
Si Si5 0.682847 0.121892 0.395327
Si Si6 0.464645 0.696310 0.112128
Si Si7 0.172774 0.612146 0.986259
O O1 0.275863 0.236738 0.796876
O O2 0.306986 0.518675 0.776354
O O3 0.247886 0.455893 0.862282
O O4 0.430661 0.389660 0.876207
O O5 0.728628 0.519223 0.336344
O O6 0.710860 0.301044 0.408541
O O7 0.619188 0.567336 0.396265
O O8 0.818803 0.545013 0.451100
O O9 0.378437 0.978171 0.803567
O O10 0.064433 0.392324 0.854913
O O11 0.022820 0.694135 0.832863
O O12 0.000000 0.498089 0.750000
O O13 0.707122 0.026840 0.454742
O O14 0.435284 0.812289 0.055317
O O15 0.250000 0.750000 0.000000
#
# Coordination Sequence:
#
# PCOD8134480 Si02
#       7
#     8   8   8   8   8   8   8
#     4  10  21  37  54  85 115 147 186 231 284 336
#     4  10  21  37  55  86 112 144 188 238 285 323
#     4  10  22  34  55  81 115 145 186 227 281 340
#     4  10  19  36  55  78 109 153 185 218 279 342
#     4  10  20  37  58  83 115 145 186 239 284 326
#     4   9  21  36  58  82 110 146 193 225 282 338
#     4   9  19  39  61  79 109 153 193 231 276 343
#
# _framework density 19.718274999999998
#
# number of rings (size 3 to 8) (size 9 to 14) (size 15 to 20)
#    0.000    2.286    1.429    0.429    4.000    2.286 
#    0.000   15.714    0.000    0.000    0.000    0.000 
#    0.000    0.000    0.000    0.000    0.000    0.000 
#
# Total GULP energy -347104.080365 kJ/mol
# GULP energy per Si atom -12396.574299 kJ/mol
# Density = 1.967339 g / cm^3
# Si number density = 19.718275 Si / 1000 Ang^3
#
#
#
# Elastic Constant Matrix: (Units=GPa)
#
#
# Indices 1 2 3 4 5 6 
#
# 1 73.8183 14.2372 18.3276 0.0000 12.5076 0.0000
# 2 14.2372 52.2448 22.0332 0.0000 4.7018 0.0000
# 3 18.3276 22.0332 88.5867 0.0000 9.1659 0.0000
# 4 0.0000 0.0000 0.0000 32.2468 0.0000 2.2811
# 5 12.5076 4.7018 9.1659 0.0000 26.7107 0.0000
# 6 0.0000 0.0000 0.0000 2.2811 0.0000 21.4313
#
#
#
# Elastic Compliance Matrix: (Units=1/GPa)
#
#
# Indices 1 2 3 4 5 6 
#
# 1 0.015616 -0.002913 -0.001869 0.000000 -0.006158 0.000000
# 2 -0.002913 0.022032 -0.004787 0.000000 -0.000871 0.000000
# 3 -0.001869 -0.004787 0.013155 0.000000 -0.002796 0.000000
# 4 0.000000 0.000000 0.000000 0.031246 0.000000 -0.003326
# 5 -0.006158 -0.000871 -0.002796 0.000000 0.041435 0.000000
# 6 0.000000 0.000000 0.000000 -0.003326 0.000000 0.047015
#
#
# Mechanical properties :
#
#
# Convention : Reuss Voigt Hill
#
# Bulk Modulus (GPa) = 31.58083 35.98287 33.78185
# Shear Modulus (GPa) = 24.97610 26.74787 25.86198
#
# Velocity S-wave (km/s) = 3.56286 3.68707 3.62550
# Velocity P-wave (km/s) = 5.74248 6.03441 5.89025
#
# Compressibility (1/GPa) = 0.03166477
#
# Stress axis : x y z
#
# Youngs Moduli (GPa) = 64.03635 45.38913 76.01683
#
# Poissons Ratio (x) = 0.13222 0.14208
# Poissons Ratio (y) = 0.18654 0.36388
# Poissons Ratio (z) = 0.11969 0.21727
#
# Static dielectric constant tensor:
#      x y z
#    x 3.585020 0.000000 0.115150 
#    y 0.000000 3.518190 0.000000 
#    z 0.115150 0.000000 4.047460 
# 
# 
# High freq. dielectric constant tensor:
#      x y z
#    x 1.750510 0.000000 0.008000 
#    y 0.000000 1.765160 0.000000 
#    z 0.008000 0.000000 1.781560 
# 
# From -- ./inp_files/272647.got.cif
#   From: 2010.06.25/outbox.cif.g09.slc.cpg/sg15_137_cif.got.tgz:272647.got - 2010.06.28 07:06:18.
