data_PCOD8134501
_publ_section_title
;
Structure prediction by ZEFSAII (Michael W. Deem and Ramdas Pophale) SiO2 
 PCOD8134501
Probable space group: C 2/C
;
_chemical_formula_sum "Si O2"
_cell_formula_units_Z 64
_cell_length_a 17.763728
_cell_length_b 11.805898
_cell_length_c 17.396075
_cell_angle_alpha 90.000000
_cell_angle_beta 108.243960
_cell_angle_gamma 90.000000
_cell_volume 3464.858834
_symmetry_space_group_name_H-M "C 2/C"
_symmetry_group_IT_number 15
_symmetry_cell_setting 'monoclinic'
loop_
_space_group_symop_operation_xyz
x,y,z
-x,y,1/2-z
-x,-y,-z
x,-y,1/2+z
1/2+x,1/2+y,z
1/2-x,1/2+y,1/2-z
1/2-x,1/2-y,-z
1/2+x,1/2-y,1/2+z
loop_
_atom_site_type_symbol
_atom_site_label
_atom_site_fract_x
_atom_site_fract_y
_atom_site_fract_z
Si Si1 0.141533 0.060378 0.928440
Si Si2 0.878002 0.529668 0.490476
Si Si3 0.511361 0.820964 0.973568
Si Si4 0.266854 0.904528 0.345760
Si Si5 0.855605 0.182796 0.416913
Si Si6 0.678848 0.448111 0.169973
Si Si7 0.263799 0.625764 0.972395
Si Si8 0.983287 0.843664 0.332503
O O1 0.184623 0.098786 0.865176
O O2 0.047341 0.064804 0.884187
O O3 0.171071 0.144652 0.006064
O O4 0.164346 0.931640 0.957131
O O5 0.932767 0.425399 0.531730
O O6 0.827934 0.496245 0.399030
O O7 0.817743 0.555517 0.541045
O O8 0.931090 0.639701 0.489859
O O9 0.490501 0.769084 0.884865
O O10 0.554994 0.732806 0.045448
O O11 0.300475 0.777648 0.361522
O O12 0.250500 0.945012 0.253816
O O13 0.849378 0.074566 0.359715
O O14 0.711491 0.375774 0.108594
O O15 0.604087 0.390300 0.185193
O O16 0.250000 0.750000 0.000000
O O17 0.000000 0.811722 0.250000
#
# Coordination Sequence:
#
# PCOD8134501 Si02
#       8
#     8   8   8   8   8   8   8   8
#     4   9  19  36  57  80 107 143 189 229 266 330
#     4   9  19  38  60  83 110 147 189 227 272 338
#     4   9  19  37  62  82 105 146 192 228 273 326
#     4  10  19  36  56  81 115 141 180 233 283 321
#     4   9  20  35  58  79 109 146 184 226 274 325
#     4  11  23  35  53  87 113 144 186 229 280 333
#     4  10  21  36  56  83 112 151 185 218 275 339
#     4  11  21  36  53  82 112 143 186 235 282 315
#
# _framework density 18.471171999999999
#
# number of rings (size 3 to 8) (size 9 to 14) (size 15 to 20)
#    0.000    2.250    1.250    1.125    0.000   11.500 
#    2.250    0.000    0.000    0.000    0.000    0.000 
#    0.000    0.000    0.000    0.000    0.000    0.000 
#
# Total GULP energy -396711.566548 kJ/mol
# GULP energy per Si atom -12397.236455 kJ/mol
# Density = 1.842913 g / cm^3
# Si number density = 18.471172 Si / 1000 Ang^3
#
#
#
# Elastic Constant Matrix: (Units=GPa)
#
#
# Indices 1 2 3 4 5 6 
#
# 1 80.2068 31.0638 31.5677 0.0000 -2.3979 0.0000
# 2 31.0638 99.5690 46.2320 0.0000 5.8279 0.0000
# 3 31.5677 46.2320 106.4874 0.0000 2.5566 0.0000
# 4 0.0000 0.0000 0.0000 20.0988 0.0000 1.3634
# 5 -2.3979 5.8279 2.5566 0.0000 26.7853 0.0000
# 6 0.0000 0.0000 0.0000 1.3634 0.0000 30.6312
#
#
#
# Elastic Compliance Matrix: (Units=1/GPa)
#
#
# Indices 1 2 3 4 5 6 
#
# 1 0.015061 -0.003430 -0.003033 0.000000 0.002384 0.000000
# 2 -0.003430 0.013493 -0.004774 0.000000 -0.002787 0.000000
# 3 -0.003033 -0.004774 0.012373 0.000000 -0.000414 0.000000
# 4 0.000000 0.000000 0.000000 0.049905 0.000000 -0.002221
# 5 0.002384 -0.002787 -0.000414 0.000000 0.038193 0.000000
# 6 0.000000 0.000000 0.000000 -0.002221 0.000000 0.032745
#
#
# Mechanical properties :
#
#
# Convention : Reuss Voigt Hill
#
# Bulk Modulus (GPa) = 54.19367 55.99893 55.09630
# Shear Modulus (GPa) = 26.26097 27.32971 26.79534
#
# Velocity S-wave (km/s) = 3.77467 3.85071 3.81288
# Velocity P-wave (km/s) = 6.95707 7.08191 7.01977
#
# Compressibility (1/GPa) = 0.01845234
#
# Stress axis : x y z
#
# Youngs Moduli (GPa) = 66.39578 74.10984 80.82348
#
# Poissons Ratio (x) = 0.25421 0.24512
# Poissons Ratio (y) = 0.22775 0.38589
# Poissons Ratio (z) = 0.20137 0.35384
#
# Static dielectric constant tensor:
#      x y z
#    x 3.584640 0.000000 0.055950 
#    y 0.000000 3.408130 0.000000 
#    z 0.055950 0.000000 3.290400 
# 
# 
# High freq. dielectric constant tensor:
#      x y z
#    x 1.724450 0.000000 0.003830 
#    y 0.000000 1.715680 0.000000 
#    z 0.003830 0.000000 1.704900 
# 
# From -- ./inp_files/161346.got.cif
#   From: 2010.06.25/outbox.cif.g09.slc.cpg/sg15_81_cif.got.tgz:161346.got - 2010.06.28 07:06:18.
