data_PCOD8134841
_publ_section_title
;
Structure prediction by ZEFSAII (Michael W. Deem and Ramdas Pophale) SiO2 
 PCOD8134841
Probable space group: C 2/C
;
_chemical_formula_sum "Si O2"
_cell_formula_units_Z 60
_cell_length_a 12.079324
_cell_length_b 18.128390
_cell_length_c 14.972368
_cell_angle_alpha 90.000000
_cell_angle_beta 70.895955
_cell_angle_gamma 90.000000
_cell_volume 3098.061751
_symmetry_space_group_name_H-M "C 2/C"
_symmetry_group_IT_number 15
_symmetry_cell_setting 'monoclinic'
loop_
_space_group_symop_operation_xyz
x,y,z
-x,y,1/2-z
-x,-y,-z
x,-y,1/2+z
1/2+x,1/2+y,z
1/2-x,1/2+y,1/2-z
1/2-x,1/2-y,-z
1/2+x,1/2-y,1/2+z
loop_
_atom_site_type_symbol
_atom_site_label
_atom_site_fract_x
_atom_site_fract_y
_atom_site_fract_z
Si Si1 0.309639 0.496153 0.058138
Si Si2 0.000000 0.349571 0.250000
Si Si3 0.422462 0.265413 0.906102
Si Si4 0.633514 0.021502 0.446158
Si Si5 0.190344 0.687665 0.396133
Si Si6 0.512487 0.618041 0.498621
Si Si7 0.723869 0.069718 0.755685
Si Si8 0.087398 0.193130 0.805047
O O1 0.404477 0.435592 0.004202
O O2 0.278619 0.488330 0.171058
O O3 0.198521 0.486692 0.023416
O O4 0.363558 0.577063 0.030427
O O5 0.009986 0.299866 0.159953
O O6 0.112443 0.399944 0.232309
O O7 0.331747 0.307352 0.863888
O O8 0.356024 0.231335 0.006913
O O9 0.518206 0.323629 0.916080
O O10 0.642955 0.104511 0.406664
O O11 0.500000 0.000000 0.500000
O O12 0.690759 0.968344 0.357318
O O13 0.148286 0.730638 0.318938
O O14 0.492252 0.657940 0.597269
O O15 0.814596 0.135094 0.753146
O O16 0.000000 0.214551 0.750000
#
# Coordination Sequence:
#
# PCOD8134841 Si02
#       8
#     8   4   8   8   8   8   8   8
#     4  10  20  39  59  87 126 152 199 249 305 358
#     4  12  22  38  60  90 114 154 208 254 288 364
#     4  10  19  36  64  85 115 148 204 253 296 348
#     4  12  24  39  61  88 126 166 200 244 307 374
#     4  10  20  39  60  85 116 162 199 241 302 358
#     4   9  19  36  63  90 115 155 196 256 304 348
#     4  11  23  38  61  87 120 161 203 250 308 363
#     4  10  20  39  62  87 120 161 202 247 305 365
#
# _framework density 19.366948000000001
#
# number of rings (size 3 to 8) (size 9 to 14) (size 15 to 20)
#    0.000    1.600    2.667    3.200    0.000    1.067 
#    3.600    0.000    0.000    4.800    0.000    0.000 
#    0.000    0.000    0.000    0.000    0.000    0.000 
#
# Total GULP energy -372037.583153 kJ/mol
# GULP energy per Si atom -12401.252772 kJ/mol
# Density = 1.932287 g / cm^3
# Si number density = 19.366948 Si / 1000 Ang^3
#
#
#
# Elastic Constant Matrix: (Units=GPa)
#
#
# Indices 1 2 3 4 5 6 
#
# 1 103.8935 43.2517 32.8972 0.0000 13.7613 0.0000
# 2 43.2517 110.1173 28.8321 0.0000 9.1226 0.0000
# 3 32.8972 28.8321 65.7372 0.0000 11.9971 0.0000
# 4 0.0000 0.0000 0.0000 82.1051 0.0000 46.6857
# 5 13.7613 9.1226 11.9971 0.0000 29.6269 0.0000
# 6 0.0000 0.0000 0.0000 46.6857 0.0000 63.6710
#
#
#
# Elastic Compliance Matrix: (Units=1/GPa)
#
#
# Indices 1 2 3 4 5 6 
#
# 1 0.012936 -0.003701 -0.004278 0.000000 -0.003137 0.000000
# 2 -0.003701 0.011376 -0.003036 0.000000 -0.000554 0.000000
# 3 -0.004278 -0.003036 0.019600 0.000000 -0.005015 0.000000
# 4 0.000000 0.000000 0.000000 0.020888 0.000000 -0.015316
# 5 -0.003137 -0.000554 -0.005015 0.000000 0.037411 0.000000
# 6 0.000000 0.000000 0.000000 -0.015316 0.000000 0.026936
#
#
# Mechanical properties :
#
#
# Convention : Reuss Voigt Hill
#
# Bulk Modulus (GPa) = 45.70085 54.41222 50.05653
# Shear Modulus (GPa) = 31.55148 46.73175 39.14162
#
# Velocity S-wave (km/s) = 4.04064 4.91752 4.50049
# Velocity P-wave (km/s) = 6.73926 7.77169 7.27381
#
# Compressibility (1/GPa) = 0.02188143
#
# Stress axis : x y z
#
# Youngs Moduli (GPa) = 77.30319 87.90610 51.02114
#
# Poissons Ratio (x) = 0.32535 0.21827
# Poissons Ratio (y) = 0.28610 0.15490
# Poissons Ratio (z) = 0.33070 0.26689
#
# Static dielectric constant tensor:
#      x y z
#    x 3.526510 0.000000 -0.007410 
#    y 0.000000 3.679950 0.000000 
#    z -0.007410 0.000000 3.456270 
# 
# 
# High freq. dielectric constant tensor:
#      x y z
#    x 1.753540 0.000000 0.002900 
#    y 0.000000 1.755770 0.000000 
#    z 0.002900 0.000000 1.749940 
# 
# From -- ./inp_files/146049.got.cif
#   From: 2010.06.25/outbox.cif.g09.slc.cpg/sg15_74_cif.got.tgz:146049.got - 2010.06.28 07:06:18.
