data_PCOD8134041
_publ_section_title
;
Structure prediction by ZEFSAII (Michael W. Deem and Ramdas Pophale) SiO2 
 PCOD8134041
Probable space group: C 2/C
;
_chemical_formula_sum "Si O2"
_cell_formula_units_Z 44
_cell_length_a 21.173837
_cell_length_b 11.402200
_cell_length_c 18.192027
_cell_angle_alpha 90.000000
_cell_angle_beta 30.773437
_cell_angle_gamma 90.000000
_cell_volume 2247.179140
_symmetry_space_group_name_H-M "C 2/C"
_symmetry_group_IT_number 15
_symmetry_cell_setting 'monoclinic'
loop_
_space_group_symop_operation_xyz
x,y,z
-x,y,1/2-z
-x,-y,-z
x,-y,1/2+z
1/2+x,1/2+y,z
1/2-x,1/2+y,1/2-z
1/2-x,1/2-y,-z
1/2+x,1/2-y,1/2+z
loop_
_atom_site_type_symbol
_atom_site_label
_atom_site_fract_x
_atom_site_fract_y
_atom_site_fract_z
Si Si1 0.109196 0.407118 0.762822
Si Si2 0.890802 0.092881 0.981242
Si Si3 0.000000 0.249986 0.750000
Si Si4 0.500016 0.750029 0.508385
Si Si5 0.388958 0.324410 0.979006
Si Si6 0.888926 0.324422 0.243126
O O1 0.249991 0.396203 0.645367
O O2 0.073910 0.540921 0.781520
O O3 0.086939 0.331453 0.712277
O O4 0.031363 0.360985 0.909554
O O5 0.913088 0.168519 0.886146
O O6 0.968590 0.139044 0.972357
O O7 0.926114 0.959077 0.929371
O O8 0.388238 0.707726 0.566971
O O9 0.611783 0.792354 0.343420
O O10 0.250023 0.297422 0.087275
O O11 0.500026 0.250014 0.828290
#
# Coordination Sequence:
#
# PCOD8134041 Si02
#       6
#     8   8   4   8   8   8
#     4  10  19  35  54  77 108 140 180 221 261 316
#     4  10  19  35  54  77 108 140 180 221 261 316
#     4  10  22  36  54  74 100 142 186 224 266 306
#     4   9  18  31  54  83 106 139 166 214 272 315
#     4   9  19  33  53  82 112 140 173 215 267 321
#     4   9  19  33  53  82 112 140 173 215 267 321
#
# _framework density 19.580103000000001
#
# number of rings (size 3 to 8) (size 9 to 14) (size 15 to 20)
#    1.091    1.455    0.000    2.727    0.000    0.000 
#    0.000   10.000    0.000    4.364    0.000    0.000 
#    0.000    0.000    0.000    0.000    0.000    0.000 
#
# Total GULP energy -272576.529259 kJ/mol
# GULP energy per Si atom -12389.842239 kJ/mol
# Density = 1.953554 g / cm^3
# Si number density = 19.580103 Si / 1000 Ang^3
#
#
#
# Elastic Constant Matrix: (Units=GPa)
#
#
# Indices 1 2 3 4 5 6 
#
# 1 34.0053 29.2352 13.7915 0.0000 1.4932 0.0000
# 2 29.2352 138.0452 49.5315 0.0000 -16.9445 0.0000
# 3 13.7915 49.5315 62.8134 0.0000 -25.5023 0.0000
# 4 0.0000 0.0000 0.0000 25.3313 0.0000 -7.8398
# 5 1.4932 -16.9445 -25.5023 0.0000 31.6492 0.0000
# 6 0.0000 0.0000 0.0000 -7.8398 0.0000 15.9366
#
#
#
# Elastic Compliance Matrix: (Units=1/GPa)
#
#
# Indices 1 2 3 4 5 6 
#
# 1 0.039101 -0.006868 -0.008042 0.000000 -0.012002 0.000000
# 2 -0.006868 0.011357 -0.007204 0.000000 0.000599 0.000000
# 3 -0.008042 -0.007204 0.032629 0.000000 0.022815 0.000000
# 4 0.000000 0.000000 0.000000 0.046567 0.000000 0.022908
# 5 -0.012002 0.000599 0.022815 0.000000 0.050867 0.000000
# 6 0.000000 0.000000 0.000000 0.022908 0.000000 0.074018
#
#
# Mechanical properties :
#
#
# Convention : Reuss Voigt Hill
#
# Bulk Modulus (GPa) = 25.73444 46.66448 36.19946
# Shear Modulus (GPa) = 16.04001 24.07045 20.05523
#
# Velocity S-wave (km/s) = 2.86527 3.50999 3.20389
# Velocity P-wave (km/s) = 4.91101 6.34910 5.67579
#
# Compressibility (1/GPa) = 0.03885843
#
# Stress axis : x y z
#
# Youngs Moduli (GPa) = 25.57500 88.05066 30.64712
#
# Poissons Ratio (x) = 0.60478 0.24646
# Poissons Ratio (y) = 0.17566 0.22079
# Poissons Ratio (z) = 0.20567 0.63433
#
# Static dielectric constant tensor:
#      x y z
#    x 3.339320 0.000000 -0.090000 
#    y 0.000000 3.608910 0.000000 
#    z -0.090000 0.000000 3.447540 
# 
# 
# High freq. dielectric constant tensor:
#      x y z
#    x 1.748530 0.000000 -0.003280 
#    y 0.000000 1.770750 0.000000 
#    z -0.003280 0.000000 1.752470 
# 
# From -- ./inp_files/255245.got.cif
#   From: 2010.06.25/outbox.cif.g09.slc.cpg/sg15_128_cif.got.tgz:255245.got - 2010.06.28 07:06:18.
