data_PCOD8134169
_publ_section_title
;
Structure prediction by ZEFSAII (Michael W. Deem and Ramdas Pophale) SiO2 
 PCOD8134169
Probable space group: C 2/C
;
_chemical_formula_sum "Si O2"
_cell_formula_units_Z 64
_cell_length_a 20.196729
_cell_length_b 12.185953
_cell_length_c 19.550314
_cell_angle_alpha 90.000000
_cell_angle_beta 137.099531
_cell_angle_gamma 90.000000
_cell_volume 3275.421267
_symmetry_space_group_name_H-M "C 2/C"
_symmetry_group_IT_number 15
_symmetry_cell_setting 'monoclinic'
loop_
_space_group_symop_operation_xyz
x,y,z
-x,y,1/2-z
-x,-y,-z
x,-y,1/2+z
1/2+x,1/2+y,z
1/2-x,1/2+y,1/2-z
1/2-x,1/2-y,-z
1/2+x,1/2-y,1/2+z
loop_
_atom_site_type_symbol
_atom_site_label
_atom_site_fract_x
_atom_site_fract_y
_atom_site_fract_z
Si Si1 0.825888 0.805770 0.508189
Si Si2 0.573820 0.861572 0.511307
Si Si3 0.858257 0.158846 0.486064
Si Si4 0.106196 0.987797 0.360256
Si Si5 0.074094 0.796935 0.127806
Si Si6 0.639708 0.932517 0.133554
Si Si7 0.797312 0.046740 0.858497
Si Si8 0.711526 0.330618 0.346293
O O1 0.750000 0.750000 0.500000
O O2 0.893504 0.707196 0.530735
O O3 0.779170 0.871590 0.409158
O O4 0.880484 0.891000 0.599263
O O5 0.609413 0.802172 0.607261
O O6 0.458774 0.876012 0.415890
O O7 0.622698 0.980354 0.558942
O O8 0.887795 0.103215 0.578196
O O9 0.767313 0.240065 0.434654
O O10 0.957638 0.215563 0.536497
O O11 0.829440 0.072235 0.406850
O O12 0.185896 0.945940 0.364684
O O13 0.000000 0.984895 0.250000
O O14 0.116687 0.909366 0.126569
O O15 0.113868 0.783959 0.235618
O O16 0.695252 0.974985 0.243112
O O17 0.710588 0.842623 0.155481
#
# Coordination Sequence:
#
# PCOD8134169 Si02
#       8
#     8   8   8   8   8   8   8   8
#     4  10  22  40  60  83 120 159 196 244 302 363
#     4  10  20  37  58  87 117 153 193 248 298 354
#     4  11  20  37  56  81 119 151 196 244 295 349
#     4  11  23  39  57  85 118 157 203 245 292 364
#     4  10  19  35  57  85 116 147 198 244 297 355
#     4  10  20  36  58  86 116 147 197 242 297 353
#     4   9  21  35  56  85 115 151 191 247 293 354
#     4  11  21  36  60  86 116 157 194 242 300 355
#
# _framework density 19.539470999999999
#
# number of rings (size 3 to 8) (size 9 to 14) (size 15 to 20)
#    0.000    1.750    2.500    2.250    0.000    1.000 
#    0.000    0.000    0.000    0.000    0.000    0.000 
#    0.000    0.000    0.000    0.000    0.000    0.000 
#
# Total GULP energy -396513.224861 kJ/mol
# GULP energy per Si atom -12391.038277 kJ/mol
# Density = 1.949500 g / cm^3
# Si number density = 19.539471 Si / 1000 Ang^3
#
#
#
# Elastic Constant Matrix: (Units=GPa)
#
#
# Indices 1 2 3 4 5 6 
#
# 1 88.6457 40.3103 42.1661 0.0000 8.5093 0.0000
# 2 40.3103 86.8387 46.5841 0.0000 10.1249 0.0000
# 3 42.1661 46.5841 136.0377 0.0000 6.7801 0.0000
# 4 0.0000 0.0000 0.0000 13.6478 0.0000 -28.0143
# 5 8.5093 10.1249 6.7801 0.0000 25.4038 0.0000
# 6 0.0000 0.0000 0.0000 -28.0143 0.0000 -151.3886
#
#
#
# Elastic Compliance Matrix: (Units=1/GPa)
#
#
# Indices 1 2 3 4 5 6 
#
# 1 0.015242 -0.005316 -0.002792 0.000000 -0.002241 0.000000
# 2 -0.005316 0.016462 -0.003802 0.000000 -0.003766 0.000000
# 3 -0.002792 -0.003802 0.009523 0.000000 -0.000091 0.000000
# 4 0.000000 0.000000 0.000000 0.053102 0.000000 -0.009826
# 5 -0.002241 -0.003766 -0.000091 0.000000 0.041640 0.000000
# 6 0.000000 0.000000 0.000000 -0.009826 0.000000 -0.004787
#
#
# Mechanical properties :
#
#
# Convention : Reuss Voigt Hill
#
# Bulk Modulus (GPa) = 57.45006 63.29370 60.37188
# Shear Modulus (GPa) = 31.09410 -10.30331 10.39540
#
# Velocity S-wave (km/s) = 3.99350 -2.29881 2.30906
# Velocity P-wave (km/s) = 7.12249 5.04153 6.17037
#
# Compressibility (1/GPa) = 0.01740642
#
# Stress axis : x y z
#
# Youngs Moduli (GPa) = 65.61033 60.74728 105.01189
#
# Poissons Ratio (x) = 0.32292 0.29321
# Poissons Ratio (y) = 0.34878 0.39922
# Poissons Ratio (z) = 0.18320 0.23094
#
# Static dielectric constant tensor:
#      x y z
#    x 3.430420 0.000000 -0.555470 
#    y 0.000000 3.757050 0.000000 
#    z -0.555470 0.000000 0.990930 
# 
# 
# High freq. dielectric constant tensor:
#      x y z
#    x 1.751570 0.000000 -0.000950 
#    y 0.000000 1.759720 0.000000 
#    z -0.000950 0.000000 1.770530 
# 
# From -- ./inp_files/252554.got.cif
#   From: 2010.06.25/outbox.cif.g09.slc.cpg/sg15_127_cif.got.tgz:252554.got - 2010.06.28 07:06:18.
