data_PCOD8134277
_publ_section_title
;
Structure prediction by ZEFSAII (Michael W. Deem and Ramdas Pophale) SiO2 
 PCOD8134277
Probable space group: C 2/C
;
_chemical_formula_sum "Si O2"
_cell_formula_units_Z 64
_cell_length_a 17.444174
_cell_length_b 12.254082
_cell_length_c 29.247068
_cell_angle_alpha 90.000000
_cell_angle_beta 148.198139
_cell_angle_gamma 90.000000
_cell_volume 3294.658931
_symmetry_space_group_name_H-M "C 2/C"
_symmetry_group_IT_number 15
_symmetry_cell_setting 'monoclinic'
loop_
_space_group_symop_operation_xyz
x,y,z
-x,y,1/2-z
-x,-y,-z
x,-y,1/2+z
1/2+x,1/2+y,z
1/2-x,1/2+y,1/2-z
1/2-x,1/2-y,-z
1/2+x,1/2-y,1/2+z
loop_
_atom_site_type_symbol
_atom_site_label
_atom_site_fract_x
_atom_site_fract_y
_atom_site_fract_z
Si Si1 0.323617 0.345007 0.424495
Si Si2 0.837715 0.862081 0.686762
Si Si3 0.635119 0.018175 0.285634
Si Si4 0.147093 0.799589 0.606389
Si Si5 0.981501 0.555471 0.865125
Si Si6 0.777989 0.875032 0.503512
Si Si7 0.864384 0.450621 0.405030
Si Si8 0.426915 0.303578 0.827320
O O1 0.266257 0.220694 0.393300
O O2 0.250798 0.418726 0.348232
O O3 0.498379 0.345319 0.508841
O O4 0.277522 0.396788 0.449169
O O5 0.822619 0.834782 0.732888
O O6 0.000000 0.851802 0.750000
O O7 0.778122 0.984403 0.650532
O O8 0.500000 0.996714 0.250000
O O9 0.715736 0.129971 0.341218
O O10 0.579228 0.024089 0.205015
O O11 0.164515 0.675570 0.598350
O O12 0.149966 0.810101 0.662653
O O13 0.890447 0.533102 0.864236
O O14 0.974788 0.679120 0.843257
O O15 0.156754 0.542405 0.963334
O O16 0.750000 0.750000 0.500000
O O17 0.939591 0.891897 0.606205
O O18 0.000000 0.500000 0.500000
#
# Coordination Sequence:
#
# PCOD8134277 Si02
#       8
#     8   8   8   8   8   8   8   8
#     4  11  20  37  59  93 114 150 197 251 307 345
#     4  12  22  34  60  91 118 145 202 257 295 345
#     4  12  22  37  63  90 123 155 195 250 302 363
#     4  10  23  41  59  82 122 161 200 236 300 368
#     4  10  19  35  59  86 119 153 197 242 300 355
#     4   9  17  30  55  85 121 145 184 248 303 344
#     4  11  24  40  59  83 117 168 198 240 301 358
#     4   9  19  34  56  86 116 150 194 251 299 341
#
# _framework density 19.425380000000001
#
# number of rings (size 3 to 8) (size 9 to 14) (size 15 to 20)
#    0.000    1.500    3.750    3.750    1.750    0.500 
#    0.000    0.000    0.000    0.750    0.000    0.000 
#    0.000    0.000    0.000    0.000    0.000    0.000 
#
# Total GULP energy -396664.185450 kJ/mol
# GULP energy per Si atom -12395.755795 kJ/mol
# Density = 1.938117 g / cm^3
# Si number density = 19.425380 Si / 1000 Ang^3
#
#
#
# Elastic Constant Matrix: (Units=GPa)
#
#
# Indices 1 2 3 4 5 6 
#
# 1 34.2421 17.9737 22.7447 0.0000 -1.1217 0.0000
# 2 17.9737 95.0190 34.9173 0.0000 9.9466 0.0000
# 3 22.7447 34.9173 83.8078 0.0002 2.8936 -0.0001
# 4 0.0000 0.0000 0.0002 33.5282 0.0000 6.4879
# 5 -1.1217 9.9466 2.8936 0.0000 25.8024 0.0000
# 6 0.0000 0.0000 -0.0001 6.4879 0.0000 22.7050
#
#
#
# Elastic Compliance Matrix: (Units=1/GPa)
#
#
# Indices 1 2 3 4 5 6 
#
# 1 0.037246 -0.004396 -0.008424 0.000000 0.004258 0.000000
# 2 -0.004396 0.013422 -0.004230 0.000000 -0.004891 0.000000
# 3 -0.008424 -0.004230 0.015999 0.000000 -0.000530 0.000000
# 4 0.000000 0.000000 0.000000 0.031571 0.000000 -0.009021
# 5 0.004258 -0.004891 -0.000530 0.000000 0.040886 0.000000
# 6 0.000000 0.000000 0.000000 -0.009021 0.000000 0.046621
#
#
# Mechanical properties :
#
#
# Convention : Reuss Voigt Hill
#
# Bulk Modulus (GPa) = 30.70546 40.48224 35.59385
# Shear Modulus (GPa) = 21.67307 25.56934 23.62121
#
# Velocity S-wave (km/s) = 3.34385 3.63200 3.49090
# Velocity P-wave (km/s) = 5.54523 6.20272 5.88317
#
# Compressibility (1/GPa) = 0.03256750
#
# Stress axis : x y z
#
# Youngs Moduli (GPa) = 26.84857 74.50341 62.50374
#
# Poissons Ratio (x) = 0.32749 0.52652
# Poissons Ratio (y) = 0.11802 0.26441
# Poissons Ratio (z) = 0.22617 0.31518
#
# Static dielectric constant tensor:
#      x y z
#    x 3.475020 0.000000 0.051010 
#    y 0.000000 3.367130 0.000000 
#    z 0.051010 0.000000 3.839520 
# 
# 
# High freq. dielectric constant tensor:
#      x y z
#    x 1.742060 0.000000 -0.005020 
#    y 0.000000 1.724000 0.000000 
#    z -0.005020 0.000000 1.770780 
# 
# From -- ./inp_files/316246.got.cif
#   From: 2010.06.25/outbox.cif.g09.slc.cpg/sg15_159_cif.got.tgz:316246.got - 2010.06.28 07:06:18.
