data_PCOD8134649
_publ_section_title
;
Structure prediction by ZEFSAII (Michael W. Deem and Ramdas Pophale) SiO2 
 PCOD8134649
Probable space group: C 2/C
;
_chemical_formula_sum "Si O2"
_cell_formula_units_Z 48
_cell_length_a 20.420771
_cell_length_b 16.184604
_cell_length_c 15.536573
_cell_angle_alpha 90.000000
_cell_angle_beta 27.935067
_cell_angle_gamma 90.000000
_cell_volume 2405.535685
_symmetry_space_group_name_H-M "C 2/C"
_symmetry_group_IT_number 15
_symmetry_cell_setting 'monoclinic'
loop_
_space_group_symop_operation_xyz
x,y,z
-x,y,1/2-z
-x,-y,-z
x,-y,1/2+z
1/2+x,1/2+y,z
1/2-x,1/2+y,1/2-z
1/2-x,1/2-y,-z
1/2+x,1/2-y,1/2+z
loop_
_atom_site_type_symbol
_atom_site_label
_atom_site_fract_x
_atom_site_fract_y
_atom_site_fract_z
Si Si1 0.421892 0.234254 0.972215
Si Si2 0.839339 0.868879 0.446173
Si Si3 0.850136 0.670400 0.670134
Si Si4 0.357487 0.186538 0.467458
Si Si5 0.000000 0.398319 0.250000
Si Si6 0.228997 0.537976 0.604493
Si Si7 0.500000 0.365939 0.750000
O O1 0.508124 0.207668 0.955976
O O2 0.409839 0.158803 0.919157
O O3 0.501274 0.310063 0.834128
O O4 0.268778 0.260853 0.179563
O O5 0.771086 0.858218 0.430753
O O6 0.823338 0.783991 0.517369
O O7 0.000000 0.894327 0.250000
O O8 0.759901 0.942048 0.589513
O O9 0.873710 0.648416 0.543185
O O10 0.809255 0.584483 0.763127
O O11 0.500000 0.173284 0.250000
O O12 0.102890 0.457262 0.183202
O O13 0.362776 0.578395 0.403762
#
# Coordination Sequence:
#
# PCOD8134649 Si02
#       7
#     8   8   8   8   4   8   4
#     4   9  18  32  55  86 122 158 196 231 283 354
#     4  10  22  41  64  84 111 158 193 235 289 352
#     4  10  21  36  59  89 117 149 200 246 281 337
#     4  10  24  43  64  81 112 160 198 236 286 350
#     4   9  18  32  54  87 126 164 184 225 302 350
#     4  10  19  36  59  89 121 147 192 243 292 341
#     4   9  16  32  56  83 122 162 184 235 294 344
#
# _framework density 19.953976000000001
#
# number of rings (size 3 to 8) (size 9 to 14) (size 15 to 20)
#    0.000    2.333    0.833    1.000    8.167    4.000 
#    0.000    5.000    0.000    0.000    0.000    0.000 
#    0.000    0.000    0.000    0.000    0.000    0.000 
#
# Total GULP energy -297637.749186 kJ/mol
# GULP energy per Si atom -12401.572883 kJ/mol
# Density = 1.990856 g / cm^3
# Si number density = 19.953976 Si / 1000 Ang^3
#
#
#
# Elastic Constant Matrix: (Units=GPa)
#
#
# Indices 1 2 3 4 5 6 
#
# 1 138.2959 41.2566 57.8879 -0.0002 1.6734 -0.0001
# 2 41.2566 100.2901 37.9764 -0.0001 -7.2571 -0.0001
# 3 57.8879 37.9764 85.6404 -0.0006 0.6656 0.0004
# 4 -0.0002 -0.0001 -0.0006 18.9631 0.0002 -5.5589
# 5 1.6734 -7.2571 0.6656 0.0002 33.1781 0.0000
# 6 -0.0001 -0.0001 0.0004 -5.5589 0.0000 10.0974
#
#
#
# Elastic Compliance Matrix: (Units=1/GPa)
#
#
# Indices 1 2 3 4 5 6 
#
# 1 0.010412 -0.002021 -0.006135 0.000000 -0.000844 0.000000
# 2 -0.002021 0.012628 -0.004256 0.000000 0.002949 0.000000
# 3 -0.006135 -0.004256 0.017719 0.000000 -0.000977 -0.000001
# 4 0.000000 0.000000 0.000000 0.062882 0.000000 0.034618
# 5 -0.000844 0.002949 -0.000977 0.000000 0.030848 0.000000
# 6 0.000000 0.000000 -0.000001 0.034618 0.000000 0.118093
#
#
# Mechanical properties :
#
#
# Convention : Reuss Voigt Hill
#
# Bulk Modulus (GPa) = 62.76196 66.49646 64.62921
# Shear Modulus (GPa) = 17.68549 24.92144 21.30347
#
# Velocity S-wave (km/s) = 2.98033 3.53788 3.27101
# Velocity P-wave (km/s) = 6.58520 7.07715 6.83560
#
# Compressibility (1/GPa) = 0.01593322
#
# Stress axis : x y z
#
# Youngs Moduli (GPa) = 96.04226 79.19113 56.43741
#
# Poissons Ratio (x) = 0.16006 0.34625
# Poissons Ratio (y) = 0.19412 0.24022
# Poissons Ratio (z) = 0.58923 0.33706
#
# Static dielectric constant tensor:
#      x y z
#    x 3.626970 0.000000 -0.175890 
#    y 0.000000 3.597510 0.000000 
#    z -0.175890 0.000000 3.495340 
# 
# 
# High freq. dielectric constant tensor:
#      x y z
#    x 1.778490 0.000000 -0.017700 
#    y 0.000000 1.774540 0.000000 
#    z -0.017700 0.000000 1.769800 
# 
# From -- ./inp_files/56802.got.cif
#   From: 2010.06.25/outbox.cif.g09.slc.cpg/sg15_29_cif.got.tgz:56802.got - 2010.06.28 07:06:18.
