data_PCOD8134810
_publ_section_title
;
Structure prediction by ZEFSAII (Michael W. Deem and Ramdas Pophale) SiO2 
 PCOD8134810
Probable space group: C 2/C
;
_chemical_formula_sum "Si O2"
_cell_formula_units_Z 40
_cell_length_a 10.673684
_cell_length_b 15.481294
_cell_length_c 14.455968
_cell_angle_alpha 90.000000
_cell_angle_beta 120.660484
_cell_angle_gamma 90.000000
_cell_volume 2054.803640
_symmetry_space_group_name_H-M "C 2/C"
_symmetry_group_IT_number 15
_symmetry_cell_setting 'monoclinic'
loop_
_space_group_symop_operation_xyz
x,y,z
-x,y,1/2-z
-x,-y,-z
x,-y,1/2+z
1/2+x,1/2+y,z
1/2-x,1/2+y,1/2-z
1/2-x,1/2-y,-z
1/2+x,1/2-y,1/2+z
loop_
_atom_site_type_symbol
_atom_site_label
_atom_site_fract_x
_atom_site_fract_y
_atom_site_fract_z
Si Si1 0.098210 0.220396 0.547022
Si Si2 0.622294 0.827671 0.731411
Si Si3 0.441312 0.025757 0.077039
Si Si4 0.911005 0.662910 0.626748
Si Si5 0.296389 0.660660 0.469386
O O1 0.161555 0.272743 0.657335
O O2 0.034013 0.284972 0.443699
O O3 0.236205 0.169320 0.562512
O O4 0.972347 0.155237 0.536855
O O5 0.500000 0.781284 0.750000
O O6 0.561565 0.919620 0.676021
O O7 0.763536 0.840524 0.847347
O O8 0.288248 0.080449 0.013507
O O9 0.430233 0.938756 0.129915
O O10 0.500000 0.000000 0.000000
O O11 0.000000 0.697803 0.750000
O O12 0.250000 0.750000 0.500000
#
# Coordination Sequence:
#
# PCOD8134810 Si02
#       5
#     8   8   8   8   8
#     4  11  22  38  62  91 119 159 203 254 309 360
#     4  10  19  36  63  86 117 158 202 245 299 365
#     4  11  21  39  62  87 121 166 204 242 304 366
#     4  11  23  40  61  88 122 160 201 254 311 368
#     4  11  20  36  62  91 120 156 204 254 296 364
#
# _framework density 19.466581000000001
#
# number of rings (size 3 to 8) (size 9 to 14) (size 15 to 20)
#    0.000    1.200    6.000    3.000    0.000    0.800 
#    0.000    0.000    0.000    2.400    0.000    0.000 
#    0.000    0.000    0.000    0.000    0.000    0.000 
#
# Total GULP energy -247825.378190 kJ/mol
# GULP energy per Si atom -12391.268909 kJ/mol
# Density = 1.942227 g / cm^3
# Si number density = 19.466581 Si / 1000 Ang^3
#
#
#
# Elastic Constant Matrix: (Units=GPa)
#
#
# Indices 1 2 3 4 5 6 
#
# 1 95.1600 26.2128 34.9942 0.0000 0.6379 0.0000
# 2 26.2128 71.6238 32.6632 0.0000 -2.3073 0.0000
# 3 34.9942 32.6632 99.3545 0.0000 -12.4445 0.0000
# 4 0.0000 0.0000 0.0000 23.6191 0.0000 -7.4594
# 5 0.6379 -2.3073 -12.4445 0.0000 39.7159 0.0000
# 6 0.0000 0.0000 0.0000 -7.4594 0.0000 27.0015
#
#
#
# Elastic Compliance Matrix: (Units=1/GPa)
#
#
# Indices 1 2 3 4 5 6 
#
# 1 0.012702 -0.003024 -0.003671 0.000000 -0.001530 0.000000
# 2 -0.003024 0.017167 -0.004629 0.000000 -0.000405 0.000000
# 3 -0.003671 -0.004629 0.013379 0.000000 0.003982 0.000000
# 4 0.000000 0.000000 0.000000 0.046386 0.000000 0.012814
# 5 -0.001530 -0.000405 0.003982 0.000000 0.026428 0.000000
# 6 0.000000 0.000000 0.000000 0.012814 0.000000 0.040575
#
#
# Mechanical properties :
#
#
# Convention : Reuss Voigt Hill
#
# Bulk Modulus (GPa) = 48.54712 50.43096 49.48904
# Shear Modulus (GPa) = 26.86001 29.55185 28.20593
#
# Velocity S-wave (km/s) = 3.71860 3.90048 3.81063
# Velocity P-wave (km/s) = 6.59015 6.80057 6.69619
#
# Compressibility (1/GPa) = 0.02059854
#
# Stress axis : x y z
#
# Youngs Moduli (GPa) = 78.72847 58.25295 74.74523
#
# Poissons Ratio (x) = 0.17613 0.27442
# Poissons Ratio (y) = 0.23804 0.34602
# Poissons Ratio (z) = 0.28905 0.26967
#
# Static dielectric constant tensor:
#      x y z
#    x 3.496550 0.000000 -0.007880 
#    y 0.000000 3.579990 0.000000 
#    z -0.007880 0.000000 3.772100 
# 
# 
# High freq. dielectric constant tensor:
#      x y z
#    x 1.761370 0.000000 -0.014880 
#    y 0.000000 1.738970 0.000000 
#    z -0.014880 0.000000 1.766590 
# 
# From -- ./inp_files/85734.got.cif
#   From: 2010.06.25/outbox.cif.g09.slc.cpg/sg15_43_cif.got.tgz:85734.got - 2010.06.28 07:06:18.
