data_PCOD8134772
_publ_section_title
;
Structure prediction by ZEFSAII (Michael W. Deem and Ramdas Pophale) SiO2 
 PCOD8134772
Probable space group: C 2/C
;
_chemical_formula_sum "Si O2"
_cell_formula_units_Z 56
_cell_length_a 11.043893
_cell_length_b 28.572725
_cell_length_c 9.759837
_cell_angle_alpha 90.000000
_cell_angle_beta 117.444934
_cell_angle_gamma 90.000000
_cell_volume 2733.143072
_symmetry_space_group_name_H-M "C 2/C"
_symmetry_group_IT_number 15
_symmetry_cell_setting 'monoclinic'
loop_
_space_group_symop_operation_xyz
x,y,z
-x,y,1/2-z
-x,-y,-z
x,-y,1/2+z
1/2+x,1/2+y,z
1/2-x,1/2+y,1/2-z
1/2-x,1/2-y,-z
1/2+x,1/2-y,1/2+z
loop_
_atom_site_type_symbol
_atom_site_label
_atom_site_fract_x
_atom_site_fract_y
_atom_site_fract_z
Si Si1 0.237012 0.881303 0.056915
Si Si2 0.206107 0.339922 0.124057
Si Si3 0.397100 0.152352 0.389862
Si Si4 0.018879 0.046013 0.421157
Si Si5 0.991920 0.808087 0.598075
Si Si6 0.120101 0.247716 0.704377
Si Si7 0.192599 0.122614 0.091242
O O1 0.293824 0.868400 0.235399
O O2 0.358553 0.871777 0.013882
O O3 0.112631 0.850490 0.939987
O O4 0.172991 0.933675 0.024301
O O5 0.261151 0.286812 0.175847
O O6 0.300645 0.369625 0.069125
O O7 0.058363 0.338231 0.976404
O O8 0.323894 0.201691 0.311496
O O9 0.342654 0.117215 0.241452
O O10 0.902013 0.079361 0.421070
O O11 0.000000 0.036090 0.250000
O O12 0.000000 0.000000 0.500000
O O13 0.940105 0.770263 0.467524
O O14 0.000000 0.782866 0.750000
O O15 0.133479 0.829477 0.622685
O O16 0.000000 0.252216 0.750000
#
# Coordination Sequence:
#
# PCOD8134772 Si02
#       7
#     8   8   8   8   8   8   8
#     4  10  22  42  62  94 132 166 211 268 336 397
#     4  11  25  38  64  95 126 188 231 269 328 386
#     4  12  24  40  61  86 137 185 216 272 329 396
#     4  11  24  44  79 109 126 157 212 277 336 407
#     4  10  19  36  62  82 120 174 213 278 329 361
#     4  11  24  38  59  91 127 171 247 291 305 358
#     4  11  21  42  64  92 136 167 215 275 340 382
#
# _framework density 20.489232000000001
#
# number of rings (size 3 to 8) (size 9 to 14) (size 15 to 20)
#    0.000    1.143    4.286    2.571    4.000    4.571 
#    0.000    0.000    0.000    5.143    0.000    0.000 
#    0.000    0.000    0.000    0.000    0.000    0.000 
#
# Total GULP energy -346963.830477 kJ/mol
# GULP energy per Si atom -12391.565374 kJ/mol
# Density = 2.044260 g / cm^3
# Si number density = 20.489232 Si / 1000 Ang^3
#
#
#
# Elastic Constant Matrix: (Units=GPa)
#
#
# Indices 1 2 3 4 5 6 
#
# 1 82.7752 42.0768 39.8441 0.0000 -5.8829 0.0000
# 2 42.0768 86.3293 18.4198 0.0000 1.1537 0.0000
# 3 39.8441 18.4198 97.6320 0.0000 -7.8288 0.0000
# 4 0.0000 0.0000 0.0000 24.1113 0.0000 -7.6014
# 5 -5.8829 1.1537 -7.8288 0.0000 44.8157 0.0000
# 6 0.0000 0.0000 0.0000 -7.6014 0.0000 29.4224
#
#
#
# Elastic Compliance Matrix: (Units=1/GPa)
#
#
# Indices 1 2 3 4 5 6 
#
# 1 0.019315 -0.008109 -0.006220 0.000000 0.001658 0.000000
# 2 -0.008109 0.015497 0.000272 0.000000 -0.001416 0.000000
# 3 -0.006220 0.000272 0.012843 0.000000 0.001420 0.000000
# 4 0.000000 0.000000 0.000000 0.045152 0.000000 0.011665
# 5 0.001658 -0.001416 0.001420 0.000000 0.022816 0.000000
# 6 0.000000 0.000000 0.000000 0.011665 0.000000 0.037001
#
#
# Mechanical properties :
#
#
# Convention : Reuss Voigt Hill
#
# Bulk Modulus (GPa) = 51.17268 51.93532 51.55400
# Shear Modulus (GPa) = 26.70221 30.76294 28.73257
#
# Velocity S-wave (km/s) = 3.61395 3.87902 3.74883
# Velocity P-wave (km/s) = 6.51489 6.74278 6.62981
#
# Compressibility (1/GPa) = 0.01954168
#
# Stress axis : x y z
#
# Youngs Moduli (GPa) = 51.77447 64.52979 77.86146
#
# Poissons Ratio (x) = 0.52327 0.48426
# Poissons Ratio (y) = 0.41984 -0.02118
# Poissons Ratio (z) = 0.32201 -0.01756
#
# Static dielectric constant tensor:
#      x y z
#    x 3.733940 0.000000 -0.087410 
#    y 0.000000 3.563780 0.000000 
#    z -0.087410 0.000000 3.897110 
# 
# 
# High freq. dielectric constant tensor:
#      x y z
#    x 1.805950 0.000000 -0.006880 
#    y 0.000000 1.759940 0.000000 
#    z -0.006880 0.000000 1.826790 
# 
# From -- ./inp_files/35312.got.cif
#   From: 2010.06.25/outbox.cif.g09.slc.cpg/sg15_18_cif.got.tgz:35312.got - 2010.06.28 07:06:18.
