data_PCOD8134891
_publ_section_title
;
Structure prediction by ZEFSAII (Michael W. Deem and Ramdas Pophale) SiO2 
 PCOD8134891
Probable space group: C 2/C
;
_chemical_formula_sum "Si O2"
_cell_formula_units_Z 60
_cell_length_a 14.052477
_cell_length_b 14.264874
_cell_length_c 14.073287
_cell_angle_alpha 90.000000
_cell_angle_beta 84.635643
_cell_angle_gamma 90.000000
_cell_volume 2808.730804
_symmetry_space_group_name_H-M "C 2/C"
_symmetry_group_IT_number 15
_symmetry_cell_setting 'monoclinic'
loop_
_space_group_symop_operation_xyz
x,y,z
-x,y,1/2-z
-x,-y,-z
x,-y,1/2+z
1/2+x,1/2+y,z
1/2-x,1/2+y,1/2-z
1/2-x,1/2-y,-z
1/2+x,1/2-y,1/2+z
loop_
_atom_site_type_symbol
_atom_site_label
_atom_site_fract_x
_atom_site_fract_y
_atom_site_fract_z
Si Si1 0.216373 0.017222 0.180486
Si Si2 0.500000 0.923779 0.250000
Si Si3 0.422846 0.069517 0.407125
Si Si4 0.884629 0.577171 0.047940
Si Si5 0.612557 0.490499 0.503060
Si Si6 0.812213 0.325788 0.214261
Si Si7 0.247710 0.666552 0.573086
Si Si8 0.220401 0.128942 0.367928
O O1 0.303090 0.081602 0.134657
O O2 0.129173 0.022917 0.114305
O O3 0.188701 0.061679 0.283854
O O4 0.245694 0.909218 0.184131
O O5 0.421975 0.857562 0.207681
O O6 0.444716 0.988326 0.329709
O O7 0.521951 0.128293 0.414823
O O8 0.334439 0.129727 0.377185
O O9 0.404365 0.031087 0.516396
O O10 0.849364 0.614542 0.949070
O O11 0.500000 0.500000 0.500000
O O12 0.659316 0.401403 0.443180
O O13 0.664508 0.585942 0.463258
O O14 0.768038 0.294968 0.319949
O O15 0.808913 0.236345 0.145028
O O16 0.250000 0.750000 0.500000
#
# Coordination Sequence:
#
# PCOD8134891 Si02
#       8
#     8   4   8   8   8   8   8   8
#     4  11  21  44  68  96 134 176 217 290 339 398
#     4  12  20  38  66 100 134 168 228 280 334 408
#     4  11  19  38  67  95 130 170 212 279 346 402
#     4  10  19  36  69  97 127 168 216 273 349 393
#     4  11  25  47  67  93 136 188 230 276 343 414
#     4  12  24  39  69 103 135 175 228 286 340 408
#     4  11  22  44  67  97 135 177 231 279 331 409
#     4  12  24  44  69  98 139 181 226 277 348 407
#
# _framework density 21.361961999999998
#
# number of rings (size 3 to 8) (size 9 to 14) (size 15 to 20)
#    0.000    0.800    8.000    1.600    0.000    3.200 
#    2.400    0.000    0.000    0.000    0.000    0.000 
#    0.000    0.000    0.000    0.000    0.000    0.000 
#
# Total GULP energy -371749.418745 kJ/mol
# GULP energy per Si atom -12391.647292 kJ/mol
# Density = 2.131334 g / cm^3
# Si number density = 21.361962 Si / 1000 Ang^3
#
#
#
# Elastic Constant Matrix: (Units=GPa)
#
#
# Indices 1 2 3 4 5 6 
#
# 1 159.0903 21.8725 16.2666 0.0000 28.6783 0.0000
# 2 21.8725 61.0479 -18.1582 0.0000 1.8565 0.0000
# 3 16.2666 -18.1582 52.1929 0.0000 11.4422 0.0000
# 4 0.0000 0.0000 0.0000 36.9615 0.0000 9.8565
# 5 28.6783 1.8565 11.4422 0.0000 29.0449 0.0000
# 6 0.0000 0.0000 0.0000 9.8565 0.0000 18.5223
#
#
#
# Elastic Compliance Matrix: (Units=1/GPa)
#
#
# Indices 1 2 3 4 5 6 
#
# 1 0.008251 -0.003398 -0.002206 0.000000 -0.007061 0.000000
# 2 -0.003398 0.020109 0.008320 0.000000 -0.001208 0.000000
# 3 -0.002206 0.008320 0.024496 0.000000 -0.008004 0.000000
# 4 0.000000 0.000000 0.000000 0.031529 0.000000 -0.016778
# 5 -0.007061 -0.001208 -0.008004 0.000000 0.044632 0.000000
# 6 0.000000 0.000000 0.000000 -0.016778 0.000000 0.062917
#
#
# Mechanical properties :
#
#
# Convention : Reuss Voigt Hill
#
# Bulk Modulus (GPa) = 17.15550 34.69921 25.92736
# Shear Modulus (GPa) = 24.27985 33.72910 29.00448
#
# Velocity S-wave (km/s) = 3.37500 3.97789 3.68878
# Velocity P-wave (km/s) = 4.82035 6.11366 5.50512
#
# Compressibility (1/GPa) = 0.05829033
#
# Stress axis : x y z
#
# Youngs Moduli (GPa) = 121.19414 49.72810 40.82226
#
# Poissons Ratio (x) = 0.16896 0.09004
# Poissons Ratio (y) = 0.41177 -0.33964
# Poissons Ratio (z) = 0.26732 -0.41374
#
# Static dielectric constant tensor:
#      x y z
#    x 3.709770 0.000000 0.104190 
#    y 0.000000 3.576360 0.000000 
#    z 0.104190 0.000000 4.126390 
# 
# 
# High freq. dielectric constant tensor:
#      x y z
#    x 1.835770 0.000000 0.007770 
#    y 0.000000 1.809350 0.000000 
#    z 0.007770 0.000000 1.854140 
# 
# From -- ./inp_files/153973.got.cif
#   From: 2010.06.25/outbox.cif.g09.slc.cpg/sg15_77_cif.got.tgz:153973.got - 2010.06.28 07:06:18.
