data_PCOD8134749
_publ_section_title
;
Structure prediction by ZEFSAII (Michael W. Deem and Ramdas Pophale) SiO2 
 PCOD8134749
Probable space group: C 2/C
;
_chemical_formula_sum "Si O2"
_cell_formula_units_Z 64
_cell_length_a 20.221194
_cell_length_b 23.887059
_cell_length_c 14.837129
_cell_angle_alpha 90.000000
_cell_angle_beta 157.015698
_cell_angle_gamma 90.000000
_cell_volume 2798.446029
_symmetry_space_group_name_H-M "C 2/C"
_symmetry_group_IT_number 15
_symmetry_cell_setting 'monoclinic'
loop_
_space_group_symop_operation_xyz
x,y,z
-x,y,1/2-z
-x,-y,-z
x,-y,1/2+z
1/2+x,1/2+y,z
1/2-x,1/2+y,1/2-z
1/2-x,1/2-y,-z
1/2+x,1/2-y,1/2+z
loop_
_atom_site_type_symbol
_atom_site_label
_atom_site_fract_x
_atom_site_fract_y
_atom_site_fract_z
Si Si1 0.297335 0.366201 0.240049
Si Si2 0.541500 0.189384 0.906243
Si Si3 0.695182 0.511505 0.761725
Si Si4 0.486964 0.210752 0.338199
Si Si5 0.000669 0.436956 0.143245
Si Si6 0.689287 0.510027 0.964624
Si Si7 0.823206 0.134344 0.561006
Si Si8 0.570858 0.283414 0.603208
O O1 0.266158 0.428836 0.237675
O O2 0.328074 0.373181 0.173245
O O3 0.458180 0.337047 0.491155
O O4 0.134372 0.329635 0.056603
O O5 0.500000 0.199054 0.750000
O O6 0.490311 0.127641 0.876853
O O7 0.436860 0.234323 0.832773
O O8 0.739222 0.197150 0.171707
O O9 0.500000 0.500000 0.500000
O O10 0.726412 0.512352 0.906288
O O11 0.827724 0.465980 0.887894
O O12 0.500000 0.227650 0.250000
O O13 0.491567 0.265208 0.407066
O O14 0.313203 0.179394 0.141450
O O15 0.000000 0.437657 0.250000
O O16 0.166665 0.469408 0.312499
O O17 0.500000 0.487315 0.750000
O O18 0.710178 0.573634 0.027898
O O19 0.000000 0.159260 0.750000
#
# Coordination Sequence:
#
# PCOD8134749 Si02
#       8
#     8   8   8   8   8   8   8   8
#     4  10  21  37  59  88 127 168 204 258 314 386
#     4  11  25  46  67  91 122 170 220 276 326 365
#     4  10  19  36  61  89 122 163 203 253 320 382
#     4  10  22  40  60  92 130 171 209 253 315 385
#     4   9  19  39  66  89 119 164 210 258 322 388
#     4   9  18  37  59  92 126 158 202 256 317 386
#     4   9  19  33  61  93 130 170 200 246 318 387
#     4  12  24  43  64  94 128 165 224 265 315 383
#
# _framework density 22.869835999999999
#
# number of rings (size 3 to 8) (size 9 to 14) (size 15 to 20)
#    0.000    2.000    1.250    1.875    1.750    5.500 
#    4.500    3.750    0.000    0.000    0.000    0.000 
#    0.000    0.000    0.000    0.000    0.000    0.000 
#
# Total GULP energy -396755.773987 kJ/mol
# GULP energy per Si atom -12398.617937 kJ/mol
# Density = 2.281778 g / cm^3
# Si number density = 22.869836 Si / 1000 Ang^3
#
#
#
# Elastic Constant Matrix: (Units=GPa)
#
#
# Indices 1 2 3 4 5 6 
#
# 1 41.7834 17.8809 12.1543 0.0000 6.6621 0.0000
# 2 17.8809 135.4441 45.1354 0.0000 4.2619 0.0000
# 3 12.1543 45.1354 127.4208 -0.0001 23.7849 0.0000
# 4 0.0000 0.0000 -0.0001 99.0313 0.0000 6.9905
# 5 6.6621 4.2619 23.7849 0.0000 37.2581 0.0000
# 6 0.0000 0.0000 0.0000 6.9905 0.0000 17.5941
#
#
#
# Elastic Compliance Matrix: (Units=1/GPa)
#
#
# Indices 1 2 3 4 5 6 
#
# 1 0.026071 -0.003098 -0.000665 0.000000 -0.003883 0.000000
# 2 -0.003098 0.008777 -0.003099 0.000000 0.001528 0.000000
# 3 -0.000665 -0.003099 0.010127 0.000000 -0.005992 0.000000
# 4 0.000000 0.000000 0.000000 0.010389 0.000000 -0.004128
# 5 -0.003883 0.001528 -0.005992 0.000000 0.031184 0.000000
# 6 0.000000 0.000000 0.000000 -0.004128 0.000000 0.058477
#
#
# Mechanical properties :
#
#
# Convention : Reuss Voigt Hill
#
# Bulk Modulus (GPa) = 31.99732 50.55437 41.27585
# Shear Modulus (GPa) = 29.55666 46.07521 37.81593
#
# Velocity S-wave (km/s) = 3.59888 4.49338 4.07077
# Velocity P-wave (km/s) = 5.59381 7.00527 6.33895
#
# Compressibility (1/GPa) = 0.03125261
#
# Stress axis : x y z
#
# Youngs Moduli (GPa) = 38.35644 113.93901 98.74130
#
# Poissons Ratio (x) = 0.35300 0.06562
# Poissons Ratio (y) = 0.11884 0.30596
# Poissons Ratio (z) = 0.02549 0.35305
#
# Static dielectric constant tensor:
#      x y z
#    x 3.548910 0.000000 -0.033690 
#    y 0.000000 4.594780 0.000000 
#    z -0.033690 0.000000 4.013380 
# 
# 
# High freq. dielectric constant tensor:
#      x y z
#    x 1.879210 0.000000 0.015650 
#    y 0.000000 1.917070 0.000000 
#    z 0.015650 0.000000 1.906320 
# 
# From -- ./inp_files/220276.got.cif
#   From: 2010.06.25/outbox.cif.g09.slc.cpg/sg15_111_cif.got.tgz:220276.got - 2010.06.28 07:06:18.
