data_PCOD8134436
_publ_section_title
;
Structure prediction by ZEFSAII (Michael W. Deem and Ramdas Pophale) SiO2 
 PCOD8134436
Probable space group: C 2/C
;
_chemical_formula_sum "Si O2"
_cell_formula_units_Z 48
_cell_length_a 11.691365
_cell_length_b 9.210768
_cell_length_c 24.593048
_cell_angle_alpha 90.000000
_cell_angle_beta 66.092168
_cell_angle_gamma 90.000000
_cell_volume 2421.106847
_symmetry_space_group_name_H-M "C 2/C"
_symmetry_group_IT_number 15
_symmetry_cell_setting 'monoclinic'
loop_
_space_group_symop_operation_xyz
x,y,z
-x,y,1/2-z
-x,-y,-z
x,-y,1/2+z
1/2+x,1/2+y,z
1/2-x,1/2+y,1/2-z
1/2-x,1/2-y,-z
1/2+x,1/2-y,1/2+z
loop_
_atom_site_type_symbol
_atom_site_label
_atom_site_fract_x
_atom_site_fract_y
_atom_site_fract_z
Si Si1 0.007542 0.824713 0.410082
Si Si2 0.157596 0.275136 0.066743
Si Si3 0.208437 0.977141 0.095482
Si Si4 0.071685 0.719099 0.963443
Si Si5 0.914728 0.743746 0.318653
Si Si6 0.769053 0.026011 0.108558
O O1 0.884627 0.927982 0.435677
O O2 0.008613 0.730130 0.465266
O O3 0.999420 0.723924 0.357391
O O4 0.130414 0.924354 0.381142
O O5 0.178321 0.431343 0.088581
O O6 0.016043 0.271082 0.072456
O O7 0.189754 0.150095 0.105375
O O8 0.250000 0.250000 0.000000
O O9 0.350642 0.932209 0.052171
O O10 0.165493 0.893696 0.159150
O O11 0.167938 0.853218 0.942059
O O12 0.819491 0.608155 0.330617
O O13 0.000000 0.754928 0.250000
#
# Coordination Sequence:
#
# PCOD8134436 Si02
#       6
#     8   8   8   8   8   8
#     4  10  19  35  65  84 118 155 196 236 303 348
#     4  12  23  34  58  96 130 150 188 238 306 368
#     4   9  22  36  62  87 119 161 195 238 303 349
#     4  11  20  38  59  89 128 159 187 241 299 371
#     4   9  22  43  64  79 115 164 212 245 289 345
#     4  11  22  38  63  88 123 158 191 244 307 356
#
# _framework density 19.825642999999999
#
# number of rings (size 3 to 8) (size 9 to 14) (size 15 to 20)
#    1.000    0.667    3.333    2.000    2.333    2.000 
#    0.000    5.833    0.000    0.000    0.000    0.000 
#    0.000    0.000    0.000    0.000    0.000    0.000 
#
# Total GULP energy -297429.367820 kJ/mol
# GULP energy per Si atom -12392.890326 kJ/mol
# Density = 1.978052 g / cm^3
# Si number density = 19.825643 Si / 1000 Ang^3
#
#
#
# Elastic Constant Matrix: (Units=GPa)
#
#
# Indices 1 2 3 4 5 6 
#
# 1 95.6502 53.2050 34.2385 0.0000 0.3159 0.0000
# 2 53.2050 96.0421 34.1644 0.0000 1.2835 0.0000
# 3 34.2385 34.1644 97.0295 0.0000 -15.0223 0.0000
# 4 0.0000 0.0000 0.0000 12.8808 0.0000 0.8482
# 5 0.3159 1.2835 -15.0223 0.0000 18.9076 0.0000
# 6 0.0000 0.0000 0.0000 0.8482 0.0000 36.0452
#
#
#
# Elastic Compliance Matrix: (Units=1/GPa)
#
#
# Indices 1 2 3 4 5 6 
#
# 1 0.015859 -0.007583 -0.003293 0.000000 -0.002366 0.000000
# 2 -0.007583 0.015909 -0.003505 0.000000 -0.003738 0.000000
# 3 -0.003293 -0.003505 0.014535 0.000000 0.011841 0.000000
# 4 0.000000 0.000000 0.000000 0.077755 0.000000 -0.001830
# 5 -0.002366 -0.003738 0.011841 0.000000 0.062590 0.000000
# 6 0.000000 0.000000 0.000000 -0.001830 0.000000 0.027786
#
#
# Mechanical properties :
#
#
# Convention : Reuss Voigt Hill
#
# Bulk Modulus (GPa) = 57.00050 59.10417 58.05234
# Shear Modulus (GPa) = 20.07687 24.70766 22.39226
#
# Velocity S-wave (km/s) = 3.18570 3.53405 3.36439
# Velocity P-wave (km/s) = 6.50730 6.82125 6.66612
#
# Compressibility (1/GPa) = 0.01754370
#
# Stress axis : x y z
#
# Youngs Moduli (GPa) = 63.05575 62.85604 68.79786
#
# Poissons Ratio (x) = 0.47661 0.22652
# Poissons Ratio (y) = 0.47813 0.24112
# Poissons Ratio (z) = 0.20762 0.22030
#
# Static dielectric constant tensor:
#      x y z
#    x 3.221750 0.000000 -0.088770 
#    y 0.000000 2.215870 0.000000 
#    z -0.088770 0.000000 3.017920 
# 
# 
# High freq. dielectric constant tensor:
#      x y z
#    x 1.785650 0.000000 -0.003330 
#    y 0.000000 1.776290 0.000000 
#    z -0.003330 0.000000 1.713830 
# 
# From -- ./inp_files/242296.got.cif
#   From: 2010.06.25/outbox.cif.g09.slc.cpg/sg15_122_cif.got.tgz:242296.got - 2010.06.28 07:06:18.
