data_PCOD8134634
_publ_section_title
;
Structure prediction by ZEFSAII (Michael W. Deem and Ramdas Pophale) SiO2 
 PCOD8134634
Probable space group: C 2/C
;
_chemical_formula_sum "Si O2"
_cell_formula_units_Z 56
_cell_length_a 12.256593
_cell_length_b 14.593199
_cell_length_c 15.173965
_cell_angle_alpha 90.000000
_cell_angle_beta 76.231431
_cell_angle_gamma 90.000000
_cell_volume 2636.070864
_symmetry_space_group_name_H-M "C 2/C"
_symmetry_group_IT_number 15
_symmetry_cell_setting 'monoclinic'
loop_
_space_group_symop_operation_xyz
x,y,z
-x,y,1/2-z
-x,-y,-z
x,-y,1/2+z
1/2+x,1/2+y,z
1/2-x,1/2+y,1/2-z
1/2-x,1/2-y,-z
1/2+x,1/2-y,1/2+z
loop_
_atom_site_type_symbol
_atom_site_label
_atom_site_fract_x
_atom_site_fract_y
_atom_site_fract_z
Si Si1 0.238831 0.924216 0.636777
Si Si2 0.139575 0.105647 0.655645
Si Si3 0.922697 0.286075 0.538601
Si Si4 0.196569 0.081114 0.345170
Si Si5 0.477614 0.305860 0.852344
Si Si6 0.590241 0.399272 0.367572
Si Si7 0.339662 0.208878 0.418656
O O1 0.338183 0.870749 0.568165
O O2 0.254238 0.920103 0.738539
O O3 0.117204 0.883611 0.635217
O O4 0.237863 0.032993 0.610056
O O5 0.105088 0.084815 0.761086
O O6 0.164217 0.213838 0.656735
O O7 0.044560 0.093210 0.597264
O O8 0.939184 0.271240 0.430254
O O9 0.868476 0.195137 0.595022
O O10 0.039838 0.310484 0.561974
O O11 0.296001 0.113478 0.389561
O O12 0.090280 0.148819 0.367968
O O13 0.159052 0.983852 0.394823
O O14 0.500000 0.263085 0.750000
O O15 0.250000 0.250000 0.500000
#
# Coordination Sequence:
#
# PCOD8134634 Si02
#       7
#     8   8   8   8   8   8   8
#     4  10  20  36  60  86 116 153 196 252 289 344
#     4   9  18  35  58  86 120 154 196 239 295 344
#     4  11  22  36  60  92 116 151 206 248 295 349
#     4  10  19  36  59  85 121 155 190 239 305 350
#     4  10  20  36  58  83 115 154 197 245 299 349
#     4   9  18  34  60  90 114 151 199 249 285 348
#     4  11  22  36  57  88 122 159 192 242 302 358
#
# _framework density 21.243739000000001
#
# number of rings (size 3 to 8) (size 9 to 14) (size 15 to 20)
#    0.000    2.000    2.857    1.286    0.000    3.429 
#    0.000    0.714    3.143    0.000    0.000    0.000 
#    0.000    0.000    0.000    0.000    0.000    0.000 
#
# Total GULP energy -346890.407952 kJ/mol
# GULP energy per Si atom -12388.943141 kJ/mol
# Density = 2.119539 g / cm^3
# Si number density = 21.243739 Si / 1000 Ang^3
#
#
#
# Elastic Constant Matrix: (Units=GPa)
#
#
# Indices 1 2 3 4 5 6 
#
# 1 82.3961 44.3219 26.1070 0.0000 2.0416 0.0000
# 2 44.3219 96.0596 19.8338 0.0000 6.2289 0.0000
# 3 26.1070 19.8338 61.6039 0.0000 3.7005 0.0000
# 4 0.0000 0.0000 0.0000 17.4435 0.0000 -0.9057
# 5 2.0416 6.2289 3.7005 0.0000 27.7866 0.0000
# 6 0.0000 0.0000 0.0000 -0.9057 0.0000 35.5459
#
#
#
# Elastic Compliance Matrix: (Units=1/GPa)
#
#
# Indices 1 2 3 4 5 6 
#
# 1 0.017587 -0.007100 -0.005227 0.000000 0.000995 0.000000
# 2 -0.007100 0.014133 -0.001394 0.000000 -0.002461 0.000000
# 3 -0.005227 -0.001394 0.019007 0.000000 -0.001835 0.000000
# 4 0.000000 0.000000 0.000000 0.057404 0.000000 0.001463
# 5 0.000995 -0.002461 -0.001835 0.000000 0.036711 0.000000
# 6 0.000000 0.000000 0.000000 0.001463 0.000000 0.028170
#
#
# Mechanical properties :
#
#
# Convention : Reuss Voigt Hill
#
# Bulk Modulus (GPa) = 42.94439 46.73167 44.83803
# Shear Modulus (GPa) = 24.01347 26.14166 25.07756
#
# Velocity S-wave (km/s) = 3.36576 3.51174 3.43952
# Velocity P-wave (km/s) = 5.94671 6.20392 6.07668
#
# Compressibility (1/GPa) = 0.02328593
#
# Stress axis : x y z
#
# Youngs Moduli (GPa) = 56.85937 70.75394 52.61260
#
# Poissons Ratio (x) = 0.50236 0.27501
# Poissons Ratio (y) = 0.40370 0.07332
# Poissons Ratio (z) = 0.29721 0.09861
#
# Static dielectric constant tensor:
#      x y z
#    x 3.543250 0.000000 -0.241860 
#    y 0.000000 3.661580 0.000000 
#    z -0.241860 0.000000 3.669150 
# 
# 
# High freq. dielectric constant tensor:
#      x y z
#    x 1.815820 0.000000 0.003560 
#    y 0.000000 1.819240 0.000000 
#    z 0.003560 0.000000 1.836410 
# 
# From -- ./inp_files/144266.got.cif
#   From: 2010.06.25/outbox.cif.g09.slc.cpg/sg15_73_cif.got.tgz:144266.got - 2010.06.28 07:06:18.
