data_PCOD8134533
_publ_section_title
;
Structure prediction by ZEFSAII (Michael W. Deem and Ramdas Pophale) SiO2 
 PCOD8134533
Probable space group: C 2/C
;
_chemical_formula_sum "Si O2"
_cell_formula_units_Z 56
_cell_length_a 22.464989
_cell_length_b 11.154212
_cell_length_c 21.597045
_cell_angle_alpha 90.000000
_cell_angle_beta 145.442347
_cell_angle_gamma 90.000000
_cell_volume 3069.747274
_symmetry_space_group_name_H-M "C 2/C"
_symmetry_group_IT_number 15
_symmetry_cell_setting 'monoclinic'
loop_
_space_group_symop_operation_xyz
x,y,z
-x,y,1/2-z
-x,-y,-z
x,-y,1/2+z
1/2+x,1/2+y,z
1/2-x,1/2+y,1/2-z
1/2-x,1/2-y,-z
1/2+x,1/2-y,1/2+z
loop_
_atom_site_type_symbol
_atom_site_label
_atom_site_fract_x
_atom_site_fract_y
_atom_site_fract_z
Si Si1 0.257799 0.801700 0.640186
Si Si2 0.590155 0.963510 0.659792
Si Si3 0.484143 0.389095 0.808767
Si Si4 0.579355 0.131068 0.761814
Si Si5 0.800704 0.052891 0.635184
Si Si6 0.370925 0.101671 0.923254
Si Si7 0.207868 0.024472 0.513635
O O1 0.317146 0.697845 0.650749
O O2 0.163684 0.740596 0.598992
O O3 0.333696 0.856267 0.756495
O O4 0.214274 0.900979 0.556411
O O5 0.551846 0.030770 0.688316
O O6 0.649127 0.054836 0.663694
O O7 0.493024 0.903470 0.542503
O O8 0.500000 0.392392 0.750000
O O9 0.436474 0.259365 0.785088
O O10 0.400879 0.492354 0.754703
O O11 0.597294 0.412972 0.937276
O O12 0.500000 0.111880 0.750000
O O13 0.699118 0.115962 0.888318
O O14 0.697323 0.020509 0.587205
O O15 0.784732 0.004328 0.552535
#
# Coordination Sequence:
#
# PCOD8134533 Si02
#       7
#     8   8   8   8   8   8   8
#     4   9  21  34  57  84 111 145 184 240 278 341
#     4  10  20  39  55  82 110 146 192 228 285 336
#     4   9  20  34  53  82 115 145 183 231 278 335
#     4  10  21  35  56  83 112 151 189 235 276 344
#     4   9  19  34  55  86 109 151 183 231 288 336
#     4   9  21  35  57  77 111 149 180 234 276 341
#     4  10  19  36  57  84 119 145 191 235 291 330
#
# _framework density 18.242543999999999
#
# number of rings (size 3 to 8) (size 9 to 14) (size 15 to 20)
#    0.857    1.714    0.000    1.286    2.000    7.429 
#    0.000    5.000    0.000    5.143    0.000    0.000 
#    0.000    0.000    0.000    0.000    0.000    0.000 
#
# Total GULP energy -347021.073534 kJ/mol
# GULP energy per Si atom -12393.609769 kJ/mol
# Density = 1.820102 g / cm^3
# Si number density = 18.242544 Si / 1000 Ang^3
#
#
#
# Elastic Constant Matrix: (Units=GPa)
#
#
# Indices 1 2 3 4 5 6 
#
# 1 68.8354 37.3657 36.2012 0.0000 4.2322 0.0000
# 2 37.3657 120.5334 56.9881 0.0000 12.0976 0.0000
# 3 36.2012 56.9881 110.9432 0.0000 13.7577 0.0000
# 4 0.0000 0.0000 0.0000 29.7773 0.0000 7.8968
# 5 4.2322 12.0976 13.7577 0.0000 26.7223 0.0000
# 6 0.0000 0.0000 0.0000 7.8968 0.0000 29.5827
#
#
#
# Elastic Compliance Matrix: (Units=1/GPa)
#
#
# Indices 1 2 3 4 5 6 
#
# 1 0.018834 -0.003928 -0.004250 0.000000 0.000983 0.000000
# 2 -0.003928 0.011900 -0.004529 0.000000 -0.002433 0.000000
# 3 -0.004250 -0.004529 0.013234 0.000000 -0.004090 0.000000
# 4 0.000000 0.000000 0.000000 0.036141 0.000000 -0.009647
# 5 0.000983 -0.002433 -0.004090 0.000000 0.040474 0.000000
# 6 0.000000 0.000000 0.000000 -0.009647 0.000000 0.036379
#
#
# Mechanical properties :
#
#
# Convention : Reuss Voigt Hill
#
# Bulk Modulus (GPa) = 53.89674 62.38021 58.13847
# Shear Modulus (GPa) = 26.51676 28.53358 27.52517
#
# Velocity S-wave (km/s) = 3.81670 3.95919 3.88860
# Velocity P-wave (km/s) = 7.00226 7.42761 7.21807
#
# Compressibility (1/GPa) = 0.01855400
#
# Stress axis : x y z
#
# Youngs Moduli (GPa) = 53.09477 84.03570 75.56296
#
# Poissons Ratio (x) = 0.33009 0.32114
# Poissons Ratio (y) = 0.20856 0.34223
# Poissons Ratio (z) = 0.22565 0.38060
#
# Static dielectric constant tensor:
#      x y z
#    x 3.259420 0.000000 0.136160 
#    y 0.000000 3.499640 0.000000 
#    z 0.136160 0.000000 3.428870 
# 
# 
# High freq. dielectric constant tensor:
#      x y z
#    x 1.692580 0.000000 0.006290 
#    y 0.000000 1.706210 0.000000 
#    z 0.006290 0.000000 1.709290 
# 
# From -- ./inp_files/283461.got.cif
#   From: 2010.06.25/outbox.cif.g09.slc.cpg/sg15_142_cif.got.tgz:283461.got - 2010.06.28 07:06:18.
