data_PCOD8134070
_publ_section_title
;
Structure prediction by ZEFSAII (Michael W. Deem and Ramdas Pophale) SiO2 
 PCOD8134070
Probable space group: C 2/C
;
_chemical_formula_sum "Si O2"
_cell_formula_units_Z 44
_cell_length_a 21.510014
_cell_length_b 14.139401
_cell_length_c 8.800074
_cell_angle_alpha 90.000000
_cell_angle_beta 58.743891
_cell_angle_gamma 90.000000
_cell_volume 2287.974995
_symmetry_space_group_name_H-M "C 2/C"
_symmetry_group_IT_number 15
_symmetry_cell_setting 'monoclinic'
loop_
_space_group_symop_operation_xyz
x,y,z
-x,y,1/2-z
-x,-y,-z
x,-y,1/2+z
1/2+x,1/2+y,z
1/2-x,1/2+y,1/2-z
1/2-x,1/2-y,-z
1/2+x,1/2-y,1/2+z
loop_
_atom_site_type_symbol
_atom_site_label
_atom_site_fract_x
_atom_site_fract_y
_atom_site_fract_z
Si Si1 0.216940 0.729567 0.205173
Si Si2 0.000000 0.505038 0.750000
Si Si3 0.431824 0.874889 0.587529
Si Si4 0.501675 0.315644 0.069108
Si Si5 0.655876 0.610449 0.387972
Si Si6 0.642487 0.412600 0.263969
O O1 0.151546 0.654385 0.282166
O O2 0.279924 0.685348 0.232554
O O3 0.186958 0.831202 0.299537
O O4 0.250000 0.750000 0.000000
O O5 0.049031 0.440855 0.795386
O O6 0.056621 0.568936 0.583569
O O7 0.483822 0.783508 0.512631
O O8 0.500000 0.298090 0.250000
O O9 0.443327 0.396032 0.094377
O O10 0.581095 0.348340 0.915604
O O11 0.671430 0.512013 0.285781
O O12 0.654486 0.593506 0.569108
#
# Coordination Sequence:
#
# PCOD8134070 Si02
#       6
#     8   4   8   8   8   8
#     4   9  20  36  58  80 115 150 184 230 290 351
#     4  10  22  36  60  84 110 154 200 242 274 340
#     4  10  20  38  56  85 112 149 199 236 287 335
#     4   9  17  34  58  75 107 146 186 225 278 342
#     4  10  19  35  55  80 105 146 179 225 286 333
#     4   9  19  35  54  79 106 141 185 224 272 337
#
# _framework density 19.230979000000001
#
# number of rings (size 3 to 8) (size 9 to 14) (size 15 to 20)
#    0.000    2.545    0.909    1.636    0.000    2.909 
#    9.818    0.909    0.000    0.000    0.000    0.000 
#    0.000    0.000    0.000    0.000    0.000    0.000 
#
# Total GULP energy -272714.500334 kJ/mol
# GULP energy per Si atom -12396.113652 kJ/mol
# Density = 1.918721 g / cm^3
# Si number density = 19.230979 Si / 1000 Ang^3
#
#
#
# Elastic Constant Matrix: (Units=GPa)
#
#
# Indices 1 2 3 4 5 6 
#
# 1 107.4400 56.5202 33.5261 0.0000 -29.7125 0.0000
# 2 56.5202 100.0999 28.6483 0.0000 -12.0973 0.0000
# 3 33.5261 28.6483 60.2181 0.0000 -14.7141 0.0000
# 4 0.0000 0.0000 0.0000 29.4526 0.0000 1.7727
# 5 -29.7125 -12.0973 -14.7141 0.0000 30.5872 0.0000
# 6 0.0000 0.0000 0.0000 1.7727 0.0000 30.6852
#
#
#
# Elastic Compliance Matrix: (Units=1/GPa)
#
#
# Indices 1 2 3 4 5 6 
#
# 1 0.017847 -0.007620 -0.003186 0.000000 0.012791 0.000000
# 2 -0.007620 0.014948 -0.003664 0.000000 -0.003252 0.000000
# 3 -0.003186 -0.003664 0.021545 0.000000 0.005820 0.000000
# 4 0.000000 0.000000 0.000000 0.034071 0.000000 -0.001968
# 5 0.012791 -0.003252 0.005820 0.000000 0.046632 0.000000
# 6 0.000000 0.000000 0.000000 -0.001968 0.000000 0.032703
#
#
# Mechanical properties :
#
#
# Convention : Reuss Voigt Hill
#
# Bulk Modulus (GPa) = 39.36772 56.12746 47.74759
# Shear Modulus (GPa) = 24.37204 28.08256 26.22730
#
# Velocity S-wave (km/s) = 3.56382 3.82550 3.69698
# Velocity P-wave (km/s) = 6.11963 6.98298 6.56551
#
# Compressibility (1/GPa) = 0.02540152
#
# Stress axis : x y z
#
# Youngs Moduli (GPa) = 56.03053 66.89904 46.41368
#
# Poissons Ratio (x) = 0.50975 0.14788
# Poissons Ratio (y) = 0.42693 0.17005
# Poissons Ratio (z) = 0.17852 0.24511
#
# Static dielectric constant tensor:
#      x y z
#    x 3.726100 0.000000 -0.251400 
#    y 0.000000 3.763540 0.000000 
#    z -0.251400 0.000000 3.219740 
# 
# 
# High freq. dielectric constant tensor:
#      x y z
#    x 1.744820 0.000000 -0.017730 
#    y 0.000000 1.762470 0.000000 
#    z -0.017730 0.000000 1.721120 
# 
# From -- ./inp_files/46980.got.cif
#   From: 2010.06.25/outbox.cif.g09.slc.cpg/sg15_24_cif.got.tgz:46980.got - 2010.06.28 07:06:18.
