data_PCOD8134170
_publ_section_title
;
Structure prediction by ZEFSAII (Michael W. Deem and Ramdas Pophale) SiO2 
 PCOD8134170
Probable space group: C 2/C
;
_chemical_formula_sum "Si O2"
_cell_formula_units_Z 48
_cell_length_a 22.816654
_cell_length_b 8.749668
_cell_length_c 17.440455
_cell_angle_alpha 90.000000
_cell_angle_beta 142.015553
_cell_angle_gamma 90.000000
_cell_volume 2142.853035
_symmetry_space_group_name_H-M "C 2/C"
_symmetry_group_IT_number 15
_symmetry_cell_setting 'monoclinic'
loop_
_space_group_symop_operation_xyz
x,y,z
-x,y,1/2-z
-x,-y,-z
x,-y,1/2+z
1/2+x,1/2+y,z
1/2-x,1/2+y,1/2-z
1/2-x,1/2-y,-z
1/2+x,1/2-y,1/2+z
loop_
_atom_site_type_symbol
_atom_site_label
_atom_site_fract_x
_atom_site_fract_y
_atom_site_fract_z
Si Si1 0.261070 0.050646 0.049691
Si Si2 0.813775 0.838959 0.821141
Si Si3 0.812953 0.852228 0.408568
Si Si4 0.948051 0.587068 0.336647
Si Si5 0.501694 0.233668 0.956170
Si Si6 0.148961 0.322399 0.991499
O O1 0.351434 0.115096 0.190949
O O2 0.172542 0.168279 0.967753
O O3 0.224694 0.886443 0.043839
O O4 0.294092 0.040519 0.994351
O O5 0.737845 0.797406 0.677569
O O6 0.815464 0.699149 0.884606
O O7 0.785143 0.997531 0.830585
O O8 0.918172 0.852186 0.891035
O O9 0.925695 0.822797 0.524668
O O10 0.941882 0.681729 0.409307
O O11 0.957329 0.408128 0.364999
O O12 0.036643 0.642434 0.375984
#
# Coordination Sequence:
#
# PCOD8134170 Si02
#       6
#     8   8   8   8   8   8
#     4  10  19  37  55  86 116 156 193 238 295 348
#     4  10  21  36  57  88 116 156 195 244 295 345
#     4  11  21  35  60  85 121 153 196 247 294 349
#     4  10  19  35  57  85 116 153 194 239 297 347
#     4  10  20  34  55  86 117 151 195 243 292 349
#     4   9  20  33  59  83 116 150 197 238 282 353
#
# _framework density 22.400044999999999
#
# number of rings (size 3 to 8) (size 9 to 14) (size 15 to 20)
#    0.000    2.000    1.667    3.000    4.667    0.000 
#    0.000    0.833    0.000    0.000    0.000    2.333 
#    0.000    0.000    0.000    0.000    0.000    0.000 
#
# Total GULP energy -297531.884541 kJ/mol
# GULP energy per Si atom -12397.161856 kJ/mol
# Density = 2.234906 g / cm^3
# Si number density = 22.400045 Si / 1000 Ang^3
#
#
#
# Elastic Constant Matrix: (Units=GPa)
#
#
# Indices 1 2 3 4 5 6 
#
# 1 115.8938 7.0230 17.9337 0.0000 25.4770 0.0000
# 2 7.0230 39.6748 -2.6443 0.0000 1.2837 0.0000
# 3 17.9337 -2.6443 33.2357 0.0000 4.9656 0.0000
# 4 0.0000 0.0000 0.0000 29.6235 0.0000 7.8320
# 5 25.4770 1.2837 4.9656 0.0000 22.7109 0.0000
# 6 0.0000 0.0000 0.0000 7.8320 0.0000 41.2083
#
#
#
# Elastic Compliance Matrix: (Units=1/GPa)
#
#
# Indices 1 2 3 4 5 6 
#
# 1 0.012283 -0.002094 -0.004914 0.000000 -0.012586 0.000000
# 2 -0.002094 0.025779 0.003151 0.000000 0.000204 0.000000
# 3 -0.004914 0.003151 0.033280 0.000000 -0.001942 0.000000
# 4 0.000000 0.000000 0.000000 0.035543 0.000000 -0.006755
# 5 -0.012586 0.000204 -0.001942 0.000000 0.058564 0.000000
# 6 0.000000 0.000000 0.000000 -0.006755 0.000000 0.025551
#
#
# Mechanical properties :
#
#
# Convention : Reuss Voigt Hill
#
# Bulk Modulus (GPa) = 15.71656 25.93657 20.82657
# Shear Modulus (GPa) = 22.73518 29.80803 26.27160
#
# Velocity S-wave (km/s) = 3.18930 3.65185 3.42839
# Velocity P-wave (km/s) = 4.53803 5.42082 4.99895
#
# Compressibility (1/GPa) = 0.06362716
#
# Stress axis : x y z
#
# Youngs Moduli (GPa) = 81.41577 38.79111 30.04766
#
# Poissons Ratio (x) = 0.08125 0.14765
# Poissons Ratio (y) = 0.17052 -0.09467
# Poissons Ratio (z) = 0.40007 -0.12222
#
# Static dielectric constant tensor:
#      x y z
#    x 4.512210 0.000000 0.111880 
#    y 0.000000 3.704620 0.000000 
#    z 0.111880 0.000000 3.631260 
# 
# 
# High freq. dielectric constant tensor:
#      x y z
#    x 1.902780 0.000000 0.022960 
#    y 0.000000 1.854320 0.000000 
#    z 0.022960 0.000000 1.854400 
# 
# From -- ./inp_files/254908.got.cif
#   From: 2010.06.25/outbox.cif.g09.slc.cpg/sg15_128_cif.got.tgz:254908.got - 2010.06.28 07:06:18.
