data_PCOD8134600
_publ_section_title
;
Structure prediction by ZEFSAII (Michael W. Deem and Ramdas Pophale) SiO2 
 PCOD8134600
Probable space group: C 2/C
;
_chemical_formula_sum "Si O2"
_cell_formula_units_Z 44
_cell_length_a 5.105955
_cell_length_b 28.132837
_cell_length_c 16.931242
_cell_angle_alpha 90.000000
_cell_angle_beta 66.703202
_cell_angle_gamma 90.000000
_cell_volume 2233.796413
_symmetry_space_group_name_H-M "C 2/C"
_symmetry_group_IT_number 15
_symmetry_cell_setting 'monoclinic'
loop_
_space_group_symop_operation_xyz
x,y,z
-x,y,1/2-z
-x,-y,-z
x,-y,1/2+z
1/2+x,1/2+y,z
1/2-x,1/2+y,1/2-z
1/2-x,1/2-y,-z
1/2+x,1/2-y,1/2+z
loop_
_atom_site_type_symbol
_atom_site_label
_atom_site_fract_x
_atom_site_fract_y
_atom_site_fract_z
Si Si1 0.000000 0.015511 0.750000
Si Si2 0.874440 0.103227 0.494049
Si Si3 0.724918 0.586683 0.599652
Si Si4 0.316012 0.575971 0.202610
Si Si5 0.800073 0.792371 0.054015
Si Si6 0.335291 0.691860 0.845775
O O1 0.798546 0.047042 0.830009
O O2 0.807927 0.981349 0.717103
O O3 0.545953 0.087769 0.528468
O O4 0.898432 0.160310 0.496400
O O5 0.017653 0.076176 0.550806
O O6 0.045567 0.087358 0.397211
O O7 0.616431 0.635880 0.649568
O O8 0.500000 0.600906 0.250000
O O9 0.000000 0.596937 0.250000
O O10 0.496064 0.799766 0.131621
O O11 0.038372 0.780555 0.092253
O O12 0.750000 0.750000 0.000000
O O13 0.500000 0.710917 0.750000
#
# Coordination Sequence:
#
# PCOD8134600 Si02
#       6
#     4   8   8   8   8   8
#     4  10  24  36  58  86 116 146 190 246 280 326
#     4  10  22  39  59  81 113 157 185 230 296 340
#     4  10  21  35  60  85 114 147 186 235 291 342
#     4  10  23  40  55  80 116 152 195 236 280 334
#     4  10  21  37  59  85 115 147 188 235 279 343
#     4  10  19  36  58  86 116 144 181 235 289 336
#
# _framework density 19.697410000000001
#
# number of rings (size 3 to 8) (size 9 to 14) (size 15 to 20)
#    0.545    1.455    0.909    2.182    2.545    1.455 
#    0.000    2.727    0.000    0.000    0.000    0.000 
#    0.000    0.000    0.000    0.000    0.000    0.000 
#
# Total GULP energy -272719.327389 kJ/mol
# GULP energy per Si atom -12396.333063 kJ/mol
# Density = 1.965258 g / cm^3
# Si number density = 19.697410 Si / 1000 Ang^3
#
#
#
# Elastic Constant Matrix: (Units=GPa)
#
#
# Indices 1 2 3 4 5 6 
#
# 1 109.4023 16.7525 28.8832 0.0000 -0.2726 0.0000
# 2 16.7525 63.7535 46.7845 0.0000 5.5060 0.0000
# 3 28.8832 46.7845 131.8200 0.0000 -4.4282 0.0000
# 4 0.0000 0.0000 0.0000 19.0042 0.0000 3.3706
# 5 -0.2726 5.5060 -4.4282 0.0000 25.3666 0.0000
# 6 0.0000 0.0000 0.0000 3.3706 0.0000 11.5686
#
#
#
# Elastic Compliance Matrix: (Units=1/GPa)
#
#
# Indices 1 2 3 4 5 6 
#
# 1 0.009787 -0.001367 -0.001656 0.000000 0.000113 0.000000
# 2 -0.001367 0.022333 -0.007836 0.000000 -0.006230 0.000000
# 3 -0.001656 -0.007836 0.010850 0.000000 0.003577 0.000000
# 4 0.000000 0.000000 0.000000 0.055487 0.000000 -0.016167
# 5 0.000113 -0.006230 0.003577 0.000000 0.041400 0.000000
# 6 0.000000 0.000000 0.000000 -0.016167 0.000000 0.091151
#
#
# Mechanical properties :
#
#
# Convention : Reuss Voigt Hill
#
# Bulk Modulus (GPa) = 47.05062 54.42402 50.73732
# Shear Modulus (GPa) = 19.24484 25.35825 22.30154
#
# Velocity S-wave (km/s) = 3.12913 3.59191 3.36848
# Velocity P-wave (km/s) = 6.08226 6.70019 6.39868
#
# Compressibility (1/GPa) = 0.02125371
#
# Stress axis : x y z
#
# Youngs Moduli (GPa) = 102.17395 44.77688 92.16438
#
# Poissons Ratio (x) = 0.06119 0.15260
# Poissons Ratio (y) = 0.13962 0.72221
# Poissons Ratio (z) = 0.16917 0.35088
#
# Static dielectric constant tensor:
#      x y z
#    x 3.921740 0.000000 0.071480 
#    y 0.000000 3.373890 0.000000 
#    z 0.071480 0.000000 3.422490 
# 
# 
# High freq. dielectric constant tensor:
#      x y z
#    x 1.782260 0.000000 0.000110 
#    y 0.000000 1.739550 0.000000 
#    z 0.000110 0.000000 1.770420 
# 
# From -- ./inp_files/129722.got.cif
#   From: 2010.06.25/outbox.cif.g09.slc.cpg/sg15_65_cif.got.tgz:129722.got - 2010.06.28 07:06:18.
