data_PCOD8134650
_publ_section_title
;
Structure prediction by ZEFSAII (Michael W. Deem and Ramdas Pophale) SiO2 
 PCOD8134650
Probable space group: C 2/C
;
_chemical_formula_sum "Si O2"
_cell_formula_units_Z 44
_cell_length_a 7.400289
_cell_length_b 25.862108
_cell_length_c 12.739285
_cell_angle_alpha 90.000000
_cell_angle_beta 63.554865
_cell_angle_gamma 90.000000
_cell_volume 2183.011054
_symmetry_space_group_name_H-M "C 2/C"
_symmetry_group_IT_number 15
_symmetry_cell_setting 'monoclinic'
loop_
_space_group_symop_operation_xyz
x,y,z
-x,y,1/2-z
-x,-y,-z
x,-y,1/2+z
1/2+x,1/2+y,z
1/2-x,1/2+y,1/2-z
1/2-x,1/2-y,-z
1/2+x,1/2-y,1/2+z
loop_
_atom_site_type_symbol
_atom_site_label
_atom_site_fract_x
_atom_site_fract_y
_atom_site_fract_z
Si Si1 0.928171 0.615076 0.028451
Si Si2 0.285248 0.050525 0.251892
Si Si3 0.172518 0.433932 0.287858
Si Si4 0.498179 0.362959 0.873758
Si Si5 0.228173 0.189396 0.498965
Si Si6 0.500000 0.642213 0.750000
O O1 0.074629 0.577262 0.926395
O O2 0.055560 0.660191 0.052094
O O3 0.803749 0.578327 0.137239
O O4 0.731661 0.638681 0.019583
O O5 0.500000 0.055977 0.250000
O O6 0.105168 0.080119 0.360144
O O7 0.230867 0.990716 0.247691
O O8 0.349250 0.393541 0.222192
O O9 0.000000 0.423193 0.250000
O O10 0.500000 0.344559 0.750000
O O11 0.622371 0.323932 0.915847
O O12 0.250000 0.250000 0.500000
O O13 0.105511 0.176483 0.635472
#
# Coordination Sequence:
#
# PCOD8134650 Si02
#       6
#     8   8   8   8   8   4
#     4  10  21  38  59  86 125 157 206 256 300 369
#     4  10  19  36  59  89 123 162 200 247 305 363
#     4  10  21  37  56  86 125 163 201 244 306 368
#     4  10  22  38  64  92 125 157 207 261 302 369
#     4  11  24  44  65  90 122 167 208 261 311 355
#     4  10  24  40  62  90 126 162 208 252 306 376
#
# _framework density 20.155646999999998
#
# number of rings (size 3 to 8) (size 9 to 14) (size 15 to 20)
#    0.000    1.818    1.818    1.636    3.818    3.636 
#    0.000    6.364    0.000    0.000    0.000    0.000 
#    0.000    0.000    0.000    0.000    0.000    0.000 
#
# Total GULP energy -272631.056279 kJ/mol
# GULP energy per Si atom -12392.320740 kJ/mol
# Density = 2.010977 g / cm^3
# Si number density = 20.155647 Si / 1000 Ang^3
#
#
#
# Elastic Constant Matrix: (Units=GPa)
#
#
# Indices 1 2 3 4 5 6 
#
# 1 134.6853 75.2977 32.1659 0.0000 -0.4506 0.0000
# 2 75.2977 148.0204 41.2441 0.0000 10.7359 0.0000
# 3 32.1659 41.2441 54.3686 0.0000 2.4439 0.0000
# 4 0.0000 0.0000 0.0000 23.7250 0.0000 10.3334
# 5 -0.4506 10.7359 2.4439 0.0000 32.2242 0.0000
# 6 0.0000 0.0000 0.0000 10.3334 0.0000 20.8873
#
#
#
# Elastic Compliance Matrix: (Units=1/GPa)
#
#
# Indices 1 2 3 4 5 6 
#
# 1 0.010822 -0.004870 -0.002798 0.000000 0.001986 0.000000
# 2 -0.004870 0.010942 -0.005271 0.000000 -0.003314 0.000000
# 3 -0.002798 -0.005271 0.024051 0.000000 -0.000107 0.000000
# 4 0.000000 0.000000 0.000000 0.053726 0.000000 -0.026580
# 5 0.001986 -0.003314 -0.000107 0.000000 0.032172 0.000000
# 6 0.000000 0.000000 0.000000 -0.026580 0.000000 0.061026
#
#
# Mechanical properties :
#
#
# Convention : Reuss Voigt Hill
#
# Bulk Modulus (GPa) = 50.15228 70.49886 60.32557
# Shear Modulus (GPa) = 22.19638 27.92508 25.06073
#
# Velocity S-wave (km/s) = 3.32211 3.72623 3.52996
# Velocity P-wave (km/s) = 6.29696 7.31889 6.82708
#
# Compressibility (1/GPa) = 0.01993927
#
# Stress axis : x y z
#
# Youngs Moduli (GPa) = 92.40493 91.39170 41.57780
#
# Poissons Ratio (x) = 0.44504 0.11632
# Poissons Ratio (y) = 0.44997 0.21914
# Poissons Ratio (z) = 0.25852 0.48169
#
# Static dielectric constant tensor:
#      x y z
#    x 4.533380 0.000000 -0.272760 
#    y 0.000000 3.532060 0.000000 
#    z -0.272760 0.000000 1.812960 
# 
# 
# High freq. dielectric constant tensor:
#      x y z
#    x 1.814490 0.000000 -0.003670 
#    y 0.000000 1.770300 0.000000 
#    z -0.003670 0.000000 1.777820 
# 
# From -- ./inp_files/79692.got.cif
#   From: 2010.06.25/outbox.cif.g09.slc.cpg/sg15_40_cif.got.tgz:79692.got - 2010.06.28 07:06:18.
