data_PCOD8134322
_publ_section_title
;
Structure prediction by ZEFSAII (Michael W. Deem and Ramdas Pophale) SiO2 
 PCOD8134322
Probable space group: C 2/C
;
_chemical_formula_sum "Si O2"
_cell_formula_units_Z 60
_cell_length_a 26.891326
_cell_length_b 11.535522
_cell_length_c 19.058533
_cell_angle_alpha 90.000000
_cell_angle_beta 147.054349
_cell_angle_gamma 90.000000
_cell_volume 3215.234720
_symmetry_space_group_name_H-M "C 2/C"
_symmetry_group_IT_number 15
_symmetry_cell_setting 'monoclinic'
loop_
_space_group_symop_operation_xyz
x,y,z
-x,y,1/2-z
-x,-y,-z
x,-y,1/2+z
1/2+x,1/2+y,z
1/2-x,1/2+y,1/2-z
1/2-x,1/2-y,-z
1/2+x,1/2-y,1/2+z
loop_
_atom_site_type_symbol
_atom_site_label
_atom_site_fract_x
_atom_site_fract_y
_atom_site_fract_z
Si Si1 0.673333 0.626509 0.978894
Si Si2 0.612393 0.289777 0.814376
Si Si3 0.293190 0.010327 0.719750
Si Si4 0.149101 0.535843 0.055034
Si Si5 0.274084 0.257953 0.413992
Si Si6 0.000000 0.025991 0.250000
Si Si7 0.179923 0.607080 0.463996
Si Si8 0.941947 0.464689 0.280792
O O1 0.579421 0.556441 0.872589
O O2 0.653037 0.762484 0.951891
O O3 0.731913 0.595186 0.117376
O O4 0.729748 0.592480 0.976144
O O5 0.677654 0.301311 0.823384
O O6 0.536336 0.391650 0.729034
O O7 0.562887 0.165561 0.754804
O O8 0.674556 0.304414 0.956721
O O9 0.240414 0.131761 0.652593
O O10 0.385557 0.018753 0.784836
O O11 0.315116 0.988647 0.825780
O O12 0.164338 0.670665 0.057197
O O13 0.204847 0.459504 0.064984
O O14 0.043797 0.501455 0.922217
O O15 0.093672 0.549003 0.322777
#
# Coordination Sequence:
#
# PCOD8134322 Si02
#       8
#     8   8   8   8   8   4   8   8
#     4  10  23  40  58  82 122 152 189 237 291 339
#     4  10  19  35  60  87 114 140 194 248 287 322
#     4  10  23  40  55  82 126 153 181 234 303 344
#     4  12  22  34  64  85 114 150 198 230 284 352
#     4  10  20  37  57  84 116 153 184 239 293 338
#     4  12  20  32  62  90 108 146 196 244 280 336
#     4  10  22  40  59  85 114 154 192 240 285 340
#     4  10  21  38  60  88 112 146 198 247 277 330
#
# _framework density 18.661156999999999
#
# number of rings (size 3 to 8) (size 9 to 14) (size 15 to 20)
#    0.000    1.600    2.667    2.400    3.733    0.000 
#    0.000    0.000    0.000    3.200    0.000    0.000 
#    0.000    0.000    0.000    0.000    0.000    0.000 
#
# Total GULP energy -372040.314130 kJ/mol
# GULP energy per Si atom -12401.343804 kJ/mol
# Density = 1.861868 g / cm^3
# Si number density = 18.661157 Si / 1000 Ang^3
#
#
#
# Elastic Constant Matrix: (Units=GPa)
#
#
# Indices 1 2 3 4 5 6 
#
# 1 72.0304 46.3670 52.0489 0.0000 -16.0596 0.0000
# 2 46.3670 118.9774 56.0422 0.0000 -4.3630 0.0000
# 3 52.0489 56.0422 100.3691 0.0000 -9.0390 0.0000
# 4 0.0000 0.0000 0.0000 25.2815 0.0000 9.6449
# 5 -16.0596 -4.3630 -9.0390 0.0000 32.4966 0.0000
# 6 0.0000 0.0000 0.0000 9.6449 0.0000 23.7873
#
#
#
# Elastic Compliance Matrix: (Units=1/GPa)
#
#
# Indices 1 2 3 4 5 6 
#
# 1 0.026707 -0.005346 -0.009991 0.000000 0.009702 0.000000
# 2 -0.005346 0.012477 -0.004391 0.000000 -0.002188 0.000000
# 3 -0.009991 -0.004391 0.017537 0.000000 -0.000649 0.000000
# 4 0.000000 0.000000 0.000000 0.046793 0.000000 -0.018973
# 5 0.009702 -0.002188 -0.000649 0.000000 0.035093 0.000000
# 6 0.000000 0.000000 0.000000 -0.018973 0.000000 0.049732
#
#
# Mechanical properties :
#
#
# Convention : Reuss Voigt Hill
#
# Bulk Modulus (GPa) = 57.92101 66.69921 62.31011
# Shear Modulus (GPa) = 21.40880 25.44099 23.42490
#
# Velocity S-wave (km/s) = 3.39077 3.69631 3.54683
# Velocity P-wave (km/s) = 6.81435 7.35097 7.08774
#
# Compressibility (1/GPa) = 0.01726489
#
# Stress axis : x y z
#
# Youngs Moduli (GPa) = 37.44389 80.15040 57.02087
#
# Poissons Ratio (x) = 0.42851 0.56967
# Poissons Ratio (y) = 0.20019 0.25038
# Poissons Ratio (z) = 0.37408 0.35194
#
# Static dielectric constant tensor:
#      x y z
#    x 3.452810 0.000000 0.187210 
#    y 0.000000 3.561110 0.000000 
#    z 0.187210 0.000000 3.289950 
# 
# 
# High freq. dielectric constant tensor:
#      x y z
#    x 1.720970 0.000000 0.016440 
#    y 0.000000 1.733560 0.000000 
#    z 0.016440 0.000000 1.709430 
# 
# From -- ./inp_files/167597.got.cif
#   From: 2010.06.25/outbox.cif.g09.slc.cpg/sg15_84_cif.got.tgz:167597.got - 2010.06.28 07:06:18.
