data_PCOD8134117
_publ_section_title
;
Structure prediction by ZEFSAII (Michael W. Deem and Ramdas Pophale) SiO2 
 PCOD8134117
Probable space group: C 2/C
;
_chemical_formula_sum "Si O2"
_cell_formula_units_Z 60
_cell_length_a 16.997198
_cell_length_b 8.625420
_cell_length_c 21.734475
_cell_angle_alpha 90.000000
_cell_angle_beta 86.014287
_cell_angle_gamma 90.000000
_cell_volume 3178.740594
_symmetry_space_group_name_H-M "C 2/C"
_symmetry_group_IT_number 15
_symmetry_cell_setting 'monoclinic'
loop_
_space_group_symop_operation_xyz
x,y,z
-x,y,1/2-z
-x,-y,-z
x,-y,1/2+z
1/2+x,1/2+y,z
1/2-x,1/2+y,1/2-z
1/2-x,1/2-y,-z
1/2+x,1/2-y,1/2+z
loop_
_atom_site_type_symbol
_atom_site_label
_atom_site_fract_x
_atom_site_fract_y
_atom_site_fract_z
Si Si1 0.628703 0.540370 0.758881
Si Si2 0.000000 0.450098 0.250000
Si Si3 0.334814 0.637913 0.931770
Si Si4 0.135176 0.160116 0.140778
Si Si5 0.453379 0.289847 0.663648
Si Si6 0.605696 0.177995 0.180008
Si Si7 0.740355 0.047001 0.654240
Si Si8 0.824707 0.811974 0.570794
O O1 0.654929 0.422404 0.704083
O O2 0.565030 0.458593 0.806671
O O3 0.590861 0.693980 0.732947
O O4 0.703937 0.598102 0.793120
O O5 0.062561 0.339571 0.282303
O O6 0.037978 0.550857 0.193226
O O7 0.344626 0.456883 0.915671
O O8 0.394866 0.741831 0.887254
O O9 0.243800 0.682779 0.924433
O O10 0.359068 0.666731 0.000696
O O11 0.189277 0.311507 0.131035
O O12 0.044475 0.212922 0.139152
O O13 0.396333 0.253175 0.609682
O O14 0.688649 0.092664 0.184631
O O15 0.791437 0.977843 0.595070
#
# Coordination Sequence:
#
# PCOD8134117 Si02
#       8
#     8   4   8   8   8   8   8   8
#     4  10  20  33  55  81 115 151 185 232 286 355
#     4  12  22  34  56  84 122 146 180 236 292 344
#     4   9  21  40  61  79 113 154 199 232 278 339
#     4  11  20  34  57  83 115 148 187 243 286 336
#     4  11  21  37  58  85 117 149 185 239 296 333
#     4  10  21  33  56  82 112 150 185 231 282 340
#     4  10  19  35  56  84 110 147 194 233 285 337
#     4   9  21  41  61  79 111 155 195 237 281 337
#
# _framework density 18.875399999999999
#
# number of rings (size 3 to 8) (size 9 to 14) (size 15 to 20)
#    0.000    1.867    2.667    0.800    3.733    6.400 
#    0.000    0.667    0.000    0.000    0.000    0.000 
#    0.000    0.000    0.000    0.000    0.000    0.000 
#
# Total GULP energy -371953.478204 kJ/mol
# GULP energy per Si atom -12398.449273 kJ/mol
# Density = 1.883244 g / cm^3
# Si number density = 18.875400 Si / 1000 Ang^3
#
#
#
# Elastic Constant Matrix: (Units=GPa)
#
#
# Indices 1 2 3 4 5 6 
#
# 1 83.9408 41.7649 50.0256 0.0000 9.2493 0.0000
# 2 41.7649 105.3781 44.3114 0.0000 3.2322 0.0000
# 3 50.0256 44.3114 113.2588 0.0000 11.7712 0.0000
# 4 0.0000 0.0000 0.0000 21.9188 0.0000 -7.7864
# 5 9.2493 3.2322 11.7712 0.0000 26.9695 0.0000
# 6 0.0000 0.0000 0.0000 -7.7864 0.0000 27.9032
#
#
#
# Elastic Compliance Matrix: (Units=1/GPa)
#
#
# Indices 1 2 3 4 5 6 
#
# 1 0.018018 -0.004590 -0.005843 0.000000 -0.003079 0.000000
# 2 -0.004590 0.012537 -0.003022 0.000000 0.001391 0.000000
# 3 -0.005843 -0.003022 0.012933 0.000000 -0.003279 0.000000
# 4 0.000000 0.000000 0.000000 0.050643 0.000000 0.014132
# 5 -0.003079 0.001391 -0.003279 0.000000 0.039399 0.000000
# 6 0.000000 0.000000 0.000000 0.014132 0.000000 0.039782
#
#
# Mechanical properties :
#
#
# Convention : Reuss Voigt Hill
#
# Bulk Modulus (GPa) = 60.31822 63.86462 62.09142
# Shear Modulus (GPa) = 24.30153 26.45669 25.37911
#
# Velocity S-wave (km/s) = 3.59203 3.74792 3.67080
# Velocity P-wave (km/s) = 7.01633 7.25517 7.13675
#
# Compressibility (1/GPa) = 0.01657874
#
# Stress axis : x y z
#
# Youngs Moduli (GPa) = 55.49935 79.76429 77.32038
#
# Poissons Ratio (x) = 0.36611 0.45176
# Poissons Ratio (y) = 0.25474 0.23367
# Poissons Ratio (z) = 0.32427 0.24106
#
# Static dielectric constant tensor:
#      x y z
#    x 3.336050 0.000000 -0.059800 
#    y 0.000000 3.570820 0.000000 
#    z -0.059800 0.000000 3.434570 
# 
# 
# High freq. dielectric constant tensor:
#      x y z
#    x 1.722390 0.000000 -0.005160 
#    y 0.000000 1.739240 0.000000 
#    z -0.005160 0.000000 1.722160 
# 
# From -- ./inp_files/247447.got.cif
#   From: 2010.06.25/outbox.cif.g09.slc.cpg/sg15_124_cif.got.tgz:247447.got - 2010.06.28 07:06:18.
