data_PCOD8134282
_publ_section_title
;
Structure prediction by ZEFSAII (Michael W. Deem and Ramdas Pophale) SiO2 
 PCOD8134282
Probable space group: C 2/C
;
_chemical_formula_sum "Si O2"
_cell_formula_units_Z 56
_cell_length_a 23.516826
_cell_length_b 19.744089
_cell_length_c 10.263773
_cell_angle_alpha 90.000000
_cell_angle_beta 144.278329
_cell_angle_gamma 90.000000
_cell_volume 2782.421255
_symmetry_space_group_name_H-M "C 2/C"
_symmetry_group_IT_number 15
_symmetry_cell_setting 'monoclinic'
loop_
_space_group_symop_operation_xyz
x,y,z
-x,y,1/2-z
-x,-y,-z
x,-y,1/2+z
1/2+x,1/2+y,z
1/2-x,1/2+y,1/2-z
1/2-x,1/2-y,-z
1/2+x,1/2-y,1/2+z
loop_
_atom_site_type_symbol
_atom_site_label
_atom_site_fract_x
_atom_site_fract_y
_atom_site_fract_z
Si Si1 0.000000 0.644304 0.250000
Si Si2 0.446147 0.818599 0.364420
Si Si3 0.659176 0.494517 0.253320
Si Si4 0.255974 0.114849 0.557742
Si Si5 0.512876 0.424583 0.134270
Si Si6 0.000000 0.422305 0.250000
Si Si7 0.944302 0.168944 0.273367
Si Si8 0.155101 0.460591 0.048539
O O1 0.026940 0.686078 0.430665
O O2 0.087627 0.597239 0.361639
O O3 0.330521 0.831795 0.133966
O O4 0.502042 0.876767 0.385205
O O5 0.469474 0.747133 0.343937
O O6 0.702514 0.569153 0.352945
O O7 0.624239 0.451764 0.316315
O O8 0.741283 0.454015 0.329880
O O9 0.557771 0.508693 0.988360
O O10 0.170599 0.157337 0.469839
O O11 0.320874 0.060932 0.759652
O O12 0.500000 0.387778 0.250000
O O13 0.483636 0.372016 0.969422
O O14 0.098728 0.467644 0.437163
O O15 0.000000 0.143125 0.250000
#
# Coordination Sequence:
#
# PCOD8134282 Si02
#       8
#     4   8   8   8   8   4   8   8
#     4   9  24  36  60  88 122 157 190 248 302 355
#     4  11  22  42  59  88 121 159 204 238 295 359
#     4  10  19  35  59  87 121 154 190 245 302 358
#     4  10  21  36  61  87 116 155 194 241 302 351
#     4  10  22  37  58  90 119 155 201 247 303 349
#     4  11  22  36  66  92 118 157 198 244 300 361
#     4  11  23  40  63  83 117 164 203 246 291 357
#     4  10  20  35  60  90 122 148 192 248 305 355
#
# _framework density 20.126356000000001
#
# number of rings (size 3 to 8) (size 9 to 14) (size 15 to 20)
#    0.000    1.714    2.143    2.143    3.000    5.714 
#    0.000    0.000    0.000    2.571    0.000    0.000 
#    0.000    0.000    0.000    0.000    0.000    0.000 
#
# Total GULP energy -346915.027699 kJ/mol
# GULP energy per Si atom -12389.822418 kJ/mol
# Density = 2.008055 g / cm^3
# Si number density = 20.126356 Si / 1000 Ang^3
#
#
#
# Elastic Constant Matrix: (Units=GPa)
#
#
# Indices 1 2 3 4 5 6 
#
# 1 125.2723 28.4442 39.7630 0.0000 5.6302 0.0000
# 2 28.4442 74.4174 22.3849 0.0000 -2.9513 0.0000
# 3 39.7630 22.3849 72.4113 0.0000 12.0218 0.0000
# 4 0.0000 0.0000 0.0000 19.9270 0.0000 1.3146
# 5 5.6302 -2.9513 12.0218 0.0000 42.5768 0.0000
# 6 0.0000 0.0000 0.0000 1.3146 0.0000 27.7699
#
#
#
# Elastic Compliance Matrix: (Units=1/GPa)
#
#
# Indices 1 2 3 4 5 6 
#
# 1 0.010044 -0.002419 -0.004742 0.000000 -0.000157 0.000000
# 2 -0.002419 0.015642 -0.003924 0.000000 0.002512 0.000000
# 3 -0.004742 -0.003924 0.018432 0.000000 -0.004849 0.000000
# 4 0.000000 0.000000 0.000000 0.050340 0.000000 -0.002383
# 5 -0.000157 0.002512 -0.004849 0.000000 0.025051 0.000000
# 6 0.000000 0.000000 0.000000 -0.002383 0.000000 0.036123
#
#
# Mechanical properties :
#
#
# Convention : Reuss Voigt Hill
#
# Bulk Modulus (GPa) = 45.56117 50.36501 47.96309
# Shear Modulus (GPa) = 27.00969 30.15534 28.58251
#
# Velocity S-wave (km/s) = 3.66731 3.87499 3.77258
# Velocity P-wave (km/s) = 6.37330 6.71561 6.54669
#
# Compressibility (1/GPa) = 0.02194852
#
# Stress axis : x y z
#
# Youngs Moduli (GPa) = 99.56250 63.92874 54.25369
#
# Poissons Ratio (x) = 0.15465 0.25724
# Poissons Ratio (y) = 0.24084 0.21291
# Poissons Ratio (z) = 0.47208 0.25088
#
# Static dielectric constant tensor:
#      x y z
#    x 3.747580 0.000000 0.324930 
#    y 0.000000 3.497330 0.000000 
#    z 0.324930 0.000000 3.914880 
# 
# 
# High freq. dielectric constant tensor:
#      x y z
#    x 1.789370 0.000000 0.016100 
#    y 0.000000 1.770940 0.000000 
#    z 0.016100 0.000000 1.784670 
# 
# From -- ./inp_files/119889.got.cif
#   From: 2010.06.25/outbox.cif.g09.slc.cpg/sg15_60_cif.got.tgz:119889.got - 2010.06.28 07:06:18.
