data_PCOD8134727
_publ_section_title
;
Structure prediction by ZEFSAII (Michael W. Deem and Ramdas Pophale) SiO2 
 PCOD8134727
Probable space group: C 2/C
;
_chemical_formula_sum "Si O2"
_cell_formula_units_Z 48
_cell_length_a 26.301871
_cell_length_b 10.814948
_cell_length_c 14.553422
_cell_angle_alpha 90.000000
_cell_angle_beta 34.964534
_cell_angle_gamma 90.000000
_cell_volume 2372.374921
_symmetry_space_group_name_H-M "C 2/C"
_symmetry_group_IT_number 15
_symmetry_cell_setting 'monoclinic'
loop_
_space_group_symop_operation_xyz
x,y,z
-x,y,1/2-z
-x,-y,-z
x,-y,1/2+z
1/2+x,1/2+y,z
1/2-x,1/2+y,1/2-z
1/2-x,1/2-y,-z
1/2+x,1/2-y,1/2+z
loop_
_atom_site_type_symbol
_atom_site_label
_atom_site_fract_x
_atom_site_fract_y
_atom_site_fract_z
Si Si1 0.318413 0.512914 0.494862
Si Si2 0.562853 0.311024 0.239891
Si Si3 0.939366 0.025019 0.486664
Si Si4 0.126500 0.405984 0.308978
Si Si5 0.390474 0.632149 0.214041
Si Si6 0.982788 0.449212 0.668214
O O1 0.343301 0.370813 0.431035
O O2 0.387239 0.556170 0.471672
O O3 0.219089 0.520851 0.678250
O O4 0.330167 0.605075 0.391950
O O5 0.500000 0.272248 0.250000
O O6 0.510741 0.412515 0.375670
O O7 0.574225 0.176770 0.269960
O O8 0.873605 0.979765 0.665105
O O9 0.003683 0.140267 0.416558
O O10 0.142225 0.259228 0.282488
O O11 0.074341 0.441993 0.293256
O O12 0.076577 0.440742 0.476786
O O13 0.000000 0.479827 0.750000
#
# Coordination Sequence:
#
# PCOD8134727 Si02
#       6
#     8   8   8   8   8   8
#     4  10  21  35  59  91 119 144 199 263 296 337
#     4   8  15  34  60  79 104 155 203 234 280 347
#     4   9  18  35  60  85 110 155 205 239 289 358
#     4  11  23  38  57  91 122 150 197 248 305 354
#     4  10  19  36  61  84 117 157 193 247 299 357
#     4  10  22  40  61  77 117 171 198 231 295 375
#
# _framework density 20.232890999999999
#
# number of rings (size 3 to 8) (size 9 to 14) (size 15 to 20)
#    0.000    2.333    1.667    2.000    0.000    3.333 
#    0.000    3.333    0.000    0.000    0.000    0.000 
#    0.000    0.000    0.000    0.000    0.000    0.000 
#
# Total GULP energy -297406.100229 kJ/mol
# GULP energy per Si atom -12391.920843 kJ/mol
# Density = 2.018684 g / cm^3
# Si number density = 20.232891 Si / 1000 Ang^3
#
#
#
# Elastic Constant Matrix: (Units=GPa)
#
#
# Indices 1 2 3 4 5 6 
#
# 1 56.2952 6.0938 35.7423 0.0000 22.2295 0.0000
# 2 6.0938 51.6669 29.9372 -0.0001 -5.7373 0.0000
# 3 35.7423 29.9372 121.0084 0.0000 2.1750 0.0000
# 4 0.0000 -0.0001 0.0000 23.4481 0.0000 1.4091
# 5 22.2295 -5.7373 2.1750 0.0000 28.2457 0.0000
# 6 0.0000 0.0000 0.0000 1.4091 0.0000 19.8353
#
#
#
# Elastic Compliance Matrix: (Units=1/GPa)
#
#
# Indices 1 2 3 4 5 6 
#
# 1 0.034342 -0.001646 -0.009258 0.000000 -0.026649 0.000000
# 2 -0.001646 0.023408 -0.005421 0.000000 0.006467 0.000000
# 3 -0.009258 -0.005421 0.012245 0.000000 0.005242 0.000000
# 4 0.000000 0.000000 0.000000 0.042830 0.000000 -0.003043
# 5 -0.026649 0.006467 0.005242 0.000000 0.057286 0.000000
# 6 0.000000 0.000000 0.000000 -0.003043 0.000000 0.050631
#
#
# Mechanical properties :
#
#
# Convention : Reuss Voigt Hill
#
# Bulk Modulus (GPa) = 26.77606 41.39080 34.08343
# Shear Modulus (GPa) = 18.80818 24.78564 21.79691
#
# Velocity S-wave (km/s) = 3.05222 3.50382 3.28579
# Velocity P-wave (km/s) = 5.06794 6.07212 5.59261
#
# Compressibility (1/GPa) = 0.03734680
#
# Stress axis : x y z
#
# Youngs Moduli (GPa) = 29.11862 42.71999 81.66383
#
# Poissons Ratio (x) = 0.07030 0.75601
# Poissons Ratio (y) = 0.04792 0.44273
# Poissons Ratio (z) = 0.26957 0.23160
#
# Static dielectric constant tensor:
#      x y z
#    x 3.602550 0.000000 0.186480 
#    y 0.000000 3.619230 0.000000 
#    z 0.186480 0.000000 3.708810 
# 
# 
# High freq. dielectric constant tensor:
#      x y z
#    x 1.778960 0.000000 0.026830 
#    y 0.000000 1.775460 0.000000 
#    z 0.026830 0.000000 1.782980 
# 
# From -- ./inp_files/177756.got.cif
#   From: 2010.06.25/outbox.cif.g09.slc.cpg/sg15_89_cif.got.tgz:177756.got - 2010.06.28 07:06:18.
