data_PCOD8134922
_publ_section_title
;
Structure prediction by ZEFSAII (Michael W. Deem and Ramdas Pophale) SiO2 
 PCOD8134922
Probable space group: C 2/C
;
_chemical_formula_sum "Si O2"
_cell_formula_units_Z 56
_cell_length_a 9.258575
_cell_length_b 16.767956
_cell_length_c 20.976722
_cell_angle_alpha 90.000000
_cell_angle_beta 120.126988
_cell_angle_gamma 90.000000
_cell_volume 2816.666157
_symmetry_space_group_name_H-M "C 2/C"
_symmetry_group_IT_number 15
_symmetry_cell_setting 'monoclinic'
loop_
_space_group_symop_operation_xyz
x,y,z
-x,y,1/2-z
-x,-y,-z
x,-y,1/2+z
1/2+x,1/2+y,z
1/2-x,1/2+y,1/2-z
1/2-x,1/2-y,-z
1/2+x,1/2-y,1/2+z
loop_
_atom_site_type_symbol
_atom_site_label
_atom_site_fract_x
_atom_site_fract_y
_atom_site_fract_z
Si Si1 0.785751 0.808308 0.865268
Si Si2 0.799093 0.262273 0.917909
Si Si3 0.646004 0.983595 0.982033
Si Si4 0.160148 0.686997 0.523373
Si Si5 0.499913 0.071869 0.178646
Si Si6 0.619201 0.367884 0.975317
Si Si7 0.317837 0.665237 0.229432
O O1 0.804688 0.718424 0.897347
O O2 0.603945 0.845182 0.839342
O O3 0.819194 0.795110 0.798595
O O4 0.917434 0.871859 0.926210
O O5 0.658458 0.303095 0.929684
O O6 0.740978 0.265266 0.831981
O O7 0.826022 0.170024 0.944439
O O8 0.964223 0.315552 0.964601
O O9 0.576620 0.983601 0.893914
O O10 0.730754 0.900584 0.023288
O O11 0.500000 0.000000 0.000000
O O12 0.794163 0.047933 0.017977
O O13 0.250000 0.750000 0.500000
O O14 0.500000 0.031462 0.250000
O O15 0.689542 0.091092 0.199898
O O16 0.500000 0.632066 0.250000
#
# Coordination Sequence:
#
# PCOD8134922 Si02
#       7
#     8   8   8   8   8   8   8
#     4  10  21  37  62  90 121 157 208 251 300 361
#     4  10  19  37  56  88 119 155 201 249 296 364
#     4  12  22  37  63  91 123 161 202 252 309 361
#     4  11  20  38  61  89 119 157 202 251 301 353
#     4  10  22  40  59  91 122 163 201 253 306 365
#     4  10  21  35  59  90 121 152 203 253 298 357
#     4  11  19  33  62  90 115 163 209 241 302 368
#
# _framework density 19.88166
#
# number of rings (size 3 to 8) (size 9 to 14) (size 15 to 20)
#    0.000    1.429    5.714    0.000    0.000    0.571 
#    0.000    2.143    0.000    0.000   29.714    0.000 
#    0.000    0.000    0.000    0.000    0.000    0.000 
#
# Total GULP energy -347051.491371 kJ/mol
# GULP energy per Si atom -12394.696120 kJ/mol
# Density = 1.983641 g / cm^3
# Si number density = 19.881660 Si / 1000 Ang^3
#
#
#
# Elastic Constant Matrix: (Units=GPa)
#
#
# Indices 1 2 3 4 5 6 
#
# 1 83.2207 18.0788 28.5069 0.0000 -1.9197 0.0000
# 2 18.0788 99.0210 30.5524 0.0000 -4.6681 0.0000
# 3 28.5069 30.5524 121.4588 0.0000 -20.7490 0.0000
# 4 0.0000 0.0000 0.0000 22.8735 0.0000 -0.5529
# 5 -1.9197 -4.6681 -20.7490 0.0000 36.0909 0.0000
# 6 0.0000 0.0000 0.0000 -0.5529 0.0000 30.6302
#
#
#
# Elastic Compliance Matrix: (Units=1/GPa)
#
#
# Indices 1 2 3 4 5 6 
#
# 1 0.013338 -0.001586 -0.002934 0.000000 -0.001182 0.000000
# 2 -0.001586 0.011138 -0.002437 0.000000 -0.000045 0.000000
# 3 -0.002934 -0.002437 0.010484 0.000000 0.005556 0.000000
# 4 0.000000 0.000000 0.000000 0.043738 0.000000 0.000789
# 5 -0.001182 -0.000045 0.005556 0.000000 0.030833 0.000000
# 6 0.000000 0.000000 0.000000 0.000789 0.000000 0.032662
#
#
# Mechanical properties :
#
#
# Convention : Reuss Voigt Hill
#
# Bulk Modulus (GPa) = 47.51213 50.88629 49.19921
# Shear Modulus (GPa) = 30.65177 33.02308 31.83742
#
# Velocity S-wave (km/s) = 3.93072 4.07994 4.00602
# Velocity P-wave (km/s) = 6.67459 6.91698 6.79687
#
# Compressibility (1/GPa) = 0.02104726
#
# Stress axis : x y z
#
# Youngs Moduli (GPa) = 74.97163 89.78035 95.38339
#
# Poissons Ratio (x) = 0.14238 0.27982
# Poissons Ratio (y) = 0.11889 0.23247
# Poissons Ratio (z) = 0.21994 0.21882
#
# Static dielectric constant tensor:
#      x y z
#    x 3.903410 0.000000 -0.483730 
#    y 0.000000 4.315020 0.000000 
#    z -0.483730 0.000000 4.711690 
# 
# 
# High freq. dielectric constant tensor:
#      x y z
#    x 1.800410 0.000000 -0.006110 
#    y 0.000000 1.724470 0.000000 
#    z -0.006110 0.000000 1.781200 
# 
# From -- ./inp_files/265318.got.cif
#   From: 2010.06.25/outbox.cif.g09.slc.cpg/sg15_133_cif.got.tgz:265318.got - 2010.06.28 07:06:18.
