data_PCOD8134800
_publ_section_title
;
Structure prediction by ZEFSAII (Michael W. Deem and Ramdas Pophale) SiO2 
 PCOD8134800
Probable space group: C 2/C
;
_chemical_formula_sum "Si O2"
_cell_formula_units_Z 52
_cell_length_a 12.860265
_cell_length_b 16.045222
_cell_length_c 16.764937
_cell_angle_alpha 90.000000
_cell_angle_beta 47.029586
_cell_angle_gamma 90.000000
_cell_volume 2531.244247
_symmetry_space_group_name_H-M "C 2/C"
_symmetry_group_IT_number 15
_symmetry_cell_setting 'monoclinic'
loop_
_space_group_symop_operation_xyz
x,y,z
-x,y,1/2-z
-x,-y,-z
x,-y,1/2+z
1/2+x,1/2+y,z
1/2-x,1/2+y,1/2-z
1/2-x,1/2-y,-z
1/2+x,1/2-y,1/2+z
loop_
_atom_site_type_symbol
_atom_site_label
_atom_site_fract_x
_atom_site_fract_y
_atom_site_fract_z
Si Si1 0.725556 0.454333 0.815692
Si Si2 0.211348 0.948153 0.005698
Si Si3 0.005980 0.375023 0.651865
Si Si4 0.932233 0.114965 0.419404
Si Si5 0.000281 0.194431 0.658430
Si Si6 0.000000 0.246087 0.250000
Si Si7 0.231521 0.145224 0.836988
O O1 0.582143 0.433239 0.843566
O O2 0.771094 0.550614 0.795584
O O3 0.849760 0.403949 0.704793
O O4 0.695133 0.426265 0.921377
O O5 0.105042 0.882750 0.099618
O O6 0.177553 0.042664 0.049210
O O7 0.373475 0.934667 0.948415
O O8 0.000000 0.385175 0.750000
O O9 0.047368 0.283360 0.596382
O O10 0.935333 0.189038 0.353894
O O11 0.880608 0.151863 0.531149
O O12 0.845016 0.177690 0.702781
O O13 0.000000 0.217989 0.750000
O O14 0.874710 0.303672 0.280436
#
# Coordination Sequence:
#
# PCOD8134800 Si02
#       7
#     8   8   8   8   8   4   8
#     4  10  19  39  66  88 120 175 218 257 317 400
#     4  10  19  36  62  92 121 170 211 263 321 388
#     4   9  20  33  58  91 122 155 213 262 311 375
#     4  11  22  42  66  89 126 175 215 262 322 392
#     4  11  21  38  63  94 129 164 213 267 323 378
#     4  12  28  40  68  98 138 162 218 280 320 376
#     4  11  23  43  65  95 125 175 219 259 321 391
#
# _framework density 20.543256
#
# number of rings (size 3 to 8) (size 9 to 14) (size 15 to 20)
#    0.000    1.538    3.077    2.769    6.462    0.000 
#    2.769    0.000    0.000    2.769    0.000    0.000 
#    0.000    0.000    0.000    0.000    0.000    0.000 
#
# Total GULP energy -322192.839822 kJ/mol
# GULP energy per Si atom -12392.032301 kJ/mol
# Density = 2.049650 g / cm^3
# Si number density = 20.543256 Si / 1000 Ang^3
#
#
#
# Elastic Constant Matrix: (Units=GPa)
#
#
# Indices 1 2 3 4 5 6 
#
# 1 73.7504 32.4110 43.3218 0.0000 -15.6836 0.0000
# 2 32.4110 110.7529 42.4152 0.0000 -9.3490 0.0000
# 3 43.3218 42.4152 53.5092 0.0000 -21.1862 0.0000
# 4 0.0000 0.0000 0.0000 25.1461 0.0000 -5.4694
# 5 -15.6836 -9.3490 -21.1862 0.0000 30.9855 0.0000
# 6 0.0000 0.0000 0.0000 -5.4694 0.0000 31.4276
#
#
#
# Elastic Compliance Matrix: (Units=1/GPa)
#
#
# Indices 1 2 3 4 5 6 
#
# 1 0.025972 0.000839 -0.022470 0.000000 -0.001965 0.000000
# 2 0.000839 0.013418 -0.013087 0.000000 -0.004475 0.000000
# 3 -0.022470 -0.013087 0.056477 0.000000 0.023294 0.000000
# 4 0.000000 0.000000 0.000000 0.041332 0.000000 0.007193
# 5 -0.001965 -0.004475 0.023294 0.000000 0.045855 0.000000
# 6 0.000000 0.000000 0.000000 0.007193 0.000000 0.033071
#
#
# Mechanical properties :
#
#
# Convention : Reuss Voigt Hill
#
# Bulk Modulus (GPa) = 37.83523 52.70094 45.26808
# Shear Modulus (GPa) = 16.98527 25.50280 21.24404
#
# Velocity S-wave (km/s) = 2.87854 3.52720 3.21925
# Velocity P-wave (km/s) = 5.43188 6.50366 5.99178
#
# Compressibility (1/GPa) = 0.02643039
#
# Stress axis : x y z
#
# Youngs Moduli (GPa) = 38.50304 74.52804 17.70621
#
# Poissons Ratio (x) = -0.06254 0.39787
# Poissons Ratio (y) = -0.03231 0.23172
# Poissons Ratio (z) = 0.86518 0.97536
#
# Static dielectric constant tensor:
#      x y z
#    x 3.747530 0.000000 -0.221130 
#    y 0.000000 3.858090 0.000000 
#    z -0.221130 0.000000 3.670210 
# 
# 
# High freq. dielectric constant tensor:
#      x y z
#    x 1.791500 0.000000 -0.021740 
#    y 0.000000 1.820210 0.000000 
#    z -0.021740 0.000000 1.784900 
# 
# From -- ./inp_files/205660.got.cif
#   From: 2010.06.25/outbox.cif.g09.slc.cpg/sg15_103_cif.got.tgz:205660.got - 2010.06.28 07:06:18.
