data_PCOD8134453
_publ_section_title
;
Structure prediction by ZEFSAII (Michael W. Deem and Ramdas Pophale) SiO2 
 PCOD8134453
Probable space group: C 2/C
;
_chemical_formula_sum "Si O2"
_cell_formula_units_Z 44
_cell_length_a 22.708249
_cell_length_b 6.559045
_cell_length_c 14.419490
_cell_angle_alpha 90.000000
_cell_angle_beta 53.193157
_cell_angle_gamma 90.000000
_cell_volume 1719.579243
_symmetry_space_group_name_H-M "C 2/C"
_symmetry_group_IT_number 15
_symmetry_cell_setting 'monoclinic'
loop_
_space_group_symop_operation_xyz
x,y,z
-x,y,1/2-z
-x,-y,-z
x,-y,1/2+z
1/2+x,1/2+y,z
1/2-x,1/2+y,1/2-z
1/2-x,1/2-y,-z
1/2+x,1/2-y,1/2+z
loop_
_atom_site_type_symbol
_atom_site_label
_atom_site_fract_x
_atom_site_fract_y
_atom_site_fract_z
Si Si1 0.878712 0.943258 0.406263
Si Si2 0.186357 0.812454 0.384299
Si Si3 0.895766 0.329823 0.267722
Si Si4 0.500000 0.876330 0.750000
Si Si5 0.218641 0.519368 0.992722
Si Si6 0.171589 0.400148 0.349063
O O1 0.871142 0.027459 0.518664
O O2 0.909152 0.121944 0.310721
O O3 0.935932 0.759585 0.354384
O O4 0.797148 0.875503 0.444724
O O5 0.231326 0.700121 0.428092
O O6 0.141665 0.634491 0.372999
O O7 0.243065 0.925340 0.263716
O O8 0.968731 0.470775 0.200269
O O9 0.832189 0.476225 0.370699
O O10 0.876593 0.270447 0.178050
O O11 0.175486 0.666339 0.955164
#
# Coordination Sequence:
#
# PCOD8134453 Si02
#       6
#     8   8   8   4   8   8
#     4  11  21  47  64  92 135 176 214 269 330 381
#     4   9  19  35  65 101 121 156 210 278 334 363
#     4  11  21  46  65  97 130 169 224 266 324 385
#     4  12  30  36  68  92 134 194 208 254 324 408
#     4   9  20  37  75  94 123 167 217 285 325 365
#     4  10  19  35  69 103 122 158 210 285 333 363
#
# _framework density 25.587655000000002
#
# number of rings (size 3 to 8) (size 9 to 14) (size 15 to 20)
#    1.091    0.727    3.636    1.636    2.545    2.182 
#    0.000    1.818    0.000    0.000    0.000    0.000 
#    0.000    0.000    0.000    0.000    0.000    0.000 
#
# Total GULP energy -272565.151067 kJ/mol
# GULP energy per Si atom -12389.325048 kJ/mol
# Density = 2.552942 g / cm^3
# Si number density = 25.587655 Si / 1000 Ang^3
#
#
#
# Elastic Constant Matrix: (Units=GPa)
#
#
# Indices 1 2 3 4 5 6 
#
# 1 105.8836 33.3980 40.5669 0.0000 0.6685 0.0000
# 2 33.3980 85.5673 11.5131 -0.0017 -23.1428 0.0049
# 3 40.5669 11.5131 61.4412 -0.0006 4.7537 0.0002
# 4 0.0000 -0.0017 -0.0006 40.7194 0.0004 -12.2685
# 5 0.6685 -23.1428 4.7537 0.0004 36.9436 -0.0002
# 6 0.0000 0.0049 0.0002 -12.2685 -0.0002 45.0152
#
#
#
# Elastic Compliance Matrix: (Units=1/GPa)
#
#
# Indices 1 2 3 4 5 6 
#
# 1 0.014227 -0.005086 -0.008256 0.000000 -0.002381 0.000001
# 2 -0.005086 0.016607 -0.000572 0.000000 0.010569 -0.000002
# 3 -0.008256 -0.000572 0.022070 0.000000 -0.003048 0.000000
# 4 0.000000 0.000000 0.000000 0.026755 0.000000 0.007292
# 5 -0.002381 0.010569 -0.003048 0.000000 0.034124 -0.000001
# 6 0.000001 -0.000002 0.000000 0.007292 -0.000001 0.024202
#
#
# Mechanical properties :
#
#
# Convention : Reuss Voigt Hill
#
# Bulk Modulus (GPa) = 39.87792 47.09423 43.48607
# Shear Modulus (GPa) = 28.70732 35.69658 32.20195
#
# Velocity S-wave (km/s) = 3.35314 3.73912 3.55138
# Velocity P-wave (km/s) = 5.53264 6.08985 5.81792
#
# Compressibility (1/GPa) = 0.02507653
#
# Stress axis : x y z
#
# Youngs Moduli (GPa) = 70.29037 60.21456 45.31093
#
# Poissons Ratio (x) = 0.30625 0.37409
# Poissons Ratio (y) = 0.35750 0.02590
# Poissons Ratio (z) = 0.58032 0.03442
#
# Static dielectric constant tensor:
#      x y z
#    x 4.334820 0.000000 0.122610 
#    y 0.000000 5.007620 0.000000 
#    z 0.122610 0.000000 4.488270 
# 
# 
# High freq. dielectric constant tensor:
#      x y z
#    x 1.983360 0.000000 0.019250 
#    y 0.000000 2.057680 0.000000 
#    z 0.019250 0.000000 2.011700 
# 
# From -- ./inp_files/166070.got.cif
#   From: 2010.06.25/outbox.cif.g09.slc.cpg/sg15_84_cif.got.tgz:166070.got - 2010.06.28 07:06:18.
