data_PCOD8134986
_publ_section_title
;
Structure prediction by ZEFSAII (Michael W. Deem and Ramdas Pophale) SiO2 
 PCOD8134986
Probable space group: C 2/C
;
_chemical_formula_sum "Si O2"
_cell_formula_units_Z 44
_cell_length_a 13.061784
_cell_length_b 16.227649
_cell_length_c 15.048703
_cell_angle_alpha 90.000000
_cell_angle_beta 134.080806
_cell_angle_gamma 90.000000
_cell_volume 2291.389642
_symmetry_space_group_name_H-M "C 2/C"
_symmetry_group_IT_number 15
_symmetry_cell_setting 'monoclinic'
loop_
_space_group_symop_operation_xyz
x,y,z
-x,y,1/2-z
-x,-y,-z
x,-y,1/2+z
1/2+x,1/2+y,z
1/2-x,1/2+y,1/2-z
1/2-x,1/2-y,-z
1/2+x,1/2-y,1/2+z
loop_
_atom_site_type_symbol
_atom_site_label
_atom_site_fract_x
_atom_site_fract_y
_atom_site_fract_z
Si Si1 0.000000 0.444378 0.750000
Si Si2 0.883884 0.071584 0.240153
Si Si3 0.618277 0.017346 0.501249
Si Si4 0.779449 0.830599 0.140425
Si Si5 0.720083 0.645482 0.146233
Si Si6 0.009102 0.901698 0.377449
O O1 0.935645 0.500182 0.631867
O O2 0.874057 0.389971 0.715354
O O3 0.813438 0.132244 0.269985
O O4 0.000000 0.121537 0.250000
O O5 0.758671 0.036279 0.102345
O O6 0.978958 0.996721 0.336547
O O7 0.644418 0.114430 0.532441
O O8 0.500000 0.000000 0.500000
O O9 0.721048 0.739063 0.114068
O O10 0.891991 0.850225 0.130662
O O11 0.854489 0.856098 0.279893
O O12 0.587565 0.599785 0.019082
#
# Coordination Sequence:
#
# PCOD8134986 Si02
#       6
#     4   8   8   8   8   8
#     4  12  22  34  62  96 116 160 202 254 324 358
#     4  11  21  41  60  85 124 168 204 254 302 376
#     4  11  22  39  60  89 127 158 206 258 309 371
#     4  10  21  36  58  88 121 151 197 264 304 356
#     4  12  23  33  63  91 122 156 205 255 320 367
#     4  10  19  37  59  85 120 155 203 255 305 360
#
# _framework density 19.202321999999999
#
# number of rings (size 3 to 8) (size 9 to 14) (size 15 to 20)
#    0.000    1.091    7.273    2.182    2.545    0.000 
#    0.000    0.000    2.000    2.182    0.000    0.000 
#    0.000    0.000    0.000    0.000    0.000    0.000 
#
# Total GULP energy -272545.955440 kJ/mol
# GULP energy per Si atom -12388.452520 kJ/mol
# Density = 1.915862 g / cm^3
# Si number density = 19.202322 Si / 1000 Ang^3
#
#
#
# Elastic Constant Matrix: (Units=GPa)
#
#
# Indices 1 2 3 4 5 6 
#
# 1 126.7799 25.5545 36.3996 0.0000 -6.7637 0.0000
# 2 25.5545 50.1728 15.6487 0.0000 -9.4381 0.0000
# 3 36.3996 15.6487 129.8172 0.0000 -3.4183 0.0000
# 4 0.0000 0.0000 0.0000 15.0236 0.0000 0.4517
# 5 -6.7637 -9.4381 -3.4183 0.0000 25.1220 0.0000
# 6 0.0000 0.0000 0.0000 0.4517 0.0000 21.1280
#
#
#
# Elastic Compliance Matrix: (Units=1/GPa)
#
#
# Indices 1 2 3 4 5 6 
#
# 1 0.009333 -0.003953 -0.002121 0.000000 0.000739 0.000000
# 2 -0.003953 0.023881 -0.001568 0.000000 0.007694 0.000000
# 3 -0.002121 -0.001568 0.008487 0.000000 -0.000005 0.000000
# 4 0.000000 0.000000 0.000000 0.066605 0.000000 -0.001424
# 5 0.000739 0.007694 -0.000005 0.000000 0.042895 0.000000
# 6 0.000000 0.000000 0.000000 -0.001424 0.000000 0.047361
#
#
# Mechanical properties :
#
#
# Convention : Reuss Voigt Hill
#
# Bulk Modulus (GPa) = 37.85412 51.33060 44.59236
# Shear Modulus (GPa) = 22.45679 27.53251 24.99465
#
# Velocity S-wave (km/s) = 3.42348 3.79068 3.61175
# Velocity P-wave (km/s) = 5.94837 6.77853 6.37697
#
# Compressibility (1/GPa) = 0.02641720
#
# Stress axis : x y z
#
# Youngs Moduli (GPa) = 107.14873 41.87458 117.83206
#
# Poissons Ratio (x) = 0.16553 0.24991
# Poissons Ratio (y) = 0.42356 0.18473
# Poissons Ratio (z) = 0.22725 0.06565
#
# Static dielectric constant tensor:
#      x y z
#    x 3.432960 0.000000 -0.094180 
#    y 0.000000 3.150630 0.000000 
#    z -0.094180 0.000000 3.727550 
# 
# 
# High freq. dielectric constant tensor:
#      x y z
#    x 1.736800 0.000000 0.015210 
#    y 0.000000 1.706370 0.000000 
#    z 0.015210 0.000000 1.772450 
# 
# From -- ./inp_files/119168.got.cif
#   From: 2010.06.25/outbox.cif.g09.slc.cpg/sg15_60_cif.got.tgz:119168.got - 2010.06.28 07:06:18.
