data_PCOD8134815
_publ_section_title
;
Structure prediction by ZEFSAII (Michael W. Deem and Ramdas Pophale) SiO2 
 PCOD8134815
Probable space group: C 2/C
;
_chemical_formula_sum "Si O2"
_cell_formula_units_Z 60
_cell_length_a 22.042664
_cell_length_b 7.855854
_cell_length_c 24.193749
_cell_angle_alpha 90.000000
_cell_angle_beta 41.733958
_cell_angle_gamma 90.000000
_cell_volume 2788.826117
_symmetry_space_group_name_H-M "C 2/C"
_symmetry_group_IT_number 15
_symmetry_cell_setting 'monoclinic'
loop_
_space_group_symop_operation_xyz
x,y,z
-x,y,1/2-z
-x,-y,-z
x,-y,1/2+z
1/2+x,1/2+y,z
1/2-x,1/2+y,1/2-z
1/2-x,1/2-y,-z
1/2+x,1/2-y,1/2+z
loop_
_atom_site_type_symbol
_atom_site_label
_atom_site_fract_x
_atom_site_fract_y
_atom_site_fract_z
Si Si1 0.500000 0.365531 0.750000
Si Si2 0.718167 0.454450 0.850000
Si Si3 0.723805 0.065445 0.847435
Si Si4 0.396538 0.957321 0.662929
Si Si5 0.400529 0.571645 0.660905
Si Si6 0.483412 0.261985 0.882161
Si Si7 0.711022 0.391109 0.470008
Si Si8 0.303717 0.555513 0.400597
O O1 0.503544 0.250391 0.802867
O O2 0.590385 0.486028 0.685966
O O3 0.701428 0.258526 0.847970
O O4 0.816478 0.511135 0.759846
O O5 0.637609 0.560782 0.875741
O O6 0.711196 0.477290 0.920035
O O7 0.820193 0.011204 0.756138
O O8 0.643121 0.958606 0.872994
O O9 0.732532 0.032511 0.906996
O O10 0.433142 0.766075 0.649964
O O11 0.476705 0.094333 0.615373
O O12 0.481629 0.440443 0.615868
O O13 0.376503 0.266995 0.967213
O O14 0.719713 0.501916 0.520582
O O15 0.795062 0.261621 0.404278
#
# Coordination Sequence:
#
# PCOD8134815 Si02
#       8
#     4   8   8   8   8   8   8   8
#     4  10  20  36  72  82 120 164 204 264 286 362
#     4  10  20  36  58  90 120 157 201 257 306 359
#     4  10  19  36  63  89 115 157 209 257 305 356
#     4  10  21  37  64  92 117 158 211 258 296 364
#     4  10  20  36  62  89 119 154 207 254 302 354
#     4  11  21  40  59  91 121 164 203 247 311 364
#     4  10  23  37  58  86 124 164 197 248 313 373
#     4  10  20  39  60  86 117 162 209 241 310 364
#
# _framework density 21.514427000000001
#
# number of rings (size 3 to 8) (size 9 to 14) (size 15 to 20)
#    0.000    1.867    2.667    1.600    1.867    1.067 
#    2.400    2.000    8.800    0.000    0.000    0.000 
#    0.000    0.000    0.000    0.000    0.000    0.000 
#
# Total GULP energy -371934.588468 kJ/mol
# GULP energy per Si atom -12397.819616 kJ/mol
# Density = 2.146546 g / cm^3
# Si number density = 21.514427 Si / 1000 Ang^3
#
#
#
# Elastic Constant Matrix: (Units=GPa)
#
#
# Indices 1 2 3 4 5 6 
#
# 1 109.7120 33.0661 34.1513 -0.0032 26.1213 0.0175
# 2 33.0661 82.8192 9.7730 -0.0034 -0.9537 0.0121
# 3 34.1513 9.7730 68.0557 0.0007 21.1394 0.0069
# 4 -0.0032 -0.0034 0.0007 18.3503 -0.0003 5.5754
# 5 26.1213 -0.9537 21.1394 -0.0003 36.6172 -0.0025
# 6 0.0175 0.0121 0.0069 5.5754 -0.0025 32.4122
#
#
#
# Elastic Compliance Matrix: (Units=1/GPa)
#
#
# Indices 1 2 3 4 5 6 
#
# 1 0.013647 -0.005099 -0.003718 0.000003 -0.007722 -0.000006
# 2 -0.005099 0.014268 -0.000896 0.000003 0.004526 -0.000002
# 3 -0.003718 -0.000896 0.019340 -0.000001 -0.008536 -0.000002
# 4 0.000003 0.000003 -0.000001 0.057500 -0.000002 -0.009891
# 5 -0.007722 0.004526 -0.008536 -0.000002 0.037864 0.000008
# 6 -0.000006 -0.000002 -0.000002 -0.009891 0.000008 0.032554
#
#
# Mechanical properties :
#
#
# Convention : Reuss Voigt Hill
#
# Bulk Modulus (GPa) = 35.93299 46.06310 40.99805
# Shear Modulus (GPa) = 24.52475 29.71570 27.12022
#
# Velocity S-wave (km/s) = 3.37993 3.72048 3.55429
# Velocity P-wave (km/s) = 5.65420 6.31766 5.99511
#
# Compressibility (1/GPa) = 0.02782958
#
# Stress axis : x y z
#
# Youngs Moduli (GPa) = 73.27447 70.08592 51.70736
#
# Poissons Ratio (x) = 0.35737 0.19222
# Poissons Ratio (y) = 0.37363 0.04634
# Poissons Ratio (z) = 0.27240 0.06281
#
# Static dielectric constant tensor:
#      x y z
#    x 4.010900 -0.000010 0.152380 
#    y -0.000010 3.443840 0.000010 
#    z 0.152380 0.000010 3.806840 
# 
# 
# High freq. dielectric constant tensor:
#      x y z
#    x 1.854270 0.000000 0.013630 
#    y 0.000000 1.816120 0.000000 
#    z 0.013630 0.000000 1.834790 
# 
# From -- ./inp_files/218213.got.cif
#   From: 2010.06.25/outbox.cif.g09.slc.cpg/sg15_110_cif.got.tgz:218213.got - 2010.06.28 07:06:18.
