data_PCOD8134130
_publ_section_title
;
Structure prediction by ZEFSAII (Michael W. Deem and Ramdas Pophale) SiO2 
 PCOD8134130
Probable space group: C 2/C
;
_chemical_formula_sum "Si O2"
_cell_formula_units_Z 56
_cell_length_a 28.692276
_cell_length_b 8.889689
_cell_length_c 11.623822
_cell_angle_alpha 90.000000
_cell_angle_beta 67.532868
_cell_angle_gamma 90.000000
_cell_volume 2739.800722
_symmetry_space_group_name_H-M "C 2/C"
_symmetry_group_IT_number 15
_symmetry_cell_setting 'monoclinic'
loop_
_space_group_symop_operation_xyz
x,y,z
-x,y,1/2-z
-x,-y,-z
x,-y,1/2+z
1/2+x,1/2+y,z
1/2-x,1/2+y,1/2-z
1/2-x,1/2-y,-z
1/2+x,1/2-y,1/2+z
loop_
_atom_site_type_symbol
_atom_site_label
_atom_site_fract_x
_atom_site_fract_y
_atom_site_fract_z
Si Si1 0.148371 0.984368 0.274515
Si Si2 0.697585 0.767520 0.613000
Si Si3 0.595880 0.277944 0.685249
Si Si4 0.924097 0.748172 0.063328
Si Si5 0.471816 0.658378 0.044332
Si Si6 0.864839 0.775364 0.545203
Si Si7 0.858869 0.517656 0.721665
O O1 0.193916 0.868859 0.207691
O O2 0.096427 0.894845 0.349984
O O3 0.138143 0.096258 0.176762
O O4 0.164258 0.082657 0.370819
O O5 0.750000 0.750000 0.500000
O O6 0.649800 0.742896 0.573291
O O7 0.690416 0.928080 0.683256
O O8 0.585855 0.279913 0.561077
O O9 0.546343 0.318405 0.807061
O O10 0.616204 0.112231 0.698899
O O11 0.898495 0.599985 0.134677
O O12 0.983788 0.722987 0.025682
O O13 0.424957 0.694679 0.003093
O O14 0.500000 0.500000 0.000000
O O15 0.844645 0.627105 0.630189
#
# Coordination Sequence:
#
# PCOD8134130 Si02
#       7
#     8   8   8   8   8   8   8
#     4   9  20  36  57  86 113 147 193 243 287 348
#     4  11  23  40  62  85 110 154 203 244 303 349
#     4  10  20  35  58  84 120 154 187 231 289 338
#     4  11  18  35  57  82 120 154 189 226 283 346
#     4  10  19  35  56  90 116 152 192 228 278 351
#     4  10  21  40  57  83 124 147 188 250 287 338
#     4   9  22  39  57  85 118 152 193 241 288 348
#
# _framework density 20.439443000000001
#
# number of rings (size 3 to 8) (size 9 to 14) (size 15 to 20)
#    0.000    2.286    2.857    2.143    0.000    3.429 
#    0.000    8.571    0.000    0.000    0.000    0.000 
#    0.000    0.000    0.000    0.000    0.000    0.000 
#
# Total GULP energy -346975.507986 kJ/mol
# GULP energy per Si atom -12391.982428 kJ/mol
# Density = 2.039292 g / cm^3
# Si number density = 20.439443 Si / 1000 Ang^3
#
#
#
# Elastic Constant Matrix: (Units=GPa)
#
#
# Indices 1 2 3 4 5 6 
#
# 1 38.7300 15.4313 22.7608 0.0000 -5.7827 0.0000
# 2 15.4313 135.5831 44.9101 0.0000 -16.8542 0.0000
# 3 22.7608 44.9101 80.0579 0.0000 -20.8677 0.0000
# 4 0.0000 0.0000 0.0000 16.8222 0.0000 -1.7273
# 5 -5.7827 -16.8542 -20.8677 0.0000 39.8361 0.0000
# 6 0.0000 0.0000 0.0000 -1.7273 0.0000 13.3765
#
#
#
# Elastic Compliance Matrix: (Units=1/GPa)
#
#
# Indices 1 2 3 4 5 6 
#
# 1 0.031063 -0.000761 -0.008469 0.000000 -0.000249 0.000000
# 2 -0.000761 0.009141 -0.004554 0.000000 0.001371 0.000000
# 3 -0.008469 -0.004554 0.019261 0.000000 0.006933 0.000000
# 4 0.000000 0.000000 0.000000 0.060244 0.000000 0.007779
# 5 -0.000249 0.001371 0.006933 0.000000 0.029279 0.000000
# 6 0.000000 0.000000 0.000000 0.007779 0.000000 0.075762
#
#
# Mechanical properties :
#
#
# Convention : Reuss Voigt Hill
#
# Bulk Modulus (GPa) = 31.35199 46.73059 39.04129
# Shear Modulus (GPa) = 19.01492 25.42487 22.21990
#
# Velocity S-wave (km/s) = 3.05340 3.53074 3.30071
# Velocity P-wave (km/s) = 5.27288 6.28761 5.80247
#
# Compressibility (1/GPa) = 0.03189590
#
# Stress axis : x y z
#
# Youngs Moduli (GPa) = 32.19251 109.39578 51.91893
#
# Poissons Ratio (x) = 0.08325 0.43973
# Poissons Ratio (y) = 0.02450 0.23644
# Poissons Ratio (z) = 0.27265 0.49819
#
# Static dielectric constant tensor:
#      x y z
#    x 3.377100 0.000000 -0.049080 
#    y 0.000000 4.210130 0.000000 
#    z -0.049080 0.000000 3.761090 
# 
# 
# High freq. dielectric constant tensor:
#      x y z
#    x 1.761480 0.000000 -0.001190 
#    y 0.000000 1.818150 0.000000 
#    z -0.001190 0.000000 1.802980 
# 
# From -- ./inp_files/125820.got.cif
#   From: 2010.06.25/outbox.cif.g09.slc.cpg/sg15_63_cif.got.tgz:125820.got - 2010.06.28 07:06:18.
