data_PCOD8134653
_publ_section_title
;
Structure prediction by ZEFSAII (Michael W. Deem and Ramdas Pophale) SiO2 
 PCOD8134653
Probable space group: C 2/C
;
_chemical_formula_sum "Si O2"
_cell_formula_units_Z 56
_cell_length_a 23.740375
_cell_length_b 12.215809
_cell_length_c 13.380503
_cell_angle_alpha 90.000000
_cell_angle_beta 133.298506
_cell_angle_gamma 90.000000
_cell_volume 2824.156206
_symmetry_space_group_name_H-M "C 2/C"
_symmetry_group_IT_number 15
_symmetry_cell_setting 'monoclinic'
loop_
_space_group_symop_operation_xyz
x,y,z
-x,y,1/2-z
-x,-y,-z
x,-y,1/2+z
1/2+x,1/2+y,z
1/2-x,1/2+y,1/2-z
1/2-x,1/2-y,-z
1/2+x,1/2-y,1/2+z
loop_
_atom_site_type_symbol
_atom_site_label
_atom_site_fract_x
_atom_site_fract_y
_atom_site_fract_z
Si Si1 0.583613 0.590163 0.361362
Si Si2 0.682789 0.711703 0.135602
Si Si3 0.584445 0.517918 0.060518
Si Si4 0.588252 0.199049 0.339469
Si Si5 0.360384 0.593095 0.702017
Si Si6 0.720183 0.075886 0.400756
Si Si7 0.260309 0.325078 0.416710
O O1 0.500000 0.648981 0.250000
O O2 0.580591 0.491438 0.436951
O O3 0.608684 0.528322 0.291240
O O4 0.646394 0.675486 0.477859
O O5 0.622440 0.636502 0.123795
O O6 0.748356 0.639026 0.159119
O O7 0.724332 0.783197 0.270292
O O8 0.634225 0.787034 0.999751
O O9 0.637060 0.420288 0.174585
O O10 0.500000 0.500000 0.000000
O O11 0.500000 0.158989 0.250000
O O12 0.583980 0.311877 0.271472
O O13 0.632989 0.110300 0.324039
O O14 0.273608 0.614495 0.559059
O O15 0.725371 0.946016 0.392248
O O16 0.250000 0.250000 0.500000
#
# Coordination Sequence:
#
# PCOD8134653 Si02
#       7
#     8   8   8   8   8   8   8
#     4  11  21  38  57  95 129 153 203 259 316 366
#     4  11  22  40  64  93 121 165 211 254 316 370
#     4  12  21  32  65  95 123 151 195 263 325 352
#     4  11  22  39  61  89 121 161 209 260 302 362
#     4  10  19  36  59  90 121 154 198 261 314 366
#     4  10  23  40  62  88 119 159 209 251 308 368
#     4  11  25  43  61  88 127 167 203 249 305 377
#
# _framework density 19.828931000000001
#
# number of rings (size 3 to 8) (size 9 to 14) (size 15 to 20)
#    0.000    1.143    5.714    4.714    4.000    1.143 
#    0.000    1.429    0.000    0.000    0.000    0.000 
#    0.000    0.000    0.000    0.000    0.000    0.000 
#
# Total GULP energy -346963.854790 kJ/mol
# GULP energy per Si atom -12391.566242 kJ/mol
# Density = 1.978380 g / cm^3
# Si number density = 19.828931 Si / 1000 Ang^3
#
#
#
# Elastic Constant Matrix: (Units=GPa)
#
#
# Indices 1 2 3 4 5 6 
#
# 1 108.6202 53.8558 52.1491 0.0000 27.6686 0.0000
# 2 53.8558 89.9008 54.7225 0.0000 6.6267 0.0000
# 3 52.1491 54.7225 121.2899 0.0000 8.9675 0.0000
# 4 0.0000 0.0000 0.0000 32.1552 0.0000 -3.6171
# 5 27.6686 6.6267 8.9675 0.0000 39.9295 0.0000
# 6 0.0000 0.0000 0.0000 -3.6171 0.0000 30.3362
#
#
#
# Elastic Compliance Matrix: (Units=1/GPa)
#
#
# Indices 1 2 3 4 5 6 
#
# 1 0.016938 -0.007490 -0.003180 0.000000 -0.009780 0.000000
# 2 -0.007490 0.018687 -0.005456 0.000000 0.003314 0.000000
# 3 -0.003180 -0.005456 0.012044 0.000000 0.000404 0.000000
# 4 0.000000 0.000000 0.000000 0.031522 0.000000 0.003758
# 5 -0.009780 0.003314 0.000404 0.000000 0.031180 0.000000
# 6 0.000000 0.000000 0.000000 0.003758 0.000000 0.033412
#
#
# Mechanical properties :
#
#
# Convention : Reuss Voigt Hill
#
# Bulk Modulus (GPa) = 64.86508 71.25176 68.05842
# Shear Modulus (GPa) = 27.59780 31.08976 29.34378
#
# Velocity S-wave (km/s) = 3.73472 3.96397 3.85105
# Velocity P-wave (km/s) = 7.16805 7.54731 7.36012
#
# Compressibility (1/GPa) = 0.01541662
#
# Stress axis : x y z
#
# Youngs Moduli (GPa) = 59.03806 53.51306 83.03193
#
# Poissons Ratio (x) = 0.40083 0.26406
# Poissons Ratio (y) = 0.44221 0.45299
# Poissons Ratio (z) = 0.18775 0.29195
#
# Static dielectric constant tensor:
#      x y z
#    x 3.537620 0.000000 -0.016790 
#    y 0.000000 3.503450 0.000000 
#    z -0.016790 0.000000 3.878680 
# 
# 
# High freq. dielectric constant tensor:
#      x y z
#    x 1.778510 0.000000 -0.008010 
#    y 0.000000 1.742600 0.000000 
#    z -0.008010 0.000000 1.784030 
# 
# From -- ./inp_files/177634.got.cif
#   From: 2010.06.25/outbox.cif.g09.slc.cpg/sg15_89_cif.got.tgz:177634.got - 2010.06.28 07:06:18.
