data_PCOD8134313
_publ_section_title
;
Structure prediction by ZEFSAII (Michael W. Deem and Ramdas Pophale) SiO2 
 PCOD8134313
Probable space group: C 2/C
;
_chemical_formula_sum "Si O2"
_cell_formula_units_Z 56
_cell_length_a 12.686301
_cell_length_b 17.148138
_cell_length_c 14.010461
_cell_angle_alpha 90.000000
_cell_angle_beta 62.270412
_cell_angle_gamma 90.000000
_cell_volume 2697.882170
_symmetry_space_group_name_H-M "C 2/C"
_symmetry_group_IT_number 15
_symmetry_cell_setting 'monoclinic'
loop_
_space_group_symop_operation_xyz
x,y,z
-x,y,1/2-z
-x,-y,-z
x,-y,1/2+z
1/2+x,1/2+y,z
1/2-x,1/2+y,1/2-z
1/2-x,1/2-y,-z
1/2+x,1/2-y,1/2+z
loop_
_atom_site_type_symbol
_atom_site_label
_atom_site_fract_x
_atom_site_fract_y
_atom_site_fract_z
Si Si1 0.491520 0.445235 0.148383
Si Si2 0.692235 0.510035 0.416028
Si Si3 0.922478 0.271459 0.502747
Si Si4 0.737315 0.849592 0.064436
Si Si5 0.601080 0.254042 0.771458
Si Si6 0.254329 0.178871 0.362841
Si Si7 0.564667 0.273711 0.102819
O O1 0.500000 0.483342 0.250000
O O2 0.369497 0.476218 0.153403
O O3 0.495080 0.351644 0.162281
O O4 0.599323 0.472332 0.037966
O O5 0.776314 0.441856 0.420067
O O6 0.773618 0.585646 0.360858
O O7 0.874292 0.181221 0.512218
O O8 0.812565 0.327322 0.520310
O O9 0.032288 0.288879 0.386308
O O10 0.968292 0.283779 0.591853
O O11 0.661296 0.810351 0.180213
O O12 0.500000 0.299783 0.750000
O O13 0.702993 0.306933 0.777618
O O14 0.376573 0.227913 0.331526
O O15 0.161550 0.204514 0.482419
#
# Coordination Sequence:
#
# PCOD8134313 Si02
#       7
#     8   8   8   8   8   8   8
#     4  10  21  35  58  84 120 161 188 252 317 358
#     4  10  21  38  53  89 125 147 195 264 306 353
#     4   9  18  35  56  81 110 152 197 245 281 358
#     4  10  19  35  60  83 116 157 196 247 305 355
#     4   9  19  34  57  82 109 154 198 232 289 367
#     4   9  19  33  55  81 117 150 188 242 299 354
#     4   9  17  34  56  80 113 152 193 233 294 364
#
# _framework density 20.757023
#
# number of rings (size 3 to 8) (size 9 to 14) (size 15 to 20)
#    0.000    2.571    1.429    0.000    4.000    0.571 
#    5.143    0.714    0.000    7.714    0.000    0.000 
#    0.000    0.000    0.000    0.000    0.000    0.000 
#
# Total GULP energy -346888.540863 kJ/mol
# GULP energy per Si atom -12388.876459 kJ/mol
# Density = 2.070978 g / cm^3
# Si number density = 20.757023 Si / 1000 Ang^3
#
#
#
# Elastic Constant Matrix: (Units=GPa)
#
#
# Indices 1 2 3 4 5 6 
#
# 1 140.6364 63.9562 29.7726 0.0000 37.8425 0.0000
# 2 63.9562 143.3325 12.0137 0.0000 16.6908 0.0000
# 3 29.7726 12.0137 43.5018 0.0000 21.3068 0.0000
# 4 0.0000 0.0000 0.0000 8.9584 0.0000 -0.5550
# 5 37.8425 16.6908 21.3068 0.0000 38.0877 0.0000
# 6 0.0000 0.0000 0.0000 -0.5550 0.0000 28.0030
#
#
#
# Elastic Compliance Matrix: (Units=1/GPa)
#
#
# Indices 1 2 3 4 5 6 
#
# 1 0.011810 -0.004057 -0.002873 0.000000 -0.008349 0.000000
# 2 -0.004057 0.008758 0.000363 0.000000 -0.000010 0.000000
# 3 -0.002873 0.000363 0.032415 0.000000 -0.015438 0.000000
# 4 0.000000 0.000000 0.000000 0.111764 0.000000 0.002215
# 5 -0.008349 -0.000010 -0.015438 0.000000 0.043191 0.000000
# 6 0.000000 0.000000 0.000000 0.002215 0.000000 0.035754
#
#
# Mechanical properties :
#
#
# Convention : Reuss Voigt Hill
#
# Bulk Modulus (GPa) = 25.09501 59.88397 42.48949
# Shear Modulus (GPa) = 18.51100 29.79170 24.15135
#
# Velocity S-wave (km/s) = 2.98953 3.79259 3.41475
# Velocity P-wave (km/s) = 4.90230 6.93476 6.00514
#
# Compressibility (1/GPa) = 0.03984855
#
# Stress axis : x y z
#
# Youngs Moduli (GPa) = 84.67225 114.18503 30.84991
#
# Poissons Ratio (x) = 0.46322 0.08864
# Poissons Ratio (y) = 0.34350 -0.01119
# Poissons Ratio (z) = 0.24329 -0.04143
#
# Static dielectric constant tensor:
#      x y z
#    x 4.152520 0.000000 0.208660 
#    y 0.000000 3.573960 0.000000 
#    z 0.208660 0.000000 3.702140 
# 
# 
# High freq. dielectric constant tensor:
#      x y z
#    x 1.817820 0.000000 0.017420 
#    y 0.000000 1.772170 0.000000 
#    z 0.017420 0.000000 1.812240 
# 
# From -- ./inp_files/145984.got.cif
#   From: 2010.06.25/outbox.cif.g09.slc.cpg/sg15_73_cif.got.tgz:145984.got - 2010.06.28 07:06:18.
