data_PCOD8134475
_publ_section_title
;
Structure prediction by ZEFSAII (Michael W. Deem and Ramdas Pophale) SiO2 
 PCOD8134475
Probable space group: C 2/C
;
_chemical_formula_sum "Si O2"
_cell_formula_units_Z 56
_cell_length_a 11.936285
_cell_length_b 30.291180
_cell_length_c 8.681103
_cell_angle_alpha 90.000000
_cell_angle_beta 65.585057
_cell_angle_gamma 90.000000
_cell_volume 2858.093470
_symmetry_space_group_name_H-M "C 2/C"
_symmetry_group_IT_number 15
_symmetry_cell_setting 'monoclinic'
loop_
_space_group_symop_operation_xyz
x,y,z
-x,y,1/2-z
-x,-y,-z
x,-y,1/2+z
1/2+x,1/2+y,z
1/2-x,1/2+y,1/2-z
1/2-x,1/2-y,-z
1/2+x,1/2-y,1/2+z
loop_
_atom_site_type_symbol
_atom_site_label
_atom_site_fract_x
_atom_site_fract_y
_atom_site_fract_z
Si Si1 0.667576 0.795199 0.258498
Si Si2 0.711981 0.062745 0.882406
Si Si3 0.043277 0.590072 0.398614
Si Si4 0.354416 0.348859 0.342580
Si Si5 0.742012 0.715188 0.367266
Si Si6 0.639750 0.008121 0.210753
Si Si7 0.587439 0.819295 0.972116
O O1 0.793227 0.818239 0.245464
O O2 0.661648 0.741932 0.286157
O O3 0.558551 0.815534 0.423863
O O4 0.657354 0.802588 0.083049
O O5 0.816590 0.099935 0.840464
O O6 0.726235 0.031564 0.723280
O O7 0.580389 0.085590 0.931543
O O8 0.711641 0.030665 0.029899
O O9 0.123916 0.545321 0.354769
O O10 0.122330 0.629365 0.427519
O O11 0.000000 0.601523 0.250000
O O12 0.500000 0.345285 0.250000
O O13 0.315072 0.330403 0.534735
O O14 0.750000 0.750000 0.500000
O O15 0.870956 0.705997 0.206697
O O16 0.500000 0.992475 0.250000
#
# Coordination Sequence:
#
# PCOD8134475 Si02
#       7
#     8   8   8   8   8   8   8
#     4  10  24  38  61  93 119 159 195 263 306 353
#     4  10  19  36  54  87 114 151 197 238 305 355
#     4   9  17  31  58  87 124 151 189 238 305 369
#     4  11  24  42  60  82 118 168 213 242 290 370
#     4  10  23  38  63  84 119 164 205 251 299 361
#     4   9  18  31  56  88 120 150 182 247 305 360
#     4  11  21  39  62  95 125 149 201 257 315 348
#
# _framework density 19.593481000000001
#
# number of rings (size 3 to 8) (size 9 to 14) (size 15 to 20)
#    0.000    2.286    1.429    3.857    6.000    2.286 
#    0.000    0.714    0.000    0.000    0.000    0.000 
#    0.000    0.000    0.000    0.000    0.000    0.000 
#
# Total GULP energy -346879.181665 kJ/mol
# GULP energy per Si atom -12388.542202 kJ/mol
# Density = 1.954888 g / cm^3
# Si number density = 19.593481 Si / 1000 Ang^3
#
#
#
# Elastic Constant Matrix: (Units=GPa)
#
#
# Indices 1 2 3 4 5 6 
#
# 1 80.9850 49.7365 33.6323 0.0000 -1.8420 0.0000
# 2 49.7365 128.4992 40.4234 0.0000 11.7775 0.0000
# 3 33.6323 40.4234 96.3918 0.0000 -3.9062 0.0000
# 4 0.0000 0.0000 0.0000 22.5785 0.0000 7.8728
# 5 -1.8420 11.7775 -3.9062 0.0000 20.2426 0.0000
# 6 0.0000 0.0000 0.0000 7.8728 0.0000 43.0136
#
#
#
# Elastic Compliance Matrix: (Units=1/GPa)
#
#
# Indices 1 2 3 4 5 6 
#
# 1 0.017656 -0.006188 -0.003381 0.000000 0.004554 0.000000
# 2 -0.006188 0.011916 -0.003167 0.000000 -0.008107 0.000000
# 3 -0.003381 -0.003167 0.013046 0.000000 0.004053 0.000000
# 4 0.000000 0.000000 0.000000 0.047309 0.000000 -0.008659
# 5 0.004554 -0.008107 0.004053 0.000000 0.055314 0.000000
# 6 0.000000 0.000000 0.000000 -0.008659 0.000000 0.024833
#
#
# Mechanical properties :
#
#
# Convention : Reuss Voigt Hill
#
# Bulk Modulus (GPa) = 58.31736 61.49561 59.90649
# Shear Modulus (GPa) = 24.84325 29.30586 27.07455
#
# Velocity S-wave (km/s) = 3.56467 3.87162 3.72131
# Velocity P-wave (km/s) = 6.83892 7.17215 7.00752
#
# Compressibility (1/GPa) = 0.01714755
#
# Stress axis : x y z
#
# Youngs Moduli (GPa) = 56.63903 83.91755 76.65007
#
# Poissons Ratio (x) = 0.51925 0.25914
# Poissons Ratio (y) = 0.35046 0.24275
# Poissons Ratio (z) = 0.19149 0.26576
#
# Static dielectric constant tensor:
#      x y z
#    x 3.226070 0.000000 0.181950 
#    y 0.000000 3.946150 0.000000 
#    z 0.181950 0.000000 3.596120 
# 
# 
# High freq. dielectric constant tensor:
#      x y z
#    x 1.713700 0.000000 0.018380 
#    y 0.000000 1.777900 0.000000 
#    z 0.018380 0.000000 1.760510 
# 
# From -- ./inp_files/35559.got.cif
#   From: 2010.06.25/outbox.cif.g09.slc.cpg/sg15_18_cif.got.tgz:35559.got - 2010.06.28 07:06:18.
