data_PCOD8134492
_publ_section_title
;
Structure prediction by ZEFSAII (Michael W. Deem and Ramdas Pophale) SiO2 
 PCOD8134492
Probable space group: C 2/C
;
_chemical_formula_sum "Si O2"
_cell_formula_units_Z 64
_cell_length_a 13.074990
_cell_length_b 29.897679
_cell_length_c 8.563659
_cell_angle_alpha 90.000000
_cell_angle_beta 73.619261
_cell_angle_gamma 90.000000
_cell_volume 3211.751377
_symmetry_space_group_name_H-M "C 2/C"
_symmetry_group_IT_number 15
_symmetry_cell_setting 'monoclinic'
loop_
_space_group_symop_operation_xyz
x,y,z
-x,y,1/2-z
-x,-y,-z
x,-y,1/2+z
1/2+x,1/2+y,z
1/2-x,1/2+y,1/2-z
1/2-x,1/2-y,-z
1/2+x,1/2-y,1/2+z
loop_
_atom_site_type_symbol
_atom_site_label
_atom_site_fract_x
_atom_site_fract_y
_atom_site_fract_z
Si Si1 0.290430 0.788212 0.708836
Si Si2 0.082850 0.212216 0.498669
Si Si3 0.878506 0.451484 0.628631
Si Si4 0.192275 0.629146 0.801414
Si Si5 0.369483 0.956246 0.991253
Si Si6 0.076535 0.311161 0.555108
Si Si7 0.115290 0.639566 0.512606
Si Si8 0.362663 0.307741 0.169350
O O1 0.179429 0.799747 0.841742
O O2 0.396677 0.802629 0.771317
O O3 0.299329 0.820531 0.555785
O O4 0.296479 0.737010 0.647849
O O5 0.052161 0.264221 0.484985
O O6 0.115551 0.202549 0.659670
O O7 0.970497 0.186885 0.518080
O O8 0.840539 0.451164 0.823252
O O9 0.830499 0.495257 0.566208
O O10 0.833011 0.406608 0.571350
O O11 0.004712 0.450724 0.544100
O O12 0.101338 0.633680 0.705725
O O13 0.303994 0.644356 0.673162
O O14 0.193068 0.580081 0.876834
O O15 0.183526 0.667587 0.937580
O O16 0.993341 0.349964 0.536028
#
# Coordination Sequence:
#
# PCOD8134492 Si02
#       8
#     8   8   8   8   8   8   8   8
#     4  11  20  36  56  78 106 149 201 238 275 328
#     4  10  19  36  56  77 106 147 198 246 273 319
#     4  10  21  36  55  83 110 150 183 224 276 339
#     4  12  22  36  51  82 117 152 187 230 283 339
#     4  10  21  36  57  79 115 146 183 227 278 336
#     4  11  19  35  54  76 108 155 194 230 274 328
#     4  12  24  32  53  83 118 151 187 228 279 340
#     4  10  20  35  56  79 107 148 197 239 281 331
#
# _framework density 19.926824
#
# number of rings (size 3 to 8) (size 9 to 14) (size 15 to 20)
#    0.000    1.250    5.000    3.000    1.750    1.500 
#    0.000    0.625    0.000    0.000    0.000    0.875 
#    0.000    0.000    0.000    0.000    0.000    0.000 
#
# Total GULP energy -396444.926452 kJ/mol
# GULP energy per Si atom -12388.903952 kJ/mol
# Density = 1.988147 g / cm^3
# Si number density = 19.926824 Si / 1000 Ang^3
#
#
#
# Elastic Constant Matrix: (Units=GPa)
#
#
# Indices 1 2 3 4 5 6 
#
# 1 39.8944 30.5947 4.0141 0.0000 -11.3561 0.0000
# 2 30.5947 132.2433 37.2124 0.0000 0.7037 0.0000
# 3 4.0141 37.2124 56.1478 0.0000 5.5672 0.0000
# 4 0.0000 0.0000 0.0000 33.1866 0.0000 -2.3200
# 5 -11.3561 0.7037 5.5672 0.0000 22.0787 0.0000
# 6 0.0000 0.0000 0.0000 -2.3200 0.0000 22.6385
#
#
#
# Elastic Compliance Matrix: (Units=1/GPa)
#
#
# Indices 1 2 3 4 5 6 
#
# 1 0.037407 -0.009181 0.001512 0.000000 0.019151 0.000000
# 2 -0.009181 0.011585 -0.006684 0.000000 -0.003406 0.000000
# 3 0.001512 -0.006684 0.022599 0.000000 -0.004708 0.000000
# 4 0.000000 0.000000 0.000000 0.030350 0.000000 0.003110
# 5 0.019151 -0.003406 -0.004708 0.000000 0.056439 0.000000
# 6 0.000000 0.000000 0.000000 0.003110 0.000000 0.044491
#
#
# Mechanical properties :
#
#
# Convention : Reuss Voigt Hill
#
# Bulk Modulus (GPa) = 23.31902 41.32533 32.32217
# Shear Modulus (GPa) = 20.33584 26.01172 23.17378
#
# Velocity S-wave (km/s) = 3.19803 3.61690 3.41390
# Velocity P-wave (km/s) = 5.03630 6.18273 5.63873
#
# Compressibility (1/GPa) = 0.04288345
#
# Stress axis : x y z
#
# Youngs Moduli (GPa) = 26.73312 86.31937 44.25056
#
# Poissons Ratio (x) = 0.79254 -0.06690
# Poissons Ratio (y) = 0.24545 0.29576
# Poissons Ratio (z) = -0.04042 0.57694
#
# Static dielectric constant tensor:
#      x y z
#    x 3.470970 0.000000 -0.196830 
#    y 0.000000 3.684550 0.000000 
#    z -0.196830 0.000000 3.776130 
# 
# 
# High freq. dielectric constant tensor:
#      x y z
#    x 1.734310 0.000000 -0.001710 
#    y 0.000000 1.764840 0.000000 
#    z -0.001710 0.000000 1.785500 
# 
# From -- ./inp_files/43513.got.cif
#   From: 2010.06.25/outbox.cif.g09.slc.cpg/sg15_22_cif.got.tgz:43513.got - 2010.06.28 07:06:18.
