data_PCOD8134966
_publ_section_title
;
Structure prediction by ZEFSAII (Michael W. Deem and Ramdas Pophale) SiO2 
 PCOD8134966
Probable space group: C 2/C
;
_chemical_formula_sum "Si O2"
_cell_formula_units_Z 56
_cell_length_a 21.382312
_cell_length_b 11.620995
_cell_length_c 12.663375
_cell_angle_alpha 90.000000
_cell_angle_beta 73.427229
_cell_angle_gamma 90.000000
_cell_volume 3015.925698
_symmetry_space_group_name_H-M "C 2/C"
_symmetry_group_IT_number 15
_symmetry_cell_setting 'monoclinic'
loop_
_space_group_symop_operation_xyz
x,y,z
-x,y,1/2-z
-x,-y,-z
x,-y,1/2+z
1/2+x,1/2+y,z
1/2-x,1/2+y,1/2-z
1/2-x,1/2-y,-z
1/2+x,1/2-y,1/2+z
loop_
_atom_site_type_symbol
_atom_site_label
_atom_site_fract_x
_atom_site_fract_y
_atom_site_fract_z
Si Si1 0.877795 0.456372 0.793568
Si Si2 0.539977 0.107602 0.443870
Si Si3 0.152570 0.660671 0.547429
Si Si4 0.947802 0.258134 0.864964
Si Si5 0.712200 0.627146 0.127096
Si Si6 0.177696 0.121428 0.583647
Si Si7 0.748078 0.172419 0.162754
O O1 0.929679 0.446081 0.676284
O O2 0.870061 0.584246 0.842453
O O3 0.902228 0.370938 0.873359
O O4 0.807556 0.419519 0.784918
O O5 0.593321 0.161237 0.494538
O O6 0.490701 0.214890 0.448046
O O7 0.500000 0.000000 0.500000
O O8 0.216163 0.611750 0.457852
O O9 0.167119 0.789214 0.579101
O O10 0.898579 0.151410 0.895838
O O11 0.000000 0.231415 0.750000
O O12 0.679412 0.502201 0.138549
O O13 0.712786 0.680141 0.245587
O O14 0.207785 0.122666 0.452303
O O15 0.216760 0.205603 0.644419
#
# Coordination Sequence:
#
# PCOD8134966 Si02
#       7
#     8   8   8   8   8   8   8
#     4  10  19  37  58  90 119 151 203 248 300 349
#     4  11  21  36  64  88 121 162 199 250 298 352
#     4  11  23  37  59  92 124 154 202 249 307 357
#     4   9  20  38  60  85 112 159 204 242 289 363
#     4  11  24  38  60  92 125 155 195 255 307 354
#     4  10  22  40  62  88 120 156 207 240 303 368
#     4  10  21  37  63  89 116 159 197 254 298 353
#
# _framework density 18.568097000000002
#
# number of rings (size 3 to 8) (size 9 to 14) (size 15 to 20)
#    0.000    1.714    4.286    0.000    2.000    1.143 
#    0.000    0.714    3.143    0.000    0.000    0.000 
#    0.000    0.000    0.000    0.000    0.000    0.000 
#
# Total GULP energy -347075.906158 kJ/mol
# GULP energy per Si atom -12395.568077 kJ/mol
# Density = 1.852584 g / cm^3
# Si number density = 18.568097 Si / 1000 Ang^3
#
#
#
# Elastic Constant Matrix: (Units=GPa)
#
#
# Indices 1 2 3 4 5 6 
#
# 1 127.9092 59.5687 42.2094 0.0000 14.1613 0.0000
# 2 59.5687 108.5882 41.0798 0.0000 8.6596 0.0000
# 3 42.2094 41.0798 86.9723 0.0000 12.2573 0.0000
# 4 0.0000 0.0000 0.0000 21.0919 0.0000 1.5965
# 5 14.1613 8.6596 12.2573 0.0000 34.4339 0.0000
# 6 0.0000 0.0000 0.0000 1.5965 0.0000 24.2769
#
#
#
# Elastic Compliance Matrix: (Units=1/GPa)
#
#
# Indices 1 2 3 4 5 6 
#
# 1 0.011320 -0.004953 -0.002815 0.000000 -0.002408 0.000000
# 2 -0.004953 0.013412 -0.003940 0.000000 0.000067 0.000000
# 3 -0.002815 -0.003940 0.015184 0.000000 -0.003256 0.000000
# 4 0.000000 0.000000 0.000000 0.047649 0.000000 -0.003133
# 5 -0.002408 0.000067 -0.003256 0.000000 0.031174 0.000000
# 6 0.000000 0.000000 0.000000 -0.003133 0.000000 0.041398
#
#
# Mechanical properties :
#
#
# Convention : Reuss Voigt Hill
#
# Bulk Modulus (GPa) = 60.60933 67.68727 64.14830
# Shear Modulus (GPa) = 26.44764 28.00131 27.22448
#
# Velocity S-wave (km/s) = 3.77816 3.88755 3.83325
# Velocity P-wave (km/s) = 7.19341 7.52884 7.36304
#
# Compressibility (1/GPa) = 0.01649911
#
# Stress axis : x y z
#
# Youngs Moduli (GPa) = 88.33698 74.56269 65.85777
#
# Poissons Ratio (x) = 0.36931 0.18540
# Poissons Ratio (y) = 0.43753 0.25950
# Poissons Ratio (z) = 0.24868 0.29380
#
# Static dielectric constant tensor:
#      x y z
#    x 3.609020 0.000000 0.027370 
#    y 0.000000 3.187020 0.000000 
#    z 0.027370 0.000000 3.462430 
# 
# 
# High freq. dielectric constant tensor:
#      x y z
#    x 1.728580 0.000000 0.000980 
#    y 0.000000 1.702220 0.000000 
#    z 0.000980 0.000000 1.719630 
# 
# From -- ./inp_files/111008.got.cif
#   From: 2010.06.25/outbox.cif.g09.slc.cpg/sg15_56_cif.got.tgz:111008.got - 2010.06.28 07:06:18.
