data_PCOD8134654
_publ_section_title
;
Structure prediction by ZEFSAII (Michael W. Deem and Ramdas Pophale) SiO2 
 PCOD8134654
Probable space group: C 2/C
;
_chemical_formula_sum "Si O2"
_cell_formula_units_Z 56
_cell_length_a 11.738691
_cell_length_b 22.604092
_cell_length_c 14.321848
_cell_angle_alpha 90.000000
_cell_angle_beta 43.471541
_cell_angle_gamma 90.000000
_cell_volume 2614.511588
_symmetry_space_group_name_H-M "C 2/C"
_symmetry_group_IT_number 15
_symmetry_cell_setting 'monoclinic'
loop_
_space_group_symop_operation_xyz
x,y,z
-x,y,1/2-z
-x,-y,-z
x,-y,1/2+z
1/2+x,1/2+y,z
1/2-x,1/2+y,1/2-z
1/2-x,1/2-y,-z
1/2+x,1/2-y,1/2+z
loop_
_atom_site_type_symbol
_atom_site_label
_atom_site_fract_x
_atom_site_fract_y
_atom_site_fract_z
Si Si1 0.776085 0.879229 0.674633
Si Si2 0.335438 0.954065 0.909192
Si Si3 0.890760 0.255951 0.729584
Si Si4 0.524275 0.908164 0.963083
Si Si5 0.525206 0.225331 0.959648
Si Si6 0.924631 0.173845 0.398195
Si Si7 0.631038 0.082857 0.593132
O O1 0.801909 0.913996 0.561376
O O2 0.648379 0.825220 0.733609
O O3 0.690891 0.920727 0.804239
O O4 0.954041 0.858853 0.602406
O O5 0.500000 0.946388 0.750000
O O6 0.364847 0.928752 0.997248
O O7 0.272629 0.022073 0.939627
O O8 0.718411 0.221727 0.820612
O O9 0.000000 0.231915 0.750000
O O10 0.997334 0.241050 0.574280
O O11 0.535503 0.840589 0.991285
O O12 0.532658 0.940280 0.058329
O O13 0.416077 0.258638 0.943684
O O14 0.752474 0.138210 0.502862
O O15 0.000000 0.175365 0.250000
O O16 0.500000 0.102230 0.750000
#
# Coordination Sequence:
#
# PCOD8134654 Si02
#       7
#     8   8   8   8   8   8   8
#     4   9  18  37  63  87 114 156 204 245 296 358
#     4   9  19  37  64  92 116 153 205 257 302 354
#     4  10  19  36  59  90 121 157 196 243 302 361
#     4  10  19  38  62  90 120 156 203 246 304 362
#     4  10  23  35  60  91 120 162 196 248 301 358
#     4  11  23  42  60  87 123 164 206 240 303 372
#     4  11  24  38  61  89 121 163 200 256 295 354
#
# _framework density 21.418914000000001
#
# number of rings (size 3 to 8) (size 9 to 14) (size 15 to 20)
#    0.000    2.000    1.429    3.000    2.000    2.857 
#    0.000    0.000    0.000    0.000    0.000    0.000 
#    0.000    0.000    0.000    0.000    0.000    0.000 
#
# Total GULP energy -346952.616195 kJ/mol
# GULP energy per Si atom -12391.164864 kJ/mol
# Density = 2.137016 g / cm^3
# Si number density = 21.418914 Si / 1000 Ang^3
#
#
#
# Elastic Constant Matrix: (Units=GPa)
#
#
# Indices 1 2 3 4 5 6 
#
# 1 82.6650 24.6743 19.1821 0.0002 21.4019 -0.0001
# 2 24.6743 95.9798 21.6586 0.0000 11.4445 0.0000
# 3 19.1821 21.6586 75.5442 0.0000 14.0520 -0.0001
# 4 0.0002 0.0000 0.0000 12.7035 0.0000 10.3025
# 5 21.4019 11.4445 14.0520 0.0000 29.1036 0.0000
# 6 -0.0001 0.0000 -0.0001 10.3025 0.0000 20.9707
#
#
#
# Elastic Compliance Matrix: (Units=1/GPa)
#
#
# Indices 1 2 3 4 5 6 
#
# 1 0.015749 -0.002547 -0.001429 -0.000001 -0.009890 0.000000
# 2 -0.002547 0.011815 -0.002444 0.000000 -0.001593 0.000000
# 3 -0.001429 -0.002444 0.015301 0.000000 -0.005375 0.000000
# 4 -0.000001 0.000000 0.000000 0.130855 0.000001 -0.064287
# 5 -0.009890 -0.001593 -0.005375 0.000001 0.044855 0.000000
# 6 0.000000 0.000000 0.000000 -0.064287 0.000000 0.079268
#
#
# Mechanical properties :
#
#
# Convention : Reuss Voigt Hill
#
# Bulk Modulus (GPa) = 33.30646 42.80213 38.05430
# Shear Modulus (GPa) = 15.59124 25.13383 20.36254
#
# Velocity S-wave (km/s) = 2.70093 3.42927 3.08666
# Velocity P-wave (km/s) = 5.03095 5.97550 5.52345
#
# Compressibility (1/GPa) = 0.03002420
#
# Stress axis : x y z
#
# Youngs Moduli (GPa) = 63.49435 84.63687 65.35572
#
# Poissons Ratio (x) = 0.21558 0.09341
# Poissons Ratio (y) = 0.16172 0.15975
# Poissons Ratio (z) = 0.09075 0.20689
#
# Static dielectric constant tensor:
#      x y z
#    x 3.927280 0.000000 0.503690 
#    y 0.000000 3.841390 0.000000 
#    z 0.503690 0.000000 4.046680 
# 
# 
# High freq. dielectric constant tensor:
#      x y z
#    x 1.836830 0.000000 0.031400 
#    y 0.000000 1.832640 0.000000 
#    z 0.031400 0.000000 1.826600 
# 
# From -- ./inp_files/92010.got.cif
#   From: 2010.06.25/outbox.cif.g09.slc.cpg/sg15_47_cif.got.tgz:92010.got - 2010.06.28 07:06:18.
