data_PCOD8134247
_publ_section_title
;
Structure prediction by ZEFSAII (Michael W. Deem and Ramdas Pophale) SiO2 
 PCOD8134247
Probable space group: C 2/C
;
_chemical_formula_sum "Si O2"
_cell_formula_units_Z 60
_cell_length_a 13.215818
_cell_length_b 9.836513
_cell_length_c 25.150512
_cell_angle_alpha 90.000000
_cell_angle_beta 69.804748
_cell_angle_gamma 90.000000
_cell_volume 3068.501486
_symmetry_space_group_name_H-M "C 2/C"
_symmetry_group_IT_number 15
_symmetry_cell_setting 'monoclinic'
loop_
_space_group_symop_operation_xyz
x,y,z
-x,y,1/2-z
-x,-y,-z
x,-y,1/2+z
1/2+x,1/2+y,z
1/2-x,1/2+y,1/2-z
1/2-x,1/2-y,-z
1/2+x,1/2-y,1/2+z
loop_
_atom_site_type_symbol
_atom_site_label
_atom_site_fract_x
_atom_site_fract_y
_atom_site_fract_z
Si Si1 0.229188 0.923800 0.718800
Si Si2 0.749678 0.737834 0.690488
Si Si3 0.091917 0.648120 0.390275
Si Si4 0.766620 0.377085 0.034728
Si Si5 0.077425 0.831726 0.141619
Si Si6 0.437463 0.843372 0.092785
Si Si7 0.348578 0.837946 0.499072
Si Si8 0.000000 0.015550 0.250000
O O1 0.274529 0.858805 0.764513
O O2 0.291540 0.852831 0.659081
O O3 0.236043 0.087671 0.718533
O O4 0.103179 0.886415 0.736067
O O5 0.660733 0.761604 0.660480
O O6 0.874457 0.747069 0.648052
O O7 0.044356 0.498013 0.392020
O O8 0.112362 0.687791 0.447651
O O9 0.008185 0.748416 0.377367
O O10 0.656229 0.414239 0.086791
O O11 0.863107 0.336285 0.055106
O O12 0.810214 0.507817 0.995168
O O13 0.750000 0.250000 0.000000
O O14 0.011203 0.925819 0.194220
O O15 0.555322 0.788664 0.057170
O O16 0.250000 0.750000 0.500000
#
# Coordination Sequence:
#
# PCOD8134247 Si02
#       8
#     8   8   8   8   8   8   8   4
#     4  10  20  37  56  82 110 146 181 220 269 324
#     4   9  20  36  58  83 110 142 184 225 270 322
#     4  10  19  36  59  79 109 148 186 223 271 327
#     4  10  19  36  59  79 104 145 187 221 270 332
#     4  10  19  35  59  82 105 146 191 224 261 326
#     4   9  19  35  55  78 110 147 180 221 274 328
#     4  11  22  36  55  83 115 142 179 231 280 322
#     4  10  20  34  54  80 116 150 176 216 276 330
#
# _framework density 19.553516999999999
#
# number of rings (size 3 to 8) (size 9 to 14) (size 15 to 20)
#    0.000    2.133    0.000    7.200    0.000    2.133 
#    0.000   13.333    0.000    0.000    0.000    0.000 
#    0.000    0.000    0.000    0.000    0.000    0.000 
#
# Total GULP energy -371737.195217 kJ/mol
# GULP energy per Si atom -12391.239841 kJ/mol
# Density = 1.950901 g / cm^3
# Si number density = 19.553517 Si / 1000 Ang^3
#
#
#
# Elastic Constant Matrix: (Units=GPa)
#
#
# Indices 1 2 3 4 5 6 
#
# 1 114.9324 31.4609 38.6249 0.0000 -25.6053 0.0000
# 2 31.4609 47.6147 20.9434 0.0000 8.9010 0.0000
# 3 38.6249 20.9434 96.0949 0.0000 -25.2689 0.0000
# 4 0.0000 0.0000 0.0000 22.8435 0.0000 1.9035
# 5 -25.6053 8.9010 -25.2689 0.0000 41.9809 0.0000
# 6 0.0000 0.0000 0.0000 1.9035 0.0000 27.7462
#
#
#
# Elastic Compliance Matrix: (Units=1/GPa)
#
#
# Indices 1 2 3 4 5 6 
#
# 1 0.014390 -0.011358 -0.000437 0.000000 0.010922 0.000000
# 2 -0.011358 0.035864 -0.008402 0.000000 -0.019589 0.000000
# 3 -0.000437 -0.008402 0.015221 0.000000 0.010677 0.000000
# 4 0.000000 0.000000 0.000000 0.044028 0.000000 -0.003020
# 5 0.010922 -0.019589 0.010677 0.000000 0.041062 0.000000
# 6 0.000000 0.000000 0.000000 -0.003020 0.000000 0.036248
#
#
# Mechanical properties :
#
#
# Convention : Reuss Voigt Hill
#
# Bulk Modulus (GPa) = 39.86998 48.96671 44.41835
# Shear Modulus (GPa) = 21.22553 29.68831 25.45692
#
# Velocity S-wave (km/s) = 3.29828 3.90078 3.61211
# Velocity P-wave (km/s) = 5.91095 6.73683 6.33736
#
# Compressibility (1/GPa) = 0.02508153
#
# Stress axis : x y z
#
# Youngs Moduli (GPa) = 69.49409 27.88313 65.70045
#
# Poissons Ratio (x) = 0.31669 0.02868
# Poissons Ratio (y) = 0.78929 0.55203
# Poissons Ratio (z) = 0.03033 0.23428
#
# Static dielectric constant tensor:
#      x y z
#    x 3.687090 0.000000 -0.331370 
#    y 0.000000 3.163140 0.000000 
#    z -0.331370 0.000000 3.968810 
# 
# 
# High freq. dielectric constant tensor:
#      x y z
#    x 1.769540 0.000000 -0.021230 
#    y 0.000000 1.724640 0.000000 
#    z -0.021230 0.000000 1.777890 
# 
# From -- ./inp_files/268803.got.cif
#   From: 2010.06.25/outbox.cif.g09.slc.cpg/sg15_135_cif.got.tgz:268803.got - 2010.06.28 07:06:18.
