data_PCOD8134590
_publ_section_title
;
Structure prediction by ZEFSAII (Michael W. Deem and Ramdas Pophale) SiO2 
 PCOD8134590
Probable space group: C 2/C
;
_chemical_formula_sum "Si O2"
_cell_formula_units_Z 32
_cell_length_a 11.563384
_cell_length_b 8.358677
_cell_length_c 18.804358
_cell_angle_alpha 90.000000
_cell_angle_beta 55.923240
_cell_angle_gamma 90.000000
_cell_volume 1505.435658
_symmetry_space_group_name_H-M "C 2/C"
_symmetry_group_IT_number 15
_symmetry_cell_setting 'monoclinic'
loop_
_space_group_symop_operation_xyz
x,y,z
-x,y,1/2-z
-x,-y,-z
x,-y,1/2+z
1/2+x,1/2+y,z
1/2-x,1/2+y,1/2-z
1/2-x,1/2-y,-z
1/2+x,1/2-y,1/2+z
loop_
_atom_site_type_symbol
_atom_site_label
_atom_site_fract_x
_atom_site_fract_y
_atom_site_fract_z
Si Si1 0.926632 0.636069 0.070764
Si Si2 0.337287 0.390866 0.004571
Si Si3 0.839902 0.675270 0.406751
Si Si4 0.371080 0.496771 0.341689
O O1 0.763778 0.595612 0.137438
O O2 0.001516 0.644462 0.121104
O O3 0.944831 0.807762 0.022995
O O4 0.000000 0.500000 0.000000
O O5 0.410050 0.477665 0.912004
O O6 0.250000 0.250000 0.000000
O O7 0.235676 0.507660 0.085897
O O8 0.750000 0.750000 0.500000
O O9 0.844051 0.804570 0.341079
O O10 0.500000 0.555336 0.250000
#
# Coordination Sequence:
#
# PCOD8134590 Si02
#       4
#     8   8   8   8
#     4  11  19  38  62  83 113 153 196 236 282 347
#     4   9  18  35  62  82 108 151 195 228 280 343
#     4  10  19  36  58  85 111 150 197 231 281 349
#     4  10  22  40  53  85 125 143 190 249 284 339
#
# _framework density 21.256304
#
# number of rings (size 3 to 8) (size 9 to 14) (size 15 to 20)
#    0.000    2.000    7.500    0.000    0.000    4.000 
#    4.500    5.000    0.000    0.000    0.000    0.000 
#    0.000    0.000    0.000    0.000    0.000    0.000 
#
# Total GULP energy -198239.656620 kJ/mol
# GULP energy per Si atom -12389.978539 kJ/mol
# Density = 2.120792 g / cm^3
# Si number density = 21.256304 Si / 1000 Ang^3
#
#
#
# Elastic Constant Matrix: (Units=GPa)
#
#
# Indices 1 2 3 4 5 6 
#
# 1 79.1272 24.5059 25.8708 0.0000 -15.3128 0.0000
# 2 24.5059 111.9514 23.0725 0.0000 -3.4596 0.0000
# 3 25.8708 23.0725 96.2033 0.0000 -27.3775 0.0000
# 4 0.0000 0.0000 0.0000 21.4298 0.0000 -3.1457
# 5 -15.3128 -3.4596 -27.3775 0.0000 26.0447 0.0000
# 6 0.0000 0.0000 0.0000 -3.1457 0.0000 40.3348
#
#
#
# Elastic Compliance Matrix: (Units=1/GPa)
#
#
# Indices 1 2 3 4 5 6 
#
# 1 0.015371 -0.002853 -0.001406 0.000000 0.007180 0.000000
# 2 -0.002853 0.009973 -0.002461 0.000000 -0.002940 0.000000
# 3 -0.001406 -0.002461 0.015745 0.000000 0.015397 0.000000
# 4 0.000000 0.000000 0.000000 0.047204 0.000000 0.003681
# 5 0.007180 -0.002940 0.015397 0.000000 0.058411 0.000000
# 6 0.000000 0.000000 0.000000 0.003681 0.000000 0.025080
#
#
# Mechanical properties :
#
#
# Convention : Reuss Voigt Hill
#
# Bulk Modulus (GPa) = 36.16850 48.24225 42.20537
# Shear Modulus (GPa) = 25.71479 31.81736 28.76608
#
# Velocity S-wave (km/s) = 3.48192 3.87310 3.68271
# Velocity P-wave (km/s) = 5.76345 6.53804 6.16293
#
# Compressibility (1/GPa) = 0.02764837
#
# Stress axis : x y z
#
# Youngs Moduli (GPa) = 65.05910 100.26702 63.51367
#
# Poissons Ratio (x) = 0.28606 0.08929
# Poissons Ratio (y) = 0.18561 0.15633
# Poissons Ratio (z) = 0.09146 0.24679
#
# Static dielectric constant tensor:
#      x y z
#    x 4.872770 0.000000 0.122350 
#    y 0.000000 5.128640 0.000000 
#    z 0.122350 0.000000 3.597640 
# 
# 
# High freq. dielectric constant tensor:
#      x y z
#    x 1.822710 0.000000 -0.020670 
#    y 0.000000 1.861440 0.000000 
#    z -0.020670 0.000000 1.777980 
# 
# From -- ./inp_files/140532.got.cif
#   From: 2010.06.25/outbox.cif.g09.slc.cpg/sg15_71_cif.got.tgz:140532.got - 2010.06.28 07:06:18.
