data_PCOD8134490
_publ_section_title
;
Structure prediction by ZEFSAII (Michael W. Deem and Ramdas Pophale) SiO2 
 PCOD8134490
Probable space group: C 2/C
;
_chemical_formula_sum "Si O2"
_cell_formula_units_Z 52
_cell_length_a 21.928477
_cell_length_b 9.695116
_cell_length_c 12.242574
_cell_angle_alpha 90.000000
_cell_angle_beta 76.596604
_cell_angle_gamma 90.000000
_cell_volume 2531.866933
_symmetry_space_group_name_H-M "C 2/C"
_symmetry_group_IT_number 15
_symmetry_cell_setting 'monoclinic'
loop_
_space_group_symop_operation_xyz
x,y,z
-x,y,1/2-z
-x,-y,-z
x,-y,1/2+z
1/2+x,1/2+y,z
1/2-x,1/2+y,1/2-z
1/2-x,1/2-y,-z
1/2+x,1/2-y,1/2+z
loop_
_atom_site_type_symbol
_atom_site_label
_atom_site_fract_x
_atom_site_fract_y
_atom_site_fract_z
Si Si1 0.399652 0.699614 0.955364
Si Si2 0.334687 0.089386 0.631250
Si Si3 0.301409 0.230267 0.857254
Si Si4 0.836638 0.292448 0.573909
Si Si5 0.597318 0.457674 0.377294
Si Si6 0.307529 0.540975 0.843273
Si Si7 0.500000 0.358668 0.250000
O O1 0.342921 0.648066 0.904998
O O2 0.458134 0.733034 0.850536
O O3 0.379620 0.839234 0.023831
O O4 0.418581 0.581605 0.034452
O O5 0.343135 0.171822 0.741291
O O6 0.262638 0.096940 0.626268
O O7 0.353400 0.928602 0.638346
O O8 0.227625 0.218124 0.857705
O O9 0.314109 0.387822 0.888337
O O10 0.323736 0.149987 0.956604
O O11 0.895589 0.188040 0.560509
O O12 0.664438 0.473692 0.290232
O O13 0.543806 0.455619 0.306714
#
# Coordination Sequence:
#
# PCOD8134490 Si02
#       7
#     8   8   8   8   8   8   4
#     4  11  22  40  62  86 119 163 211 259 302 352
#     4  11  22  35  61  96 128 157 198 242 313 384
#     4  10  19  36  55  91 129 162 190 235 301 380
#     4  10  22  36  59  89 129 162 191 243 306 375
#     4  11  20  40  63  85 120 160 207 259 305 351
#     4  10  20  34  60  92 124 158 195 242 310 372
#     4  10  26  40  62  88 114 158 228 266 294 342
#
# _framework density 20.538204
#
# number of rings (size 3 to 8) (size 9 to 14) (size 15 to 20)
#    0.000    1.538    4.615    0.923    0.000    2.462 
#    0.000    0.769    0.000    1.846    0.000    0.000 
#    0.000    0.000    0.000    0.000    0.000    0.000 
#
# Total GULP energy -322254.009895 kJ/mol
# GULP energy per Si atom -12394.384996 kJ/mol
# Density = 2.049146 g / cm^3
# Si number density = 20.538204 Si / 1000 Ang^3
#
#
#
# Elastic Constant Matrix: (Units=GPa)
#
#
# Indices 1 2 3 4 5 6 
#
# 1 72.7878 35.0695 33.0107 0.0000 -13.1038 0.0000
# 2 35.0695 76.6624 34.1443 0.0000 5.9135 0.0000
# 3 33.0107 34.1443 116.8438 0.0000 -20.0395 0.0000
# 4 0.0000 0.0000 0.0000 27.7713 0.0000 -1.4485
# 5 -13.1038 5.9135 -20.0395 0.0000 23.5638 0.0000
# 6 0.0000 0.0000 0.0000 -1.4485 0.0000 14.8949
#
#
#
# Elastic Compliance Matrix: (Units=1/GPa)
#
#
# Indices 1 2 3 4 5 6 
#
# 1 0.021794 -0.010851 -0.000516 0.000000 0.014404 0.000000
# 2 -0.010851 0.022124 -0.006307 0.000000 -0.016950 0.000000
# 3 -0.000516 -0.006307 0.012608 0.000000 0.012018 0.000000
# 4 0.000000 0.000000 0.000000 0.036192 0.000000 0.003520
# 5 0.014404 -0.016950 0.012018 0.000000 0.064922 0.000000
# 6 0.000000 0.000000 0.000000 0.003520 0.000000 0.067479
#
#
# Mechanical properties :
#
#
# Convention : Reuss Voigt Hill
#
# Bulk Modulus (GPa) = 47.21555 52.30477 49.76016
# Shear Modulus (GPa) = 18.68972 24.18397 21.43684
#
# Velocity S-wave (km/s) = 3.01989 3.43521 3.23422
# Velocity P-wave (km/s) = 5.93285 6.42313 6.18285
#
# Compressibility (1/GPa) = 0.02117946
#
# Stress axis : x y z
#
# Youngs Moduli (GPa) = 45.88496 45.19915 79.31244
#
# Poissons Ratio (x) = 0.49045 0.04092
# Poissons Ratio (y) = 0.49789 0.50019
# Poissons Ratio (z) = 0.02367 0.28505
#
# Static dielectric constant tensor:
#      x y z
#    x 3.521780 0.000000 -0.117410 
#    y 0.000000 3.560040 0.000000 
#    z -0.117410 0.000000 3.923990 
# 
# 
# High freq. dielectric constant tensor:
#      x y z
#    x 1.775070 0.000000 0.002640 
#    y 0.000000 1.785370 0.000000 
#    z 0.002640 0.000000 1.817150 
# 
# From -- ./inp_files/121488.got.cif
#   From: 2010.06.25/outbox.cif.g09.slc.cpg/sg15_61_cif.got.tgz:121488.got - 2010.06.28 07:06:18.
