data_PCOD8134306
_publ_section_title
;
Structure prediction by ZEFSAII (Michael W. Deem and Ramdas Pophale) SiO2 
 PCOD8134306
Probable space group: C 2/C
;
_chemical_formula_sum "Si O2"
_cell_formula_units_Z 48
_cell_length_a 17.426828
_cell_length_b 18.668264
_cell_length_c 9.008979
_cell_angle_alpha 90.000000
_cell_angle_beta 52.433427
_cell_angle_gamma 90.000000
_cell_volume 2323.147782
_symmetry_space_group_name_H-M "C 2/C"
_symmetry_group_IT_number 15
_symmetry_cell_setting 'monoclinic'
loop_
_space_group_symop_operation_xyz
x,y,z
-x,y,1/2-z
-x,-y,-z
x,-y,1/2+z
1/2+x,1/2+y,z
1/2-x,1/2+y,1/2-z
1/2-x,1/2-y,-z
1/2+x,1/2-y,1/2+z
loop_
_atom_site_type_symbol
_atom_site_label
_atom_site_fract_x
_atom_site_fract_y
_atom_site_fract_z
Si Si1 0.316390 0.159671 0.549377
Si Si2 0.396975 0.555161 0.947489
Si Si3 0.957255 0.579285 0.575949
Si Si4 0.709639 0.474980 0.203067
Si Si5 0.646966 0.095851 0.503650
Si Si6 0.271384 0.682710 0.160919
O O1 0.418703 0.120745 0.473407
O O2 0.304943 0.235885 0.641860
O O3 0.305298 0.170538 0.384551
O O4 0.231836 0.108007 0.713486
O O5 0.500000 0.554077 0.750000
O O6 0.315010 0.520114 0.940732
O O7 0.387414 0.503230 0.100691
O O8 0.369017 0.636907 0.018978
O O9 0.870798 0.583346 0.800352
O O10 0.000000 0.500000 0.500000
O O11 0.049360 0.619900 0.535314
O O12 0.806121 0.522418 0.119459
O O13 0.722811 0.158958 0.374280
#
# Coordination Sequence:
#
# PCOD8134306 Si02
#       6
#     8   8   8   8   8   8
#     4  10  20  39  59  86 116 164 200 242 304 365
#     4  10  20  36  57  84 109 145 196 244 289 346
#     4  11  22  35  60  92 120 154 203 255 305 366
#     4  10  19  35  60  80 114 151 191 244 297 350
#     4  10  22  37  57  89 122 154 199 249 307 365
#     4   9  22  40  57  83 121 161 198 244 304 366
#
# _framework density 20.661622000000001
#
# number of rings (size 3 to 8) (size 9 to 14) (size 15 to 20)
#    0.000    2.000    1.667    1.500    4.667    1.333 
#    9.000    0.000    3.667    0.000    0.000    0.000 
#    0.000    0.000    0.000    0.000    0.000    0.000 
#
# Total GULP energy -297321.610089 kJ/mol
# GULP energy per Si atom -12388.400420 kJ/mol
# Density = 2.061460 g / cm^3
# Si number density = 20.661622 Si / 1000 Ang^3
#
#
#
# Elastic Constant Matrix: (Units=GPa)
#
#
# Indices 1 2 3 4 5 6 
#
# 1 58.1099 22.5452 4.2755 0.0000 -7.3522 0.0000
# 2 22.5452 145.1016 48.5325 0.0000 2.3279 0.0000
# 3 4.2755 48.5325 118.5226 0.0000 -7.6672 0.0000
# 4 0.0000 0.0000 0.0000 26.1894 0.0000 0.9422
# 5 -7.3522 2.3279 -7.6672 0.0000 23.5783 0.0000
# 6 0.0000 0.0000 0.0000 0.9422 0.0000 29.3497
#
#
#
# Elastic Compliance Matrix: (Units=1/GPa)
#
#
# Indices 1 2 3 4 5 6 
#
# 1 0.019338 -0.003506 0.001175 0.000000 0.006758 0.000000
# 2 -0.003506 0.008705 -0.003641 0.000000 -0.003137 0.000000
# 3 0.001175 -0.003641 0.010146 0.000000 0.004025 0.000000
# 4 0.000000 0.000000 0.000000 0.038227 0.000000 -0.001227
# 5 0.006758 -0.003137 0.004025 0.000000 0.046138 0.000000
# 6 0.000000 0.000000 0.000000 -0.001227 0.000000 0.034111
#
#
# Mechanical properties :
#
#
# Convention : Reuss Voigt Hill
#
# Bulk Modulus (GPa) = 38.10244 52.49341 45.29792
# Shear Modulus (GPa) = 28.19185 32.24888 30.22036
#
# Velocity S-wave (km/s) = 3.69786 3.95500 3.82859
# Velocity P-wave (km/s) = 6.05916 6.80569 6.44324
#
# Compressibility (1/GPa) = 0.02624504
#
# Stress axis : x y z
#
# Youngs Moduli (GPa) = 51.71260 114.88261 98.56092
#
# Poissons Ratio (x) = 0.40279 -0.11584
# Poissons Ratio (y) = 0.18131 0.35884
# Poissons Ratio (z) = -0.06078 0.41826
#
# Static dielectric constant tensor:
#      x y z
#    x 3.813310 0.000000 0.058610 
#    y 0.000000 3.637370 0.000000 
#    z 0.058610 0.000000 3.614720 
# 
# 
# High freq. dielectric constant tensor:
#      x y z
#    x 1.803970 0.000000 0.002940 
#    y 0.000000 1.793680 0.000000 
#    z 0.002940 0.000000 1.800380 
# 
# From -- ./inp_files/113404.got.cif
#   From: 2010.06.25/outbox.cif.g09.slc.cpg/sg15_57_cif.got.tgz:113404.got - 2010.06.28 07:06:18.
