data_PCOD8134860
_publ_section_title
;
Structure prediction by ZEFSAII (Michael W. Deem and Ramdas Pophale) SiO2 
 PCOD8134860
Probable space group: C 2/C
;
_chemical_formula_sum "Si O2"
_cell_formula_units_Z 56
_cell_length_a 12.355890
_cell_length_b 14.406592
_cell_length_c 26.219849
_cell_angle_alpha 90.000000
_cell_angle_beta 146.402778
_cell_angle_gamma 90.000000
_cell_volume 2582.654459
_symmetry_space_group_name_H-M "C 2/C"
_symmetry_group_IT_number 15
_symmetry_cell_setting 'monoclinic'
loop_
_space_group_symop_operation_xyz
x,y,z
-x,y,1/2-z
-x,-y,-z
x,-y,1/2+z
1/2+x,1/2+y,z
1/2-x,1/2+y,1/2-z
1/2-x,1/2-y,-z
1/2+x,1/2-y,1/2+z
loop_
_atom_site_type_symbol
_atom_site_label
_atom_site_fract_x
_atom_site_fract_y
_atom_site_fract_z
Si Si1 0.305913 0.674205 0.254296
Si Si2 0.243457 0.411645 0.114877
Si Si3 0.908382 0.156981 0.508035
Si Si4 0.087641 0.633624 0.455563
Si Si5 0.819256 0.373216 0.213152
Si Si6 0.148067 0.978086 0.241349
Si Si7 0.728412 0.792898 0.838826
O O1 0.369947 0.767377 0.250372
O O2 0.440868 0.582719 0.299944
O O3 0.309512 0.691227 0.314996
O O4 0.101633 0.632555 0.153885
O O5 0.462915 0.411295 0.176609
O O6 0.222252 0.480363 0.155046
O O7 0.213518 0.310929 0.126130
O O8 0.089571 0.430751 0.007964
O O9 0.875321 0.263867 0.508632
O O10 0.768285 0.099539 0.491229
O O11 0.840640 0.139819 0.423008
O O12 0.131153 0.125370 0.602742
O O13 0.780562 0.440382 0.246368
O O14 0.000000 0.410219 0.250000
O O15 0.500000 0.814729 0.750000
#
# Coordination Sequence:
#
# PCOD8134860 Si02
#       7
#     8   8   8   8   8   8   8
#     4  11  23  37  61  95 120 159 201 251 306 362
#     4  10  19  36  65  85 115 154 205 256 290 345
#     4   9  18  33  61  93 113 157 206 248 301 352
#     4   9  17  33  61  91 118 145 207 259 297 341
#     4  11  23  43  60  84 132 166 189 245 315 371
#     4  11  22  37  61  91 117 157 206 242 304 356
#     4  11  17  34  65  92 113 151 203 260 289 340
#
# _framework density 21.683116999999999
#
# number of rings (size 3 to 8) (size 9 to 14) (size 15 to 20)
#    0.000    1.714    5.714    0.000    2.000    1.143 
#    0.000    2.857    0.000    0.000    0.000    0.000 
#    0.000    0.000    0.000    0.000    0.000    0.000 
#
# Total GULP energy -346907.348980 kJ/mol
# GULP energy per Si atom -12389.548178 kJ/mol
# Density = 2.163377 g / cm^3
# Si number density = 21.683117 Si / 1000 Ang^3
#
#
#
# Elastic Constant Matrix: (Units=GPa)
#
#
# Indices 1 2 3 4 5 6 
#
# 1 110.8102 5.4187 34.7134 0.0000 -22.4670 0.0000
# 2 5.4187 58.9322 -10.1346 0.0000 -11.8539 0.0000
# 3 34.7134 -10.1346 103.2757 0.0000 -32.6680 -0.0001
# 4 0.0000 0.0000 0.0000 5.6894 0.0000 -5.0174
# 5 -22.4670 -11.8539 -32.6680 0.0000 33.1172 0.0000
# 6 0.0000 0.0000 -0.0001 -5.0174 0.0000 11.6354
#
#
#
# Elastic Compliance Matrix: (Units=1/GPa)
#
#
# Indices 1 2 3 4 5 6 
#
# 1 0.010716 -0.000275 -0.001978 0.000000 0.005221 0.000000
# 2 -0.000275 0.020848 0.006453 0.000000 0.013641 0.000000
# 3 -0.001978 0.006453 0.016406 0.000000 0.017152 0.000000
# 4 0.000000 0.000000 0.000000 0.283627 0.000000 0.122305
# 5 0.005221 0.013641 0.017152 0.000000 0.055539 0.000000
# 6 0.000000 0.000000 0.000000 0.122305 0.000000 0.138685
#
#
# Mechanical properties :
#
#
# Convention : Reuss Voigt Hill
#
# Bulk Modulus (GPa) = 17.73974 37.00145 27.37059
# Shear Modulus (GPa) = 9.32471 26.28977 17.80724
#
# Velocity S-wave (km/s) = 2.07600 3.48581 2.86885
# Velocity P-wave (km/s) = 3.73437 5.77086 4.86047
#
# Compressibility (1/GPa) = 0.05637061
#
# Stress axis : x y z
#
# Youngs Moduli (GPa) = 93.31950 47.96722 60.95222
#
# Poissons Ratio (x) = 0.01321 0.12054
# Poissons Ratio (y) = 0.02569 -0.39334
# Poissons Ratio (z) = 0.18454 -0.30955
#
# Static dielectric constant tensor:
#      x y z
#    x 3.923300 0.000000 -0.522180 
#    y 0.000000 3.739870 0.000000 
#    z -0.522180 0.000000 4.198910 
# 
# 
# High freq. dielectric constant tensor:
#      x y z
#    x 1.845550 0.000000 -0.032950 
#    y 0.000000 1.830960 0.000000 
#    z -0.032950 0.000000 1.851800 
# 
# From -- ./inp_files/292892.got.cif
#   From: 2010.06.25/outbox.cif.g09.slc.cpg/sg15_147_cif.got.tgz:292892.got - 2010.06.28 07:06:18.
