data_PCOD8134459
_publ_section_title
;
Structure prediction by ZEFSAII (Michael W. Deem and Ramdas Pophale) SiO2 
 PCOD8134459
Probable space group: C 2/C
;
_chemical_formula_sum "Si O2"
_cell_formula_units_Z 56
_cell_length_a 23.647629
_cell_length_b 17.910097
_cell_length_c 18.841782
_cell_angle_alpha 90.000000
_cell_angle_beta 23.913099
_cell_angle_gamma 90.000000
_cell_volume 3234.732181
_symmetry_space_group_name_H-M "C 2/C"
_symmetry_group_IT_number 15
_symmetry_cell_setting 'monoclinic'
loop_
_space_group_symop_operation_xyz
x,y,z
-x,y,1/2-z
-x,-y,-z
x,-y,1/2+z
1/2+x,1/2+y,z
1/2-x,1/2+y,1/2-z
1/2-x,1/2-y,-z
1/2+x,1/2-y,1/2+z
loop_
_atom_site_type_symbol
_atom_site_label
_atom_site_fract_x
_atom_site_fract_y
_atom_site_fract_z
Si Si1 0.749622 0.205564 0.929055
Si Si2 0.386982 0.415347 0.564392
Si Si3 0.838363 0.544210 0.427759
Si Si4 0.319569 0.518104 0.764363
Si Si5 0.948714 0.247400 0.965737
Si Si6 0.845233 0.510784 0.261078
Si Si7 0.888640 0.400654 0.092662
O O1 0.888234 0.228329 0.727271
O O2 0.750000 0.250000 0.000000
O O3 0.747257 0.119757 0.956817
O O4 0.614281 0.226110 0.037348
O O5 0.346376 0.443425 0.689105
O O6 0.538538 0.445863 0.369075
O O7 0.373004 0.326293 0.581294
O O8 0.281602 0.445059 0.627002
O O9 0.779090 0.490124 0.557547
O O10 0.809132 0.505153 0.385803
O O11 0.000000 0.561302 0.250000
O O12 0.247650 0.582335 0.798421
O O13 0.921987 0.312593 0.054515
O O14 0.864895 0.429768 0.200727
O O15 0.985914 0.556846 0.089785
#
# Coordination Sequence:
#
# PCOD8134459 Si02
#       7
#     8   8   8   8   8   8   8
#     4  12  23  31  49  80 114 143 167 210 275 328
#     4  10  21  35  53  79 104 141 181 219 258 318
#     4  12  20  36  54  77 107 146 176 219 271 318
#     4  10  20  37  54  72 108 142 180 216 264 318
#     4  12  20  35  52  77 111 144 173 218 265 319
#     4  10  21  33  55  77 106 141 185 217 250 323
#     4  10  19  36  52  76 106 146 181 213 257 318
#
# _framework density 17.312097000000001
#
# number of rings (size 3 to 8) (size 9 to 14) (size 15 to 20)
#    0.000    1.143    4.286    3.857    0.000    0.571 
#    0.000    0.000    0.000    0.857    0.000    0.000 
#    0.000    0.000    0.000    0.000    0.000    0.000 
#
# Total GULP energy -347132.430113 kJ/mol
# GULP energy per Si atom -12397.586790 kJ/mol
# Density = 1.727269 g / cm^3
# Si number density = 17.312097 Si / 1000 Ang^3
#
#
#
# Elastic Constant Matrix: (Units=GPa)
#
#
# Indices 1 2 3 4 5 6 
#
# 1 121.0433 36.4955 49.7814 -0.0090 -1.9432 0.0043
# 2 36.4955 94.4934 38.4762 0.0041 23.6144 -0.0016
# 3 49.7814 38.4762 100.7512 -0.0008 2.7184 -0.0005
# 4 -0.0090 0.0041 -0.0008 24.9049 0.0040 7.2579
# 5 -1.9432 23.6144 2.7184 0.0040 46.1213 -0.0022
# 6 0.0043 -0.0016 -0.0005 7.2579 -0.0022 19.0355
#
#
#
# Elastic Compliance Matrix: (Units=1/GPa)
#
#
# Indices 1 2 3 4 5 6 
#
# 1 0.011000 -0.003056 -0.004330 0.000005 0.002283 -0.000005
# 2 -0.003056 0.015399 -0.004161 -0.000003 -0.007768 0.000002
# 3 -0.004330 -0.004161 0.013623 -0.000001 0.001145 0.000002
# 4 0.000005 -0.000003 -0.000001 0.045172 -0.000003 -0.017223
# 5 0.002283 -0.007768 0.001145 -0.000003 0.025688 0.000003
# 6 -0.000005 0.000002 0.000002 -0.017223 0.000003 0.059100
#
#
# Mechanical properties :
#
#
# Convention : Reuss Voigt Hill
#
# Bulk Modulus (GPa) = 59.07372 62.86601 60.96987
# Shear Modulus (GPa) = 25.16124 30.78133 27.97128
#
# Velocity S-wave (km/s) = 3.81647 4.22124 4.02395
# Velocity P-wave (km/s) = 7.32240 7.75568 7.54215
#
# Compressibility (1/GPa) = 0.01692800
#
# Stress axis : x y z
#
# Youngs Moduli (GPa) = 90.90642 64.94106 73.40574
#
# Poissons Ratio (x) = 0.19847 0.31783
# Poissons Ratio (y) = 0.27783 0.30544
# Poissons Ratio (z) = 0.39360 0.27022
#
# Static dielectric constant tensor:
#      x y z
#    x 3.272490 0.000000 -0.127040 
#    y 0.000000 3.119750 0.000000 
#    z -0.127040 0.000000 3.485810 
# 
# 
# High freq. dielectric constant tensor:
#      x y z
#    x 1.668900 0.000000 -0.015550 
#    y 0.000000 1.644990 0.000000 
#    z -0.015550 0.000000 1.679890 
# 
# From -- ./inp_files/258004.got.cif
#   From: 2010.06.25/outbox.cif.g09.slc.cpg/sg15_130_cif.got.tgz:258004.got - 2010.06.28 07:06:18.
