data_PCOD8134797
_publ_section_title
;
Structure prediction by ZEFSAII (Michael W. Deem and Ramdas Pophale) SiO2 
 PCOD8134797
Probable space group: C 2/C
;
_chemical_formula_sum "Si O2"
_cell_formula_units_Z 60
_cell_length_a 13.566465
_cell_length_b 18.327610
_cell_length_c 13.616887
_cell_angle_alpha 90.000000
_cell_angle_beta 65.401702
_cell_angle_gamma 90.000000
_cell_volume 3078.455982
_symmetry_space_group_name_H-M "C 2/C"
_symmetry_group_IT_number 15
_symmetry_cell_setting 'monoclinic'
loop_
_space_group_symop_operation_xyz
x,y,z
-x,y,1/2-z
-x,-y,-z
x,-y,1/2+z
1/2+x,1/2+y,z
1/2-x,1/2+y,1/2-z
1/2-x,1/2-y,-z
1/2+x,1/2-y,1/2+z
loop_
_atom_site_type_symbol
_atom_site_label
_atom_site_fract_x
_atom_site_fract_y
_atom_site_fract_z
Si Si1 0.750159 0.591999 0.737369
Si Si2 0.086946 0.124988 0.643976
Si Si3 0.655246 0.334007 0.456666
Si Si4 0.670153 0.835456 0.958680
Si Si5 0.543122 0.183643 0.840076
Si Si6 0.786793 0.072704 0.257243
Si Si7 0.411694 0.327528 0.571491
Si Si8 0.500000 0.486188 0.750000
O O1 0.703279 0.613731 0.649893
O O2 0.666046 0.623194 0.851119
O O3 0.869997 0.620374 0.708224
O O4 0.760193 0.505726 0.749728
O O5 0.102738 0.173365 0.540277
O O6 0.000000 0.167688 0.750000
O O7 0.035372 0.042959 0.646848
O O8 0.679746 0.249034 0.425850
O O9 0.739934 0.361941 0.501365
O O10 0.535029 0.349989 0.547503
O O11 0.692316 0.883940 0.853602
O O12 0.552480 0.849568 0.053800
O O13 0.500000 0.208463 0.750000
O O14 0.605015 0.249230 0.870265
O O15 0.819418 0.117398 0.146643
O O16 0.899628 0.065858 0.269005
#
# Coordination Sequence:
#
# PCOD8134797 Si02
#       8
#     8   8   8   8   8   8   8   4
#     4  11  22  39  61  85 126 164 198 242 305 367
#     4   9  19  39  53  87 118 154 194 237 306 365
#     4  10  19  36  62  91 120 159 187 260 312 345
#     4  10  22  36  60  90 122 155 205 251 296 359
#     4  11  24  42  62  91 115 161 209 249 299 356
#     4  11  22  34  58  94 124 158 197 249 301 365
#     4  11  22  35  64  91 123 149 199 259 303 356
#     4   8  18  34  56  88 124 152 192 246 312 364
#
# _framework density 19.490289000000001
#
# number of rings (size 3 to 8) (size 9 to 14) (size 15 to 20)
#    0.400    1.333    2.667    1.600    4.667    5.333 
#    0.000    0.000    0.000    0.000    0.000    0.000 
#    0.000    0.000    0.000    0.000    0.000    0.000 
#
# Total GULP energy -371822.139558 kJ/mol
# GULP energy per Si atom -12394.071319 kJ/mol
# Density = 1.944593 g / cm^3
# Si number density = 19.490289 Si / 1000 Ang^3
#
#
#
# Elastic Constant Matrix: (Units=GPa)
#
#
# Indices 1 2 3 4 5 6 
#
# 1 50.8495 29.1364 29.2273 0.0000 1.6933 0.0000
# 2 29.1364 86.0283 59.6988 0.0000 -2.8122 0.0000
# 3 29.2273 59.6988 123.8500 0.0000 -2.5106 0.0000
# 4 0.0000 0.0000 0.0000 18.6980 0.0000 -0.1038
# 5 1.6933 -2.8122 -2.5106 0.0000 27.9929 0.0000
# 6 0.0000 0.0000 0.0000 -0.1038 0.0000 26.7836
#
#
#
# Elastic Compliance Matrix: (Units=1/GPa)
#
#
# Indices 1 2 3 4 5 6 
#
# 1 0.025167 -0.006683 -0.002767 0.000000 -0.002442 0.000000
# 2 -0.006683 0.019269 -0.007678 0.000000 0.001652 0.000000
# 3 -0.002767 -0.007678 0.012439 0.000000 0.000512 0.000000
# 4 0.000000 0.000000 0.000000 0.053483 0.000000 0.000207
# 5 -0.002442 0.001652 0.000512 0.000000 0.036083 0.000000
# 6 0.000000 0.000000 0.000000 0.000207 0.000000 0.037337
#
#
# Mechanical properties :
#
#
# Convention : Reuss Voigt Hill
#
# Bulk Modulus (GPa) = 44.21093 55.20587 49.70840
# Shear Modulus (GPa) = 22.16567 24.20591 23.18579
#
# Velocity S-wave (km/s) = 3.37600 3.52795 3.45281
# Velocity P-wave (km/s) = 6.15868 6.70683 6.43859
#
# Compressibility (1/GPa) = 0.02261884
#
# Stress axis : x y z
#
# Youngs Moduli (GPa) = 39.73428 51.89549 80.39530
#
# Poissons Ratio (x) = 0.34683 0.22247
# Poissons Ratio (y) = 0.26556 0.61725
# Poissons Ratio (z) = 0.10995 0.39844
#
# Static dielectric constant tensor:
#      x y z
#    x 3.402900 0.000000 -0.106650 
#    y 0.000000 3.388130 0.000000 
#    z -0.106650 0.000000 3.505880 
# 
# 
# High freq. dielectric constant tensor:
#      x y z
#    x 1.746010 0.000000 -0.010710 
#    y 0.000000 1.742120 0.000000 
#    z -0.010710 0.000000 1.757140 
# 
# From -- ./inp_files/154815.got.cif
#   From: 2010.06.25/outbox.cif.g09.slc.cpg/sg15_78_cif.got.tgz:154815.got - 2010.06.28 07:06:18.
