data_PCOD8134187
_publ_section_title
;
Structure prediction by ZEFSAII (Michael W. Deem and Ramdas Pophale) SiO2 
 PCOD8134187
Probable space group: C 2/C
;
_chemical_formula_sum "Si O2"
_cell_formula_units_Z 36
_cell_length_a 20.890551
_cell_length_b 16.915171
_cell_length_c 14.910143
_cell_angle_alpha 90.000000
_cell_angle_beta 161.496096
_cell_angle_gamma 90.000000
_cell_volume 1672.141294
_symmetry_space_group_name_H-M "C 2/C"
_symmetry_group_IT_number 15
_symmetry_cell_setting 'monoclinic'
loop_
_space_group_symop_operation_xyz
x,y,z
-x,y,1/2-z
-x,-y,-z
x,-y,1/2+z
1/2+x,1/2+y,z
1/2-x,1/2+y,1/2-z
1/2-x,1/2-y,-z
1/2+x,1/2-y,1/2+z
loop_
_atom_site_type_symbol
_atom_site_label
_atom_site_fract_x
_atom_site_fract_y
_atom_site_fract_z
Si Si1 0.216877 0.467139 0.685355
Si Si2 0.849612 0.025823 0.681630
Si Si3 0.377889 0.828322 0.677667
Si Si4 0.500000 0.604599 0.250000
Si Si5 0.106115 0.379576 0.146237
O O1 0.194077 0.500829 0.554149
O O2 0.172536 0.536376 0.695925
O O3 0.062271 0.394908 0.499997
O O4 0.446595 0.437512 0.004502
O O5 0.758221 0.092837 0.494688
O O6 0.889505 0.948476 0.677132
O O7 0.500000 0.837225 0.750000
O O8 0.250000 0.750000 0.500000
O O9 0.519142 0.822437 0.953335
O O10 0.684093 0.657741 0.535380
#
# Coordination Sequence:
#
# PCOD8134187 Si02
#       5
#     8   8   8   4   8
#     4   9  18  33  61  88 124 152 189 260 312 357
#     4  10  19  35  57  94 124 153 198 246 314 352
#     4  12  26  39  59  87 126 167 202 241 287 367
#     4  10  22  34  64  90 122 154 192 262 312 354
#     4  10  20  37  56  89 120 154 202 248 308 352
#
# _framework density 21.529281000000001
#
# number of rings (size 3 to 8) (size 9 to 14) (size 15 to 20)
#    0.000    1.778    2.222    4.000    4.667    0.000 
#    0.000    0.000    0.000    1.333    0.000    0.000 
#    0.000    0.000    0.000    0.000    0.000    0.000 
#
# Total GULP energy -223127.240195 kJ/mol
# GULP energy per Si atom -12395.957789 kJ/mol
# Density = 2.148028 g / cm^3
# Si number density = 21.529281 Si / 1000 Ang^3
#
#
#
# Elastic Constant Matrix: (Units=GPa)
#
#
# Indices 1 2 3 4 5 6 
#
# 1 106.9341 16.0222 48.3427 0.0000 4.3425 0.0000
# 2 16.0222 42.9173 44.4606 0.0000 -7.5125 0.0000
# 3 48.3427 44.4606 181.9510 -0.0001 -24.5044 0.0001
# 4 0.0000 0.0000 -0.0001 25.7160 0.0000 -2.0535
# 5 4.3425 -7.5125 -24.5044 0.0000 33.8388 0.0001
# 6 0.0000 0.0000 0.0001 -2.0535 0.0001 -5.7452
#
#
#
# Elastic Compliance Matrix: (Units=1/GPa)
#
#
# Indices 1 2 3 4 5 6 
#
# 1 0.011170 -0.001660 -0.003108 0.000000 -0.004052 0.000000
# 2 -0.001660 0.031519 -0.006970 0.000000 0.002163 0.000000
# 3 -0.003108 -0.006970 0.008721 0.000000 0.005167 0.000000
# 4 0.000000 0.000000 0.000000 0.037807 0.000000 -0.013513
# 5 -0.004052 0.002163 0.005167 0.000000 0.034294 0.000000
# 6 0.000000 0.000000 0.000000 -0.013513 0.000000 -0.169228
#
#
# Mechanical properties :
#
#
# Convention : Reuss Voigt Hill
#
# Bulk Modulus (GPa) = 35.79704 61.05036 48.42370
# Shear Modulus (GPa) = -386.65300 25.62705 -180.51297
#
# Velocity S-wave (km/s) = -13.41581 3.45387 -9.16664
# Velocity P-wave (km/s) = 14.94374 6.65763 9.46021
#
# Compressibility (1/GPa) = 0.02793527
#
# Stress axis : x y z
#
# Youngs Moduli (GPa) = 89.52684 31.72682 114.67125
#
# Poissons Ratio (x) = 0.05266 0.35639
# Poissons Ratio (y) = 0.14858 0.79920
# Poissons Ratio (z) = 0.27825 0.22112
#
# Static dielectric constant tensor:
#      x y z
#    x 3.998780 0.000000 -0.060630 
#    y 0.000000 2.960040 0.000000 
#    z -0.060630 0.000000 4.568690 
# 
# 
# High freq. dielectric constant tensor:
#      x y z
#    x 1.856150 0.000000 0.005640 
#    y 0.000000 1.766570 0.000000 
#    z 0.005640 0.000000 1.872180 
# 
# From -- ./inp_files/55694.got.cif
#   From: 2010.06.25/outbox.cif.g09.slc.cpg/sg15_28_cif.got.tgz:55694.got - 2010.06.28 07:06:18.
