data_PCOD8134875
_publ_section_title
;
Structure prediction by ZEFSAII (Michael W. Deem and Ramdas Pophale) SiO2 
 PCOD8134875
Probable space group: C 2/C
;
_chemical_formula_sum "Si O2"
_cell_formula_units_Z 36
_cell_length_a 7.594985
_cell_length_b 22.665111
_cell_length_c 12.386842
_cell_angle_alpha 90.000000
_cell_angle_beta 128.684454
_cell_angle_gamma 90.000000
_cell_volume 1664.462173
_symmetry_space_group_name_H-M "C 2/C"
_symmetry_group_IT_number 15
_symmetry_cell_setting 'monoclinic'
loop_
_space_group_symop_operation_xyz
x,y,z
-x,y,1/2-z
-x,-y,-z
x,-y,1/2+z
1/2+x,1/2+y,z
1/2-x,1/2+y,1/2-z
1/2-x,1/2-y,-z
1/2+x,1/2-y,1/2+z
loop_
_atom_site_type_symbol
_atom_site_label
_atom_site_fract_x
_atom_site_fract_y
_atom_site_fract_z
Si Si1 0.500000 0.617112 0.750000
Si Si2 0.531203 0.713040 0.942627
Si Si3 0.439484 0.049212 0.845850
Si Si4 0.247076 0.433348 0.654942
Si Si5 0.280898 0.810225 0.739714
O O1 0.536106 0.655094 0.871311
O O2 0.719702 0.578082 0.814590
O O3 0.310925 0.752970 0.829898
O O4 0.750000 0.750000 0.000000
O O5 0.554460 0.696539 0.078816
O O6 0.500000 0.072038 0.750000
O O7 0.403711 0.978327 0.831525
O O8 0.655711 0.067331 0.998250
O O9 0.500000 0.457776 0.750000
O O10 0.243738 0.367730 0.698530
O O11 0.500000 0.816849 0.750000
#
# Coordination Sequence:
#
# PCOD8134875 Si02
#       5
#     4   8   8   8   8
#     4  12  22  42  72 104 140 170 236 278 328 414
#     4  10  19  36  66  97 131 181 226 267 338 396
#     4  11  26  45  70 101 136 182 225 280 342 399
#     4  11  25  46  64 101 138 176 231 281 335 407
#     4  10  20  38  65  95 129 179 229 270 332 404
#
# _framework density 21.628606999999999
#
# number of rings (size 3 to 8) (size 9 to 14) (size 15 to 20)
#    0.000    1.333    4.444    3.333    3.111    2.667 
#    0.000    2.222    0.000    0.000    0.000    0.000 
#    0.000    0.000    0.000    0.000    0.000    0.000 
#
# Total GULP energy -223157.090962 kJ/mol
# GULP energy per Si atom -12397.616165 kJ/mol
# Density = 2.157938 g / cm^3
# Si number density = 21.628607 Si / 1000 Ang^3
#
#
#
# Elastic Constant Matrix: (Units=GPa)
#
#
# Indices 1 2 3 4 5 6 
#
# 1 62.6974 29.3066 57.1248 0.0000 4.2957 0.0000
# 2 29.3066 123.0826 73.6023 0.0000 -15.9263 0.0000
# 3 57.1248 73.6023 214.3720 0.0000 -2.3332 0.0000
# 4 0.0000 0.0000 0.0000 36.0843 0.0000 -5.2867
# 5 4.2957 -15.9263 -2.3332 0.0000 23.4558 0.0000
# 6 0.0000 0.0000 0.0000 -5.2867 0.0000 34.7446
#
#
#
# Elastic Compliance Matrix: (Units=1/GPa)
#
#
# Indices 1 2 3 4 5 6 
#
# 1 0.022440 -0.003280 -0.004928 0.000000 -0.006827 0.000000
# 2 -0.003280 0.011837 -0.003099 0.000000 0.008329 0.000000
# 3 -0.004928 -0.003099 0.007037 0.000000 -0.000502 0.000000
# 4 0.000000 0.000000 0.000000 0.028345 0.000000 0.004313
# 5 -0.006827 0.008329 -0.000502 0.000000 0.049489 0.000000
# 6 0.000000 0.000000 0.000000 0.004313 0.000000 0.029438
#
#
# Mechanical properties :
#
#
# Convention : Reuss Voigt Hill
#
# Bulk Modulus (GPa) = 53.47699 80.02438 66.75069
# Shear Modulus (GPa) = 28.17965 34.86483 31.52224
#
# Velocity S-wave (km/s) = 3.61347 4.01930 3.82178
# Velocity P-wave (km/s) = 6.49526 7.65633 7.09957
#
# Compressibility (1/GPa) = 0.01869963
#
# Stress axis : x y z
#
# Youngs Moduli (GPa) = 44.56248 84.48290 142.11204
#
# Poissons Ratio (x) = 0.27707 0.70034
# Poissons Ratio (y) = 0.14614 0.44047
# Poissons Ratio (z) = 0.21961 0.26185
#
# Static dielectric constant tensor:
#      x y z
#    x 3.518380 0.000000 0.141750 
#    y 0.000000 3.746310 0.000000 
#    z 0.141750 0.000000 4.814100 
# 
# 
# High freq. dielectric constant tensor:
#      x y z
#    x 1.812360 0.000000 0.005930 
#    y 0.000000 1.862070 0.000000 
#    z 0.005930 0.000000 1.874040 
# 
# From -- ./inp_files/23098.got.cif
#   From: 2010.06.25/outbox.cif.g09.slc.cpg/sg15_12_cif.got.tgz:23098.got - 2010.06.28 07:06:18.
