data_PCOD8134367
_publ_section_title
;
Structure prediction by ZEFSAII (Michael W. Deem and Ramdas Pophale) SiO2 
 PCOD8134367
Probable space group: C 2/C
;
_chemical_formula_sum "Si O2"
_cell_formula_units_Z 52
_cell_length_a 25.341588
_cell_length_b 22.654000
_cell_length_c 5.355356
_cell_angle_alpha 90.000000
_cell_angle_beta 129.343706
_cell_angle_gamma 90.000000
_cell_volume 2377.644910
_symmetry_space_group_name_H-M "C 2/C"
_symmetry_group_IT_number 15
_symmetry_cell_setting 'monoclinic'
loop_
_space_group_symop_operation_xyz
x,y,z
-x,y,1/2-z
-x,-y,-z
x,-y,1/2+z
1/2+x,1/2+y,z
1/2-x,1/2+y,1/2-z
1/2-x,1/2-y,-z
1/2+x,1/2-y,1/2+z
loop_
_atom_site_type_symbol
_atom_site_label
_atom_site_fract_x
_atom_site_fract_y
_atom_site_fract_z
Si Si1 0.500000 0.085641 0.750000
Si Si2 0.123129 0.874595 0.119384
Si Si3 0.878281 0.679534 0.884842
Si Si4 0.500000 0.088206 0.250000
Si Si5 0.146499 0.366259 0.689499
Si Si6 0.579437 0.312219 0.488308
Si Si7 0.253480 0.461513 0.010447
Si Si8 0.500000 0.537410 0.250000
O O1 0.500001 0.046751 0.496749
O O2 0.435513 0.129458 0.556538
O O3 0.115801 0.835938 0.347780
O O4 0.196058 0.905903 0.338179
O O5 0.115802 0.835942 0.847015
O O6 0.067449 0.924903 0.952352
O O7 0.832027 0.670290 0.496141
O O8 0.832027 0.670291 0.996020
O O9 0.914786 0.742171 0.994350
O O10 0.933302 0.627799 0.049907
O O11 0.178562 0.432123 0.785691
O O12 0.500000 0.331129 0.250000
O O13 0.264148 0.499998 0.292455
O O14 0.500000 0.500000 0.500000
#
# Coordination Sequence:
#
# PCOD8134367 Si02
#       8
#     4   8   8   4   8   8   8   4
#     4   8  16  30  55  87 116 146 193 251 302 348
#     4  12  25  42  62  95 130 170 221 271 321 384
#     4  10  19  35  61  95 128 168 205 250 317 386
#     4   8  14  26  49  81 120 150 191 225 286 366
#     4  10  21  39  64  96 127 166 216 264 310 389
#     4  12  22  40  64 100 137 171 206 264 327 386
#     4  12  26  48  69  88 124 178 221 266 337 386
#     4  12  22  38  62  88 118 158 218 286 320 354
#
# _framework density 21.870380000000001
#
# number of rings (size 3 to 8) (size 9 to 14) (size 15 to 20)
#    0.000    1.231    2.308    4.615    0.000    0.000 
#    0.000    5.385    0.000    0.000    0.000    0.000 
#    0.000    0.000    0.000    0.000    0.000    0.000 
#
# Total GULP energy -322113.635305 kJ/mol
# GULP energy per Si atom -12388.985973 kJ/mol
# Density = 2.182060 g / cm^3
# Si number density = 21.870380 Si / 1000 Ang^3
#
#
#
# Elastic Constant Matrix: (Units=GPa)
#
#
# Indices 1 2 3 4 5 6 
#
# 1 104.7416 37.9841 83.0533 0.0000 -46.6142 0.0000
# 2 37.9841 92.5128 41.1571 0.0000 -10.8999 0.0000
# 3 83.0533 41.1571 136.5594 0.0000 -62.8180 0.0000
# 4 0.0000 0.0000 0.0000 41.9859 0.0000 -14.3701
# 5 -46.6142 -10.8999 -62.8180 0.0000 73.3655 0.0000
# 6 0.0000 0.0000 0.0000 -14.3701 0.0000 37.8112
#
#
#
# Elastic Compliance Matrix: (Units=1/GPa)
#
#
# Indices 1 2 3 4 5 6 
#
# 1 0.020009 -0.003681 -0.009013 0.000000 0.004449 0.000000
# 2 -0.003681 0.013391 -0.003230 0.000000 -0.003115 0.000000
# 3 -0.009013 -0.003230 0.018021 0.000000 0.009223 0.000000
# 4 0.000000 0.000000 0.000000 0.027379 0.000000 0.010405
# 5 0.004449 -0.003115 0.009223 0.000000 0.023892 0.000000
# 6 0.000000 0.000000 0.000000 0.010405 0.000000 0.030402
#
#
# Mechanical properties :
#
#
# Convention : Reuss Voigt Hill
#
# Bulk Modulus (GPa) = 51.09385 73.13365 62.11375
# Shear Modulus (GPa) = 29.16041 42.07380 35.61710
#
# Velocity S-wave (km/s) = 3.65544 4.39085 4.03991
# Velocity P-wave (km/s) = 6.42099 7.69534 7.08687
#
# Compressibility (1/GPa) = 0.01957183
#
# Stress axis : x y z
#
# Youngs Moduli (GPa) = 49.97701 74.67898 55.49168
#
# Poissons Ratio (x) = 0.27492 0.50016
# Poissons Ratio (y) = 0.18399 0.17922
# Poissons Ratio (z) = 0.45046 0.24119
#
# Static dielectric constant tensor:
#      x y z
#    x 4.629340 0.000000 -0.922150 
#    y 0.000000 3.635680 0.000000 
#    z -0.922150 0.000000 4.897250 
# 
# 
# High freq. dielectric constant tensor:
#      x y z
#    x 1.868590 0.000000 -0.033770 
#    y 0.000000 1.847400 0.000000 
#    z -0.033770 0.000000 1.878410 
# 
# From -- ./inp_files/17537.got.cif
#   From: 2010.06.25/outbox.cif.g09.slc.cpg/sg15_9_cif.got.tgz:17537.got - 2010.06.28 07:06:18.
