data_PCOD8134806
_publ_section_title
;
Structure prediction by ZEFSAII (Michael W. Deem and Ramdas Pophale) SiO2 
 PCOD8134806
Probable space group: C 2/C
;
_chemical_formula_sum "Si O2"
_cell_formula_units_Z 56
_cell_length_a 18.832169
_cell_length_b 9.061093
_cell_length_c 17.890553
_cell_angle_alpha 90.000000
_cell_angle_beta 62.972013
_cell_angle_gamma 90.000000
_cell_volume 2719.427123
_symmetry_space_group_name_H-M "C 2/C"
_symmetry_group_IT_number 15
_symmetry_cell_setting 'monoclinic'
loop_
_space_group_symop_operation_xyz
x,y,z
-x,y,1/2-z
-x,-y,-z
x,-y,1/2+z
1/2+x,1/2+y,z
1/2-x,1/2+y,1/2-z
1/2-x,1/2-y,-z
1/2+x,1/2-y,1/2+z
loop_
_atom_site_type_symbol
_atom_site_label
_atom_site_fract_x
_atom_site_fract_y
_atom_site_fract_z
Si Si1 0.268563 0.080189 0.899804
Si Si2 0.130480 0.805998 0.842781
Si Si3 0.022293 0.841383 0.017160
Si Si4 0.208511 0.740839 0.168867
Si Si5 0.146441 0.043977 0.575303
Si Si6 0.909052 0.774062 0.806643
Si Si7 0.857726 0.156085 0.650729
O O1 0.351325 0.164129 0.881421
O O2 0.216252 0.187268 0.869891
O O3 0.297386 0.930672 0.847141
O O4 0.214368 0.045803 0.998095
O O5 0.204392 0.718407 0.842344
O O6 0.127523 0.771868 0.757909
O O7 0.137324 0.980360 0.849921
O O8 0.055538 0.751205 0.929219
O O9 0.089345 0.859819 0.049267
O O10 0.940135 0.767310 0.083634
O O11 0.000000 0.000000 0.000000
O O12 0.191294 0.839745 0.105540
O O13 0.148439 0.775388 0.264465
O O14 0.092948 0.932346 0.650892
O O15 0.000000 0.721633 0.750000
#
# Coordination Sequence:
#
# PCOD8134806 Si02
#       7
#     8   8   8   8   8   8   8
#     4  11  24  42  61  92 132 163 198 265 318 364
#     4  10  20  39  62  87 123 158 200 258 306 360
#     4  10  19  36  62  95 124 152 206 267 298 349
#     4  11  22  39  67  91 122 162 212 252 311 365
#     4  12  23  39  68  96 118 163 218 256 298 377
#     4  12  25  41  63  90 126 165 209 253 314 375
#     4  10  19  38  63  90 117 164 202 251 308 367
#
# _framework density 20.592573999999999
#
# number of rings (size 3 to 8) (size 9 to 14) (size 15 to 20)
#    0.000    1.143    7.143    2.571    0.000    0.000 
#    2.571    0.000    0.000    1.714    0.000    0.000 
#    0.000    0.000    0.000    0.000    0.000    0.000 
#
# Total GULP energy -346975.946803 kJ/mol
# GULP energy per Si atom -12391.998100 kJ/mol
# Density = 2.054570 g / cm^3
# Si number density = 20.592574 Si / 1000 Ang^3
#
#
#
# Elastic Constant Matrix: (Units=GPa)
#
#
# Indices 1 2 3 4 5 6 
#
# 1 62.2652 10.6732 30.0984 0.0000 -15.9948 0.0002
# 2 10.6732 25.5935 18.5072 0.0000 -2.5728 0.0006
# 3 30.0984 18.5072 132.0698 0.0000 -14.3402 0.0001
# 4 0.0000 0.0000 0.0000 20.7922 0.0000 4.7708
# 5 -15.9948 -2.5728 -14.3402 0.0000 45.9174 0.0000
# 6 0.0002 0.0006 0.0001 4.7708 0.0000 8.6087
#
#
#
# Elastic Compliance Matrix: (Units=1/GPa)
#
#
# Indices 1 2 3 4 5 6 
#
# 1 0.019987 -0.005471 -0.003173 0.000000 0.005665 0.000000
# 2 -0.005471 0.044989 -0.005166 0.000001 -0.000998 -0.000003
# 3 -0.003173 -0.005166 0.009179 0.000000 0.001472 0.000000
# 4 0.000000 0.000001 0.000000 0.055101 0.000000 -0.030536
# 5 0.005665 -0.000998 0.001472 0.000000 0.024155 0.000000
# 6 0.000000 -0.000003 0.000000 -0.030536 0.000000 0.133083
#
#
# Mechanical properties :
#
#
# Convention : Reuss Voigt Hill
#
# Bulk Modulus (GPa) = 21.48946 37.60958 29.54952
# Shear Modulus (GPa) = 15.16864 25.77366 20.47115
#
# Velocity S-wave (km/s) = 2.71700 3.54163 3.15636
# Velocity P-wave (km/s) = 4.50566 5.91841 5.25968
#
# Compressibility (1/GPa) = 0.04653444
#
# Stress axis : x y z
#
# Youngs Moduli (GPa) = 50.03184 22.22748 108.94839
#
# Poissons Ratio (x) = 0.12161 0.34573
# Poissons Ratio (y) = 0.27373 0.56283
# Poissons Ratio (z) = 0.15877 0.11483
#
# Static dielectric constant tensor:
#      x y z
#    x 3.809420 0.000000 -0.362120 
#    y 0.000000 3.277690 0.000000 
#    z -0.362120 0.000000 5.001980 
# 
# 
# High freq. dielectric constant tensor:
#      x y z
#    x 1.810650 0.000000 -0.006860 
#    y 0.000000 1.756060 0.000000 
#    z -0.006860 0.000000 1.833340 
# 
# From -- ./inp_files/213807.got.cif
#   From: 2010.06.25/outbox.cif.g09.slc.cpg/sg15_107_cif.got.tgz:213807.got - 2010.06.28 07:06:18.
