data_PCOD8134876
_publ_section_title
;
Structure prediction by ZEFSAII (Michael W. Deem and Ramdas Pophale) SiO2 
 PCOD8134876
Probable space group: C 2/C
;
_chemical_formula_sum "Si O2"
_cell_formula_units_Z 56
_cell_length_a 25.835456
_cell_length_b 19.791601
_cell_length_c 15.969709
_cell_angle_alpha 90.000000
_cell_angle_beta 159.982881
_cell_angle_gamma 90.000000
_cell_volume 2795.130517
_symmetry_space_group_name_H-M "C 2/C"
_symmetry_group_IT_number 15
_symmetry_cell_setting 'monoclinic'
loop_
_space_group_symop_operation_xyz
x,y,z
-x,y,1/2-z
-x,-y,-z
x,-y,1/2+z
1/2+x,1/2+y,z
1/2-x,1/2+y,1/2-z
1/2-x,1/2-y,-z
1/2+x,1/2-y,1/2+z
loop_
_atom_site_type_symbol
_atom_site_label
_atom_site_fract_x
_atom_site_fract_y
_atom_site_fract_z
Si Si1 0.648875 0.074202 0.531748
Si Si2 0.745229 0.449477 0.881698
Si Si3 0.000000 0.945357 0.750000
Si Si4 0.921552 0.266874 0.287776
Si Si5 0.786465 0.509651 0.117738
Si Si6 0.464504 0.622325 0.015713
Si Si7 0.500000 0.841333 0.250000
Si Si8 0.970382 0.604780 0.971914
O O1 0.621941 0.100074 0.583342
O O2 0.701953 0.994857 0.617222
O O3 0.500000 0.086461 0.250000
O O4 0.795552 0.115190 0.722909
O O5 0.573525 0.422683 0.621546
O O6 0.758297 0.504829 0.975996
O O7 0.853035 0.384854 0.049157
O O8 0.016565 0.898858 0.857707
O O9 0.858511 0.995282 0.545464
O O10 0.994778 0.199687 0.434516
O O11 0.938571 0.321089 0.388006
O O12 0.023228 0.293217 0.365124
O O13 0.750000 0.250000 0.000000
O O14 0.909235 0.450204 0.314141
O O15 0.853932 0.583686 0.244024
#
# Coordination Sequence:
#
# PCOD8134876 Si02
#       8
#     8   8   4   8   8   8   4   8
#     4  12  24  41  66  92 128 180 221 263 325 378
#     4  11  21  40  61  97 127 164 215 270 321 382
#     4  10  19  36  66  98 127 164 204 280 330 373
#     4  12  25  41  64  99 130 166 208 268 327 393
#     4  10  19  37  62  95 125 159 215 264 325 374
#     4  11  24  39  61  96 134 166 216 265 326 388
#     4  12  21  36  66  94 135 160 204 266 340 381
#     4  11  22  39  63  92 129 169 214 260 320 384
#
# _framework density 20.034842000000001
#
# number of rings (size 3 to 8) (size 9 to 14) (size 15 to 20)
#    0.000    0.857    6.429    1.714    4.000    0.000 
#    0.000    0.714    1.571    0.000    0.000    0.000 
#    0.000    0.000    0.000    0.000    0.000    0.000 
#
# Total GULP energy -347023.176485 kJ/mol
# GULP energy per Si atom -12393.684874 kJ/mol
# Density = 1.998924 g / cm^3
# Si number density = 20.034842 Si / 1000 Ang^3
#
#
#
# Elastic Constant Matrix: (Units=GPa)
#
#
# Indices 1 2 3 4 5 6 
#
# 1 90.0955 43.1660 31.4347 0.0000 10.1004 0.0000
# 2 43.1660 135.9049 69.3921 0.0000 -0.5204 0.0000
# 3 31.4347 69.3921 128.8392 0.0000 18.0394 0.0000
# 4 0.0000 0.0000 0.0000 24.0009 0.0000 -8.0240
# 5 10.1004 -0.5204 18.0394 0.0000 24.6285 0.0000
# 6 0.0000 0.0000 0.0000 -8.0240 0.0000 27.4470
#
#
#
# Elastic Compliance Matrix: (Units=1/GPa)
#
#
# Indices 1 2 3 4 5 6 
#
# 1 0.013876 -0.004272 -0.000307 0.000000 -0.005556 0.000000
# 2 -0.004272 0.011977 -0.006340 0.000000 0.006649 0.000000
# 3 -0.000307 -0.006340 0.012538 0.000000 -0.009192 0.000000
# 4 0.000000 0.000000 0.000000 0.046178 0.000000 0.013500
# 5 -0.005556 0.006649 -0.009192 0.000000 0.049755 0.000000
# 6 0.000000 0.000000 0.000000 0.013500 0.000000 0.040381
#
#
# Mechanical properties :
#
#
# Convention : Reuss Voigt Hill
#
# Bulk Modulus (GPa) = 60.40549 71.42505 65.91527
# Shear Modulus (GPa) = 24.74511 29.27171 27.00841
#
# Velocity S-wave (km/s) = 3.51822 3.82650 3.67559
# Velocity P-wave (km/s) = 6.83516 7.43308 7.14038
#
# Compressibility (1/GPa) = 0.01655479
#
# Stress axis : x y z
#
# Youngs Moduli (GPa) = 72.06688 83.49111 79.75849
#
# Poissons Ratio (x) = 0.35667 0.02446
# Poissons Ratio (y) = 0.30787 0.50563
# Poissons Ratio (z) = 0.02210 0.52929
#
# Static dielectric constant tensor:
#      x y z
#    x 3.743710 0.000000 0.124080 
#    y 0.000000 3.580310 0.000000 
#    z 0.124080 0.000000 3.847900 
# 
# 
# High freq. dielectric constant tensor:
#      x y z
#    x 1.785600 0.000000 0.018310 
#    y 0.000000 1.763570 0.000000 
#    z 0.018310 0.000000 1.781810 
# 
# From -- ./inp_files/89064.got.cif
#   From: 2010.06.25/outbox.cif.g09.slc.cpg/sg15_45_cif.got.tgz:89064.got - 2010.06.28 07:06:18.
