data_PCOD8134094
_publ_section_title
;
Structure prediction by ZEFSAII (Michael W. Deem and Ramdas Pophale) SiO2 
 PCOD8134094
Probable space group: C 2/C
;
_chemical_formula_sum "Si O2"
_cell_formula_units_Z 44
_cell_length_a 13.997809
_cell_length_b 24.035784
_cell_length_c 7.438861
_cell_angle_alpha 90.000000
_cell_angle_beta 74.327100
_cell_angle_gamma 90.000000
_cell_volume 2409.737493
_symmetry_space_group_name_H-M "C 2/C"
_symmetry_group_IT_number 15
_symmetry_cell_setting 'monoclinic'
loop_
_space_group_symop_operation_xyz
x,y,z
-x,y,1/2-z
-x,-y,-z
x,-y,1/2+z
1/2+x,1/2+y,z
1/2-x,1/2+y,1/2-z
1/2-x,1/2-y,-z
1/2+x,1/2-y,1/2+z
loop_
_atom_site_type_symbol
_atom_site_label
_atom_site_fract_x
_atom_site_fract_y
_atom_site_fract_z
Si Si1 0.793642 0.129804 0.460155
Si Si2 0.623979 0.049947 0.528197
Si Si3 0.586264 0.070180 0.957783
Si Si4 0.281427 0.830381 0.123766
Si Si5 0.500000 0.351550 0.750000
Si Si6 0.841566 0.791432 0.644005
O O1 0.725395 0.080047 0.417559
O O2 0.772184 0.143196 0.677327
O O3 0.775349 0.184234 0.343720
O O4 0.910158 0.111533 0.379735
O O5 0.598034 0.069605 0.738991
O O6 0.532767 0.067785 0.440680
O O7 0.639578 0.983432 0.518245
O O8 0.639089 0.126170 0.002140
O O9 0.340522 0.775063 0.148723
O O10 0.197104 0.815962 0.023620
O O11 0.455070 0.311786 0.615044
#
# Coordination Sequence:
#
# PCOD8134094 Si02
#       6
#     8   8   8   8   4   8
#     4   9  19  36  54  76 108 146 173 226 261 316
#     4   9  18  33  54  78 110 137 177 213 280 312
#     4   9  19  32  53  82 105 140 170 223 265 335
#     4  10  19  35  56  77 111 136 182 217 276 311
#     4   8  20  34  54  76 106 142 182 216 262 314
#     4   9  20  35  53  81 104 142 179 222 259 328
#
# _framework density 18.259250000000002
#
# number of rings (size 3 to 8) (size 9 to 14) (size 15 to 20)
#    1.091    1.818    0.000    0.545    2.545    3.636 
#    0.000    0.000    0.000    9.818    0.000    0.000 
#    0.000    0.000    0.000    0.000    0.000    0.000 
#
# Total GULP energy -272571.489107 kJ/mol
# GULP energy per Si atom -12389.613141 kJ/mol
# Density = 1.821769 g / cm^3
# Si number density = 18.259250 Si / 1000 Ang^3
#
#
#
# Elastic Constant Matrix: (Units=GPa)
#
#
# Indices 1 2 3 4 5 6 
#
# 1 133.4270 71.9913 26.9659 0.0000 -18.7542 0.0000
# 2 71.9913 120.3819 14.6552 0.0000 -17.0848 0.0000
# 3 26.9659 14.6552 36.2959 0.0000 -8.6504 0.0000
# 4 0.0000 0.0000 0.0000 22.0332 0.0000 3.2263
# 5 -18.7542 -17.0848 -8.6504 0.0000 29.5837 0.0000
# 6 0.0000 0.0000 0.0000 3.2263 0.0000 25.7834
#
#
#
# Elastic Compliance Matrix: (Units=1/GPa)
#
#
# Indices 1 2 3 4 5 6 
#
# 1 0.012534 -0.006400 -0.006143 0.000000 0.002454 0.000000
# 2 -0.006400 0.012548 0.000482 0.000000 0.003330 0.000000
# 3 -0.006143 0.000482 0.033386 0.000000 0.006146 0.000000
# 4 0.000000 0.000000 0.000000 0.046233 0.000000 -0.005785
# 5 0.002454 0.003330 0.006146 0.000000 0.039078 0.000000
# 6 0.000000 0.000000 0.000000 -0.005785 0.000000 0.039509
#
#
# Mechanical properties :
#
#
# Convention : Reuss Voigt Hill
#
# Bulk Modulus (GPa) = 29.11591 57.48106 43.29849
# Shear Modulus (GPa) = 22.84576 27.24623 25.04599
#
# Velocity S-wave (km/s) = 3.54105 3.86708 3.70765
# Velocity P-wave (km/s) = 5.71832 7.17551 6.48795
#
# Compressibility (1/GPa) = 0.03434549
#
# Stress axis : x y z
#
# Youngs Moduli (GPa) = 79.78191 79.69370 29.95286
#
# Poissons Ratio (x) = 0.51001 0.18401
# Poissons Ratio (y) = 0.51057 -0.01443
# Poissons Ratio (z) = 0.49014 -0.03840
#
# Static dielectric constant tensor:
#      x y z
#    x 3.508630 0.000000 0.000440 
#    y 0.000000 3.342720 0.000000 
#    z 0.000440 0.000000 3.170000 
# 
# 
# High freq. dielectric constant tensor:
#      x y z
#    x 1.703150 0.000000 0.011560 
#    y 0.000000 1.694510 0.000000 
#    z 0.011560 0.000000 1.697800 
# 
# From -- ./inp_files/41456.got.cif
#   From: 2010.06.25/outbox.cif.g09.slc.cpg/sg15_21_cif.got.tgz:41456.got - 2010.06.28 07:06:18.
