data_PCOD8134445
_publ_section_title
;
Structure prediction by ZEFSAII (Michael W. Deem and Ramdas Pophale) SiO2 
 PCOD8134445
Probable space group: C 2/C
;
_chemical_formula_sum "Si O2"
_cell_formula_units_Z 64
_cell_length_a 18.728561
_cell_length_b 19.741192
_cell_length_c 16.165238
_cell_angle_alpha 90.000000
_cell_angle_beta 33.033381
_cell_angle_gamma 90.000000
_cell_volume 3258.052092
_symmetry_space_group_name_H-M "C 2/C"
_symmetry_group_IT_number 15
_symmetry_cell_setting 'monoclinic'
loop_
_space_group_symop_operation_xyz
x,y,z
-x,y,1/2-z
-x,-y,-z
x,-y,1/2+z
1/2+x,1/2+y,z
1/2-x,1/2+y,1/2-z
1/2-x,1/2-y,-z
1/2+x,1/2-y,1/2+z
loop_
_atom_site_type_symbol
_atom_site_label
_atom_site_fract_x
_atom_site_fract_y
_atom_site_fract_z
Si Si1 0.870065 0.039576 0.641279
Si Si2 0.063558 0.695285 0.955730
Si Si3 0.724798 0.991962 0.939514
Si Si4 0.644686 0.308230 0.377798
Si Si5 0.307591 0.987995 0.344852
Si Si6 0.614272 0.739109 0.085336
Si Si7 0.472875 0.882605 0.394508
Si Si8 0.503062 0.898394 0.655831
O O1 0.832913 0.012158 0.767993
O O2 0.892757 0.119643 0.623970
O O3 0.773221 0.028226 0.658427
O O4 0.000000 0.000000 0.500000
O O5 0.214665 0.716513 0.793798
O O6 0.024671 0.631493 0.936309
O O7 0.035421 0.668444 0.073819
O O8 0.972214 0.759683 0.034588
O O9 0.614186 0.046977 0.035538
O O10 0.773513 0.990188 0.988894
O O11 0.667660 0.919077 0.967671
O O12 0.649292 0.308217 0.473227
O O13 0.418317 0.930130 0.255507
O O14 0.368098 0.062031 0.267184
O O15 0.500000 0.701450 0.250000
O O16 0.545421 0.810133 0.130086
O O17 0.750000 0.750000 0.000000
O O18 0.500000 0.868798 0.750000
#
# Coordination Sequence:
#
# PCOD8134445 Si02
#       8
#     8   8   8   8   8   8   8   8
#     4  12  26  42  60  87 132 169 206 258 322 385
#     4  11  21  40  63  87 132 166 213 262 316 376
#     4  10  20  36  65  93 123 157 206 262 319 378
#     4  11  25  41  62  88 125 174 208 255 317 384
#     4  10  20  37  66  96 120 156 214 263 320 384
#     4  11  23  37  59  92 131 167 211 259 306 380
#     4  10  19  35  66  95 120 161 207 260 314 378
#     4   9  18  36  66  96 111 152 212 271 317 372
#
# _framework density 19.643640000000001
#
# number of rings (size 3 to 8) (size 9 to 14) (size 15 to 20)
#    0.000    1.500    2.500    4.125    1.750    6.500 
#    0.000    0.625    2.750    0.000    0.000    0.000 
#    0.000    0.000    0.000    0.000    0.000    0.000 
#
# Total GULP energy -396593.864415 kJ/mol
# GULP energy per Si atom -12393.558263 kJ/mol
# Density = 1.959893 g / cm^3
# Si number density = 19.643640 Si / 1000 Ang^3
#
#
#
# Elastic Constant Matrix: (Units=GPa)
#
#
# Indices 1 2 3 4 5 6 
#
# 1 49.1139 20.4439 38.4697 0.0008 7.1572 -0.0005
# 2 20.4439 71.7580 49.3316 0.0007 5.7542 -0.0010
# 3 38.4697 49.3316 150.8456 0.0001 12.7423 -0.0022
# 4 0.0008 0.0007 0.0001 33.5444 0.0000 -6.2591
# 5 7.1572 5.7542 12.7423 0.0000 32.3598 0.0008
# 6 -0.0005 -0.0010 -0.0022 -6.2591 0.0008 32.6940
#
#
#
# Elastic Compliance Matrix: (Units=1/GPa)
#
#
# Indices 1 2 3 4 5 6 
#
# 1 0.026485 -0.003655 -0.005295 -0.000001 -0.003123 0.000000
# 2 -0.003655 0.018508 -0.005080 0.000000 -0.000482 0.000000
# 3 -0.005295 -0.005080 0.009792 0.000000 -0.001781 0.000001
# 4 -0.000001 0.000000 0.000000 0.030916 0.000000 0.005919
# 5 -0.003123 -0.000482 -0.001781 0.000000 0.032380 -0.000001
# 6 0.000000 0.000000 0.000001 0.005919 -0.000001 0.031720
#
#
# Mechanical properties :
#
#
# Convention : Reuss Voigt Hill
#
# Bulk Modulus (GPa) = 37.41901 54.24533 45.83217
# Shear Modulus (GPa) = 26.77114 30.61780 28.69447
#
# Velocity S-wave (km/s) = 3.69567 3.95227 3.82612
# Velocity P-wave (km/s) = 6.10745 6.96433 6.54992
#
# Compressibility (1/GPa) = 0.02672439
#
# Stress axis : x y z
#
# Youngs Moduli (GPa) = 37.75725 54.03083 102.12921
#
# Poissons Ratio (x) = 0.19747 0.54081
# Poissons Ratio (y) = 0.13799 0.51881
# Poissons Ratio (z) = 0.19994 0.27447
#
# Static dielectric constant tensor:
#      x y z
#    x 3.577210 -0.000010 0.062450 
#    y -0.000010 3.828330 -0.000010 
#    z 0.062450 -0.000010 3.339360 
# 
# 
# High freq. dielectric constant tensor:
#      x y z
#    x 1.758430 0.000000 0.014030 
#    y 0.000000 1.756350 0.000000 
#    z 0.014030 0.000000 1.770810 
# 
# From -- ./inp_files/163272.got.cif
#   From: 2010.06.25/outbox.cif.g09.slc.cpg/sg15_82_cif.got.tgz:163272.got - 2010.06.28 07:06:18.
