data_PCOD8134003
_publ_section_title
;
Structure prediction by ZEFSAII (Michael W. Deem and Ramdas Pophale) SiO2 
 PCOD8134003
Probable space group: C 2/C
;
_chemical_formula_sum "Si O2"
_cell_formula_units_Z 64
_cell_length_a 8.773412
_cell_length_b 24.807158
_cell_length_c 15.628058
_cell_angle_alpha 90.000000
_cell_angle_beta 81.818428
_cell_angle_gamma 90.000000
_cell_volume 3366.725258
_symmetry_space_group_name_H-M "C 2/C"
_symmetry_group_IT_number 15
_symmetry_cell_setting 'monoclinic'
loop_
_space_group_symop_operation_xyz
x,y,z
-x,y,1/2-z
-x,-y,-z
x,-y,1/2+z
1/2+x,1/2+y,z
1/2-x,1/2+y,1/2-z
1/2-x,1/2-y,-z
1/2+x,1/2-y,1/2+z
loop_
_atom_site_type_symbol
_atom_site_label
_atom_site_fract_x
_atom_site_fract_y
_atom_site_fract_z
Si Si1 0.355991 0.575591 0.317283
Si Si2 0.610084 0.105751 0.918829
Si Si3 0.257716 0.688406 0.024860
Si Si4 0.784479 0.458005 0.945658
Si Si5 0.339399 0.126968 0.303625
Si Si6 0.179527 0.041877 0.715911
Si Si7 0.709343 0.072984 0.613619
Si Si8 0.016721 0.108121 0.011791
O O1 0.500000 0.558210 0.250000
O O2 0.269018 0.622038 0.270978
O O3 0.276116 0.516158 0.331349
O O4 0.396490 0.602033 0.404644
O O5 0.756424 0.089461 0.849243
O O6 0.447295 0.108045 0.881768
O O7 0.647914 0.162044 0.961682
O O8 0.591459 0.061762 0.995263
O O9 0.201390 0.674866 0.126347
O O10 0.432257 0.665769 0.008215
O O11 0.250000 0.750000 0.000000
O O12 0.830606 0.431135 0.851228
O O13 0.792505 0.521737 0.948469
O O14 0.611462 0.438921 0.986069
O O15 0.500000 0.141415 0.250000
O O16 0.277111 0.048521 0.793955
O O17 0.000000 0.051461 0.750000
O O18 0.858344 0.107442 0.574230
#
# Coordination Sequence:
#
# PCOD8134003 Si02
#       8
#     8   8   8   8   8   8   8   8
#     4  11  18  34  56  91 123 155 197 237 289 360
#     4  10  23  36  56  85 118 155 203 247 297 360
#     4  10  23  47  65  79 114 162 209 268 323 348
#     4  10  19  35  50  85 127 165 187 218 303 371
#     4  10  21  34  61  92 121 151 200 251 303 366
#     4  11  21  34  55  83 127 171 193 226 290 376
#     4  12  21  33  55  89 126 160 192 238 296 371
#     4  10  21  35  60  85 118 158 204 250 294 371
#
# _framework density 19.009568999999999
#
# number of rings (size 3 to 8) (size 9 to 14) (size 15 to 20)
#    0.000    1.750    3.750    4.125    5.250    0.000 
#    0.000    2.500    5.500    0.000    0.000    0.000 
#    0.000    0.000    0.000    0.000    0.000    0.000 
#
# Total GULP energy -396506.649080 kJ/mol
# GULP energy per Si atom -12390.832784 kJ/mol
# Density = 1.896630 g / cm^3
# Si number density = 19.009569 Si / 1000 Ang^3
#
#
#
# Elastic Constant Matrix: (Units=GPa)
#
#
# Indices 1 2 3 4 5 6 
#
# 1 98.9450 51.1015 39.6384 0.0000 9.7457 0.0000
# 2 51.1015 102.6991 30.6317 0.0000 -4.7390 0.0000
# 3 39.6384 30.6317 53.9750 0.0000 5.2986 0.0000
# 4 0.0000 0.0000 0.0000 17.1713 0.0000 6.2495
# 5 9.7457 -4.7390 5.2986 0.0000 35.4283 0.0000
# 6 0.0000 0.0000 0.0000 6.2495 0.0000 14.4422
#
#
#
# Elastic Compliance Matrix: (Units=1/GPa)
#
#
# Indices 1 2 3 4 5 6 
#
# 1 0.017195 -0.006151 -0.008720 0.000000 -0.004249 0.000000
# 2 -0.006151 0.014163 -0.003930 0.000000 0.004174 0.000000
# 3 -0.008720 -0.003930 0.027379 0.000000 -0.002222 0.000000
# 4 0.000000 0.000000 0.000000 0.069123 0.000000 -0.029911
# 5 -0.004249 0.004174 -0.002222 0.000000 0.030285 0.000000
# 6 0.000000 0.000000 0.000000 -0.029911 0.000000 0.082185
#
#
# Mechanical properties :
#
#
# Convention : Reuss Voigt Hill
#
# Bulk Modulus (GPa) = 47.31485 55.37358 51.34422
# Shear Modulus (GPa) = 17.54521 22.35819 19.95170
#
# Velocity S-wave (km/s) = 3.04133 3.43323 3.24321
# Velocity P-wave (km/s) = 6.10549 6.70139 6.41037
#
# Compressibility (1/GPa) = 0.02113501
#
# Stress axis : x y z
#
# Youngs Moduli (GPa) = 58.15528 70.60751 36.52399
#
# Poissons Ratio (x) = 0.43433 0.31849
# Poissons Ratio (y) = 0.35773 0.14354
# Poissons Ratio (z) = 0.50711 0.27748
#
# Static dielectric constant tensor:
#      x y z
#    x 3.553590 0.000000 0.132220 
#    y 0.000000 2.980330 0.000000 
#    z 0.132220 0.000000 3.640810 
# 
# 
# High freq. dielectric constant tensor:
#      x y z
#    x 1.744160 0.000000 0.009290 
#    y 0.000000 1.681700 0.000000 
#    z 0.009290 0.000000 1.752780 
# 
# From -- ./inp_files/138612.got.cif
#   From: 2010.06.25/outbox.cif.g09.slc.cpg/sg15_70_cif.got.tgz:138612.got - 2010.06.28 07:06:18.
