data_PCOD8134095
_publ_section_title
;
Structure prediction by ZEFSAII (Michael W. Deem and Ramdas Pophale) SiO2 
 PCOD8134095
Probable space group: C 2/C
;
_chemical_formula_sum "Si O2"
_cell_formula_units_Z 56
_cell_length_a 16.385902
_cell_length_b 22.586518
_cell_length_c 7.530348
_cell_angle_alpha 90.000000
_cell_angle_beta 104.541930
_cell_angle_gamma 90.000000
_cell_volume 2697.701890
_symmetry_space_group_name_H-M "C 2/C"
_symmetry_group_IT_number 15
_symmetry_cell_setting 'monoclinic'
loop_
_space_group_symop_operation_xyz
x,y,z
-x,y,1/2-z
-x,-y,-z
x,-y,1/2+z
1/2+x,1/2+y,z
1/2-x,1/2+y,1/2-z
1/2-x,1/2-y,-z
1/2+x,1/2-y,1/2+z
loop_
_atom_site_type_symbol
_atom_site_label
_atom_site_fract_x
_atom_site_fract_y
_atom_site_fract_z
Si Si1 0.082540 0.447397 0.401198
Si Si2 0.738971 0.870815 0.464154
Si Si3 0.365987 0.065785 0.200646
Si Si4 0.822554 0.815547 0.175411
Si Si5 0.093057 0.067410 0.856893
Si Si6 0.810605 0.686254 0.196990
Si Si7 0.180652 0.956894 0.752389
O O1 0.160889 0.411888 0.359747
O O2 0.101148 0.518170 0.420544
O O3 0.068842 0.432904 0.599349
O O4 0.000000 0.429442 0.250000
O O5 0.763169 0.830653 0.310413
O O6 0.710413 0.829082 0.610934
O O7 0.816507 0.913099 0.573967
O O8 0.364879 0.133724 0.131840
O O9 0.272447 0.046454 0.213172
O O10 0.894505 0.865328 0.203539
O O11 0.859679 0.749200 0.224087
O O12 0.775145 0.811758 0.961937
O O13 0.000000 0.046676 0.750000
O O14 0.161401 0.023758 0.803961
O O15 0.107544 0.064356 0.076861
#
# Coordination Sequence:
#
# PCOD8134095 Si02
#       7
#     8   8   8   8   8   8   8
#     4  10  20  32  53  86 115 140 175 230 294 330
#     4  10  21  36  65  83 112 146 194 242 272 341
#     4  10  19  35  56  77 112 144 186 233 266 342
#     4  11  20  38  62  81 110 156 195 233 279 325
#     4  12  22  35  57  85 124 147 184 241 292 343
#     4   9  21  37  59  85 108 143 205 235 260 338
#     4  10  20  37  54  86 112 145 196 228 284 349
#
# _framework density 20.758410000000001
#
# number of rings (size 3 to 8) (size 9 to 14) (size 15 to 20)
#    0.000    2.000    2.857    4.714    2.000    0.000 
#    0.000    0.714    9.429    0.000    0.000    0.000 
#    0.000    0.000    0.000    0.000    0.000    0.000 
#
# Total GULP energy -346972.979010 kJ/mol
# GULP energy per Si atom -12391.892108 kJ/mol
# Density = 2.071116 g / cm^3
# Si number density = 20.758410 Si / 1000 Ang^3
#
#
#
# Elastic Constant Matrix: (Units=GPa)
#
#
# Indices 1 2 3 4 5 6 
#
# 1 30.8008 30.9394 29.4659 0.0000 14.0145 0.0000
# 2 30.9394 176.4224 35.0529 0.0000 8.5280 0.0000
# 3 29.4659 35.0529 87.8855 0.0000 23.7913 0.0000
# 4 0.0000 0.0000 0.0000 30.0394 0.0000 -3.9228
# 5 14.0145 8.5280 23.7913 0.0000 28.2552 0.0000
# 6 0.0000 0.0000 0.0000 -3.9228 0.0000 13.9797
#
#
#
# Elastic Compliance Matrix: (Units=1/GPa)
#
#
# Indices 1 2 3 4 5 6 
#
# 1 0.059101 -0.007079 -0.012479 0.000000 -0.016670 0.000000
# 2 -0.007079 0.007006 -0.001035 0.000000 0.002268 0.000000
# 3 -0.012479 -0.001035 0.018412 0.000000 -0.009001 0.000000
# 4 0.000000 0.000000 0.000000 0.034556 0.000000 0.009696
# 5 -0.016670 0.002268 -0.009001 0.000000 0.050554 0.000000
# 6 0.000000 0.000000 0.000000 0.009696 0.000000 0.074253
#
#
# Mechanical properties :
#
#
# Convention : Reuss Voigt Hill
#
# Bulk Modulus (GPa) = 23.07743 54.00279 38.54011
# Shear Modulus (GPa) = 16.69387 27.76489 22.22938
#
# Velocity S-wave (km/s) = 2.83891 3.66119 3.27595
# Velocity P-wave (km/s) = 4.67838 6.62901 5.73720
#
# Compressibility (1/GPa) = 0.04333238
#
# Stress axis : x y z
#
# Youngs Moduli (GPa) = 16.92025 142.74152 54.31349
#
# Poissons Ratio (x) = 1.01052 0.67777
# Poissons Ratio (y) = 0.11979 0.05619
# Poissons Ratio (z) = 0.21114 0.14768
#
# Static dielectric constant tensor:
#      x y z
#    x 3.258570 0.000000 0.001670 
#    y 0.000000 4.187580 0.000000 
#    z 0.001670 0.000000 3.986750 
# 
# 
# High freq. dielectric constant tensor:
#      x y z
#    x 1.761960 0.000000 -0.001040 
#    y 0.000000 1.820240 0.000000 
#    z -0.001040 0.000000 1.828000 
# 
# From -- ./inp_files/50318.got.cif
#   From: 2010.06.25/outbox.cif.g09.slc.cpg/sg15_26_cif.got.tgz:50318.got - 2010.06.28 07:06:18.
