data_PCOD8134482
_publ_section_title
;
Structure prediction by ZEFSAII (Michael W. Deem and Ramdas Pophale) SiO2 
 PCOD8134482
Probable space group: C 2/C
;
_chemical_formula_sum "Si O2"
_cell_formula_units_Z 48
_cell_length_a 16.102671
_cell_length_b 17.189393
_cell_length_c 9.367449
_cell_angle_alpha 90.000000
_cell_angle_beta 89.882059
_cell_angle_gamma 90.000000
_cell_volume 2592.858866
_symmetry_space_group_name_H-M "C 2/C"
_symmetry_group_IT_number 15
_symmetry_cell_setting 'monoclinic'
loop_
_space_group_symop_operation_xyz
x,y,z
-x,y,1/2-z
-x,-y,-z
x,-y,1/2+z
1/2+x,1/2+y,z
1/2-x,1/2+y,1/2-z
1/2-x,1/2-y,-z
1/2+x,1/2-y,1/2+z
loop_
_atom_site_type_symbol
_atom_site_label
_atom_site_fract_x
_atom_site_fract_y
_atom_site_fract_z
Si Si1 0.301173 0.672184 0.990176
Si Si2 0.445786 0.540951 0.382550
Si Si3 0.716359 0.540828 0.714679
Si Si4 0.767939 0.372372 0.729730
Si Si5 0.097575 0.746460 0.227790
Si Si6 0.673097 0.646107 0.962792
O O1 0.306549 0.639423 0.151917
O O2 0.250000 0.750000 0.000000
O O3 0.252820 0.607776 0.894770
O O4 0.387735 0.697785 0.911306
O O5 0.500000 0.568974 0.250000
O O6 0.500000 0.500000 0.500000
O O7 0.376883 0.480031 0.331075
O O8 0.406911 0.617505 0.450965
O O9 0.776591 0.465551 0.707058
O O10 0.714330 0.575202 0.874081
O O11 0.855307 0.336989 0.786198
O O12 0.740960 0.329471 0.582491
O O13 0.142923 0.784497 0.363305
O O14 0.000000 0.733318 0.250000
#
# Coordination Sequence:
#
# PCOD8134482 Si02
#       6
#     8   8   8   8   8   8
#     4   9  20  36  56  79 107 144 183 223 276 330
#     4  11  21  30  46  79 117 142 172 215 279 340
#     4  10  20  33  54  77 108 142 177 224 272 330
#     4  10  19  36  55  80 105 144 191 218 269 336
#     4  10  22  36  55  77 113 145 181 231 281 325
#     4  10  21  32  52  78 106 147 176 221 273 337
#
# _framework density 18.512384999999998
#
# number of rings (size 3 to 8) (size 9 to 14) (size 15 to 20)
#    0.000    2.000    1.667    2.500    7.000    0.000 
#    0.000    0.000    0.000    9.000    0.000    0.000 
#    0.000    0.000    0.000    0.000    0.000    0.000 
#
# Total GULP energy -297378.892084 kJ/mol
# GULP energy per Si atom -12390.787170 kJ/mol
# Density = 1.847025 g / cm^3
# Si number density = 18.512385 Si / 1000 Ang^3
#
#
#
# Elastic Constant Matrix: (Units=GPa)
#
#
# Indices 1 2 3 4 5 6 
#
# 1 75.9215 35.2398 27.2063 0.0000 -4.5038 0.0000
# 2 35.2398 101.6412 30.0004 0.0000 -5.2969 0.0000
# 3 27.2063 30.0004 111.2045 0.0000 -9.2239 0.0000
# 4 0.0000 0.0000 0.0000 22.9403 0.0000 -2.5742
# 5 -4.5038 -5.2969 -9.2239 0.0000 24.5387 0.0000
# 6 0.0000 0.0000 0.0000 -2.5742 0.0000 23.4219
#
#
#
# Elastic Compliance Matrix: (Units=1/GPa)
#
#
# Indices 1 2 3 4 5 6 
#
# 1 0.016431 -0.004871 -0.002625 0.000000 0.000978 0.000000
# 2 -0.004871 0.012172 -0.002011 0.000000 0.000977 0.000000
# 3 -0.002625 -0.002011 0.010426 0.000000 0.003003 0.000000
# 4 0.000000 0.000000 0.000000 0.044136 0.000000 0.004851
# 5 0.000978 0.000977 0.003003 0.000000 0.042271 0.000000
# 6 0.000000 0.000000 0.000000 0.004851 0.000000 0.043228
#
#
# Mechanical properties :
#
#
# Convention : Reuss Voigt Hill
#
# Bulk Modulus (GPa) = 49.96073 52.62892 51.29482
# Shear Modulus (GPa) = 25.72685 27.26823 26.49754
#
# Velocity S-wave (km/s) = 3.73193 3.84210 3.78741
# Velocity P-wave (km/s) = 6.75396 6.94068 6.84796
#
# Compressibility (1/GPa) = 0.02001572
#
# Stress axis : x y z
#
# Youngs Moduli (GPa) = 60.86045 82.15671 95.91257
#
# Poissons Ratio (x) = 0.40020 0.25174
# Poissons Ratio (y) = 0.29646 0.19287
# Poissons Ratio (z) = 0.15974 0.16521
#
# Static dielectric constant tensor:
#      x y z
#    x 3.099570 0.000000 -0.143400 
#    y 0.000000 3.465680 0.000000 
#    z -0.143400 0.000000 4.468840 
# 
# 
# High freq. dielectric constant tensor:
#      x y z
#    x 1.669120 0.000000 -0.011020 
#    y 0.000000 1.721180 0.000000 
#    z -0.011020 0.000000 1.744610 
# 
# From -- ./inp_files/39595.got.cif
#   From: 2010.06.25/outbox.cif.g09.slc.cpg/sg15_20_cif.got.tgz:39595.got - 2010.06.28 07:06:18.
