data_PCOD8134578
_publ_section_title
;
Structure prediction by ZEFSAII (Michael W. Deem and Ramdas Pophale) SiO2 
 PCOD8134578
Probable space group: C 2/C
;
_chemical_formula_sum "Si O2"
_cell_formula_units_Z 48
_cell_length_a 35.080026
_cell_length_b 8.696872
_cell_length_c 19.869176
_cell_angle_alpha 90.000000
_cell_angle_beta 23.402263
_cell_angle_gamma 90.000000
_cell_volume 2407.657676
_symmetry_space_group_name_H-M "C 2/C"
_symmetry_group_IT_number 15
_symmetry_cell_setting 'monoclinic'
loop_
_space_group_symop_operation_xyz
x,y,z
-x,y,1/2-z
-x,-y,-z
x,-y,1/2+z
1/2+x,1/2+y,z
1/2-x,1/2+y,1/2-z
1/2-x,1/2-y,-z
1/2+x,1/2-y,1/2+z
loop_
_atom_site_type_symbol
_atom_site_label
_atom_site_fract_x
_atom_site_fract_y
_atom_site_fract_z
Si Si1 0.969990 0.314349 0.607928
Si Si2 0.601370 0.076461 0.414246
Si Si3 0.154233 0.881048 0.778743
Si Si4 0.782661 0.901721 0.088916
Si Si5 0.882975 0.025500 0.802016
Si Si6 0.088254 0.103290 0.998261
O O1 0.012503 0.463138 0.577575
O O2 0.057220 0.218295 0.433965
O O3 0.903440 0.370348 0.655290
O O4 0.908539 0.207749 0.758264
O O5 0.603223 0.217775 0.460925
O O6 0.699529 0.985073 0.265313
O O7 0.248814 0.773946 0.630092
O O8 0.157776 0.976713 0.704246
O O9 0.151836 0.998967 0.845028
O O10 0.877880 0.917103 0.979873
O O11 0.801312 0.990358 0.988772
O O12 0.976629 0.931411 0.671735
#
# Coordination Sequence:
#
# PCOD8134578 Si02
#       6
#     8   8   8   8   8   8
#     4   9  18  35  61  82 104 149 197 230 274 348
#     4  10  19  36  58  83 109 148 193 233 278 346
#     4  10  19  38  59  81 108 157 198 225 277 355
#     4  11  24  33  55  88 121 142 186 246 298 327
#     4  11  20  38  58  84 112 153 191 240 284 339
#     4  11  20  39  59  79 113 157 193 232 286 351
#
# _framework density 19.936388999999998
#
# number of rings (size 3 to 8) (size 9 to 14) (size 15 to 20)
#    0.000    1.667    3.333    3.000    0.000    0.667 
#    0.000    0.000    0.000    6.000    0.000    0.000 
#    0.000    0.000    0.000    0.000    0.000    0.000 
#
# Total GULP energy -297614.671931 kJ/mol
# GULP energy per Si atom -12400.611330 kJ/mol
# Density = 1.989101 g / cm^3
# Si number density = 19.936389 Si / 1000 Ang^3
#
#
#
# Elastic Constant Matrix: (Units=GPa)
#
#
# Indices 1 2 3 4 5 6 
#
# 1 81.1402 21.3793 19.1090 0.0000 -0.9642 0.0000
# 2 21.3793 118.4443 24.7958 -0.0003 9.7267 0.0000
# 3 19.1090 24.7958 40.4511 -0.0001 1.5584 0.0000
# 4 0.0000 -0.0003 -0.0001 30.0762 0.0000 -5.7756
# 5 -0.9642 9.7267 1.5584 0.0000 23.7929 0.0000
# 6 0.0000 0.0000 0.0000 -5.7756 0.0000 17.9485
#
#
#
# Elastic Compliance Matrix: (Units=1/GPa)
#
#
# Indices 1 2 3 4 5 6 
#
# 1 0.014098 -0.001451 -0.005830 0.000000 0.001546 0.000000
# 2 -0.001451 0.010149 -0.005387 0.000000 -0.003855 0.000000
# 3 -0.005830 -0.005387 0.030779 0.000000 -0.000050 0.000000
# 4 0.000000 0.000000 0.000000 0.035439 0.000000 0.011404
# 5 0.001546 -0.003855 -0.000050 0.000000 0.043671 0.000000
# 6 0.000000 0.000000 0.000000 0.011404 0.000000 0.059385
#
#
# Mechanical properties :
#
#
# Convention : Reuss Voigt Hill
#
# Bulk Modulus (GPa) = 33.68138 41.17820 37.42979
# Shear Modulus (GPa) = 21.85752 26.01363 23.93557
#
# Velocity S-wave (km/s) = 3.31473 3.61616 3.46872
# Velocity P-wave (km/s) = 5.61970 6.17537 5.90407
#
# Compressibility (1/GPa) = 0.02968999
#
# Stress axis : x y z
#
# Youngs Moduli (GPa) = 70.93167 98.53110 32.48933
#
# Poissons Ratio (x) = 0.14299 0.18941
# Poissons Ratio (y) = 0.10294 0.17502
# Poissons Ratio (z) = 0.41352 0.53080
#
# Static dielectric constant tensor:
#      x y z
#    x 3.443110 0.000000 -0.137300 
#    y 0.000000 3.891860 0.000000 
#    z -0.137300 0.000000 3.382030 
# 
# 
# High freq. dielectric constant tensor:
#      x y z
#    x 1.770620 0.000000 -0.016470 
#    y 0.000000 1.790220 0.000000 
#    z -0.016470 0.000000 1.752770 
# 
# From -- ./inp_files/209286.got.cif
#   From: 2010.06.25/outbox.cif.g09.slc.cpg/sg15_105_cif.got.tgz:209286.got - 2010.06.28 07:06:18.
