data_PCOD8134034
_publ_section_title
;
Structure prediction by ZEFSAII (Michael W. Deem and Ramdas Pophale) SiO2 
 PCOD8134034
Probable space group: C 2/C
;
_chemical_formula_sum "Si O2"
_cell_formula_units_Z 52
_cell_length_a 17.586506
_cell_length_b 25.341194
_cell_length_c 9.421698
_cell_angle_alpha 90.000000
_cell_angle_beta 41.167111
_cell_angle_gamma 90.000000
_cell_volume 2763.959024
_symmetry_space_group_name_H-M "C 2/C"
_symmetry_group_IT_number 15
_symmetry_cell_setting 'monoclinic'
loop_
_space_group_symop_operation_xyz
x,y,z
-x,y,1/2-z
-x,-y,-z
x,-y,1/2+z
1/2+x,1/2+y,z
1/2-x,1/2+y,1/2-z
1/2-x,1/2-y,-z
1/2+x,1/2-y,1/2+z
loop_
_atom_site_type_symbol
_atom_site_label
_atom_site_fract_x
_atom_site_fract_y
_atom_site_fract_z
Si Si1 0.070203 0.722106 0.776659
Si Si2 0.189996 0.182740 0.955460
Si Si3 0.136049 0.938620 0.572433
Si Si4 0.882005 0.022822 0.109004
Si Si5 0.911724 0.707850 0.263098
Si Si6 0.829486 0.816616 0.349851
Si Si7 0.000000 0.104763 0.750000
O O1 0.106829 0.780770 0.669500
O O2 0.179493 0.689390 0.674511
O O3 0.000000 0.692497 0.750000
O O4 0.975725 0.724070 0.030906
O O5 0.177691 0.196756 0.807628
O O6 0.161394 0.121939 0.013319
O O7 0.186307 0.955957 0.656203
O O8 0.000000 0.948833 0.750000
O O9 0.190110 0.977105 0.374008
O O10 0.908132 0.071046 0.966930
O O11 0.000000 0.000000 0.000000
O O12 0.865976 0.764304 0.386524
O O13 0.799840 0.669068 0.408914
O O14 0.000000 0.681540 0.250000
O O15 0.922622 0.861805 0.248984
#
# Coordination Sequence:
#
# PCOD8134034 Si02
#       7
#     8   8   8   8   8   8   4
#     4  11  23  39  58  83 122 155 205 245 287 358
#     4  11  23  36  60  86 116 165 201 241 305 351
#     4  10  20  34  56  81 120 147 187 237 304 361
#     4  10  19  35  53  82 120 146 180 250 305 357
#     4  11  22  40  54  81 122 160 201 247 287 353
#     4  11  23  35  59  85 116 164 200 243 299 354
#     4  12  22  34  60  90 118 150 204 240 302 370
#
# _framework density 18.813593999999998
#
# number of rings (size 3 to 8) (size 9 to 14) (size 15 to 20)
#    0.000    1.231    6.154    2.308    2.154    1.231 
#    0.000    0.000    0.000    0.000    0.000    5.385 
#    0.000    0.000    0.000    0.000    0.000    0.000 
#
# Total GULP energy -322135.797271 kJ/mol
# GULP energy per Si atom -12389.838357 kJ/mol
# Density = 1.877077 g / cm^3
# Si number density = 18.813594 Si / 1000 Ang^3
#
#
#
# Elastic Constant Matrix: (Units=GPa)
#
#
# Indices 1 2 3 4 5 6 
#
# 1 109.2087 23.5900 32.5317 0.0000 8.0950 0.0000
# 2 23.5900 62.9841 14.6031 0.0000 14.0767 0.0000
# 3 32.5317 14.6031 94.0958 0.0000 11.1030 0.0000
# 4 0.0000 0.0000 0.0000 39.7624 0.0000 16.2734
# 5 8.0950 14.0767 11.1030 0.0000 28.1200 0.0000
# 6 0.0000 0.0000 0.0000 16.2734 0.0000 34.6201
#
#
#
# Elastic Compliance Matrix: (Units=1/GPa)
#
#
# Indices 1 2 3 4 5 6 
#
# 1 0.010835 -0.003265 -0.003214 0.000000 -0.000216 0.000000
# 2 -0.003265 0.019157 -0.000864 0.000000 -0.008309 0.000000
# 3 -0.003214 -0.000864 0.012285 0.000000 -0.003493 0.000000
# 4 0.000000 0.000000 0.000000 0.031140 0.000000 -0.014638
# 5 -0.000216 -0.008309 -0.003493 0.000000 0.041163 0.000000
# 6 0.000000 0.000000 0.000000 -0.014638 0.000000 0.035765
#
#
# Mechanical properties :
#
#
# Convention : Reuss Voigt Hill
#
# Bulk Modulus (GPa) = 36.24244 45.30425 40.77334
# Shear Modulus (GPa) = 28.69799 33.53809 31.11804
#
# Velocity S-wave (km/s) = 3.90986 4.22673 4.07138
# Velocity P-wave (km/s) = 6.29987 6.92482 6.61973
#
# Compressibility (1/GPa) = 0.02759196
#
# Stress axis : x y z
#
# Youngs Moduli (GPa) = 92.29001 52.19986 81.40109
#
# Poissons Ratio (x) = 0.17043 0.26162
# Poissons Ratio (y) = 0.30131 0.07032
# Poissons Ratio (z) = 0.29662 0.04509
#
# Static dielectric constant tensor:
#      x y z
#    x 3.895660 0.000000 0.373920 
#    y 0.000000 3.355230 0.000000 
#    z 0.373920 0.000000 3.754220 
# 
# 
# High freq. dielectric constant tensor:
#      x y z
#    x 1.736550 0.000000 0.024720 
#    y 0.000000 1.707610 0.000000 
#    z 0.024720 0.000000 1.717570 
# 
# From -- ./inp_files/43403.got.cif
#   From: 2010.06.25/outbox.cif.g09.slc.cpg/sg15_22_cif.got.tgz:43403.got - 2010.06.28 07:06:18.
