data_PCOD8134510
_publ_section_title
;
Structure prediction by ZEFSAII (Michael W. Deem and Ramdas Pophale) SiO2 
 PCOD8134510
Probable space group: C 2/C
;
_chemical_formula_sum "Si O2"
_cell_formula_units_Z 48
_cell_length_a 15.417070
_cell_length_b 16.968980
_cell_length_c 15.952060
_cell_angle_alpha 90.000000
_cell_angle_beta 36.249847
_cell_angle_gamma 90.000000
_cell_volume 2467.673744
_symmetry_space_group_name_H-M "C 2/C"
_symmetry_group_IT_number 15
_symmetry_cell_setting 'monoclinic'
loop_
_space_group_symop_operation_xyz
x,y,z
-x,y,1/2-z
-x,-y,-z
x,-y,1/2+z
1/2+x,1/2+y,z
1/2-x,1/2+y,1/2-z
1/2-x,1/2-y,-z
1/2+x,1/2-y,1/2+z
loop_
_atom_site_type_symbol
_atom_site_label
_atom_site_fract_x
_atom_site_fract_y
_atom_site_fract_z
Si Si1 0.500000 0.923666 0.250000
Si Si2 0.683413 0.103540 0.755421
Si Si3 0.249506 0.924233 0.824379
Si Si4 0.500000 0.593889 0.750000
Si Si5 0.188939 0.554255 0.036553
Si Si6 0.478169 0.334077 0.086507
Si Si7 0.014706 0.346088 0.543015
O O1 0.386032 0.874140 0.281830
O O2 0.591959 0.974964 0.109857
O O3 0.817951 0.160962 0.670277
O O4 0.743167 0.014242 0.711553
O O5 0.557425 0.115694 0.921603
O O6 0.316820 0.914057 0.864353
O O7 0.345414 0.868945 0.689283
O O8 0.082069 0.894892 0.955225
O O9 0.642644 0.538530 0.623984
O O10 0.526465 0.648654 0.810511
O O11 0.120482 0.620604 0.031977
O O12 0.538563 0.247056 0.024425
#
# Coordination Sequence:
#
# PCOD8134510 Si02
#       7
#     4   8   8   4   8   8   8
#     4  10  22  41  66  84 115 162 216 256 288 347
#     4  11  22  42  60  85 115 164 213 252 293 352
#     4  10  22  36  59  87 122 166 197 239 294 365
#     4  10  22  33  56  90 133 158 176 236 310 381
#     4  10  19  36  56  90 121 156 197 234 301 363
#     4  11  24  36  58  91 131 159 191 249 308 367
#     4  12  21  36  61  91 121 157 205 240 308 366
#
# _framework density 19.451516999999999
#
# number of rings (size 3 to 8) (size 9 to 14) (size 15 to 20)
#    0.000    1.333    5.000    2.000    2.333    1.333 
#    0.000    0.833    0.000    0.000    0.000    0.000 
#    0.000    0.000    0.000    0.000    0.000    0.000 
#
# Total GULP energy -297602.780530 kJ/mol
# GULP energy per Si atom -12400.115855 kJ/mol
# Density = 1.940724 g / cm^3
# Si number density = 19.451517 Si / 1000 Ang^3
#
#
#
# Elastic Constant Matrix: (Units=GPa)
#
#
# Indices 1 2 3 4 5 6 
#
# 1 112.9060 37.9341 44.7477 0.0007 -6.3650 -0.0003
# 2 37.9341 53.1815 29.4375 0.0010 11.7843 -0.0006
# 3 44.7477 29.4375 130.2091 0.0019 0.8608 -0.0007
# 4 0.0007 0.0010 0.0019 27.2046 -0.0008 0.8962
# 5 -6.3650 11.7843 0.8608 -0.0008 28.3425 0.0004
# 6 -0.0003 -0.0006 -0.0007 0.8962 0.0004 11.6074
#
#
#
# Elastic Compliance Matrix: (Units=1/GPa)
#
#
# Indices 1 2 3 4 5 6 
#
# 1 0.013580 -0.009926 -0.002471 0.000000 0.007252 -0.000001
# 2 -0.009926 0.031186 -0.003540 -0.000001 -0.015088 0.000002
# 3 -0.002471 -0.003540 0.009325 0.000000 0.000634 0.000000
# 4 0.000000 -0.000001 0.000000 0.036852 0.000002 -0.002845
# 5 0.007252 -0.015088 0.000634 0.000002 0.043165 -0.000002
# 6 -0.000001 0.000002 0.000000 -0.002845 -0.000002 0.086372
#
#
# Mechanical properties :
#
#
# Convention : Reuss Voigt Hill
#
# Bulk Modulus (GPa) = 45.00700 57.83724 51.42212
# Shear Modulus (GPa) = 19.24860 25.70937 22.47898
#
# Velocity S-wave (km/s) = 3.14915 3.63948 3.40316
# Velocity P-wave (km/s) = 6.03417 6.88910 6.47576
#
# Compressibility (1/GPa) = 0.02221876
#
# Stress axis : x y z
#
# Youngs Moduli (GPa) = 73.63896 32.06559 107.23693
#
# Poissons Ratio (x) = 0.31827 0.26496
# Poissons Ratio (y) = 0.73091 0.37959
# Poissons Ratio (z) = 0.18195 0.11350
#
# Static dielectric constant tensor:
#      x y z
#    x 3.527950 0.000000 -0.076310 
#    y 0.000000 3.215580 0.000000 
#    z -0.076310 0.000000 3.955920 
# 
# 
# High freq. dielectric constant tensor:
#      x y z
#    x 1.753770 0.000000 -0.008300 
#    y 0.000000 1.720250 0.000000 
#    z -0.008300 0.000000 1.779010 
# 
# From -- ./inp_files/70564.got.cif
#   From: 2010.06.25/outbox.cif.g09.slc.cpg/sg15_36_cif.got.tgz:70564.got - 2010.06.28 07:06:18.
