data_PCOD8134274
_publ_section_title
;
Structure prediction by ZEFSAII (Michael W. Deem and Ramdas Pophale) SiO2 
 PCOD8134274
Probable space group: C 2/C
;
_chemical_formula_sum "Si O2"
_cell_formula_units_Z 40
_cell_length_a 9.199163
_cell_length_b 17.871149
_cell_length_c 22.018438
_cell_angle_alpha 90.000000
_cell_angle_beta 36.651722
_cell_angle_gamma 90.000000
_cell_volume 2160.850797
_symmetry_space_group_name_H-M "C 2/C"
_symmetry_group_IT_number 15
_symmetry_cell_setting 'monoclinic'
loop_
_space_group_symop_operation_xyz
x,y,z
-x,y,1/2-z
-x,-y,-z
x,-y,1/2+z
1/2+x,1/2+y,z
1/2-x,1/2+y,1/2-z
1/2-x,1/2-y,-z
1/2+x,1/2-y,1/2+z
loop_
_atom_site_type_symbol
_atom_site_label
_atom_site_fract_x
_atom_site_fract_y
_atom_site_fract_z
Si Si1 0.776484 0.545647 0.152054
Si Si2 0.459587 0.892337 0.052826
Si Si3 0.136397 0.632839 0.261936
Si Si4 0.107833 0.825566 0.536536
Si Si5 0.244640 0.242088 0.430088
O O1 0.500000 0.572052 0.250000
O O2 0.785609 0.456830 0.136908
O O3 0.896531 0.570478 0.175175
O O4 0.916757 0.588427 0.052380
O O5 0.300125 0.818362 0.092808
O O6 0.673812 0.885920 0.032171
O O7 0.415002 0.654473 0.154176
O O8 0.000000 0.596617 0.250000
O O9 0.007005 0.711035 0.322914
O O10 0.250000 0.750000 0.500000
O O11 0.965961 0.818230 0.519534
O O12 0.250000 0.250000 0.500000
#
# Coordination Sequence:
#
# PCOD8134274 Si02
#       5
#     8   8   8   8   8
#     4  11  21  36  59  81 116 155 190 232 290 357
#     4  10  21  36  56  87 112 150 192 236 287 347
#     4  10  20  36  58  82 110 153 189 236 293 343
#     4   9  19  35  56  81 112 146 189 238 282 336
#     4  10  19  35  59  86 113 144 190 244 289 338
#
# _framework density 18.511227999999999
#
# number of rings (size 3 to 8) (size 9 to 14) (size 15 to 20)
#    0.000    2.000    4.000    0.000    0.000    4.000 
#    0.000    6.000    0.000    0.000    0.000    0.000 
#    0.000    0.000    0.000    0.000    0.000    0.000 
#
# Total GULP energy -247783.849973 kJ/mol
# GULP energy per Si atom -12389.192499 kJ/mol
# Density = 1.846910 g / cm^3
# Si number density = 18.511228 Si / 1000 Ang^3
#
#
#
# Elastic Constant Matrix: (Units=GPa)
#
#
# Indices 1 2 3 4 5 6 
#
# 1 108.4361 33.7625 30.1646 0.0129 18.5431 0.0083
# 2 33.7625 69.1167 21.3908 0.0107 10.0018 0.0123
# 3 30.1646 21.3908 60.6043 0.0650 4.4283 0.0246
# 4 0.0129 0.0107 0.0650 17.0914 0.0007 -1.3871
# 5 18.5431 10.0018 4.4283 0.0007 31.2419 -0.0166
# 6 0.0083 0.0123 0.0246 -1.3871 -0.0166 31.4985
#
#
#
# Elastic Compliance Matrix: (Units=1/GPa)
#
#
# Indices 1 2 3 4 5 6 
#
# 1 0.012672 -0.003989 -0.004489 0.000010 -0.005608 -0.000001
# 2 -0.003989 0.018130 -0.004206 0.000007 -0.002840 -0.000004
# 3 -0.004489 -0.004206 0.020135 -0.000072 0.001157 -0.000015
# 4 0.000010 0.000007 -0.000072 0.058719 0.000002 0.002586
# 5 -0.005608 -0.002840 0.001157 0.000002 0.036082 0.000021
# 6 -0.000001 -0.000004 -0.000015 0.002586 0.000021 0.031861
#
#
# Mechanical properties :
#
#
# Convention : Reuss Voigt Hill
#
# Bulk Modulus (GPa) = 39.11213 45.42144 42.26679
# Shear Modulus (GPa) = 23.64171 26.15563 24.89867
#
# Velocity S-wave (km/s) = 3.57761 3.76301 3.67148
# Velocity P-wave (km/s) = 6.18389 6.59324 6.39184
#
# Compressibility (1/GPa) = 0.02556751
#
# Stress axis : x y z
#
# Youngs Moduli (GPa) = 78.91475 55.15845 49.66457
#
# Poissons Ratio (x) = 0.22003 0.22297
# Poissons Ratio (y) = 0.31480 0.20889
# Poissons Ratio (z) = 0.35429 0.23199
#
# Static dielectric constant tensor:
#      x y z
#    x 3.929670 0.000000 -0.171970 
#    y 0.000000 3.393640 0.000000 
#    z -0.171970 0.000000 3.395540 
# 
# 
# High freq. dielectric constant tensor:
#      x y z
#    x 1.729920 0.000000 -0.009160 
#    y 0.000000 1.702730 0.000000 
#    z -0.009160 0.000000 1.713600 
# 
# From -- ./inp_files/76658.got.cif
#   From: 2010.06.25/outbox.cif.g09.slc.cpg/sg15_39_cif.got.tgz:76658.got - 2010.06.28 07:06:18.
