data_PCOD8134337
_publ_section_title
;
Structure prediction by ZEFSAII (Michael W. Deem and Ramdas Pophale) SiO2 
 PCOD8134337
Probable space group: C 2/C
;
_chemical_formula_sum "Si O2"
_cell_formula_units_Z 52
_cell_length_a 33.237291
_cell_length_b 20.254379
_cell_length_c 9.753132
_cell_angle_alpha 90.000000
_cell_angle_beta 154.900313
_cell_angle_gamma 90.000000
_cell_volume 2785.182528
_symmetry_space_group_name_H-M "C 2/C"
_symmetry_group_IT_number 15
_symmetry_cell_setting 'monoclinic'
loop_
_space_group_symop_operation_xyz
x,y,z
-x,y,1/2-z
-x,-y,-z
x,-y,1/2+z
1/2+x,1/2+y,z
1/2-x,1/2+y,1/2-z
1/2-x,1/2-y,-z
1/2+x,1/2-y,1/2+z
loop_
_atom_site_type_symbol
_atom_site_label
_atom_site_fract_x
_atom_site_fract_y
_atom_site_fract_z
Si Si1 0.818891 0.928986 0.709521
Si Si2 0.000000 0.841904 0.250000
Si Si3 0.387365 0.877411 0.060252
Si Si4 0.098979 0.396380 0.704638
Si Si5 0.690948 0.181274 0.713863
Si Si6 0.241751 0.491550 0.728928
Si Si7 0.375031 0.754023 0.225046
O O1 0.731619 0.878416 0.430623
O O2 0.807802 0.975662 0.805140
O O3 0.813603 0.974189 0.557324
O O4 0.915276 0.889748 0.032612
O O5 0.037237 0.798123 0.496050
O O6 0.488358 0.914731 0.378851
O O7 0.389918 0.809578 0.155606
O O8 0.371544 0.863876 0.849953
O O9 0.304111 0.924868 0.853912
O O10 0.117154 0.340748 0.872763
O O11 0.157699 0.461819 0.917396
O O12 0.629938 0.223454 0.631559
O O13 0.774245 0.218687 0.887588
#
# Coordination Sequence:
#
# PCOD8134337 Si02
#       7
#     8   4   8   8   8   8   8
#     4  10  21  37  62  80 118 145 195 231 289 330
#     4  10  22  38  58  90 106 152 196 242 262 338
#     4  11  21  35  55  85 113 151 184 234 287 333
#     4  10  22  35  53  83 121 143 187 232 285 340
#     4   9  19  36  56  85 108 154 186 232 280 335
#     4  11  20  39  56  84 114 155 181 236 286 349
#     4  10  19  35  61  80 113 146 196 231 278 332
#
# _framework density 18.67023
#
# number of rings (size 3 to 8) (size 9 to 14) (size 15 to 20)
#    0.000    1.846    3.077    1.385    0.000    1.231 
#    0.000    0.000    0.000    1.846    0.000    0.000 
#    0.000    0.000    0.000    0.000    0.000    0.000 
#
# Total GULP energy -322251.472907 kJ/mol
# GULP energy per Si atom -12394.287419 kJ/mol
# Density = 1.862774 g / cm^3
# Si number density = 18.670230 Si / 1000 Ang^3
#
#
#
# Elastic Constant Matrix: (Units=GPa)
#
#
# Indices 1 2 3 4 5 6 
#
# 1 46.2073 19.3514 30.7874 0.0000 -3.9528 0.0000
# 2 19.3514 77.9542 27.5433 0.0000 -2.1010 0.0000
# 3 30.7874 27.5433 76.9191 0.0000 -5.9355 0.0000
# 4 0.0000 0.0000 0.0000 16.5243 0.0000 14.2717
# 5 -3.9528 -2.1010 -5.9355 0.0000 15.7498 0.0000
# 6 0.0000 0.0000 0.0000 14.2717 0.0000 19.8662
#
#
#
# Elastic Compliance Matrix: (Units=1/GPa)
#
#
# Indices 1 2 3 4 5 6 
#
# 1 0.030578 -0.003741 -0.010656 0.000000 0.003160 0.000000
# 2 -0.003741 0.015144 -0.003957 0.000000 -0.000410 0.000000
# 3 -0.010656 -0.003957 0.018988 0.000000 0.003954 0.000000
# 4 0.000000 0.000000 0.000000 0.159448 0.000000 -0.114546
# 5 0.003160 -0.000410 0.003954 0.000000 0.065721 0.000000
# 6 0.000000 0.000000 0.000000 -0.114546 0.000000 0.132626
#
#
# Mechanical properties :
#
#
# Convention : Reuss Voigt Hill
#
# Bulk Modulus (GPa) = 35.71102 39.60499 37.65800
# Shear Modulus (GPa) = 10.67130 18.65462 14.66296
#
# Velocity S-wave (km/s) = 2.39334 3.16438 2.80548
# Velocity P-wave (km/s) = 5.17747 5.88303 5.54149
#
# Compressibility (1/GPa) = 0.02800256
#
# Stress axis : x y z
#
# Youngs Moduli (GPa) = 32.70291 66.03392 52.66537
#
# Poissons Ratio (x) = 0.24701 0.56120
# Poissons Ratio (y) = 0.12233 0.20840
# Poissons Ratio (z) = 0.34848 0.26130
#
# Static dielectric constant tensor:
#      x y z
#    x 3.308700 0.000000 -0.084280 
#    y 0.000000 3.483810 0.000000 
#    z -0.084280 0.000000 3.464550 
# 
# 
# High freq. dielectric constant tensor:
#      x y z
#    x 1.714720 0.000000 -0.002500 
#    y 0.000000 1.725760 0.000000 
#    z -0.002500 0.000000 1.726690 
# 
# From -- ./inp_files/70810.got.cif
#   From: 2010.06.25/outbox.cif.g09.slc.cpg/sg15_36_cif.got.tgz:70810.got - 2010.06.28 07:06:18.
