data_PCOD8134251
_publ_section_title
;
Structure prediction by ZEFSAII (Michael W. Deem and Ramdas Pophale) SiO2 
 PCOD8134251
Probable space group: C 2/C
;
_chemical_formula_sum "Si O2"
_cell_formula_units_Z 48
_cell_length_a 19.562961
_cell_length_b 8.068076
_cell_length_c 19.090709
_cell_angle_alpha 90.000000
_cell_angle_beta 55.395336
_cell_angle_gamma 90.000000
_cell_volume 2480.127613
_symmetry_space_group_name_H-M "C 2/C"
_symmetry_group_IT_number 15
_symmetry_cell_setting 'monoclinic'
loop_
_space_group_symop_operation_xyz
x,y,z
-x,y,1/2-z
-x,-y,-z
x,-y,1/2+z
1/2+x,1/2+y,z
1/2-x,1/2+y,1/2-z
1/2-x,1/2-y,-z
1/2+x,1/2-y,1/2+z
loop_
_atom_site_type_symbol
_atom_site_label
_atom_site_fract_x
_atom_site_fract_y
_atom_site_fract_z
Si Si1 0.558434 0.784772 0.913548
Si Si2 0.607709 0.845838 0.418355
Si Si3 0.756486 0.289622 0.915225
Si Si4 0.418177 0.338786 0.252746
Si Si5 0.213041 0.907767 0.357655
Si Si6 0.670036 0.365250 0.762026
O O1 0.562027 0.765252 0.828192
O O2 0.616702 0.647318 0.916674
O O3 0.591503 0.963122 0.915908
O O4 0.464473 0.760122 0.993780
O O5 0.695001 0.829853 0.407936
O O6 0.610158 0.750404 0.343210
O O7 0.850087 0.261244 0.836119
O O8 0.733134 0.482457 0.914389
O O9 0.750000 0.250000 0.000000
O O10 0.500000 0.356657 0.250000
O O11 0.386746 0.523934 0.254950
O O12 0.271037 0.746860 0.320698
O O13 0.227247 0.019526 0.279326
#
# Coordination Sequence:
#
# PCOD8134251 Si02
#       6
#     8   8   8   8   8   8
#     4  10  20  36  60  86 112 144 185 229 270 326
#     4  10  20  36  59  86 112 143 185 226 271 328
#     4  11  23  38  57  80 113 149 184 228 279 330
#     4  11  23  38  56  80 113 147 184 228 278 329
#     4  10  19  35  60  83 109 145 185 227 274 328
#     4  10  19  35  59  83 108 143 182 225 274 329
#
# _framework density 19.353843000000001
#
# number of rings (size 3 to 8) (size 9 to 14) (size 15 to 20)
#    0.000    1.667    0.000    8.000    0.000    7.333 
#    0.000   10.000    0.000    0.000    0.000    0.000 
#    0.000    0.000    0.000    0.000    0.000    0.000 
#
# Total GULP energy -297682.471720 kJ/mol
# GULP energy per Si atom -12403.436322 kJ/mol
# Density = 1.930979 g / cm^3
# Si number density = 19.353843 Si / 1000 Ang^3
#
#
#
# Elastic Constant Matrix: (Units=GPa)
#
#
# Indices 1 2 3 4 5 6 
#
# 1 124.3763 44.7144 47.9347 0.0000 -4.2302 0.0002
# 2 44.7144 87.1079 19.2448 -0.0003 3.0661 0.0004
# 3 47.9347 19.2448 87.4807 0.0001 -0.6075 -0.0002
# 4 0.0000 -0.0003 0.0001 33.2570 0.0000 -0.1555
# 5 -4.2302 3.0661 -0.6075 0.0000 29.4683 0.0000
# 6 0.0002 0.0004 -0.0002 -0.1555 0.0000 20.0609
#
#
#
# Elastic Compliance Matrix: (Units=1/GPa)
#
#
# Indices 1 2 3 4 5 6 
#
# 1 0.012034 -0.005044 -0.005470 0.000000 0.002140 0.000000
# 2 -0.005044 0.014232 -0.000382 0.000000 -0.002213 0.000000
# 3 -0.005470 -0.000382 0.014509 0.000000 -0.000446 0.000000
# 4 0.000000 0.000000 0.000000 0.030070 0.000000 0.000233
# 5 0.002140 -0.002213 -0.000446 0.000000 0.034463 0.000000
# 6 0.000000 0.000000 0.000000 0.000233 0.000000 0.049850
#
#
# Mechanical properties :
#
#
# Convention : Reuss Voigt Hill
#
# Bulk Modulus (GPa) = 52.67897 58.08364 55.38131
# Shear Modulus (GPa) = 27.28096 29.02865 28.15481
#
# Velocity S-wave (km/s) = 3.75852 3.87704 3.81824
# Velocity P-wave (km/s) = 6.79068 7.07944 6.93656
#
# Compressibility (1/GPa) = 0.01898291
#
# Stress axis : x y z
#
# Youngs Moduli (GPa) = 83.09517 70.26546 68.92222
#
# Poissons Ratio (x) = 0.35445 0.37698
# Poissons Ratio (y) = 0.41917 0.02634
# Poissons Ratio (z) = 0.45450 0.02685
#
# Static dielectric constant tensor:
#      x y z
#    x 3.439170 0.000000 -0.171640 
#    y 0.000000 3.701850 0.000000 
#    z -0.171640 0.000000 3.668260 
# 
# 
# High freq. dielectric constant tensor:
#      x y z
#    x 1.738590 0.000000 -0.017450 
#    y 0.000000 1.764970 0.000000 
#    z -0.017450 0.000000 1.757050 
# 
# From -- ./inp_files/251461.got.cif
#   From: 2010.06.25/outbox.cif.g09.slc.cpg/sg15_126_cif.got.tgz:251461.got - 2010.06.28 07:06:18.
