data_PCOD8134163
_publ_section_title
;
Structure prediction by ZEFSAII (Michael W. Deem and Ramdas Pophale) SiO2 
 PCOD8134163
Probable space group: C 2/C
;
_chemical_formula_sum "Si O2"
_cell_formula_units_Z 56
_cell_length_a 16.543766
_cell_length_b 26.963310
_cell_length_c 9.921352
_cell_angle_alpha 90.000000
_cell_angle_beta 139.783339
_cell_angle_gamma 90.000000
_cell_volume 2857.561707
_symmetry_space_group_name_H-M "C 2/C"
_symmetry_group_IT_number 15
_symmetry_cell_setting 'monoclinic'
loop_
_space_group_symop_operation_xyz
x,y,z
-x,y,1/2-z
-x,-y,-z
x,-y,1/2+z
1/2+x,1/2+y,z
1/2-x,1/2+y,1/2-z
1/2-x,1/2-y,-z
1/2+x,1/2-y,1/2+z
loop_
_atom_site_type_symbol
_atom_site_label
_atom_site_fract_x
_atom_site_fract_y
_atom_site_fract_z
Si Si1 0.777447 0.996273 0.303568
Si Si2 0.360375 0.600159 0.041732
Si Si3 0.605875 0.756917 0.774442
Si Si4 0.308257 0.139352 0.143467
Si Si5 0.609949 0.658496 0.661771
Si Si6 0.129789 0.467018 0.857611
Si Si7 0.848104 0.897582 0.822636
O O1 0.661369 0.005163 0.258074
O O2 0.859094 0.046079 0.391943
O O3 0.862863 0.954085 0.478385
O O4 0.734503 0.977358 0.103083
O O5 0.500000 0.616395 0.250000
O O6 0.290594 0.602135 0.096915
O O7 0.311120 0.641116 0.870444
O O8 0.500000 0.744393 0.750000
O O9 0.593820 0.814884 0.720001
O O10 0.580453 0.717798 0.619936
O O11 0.750000 0.750000 0.000000
O O12 0.383296 0.091532 0.187607
O O13 0.254064 0.132342 0.223613
O O14 0.190493 0.149043 0.897162
O O15 0.483897 0.626451 0.509985
O O16 0.000000 0.487932 0.750000
#
# Coordination Sequence:
#
# PCOD8134163 Si02
#       7
#     8   8   8   8   8   8   8
#     4  11  21  37  55  80 120 152 197 240 297 352
#     4  10  21  35  54  83 119 155 190 240 298 363
#     4  10  20  36  60  91 116 148 196 255 308 353
#     4  10  20  35  58  82 115 146 199 248 294 352
#     4  10  19  35  57  83 114 152 189 246 305 352
#     4  11  22  36  55  81 110 158 197 244 291 357
#     4  10  21  35  56  86 117 153 193 241 297 368
#
# _framework density 19.597128999999999
#
# number of rings (size 3 to 8) (size 9 to 14) (size 15 to 20)
#    0.000    1.714    2.857    3.000    0.000    4.571 
#    0.000    0.714    0.000    1.714    0.000    0.000 
#    0.000    0.000    0.000    0.000    0.000    0.000 
#
# Total GULP energy -346986.669452 kJ/mol
# GULP energy per Si atom -12392.381052 kJ/mol
# Density = 1.955252 g / cm^3
# Si number density = 19.597129 Si / 1000 Ang^3
#
#
#
# Elastic Constant Matrix: (Units=GPa)
#
#
# Indices 1 2 3 4 5 6 
#
# 1 101.4350 37.2935 34.2599 0.0000 -24.1655 0.0000
# 2 37.2935 127.3652 32.7080 0.0000 -24.6177 0.0000
# 3 34.2599 32.7080 53.3162 0.0000 -19.2207 0.0000
# 4 0.0000 0.0000 0.0000 24.4888 0.0000 -2.0337
# 5 -24.1655 -24.6177 -19.2207 0.0000 36.6730 0.0000
# 6 0.0000 0.0000 0.0000 -2.0337 0.0000 25.2725
#
#
#
# Elastic Compliance Matrix: (Units=1/GPa)
#
#
# Indices 1 2 3 4 5 6 
#
# 1 0.013606 -0.001495 -0.006110 0.000000 0.004760 0.000000
# 2 -0.001495 0.009990 -0.003829 0.000000 0.003714 0.000000
# 3 -0.006110 -0.003829 0.027930 0.000000 0.008042 0.000000
# 4 0.000000 0.000000 0.000000 0.041110 0.000000 0.003308
# 5 0.004760 0.003714 0.008042 0.000000 0.037113 0.000000
# 6 0.000000 0.000000 0.000000 0.003308 0.000000 0.039835
#
#
# Mechanical properties :
#
#
# Convention : Reuss Voigt Hill
#
# Bulk Modulus (GPa) = 34.89336 54.51546 44.70441
# Shear Modulus (GPa) = 24.75193 29.14386 26.94790
#
# Velocity S-wave (km/s) = 3.55778 3.86054 3.71225
# Velocity P-wave (km/s) = 5.89246 6.91015 6.42150
#
# Compressibility (1/GPa) = 0.02865875
#
# Stress axis : x y z
#
# Youngs Moduli (GPa) = 73.49883 100.09573 35.80332
#
# Poissons Ratio (x) = 0.14963 0.21875
# Poissons Ratio (y) = 0.10987 0.13710
# Poissons Ratio (z) = 0.44906 0.38329
#
# Static dielectric constant tensor:
#      x y z
#    x 3.889120 0.000000 -0.507430 
#    y 0.000000 4.104840 0.000000 
#    z -0.507430 0.000000 3.478120 
# 
# 
# High freq. dielectric constant tensor:
#      x y z
#    x 1.768210 0.000000 -0.017700 
#    y 0.000000 1.772130 0.000000 
#    z -0.017700 0.000000 1.732210 
# 
# From -- ./inp_files/43601.got.cif
#   From: 2010.06.25/outbox.cif.g09.slc.cpg/sg15_22_cif.got.tgz:43601.got - 2010.06.28 07:06:18.
