data_PCOD8134696
_publ_section_title
;
Structure prediction by ZEFSAII (Michael W. Deem and Ramdas Pophale) SiO2 
 PCOD8134696
Probable space group: C 2/C
;
_chemical_formula_sum "Si O2"
_cell_formula_units_Z 64
_cell_length_a 8.974000
_cell_length_b 15.114426
_cell_length_c 23.668193
_cell_angle_alpha 90.000000
_cell_angle_beta 76.703576
_cell_angle_gamma 90.000000
_cell_volume 3124.222131
_symmetry_space_group_name_H-M "C 2/C"
_symmetry_group_IT_number 15
_symmetry_cell_setting 'monoclinic'
loop_
_space_group_symop_operation_xyz
x,y,z
-x,y,1/2-z
-x,-y,-z
x,-y,1/2+z
1/2+x,1/2+y,z
1/2-x,1/2+y,1/2-z
1/2-x,1/2-y,-z
1/2+x,1/2-y,1/2+z
loop_
_atom_site_type_symbol
_atom_site_label
_atom_site_fract_x
_atom_site_fract_y
_atom_site_fract_z
Si Si1 0.962984 0.566498 0.843219
Si Si2 0.240013 0.540492 0.745490
Si Si3 0.172792 0.859564 0.807905
Si Si4 0.093586 0.745993 0.402874
Si Si5 0.559635 0.257190 0.604464
Si Si6 0.857989 0.777211 0.230019
Si Si7 0.611806 0.308608 0.990603
Si Si8 0.652469 0.100167 0.096041
O O1 0.118939 0.522103 0.806071
O O2 0.842954 0.575696 0.803352
O O3 0.989155 0.662493 0.866653
O O4 0.898440 0.501760 0.897456
O O5 0.339295 0.452784 0.724261
O O6 0.343266 0.623113 0.755428
O O7 0.213460 0.784007 0.758455
O O8 0.302527 0.865079 0.845300
O O9 0.009775 0.834237 0.849348
O O10 0.258971 0.727056 0.415853
O O11 0.115507 0.782266 0.338688
O O12 0.005946 0.822998 0.446919
O O13 0.990285 0.657750 0.414120
O O14 0.485244 0.259924 0.549336
O O15 0.000000 0.732968 0.250000
O O16 0.696934 0.395623 0.957965
O O17 0.750000 0.250000 0.000000
#
# Coordination Sequence:
#
# PCOD8134696 Si02
#       8
#     8   8   8   8   8   8   8   8
#     4  10  19  36  60  88 116 157 195 254 295 358
#     4  10  21  36  54  87 124 154 198 241 302 359
#     4  10  21  38  60  85 120 164 195 243 300 362
#     4  11  21  37  62  90 119 155 201 251 297 351
#     4  11  21  38  64  87 122 152 203 253 305 347
#     4  12  22  37  59  88 121 161 198 238 301 367
#     4   9  21  40  64  85 114 164 205 244 296 365
#     4   9  19  39  63  84 117 161 206 236 298 362
#
# _framework density 20.485099000000002
#
# number of rings (size 3 to 8) (size 9 to 14) (size 15 to 20)
#    0.000    1.750    3.750    1.125    1.750    0.500 
#    4.500    3.125    2.750    0.000    0.000    0.000 
#    0.000    0.000    0.000    0.000    0.000    0.000 
#
# Total GULP energy -396655.724312 kJ/mol
# GULP energy per Si atom -12395.491385 kJ/mol
# Density = 2.043847 g / cm^3
# Si number density = 20.485099 Si / 1000 Ang^3
#
#
#
# Elastic Constant Matrix: (Units=GPa)
#
#
# Indices 1 2 3 4 5 6 
#
# 1 102.1787 13.1404 29.2022 0.0000 -8.0067 0.0000
# 2 13.1404 85.2895 12.9145 0.0000 -8.1544 0.0000
# 3 29.2022 12.9145 90.5477 0.0000 -11.7645 0.0000
# 4 0.0000 0.0000 0.0000 23.4727 0.0000 -3.3458
# 5 -8.0067 -8.1544 -11.7645 0.0000 30.7009 0.0000
# 6 0.0000 0.0000 0.0000 -3.3458 0.0000 23.1682
#
#
#
# Elastic Compliance Matrix: (Units=1/GPa)
#
#
# Indices 1 2 3 4 5 6 
#
# 1 0.010945 -0.001073 -0.003202 0.000000 0.001342 0.000000
# 2 -0.001073 0.012299 -0.001073 0.000000 0.002575 0.000000
# 3 -0.003202 -0.001073 0.012717 0.000000 0.003753 0.000000
# 4 0.000000 0.000000 0.000000 0.043498 0.000000 0.006282
# 5 0.001342 0.002575 0.003753 0.000000 0.035045 0.000000
# 6 0.000000 0.000000 0.000000 0.006282 0.000000 0.044070
#
#
# Mechanical properties :
#
#
# Convention : Reuss Voigt Hill
#
# Bulk Modulus (GPa) = 39.58269 43.16999 41.37634
# Shear Modulus (GPa) = 28.13840 30.31895 29.22867
#
# Velocity S-wave (km/s) = 3.71024 3.85131 3.78143
# Velocity P-wave (km/s) = 6.14159 6.39503 6.26959
#
# Compressibility (1/GPa) = 0.02526357
#
# Stress axis : x y z
#
# Youngs Moduli (GPa) = 91.36429 81.30821 78.63227
#
# Poissons Ratio (x) = 0.08725 0.25182
# Poissons Ratio (y) = 0.09804 0.08441
# Poissons Ratio (z) = 0.29259 0.08728
#
# Static dielectric constant tensor:
#      x y z
#    x 3.849330 0.000000 -0.240340 
#    y 0.000000 3.457450 0.000000 
#    z -0.240340 0.000000 3.944590 
# 
# 
# High freq. dielectric constant tensor:
#      x y z
#    x 1.803090 0.000000 -0.011630 
#    y 0.000000 1.778600 0.000000 
#    z -0.011630 0.000000 1.800940 
# 
# From -- ./inp_files/288776.got.cif
#   From: 2010.06.25/outbox.cif.g09.slc.cpg/sg15_145_cif.got.tgz:288776.got - 2010.06.28 07:06:18.
