data_PCOD8134271
_publ_section_title
;
Structure prediction by ZEFSAII (Michael W. Deem and Ramdas Pophale) SiO2 
 PCOD8134271
Probable space group: C 2/C
;
_chemical_formula_sum "Si O2"
_cell_formula_units_Z 64
_cell_length_a 23.356248
_cell_length_b 18.597323
_cell_length_c 14.257773
_cell_angle_alpha 90.000000
_cell_angle_beta 149.564108
_cell_angle_gamma 90.000000
_cell_volume 3137.242430
_symmetry_space_group_name_H-M "C 2/C"
_symmetry_group_IT_number 15
_symmetry_cell_setting 'monoclinic'
loop_
_space_group_symop_operation_xyz
x,y,z
-x,y,1/2-z
-x,-y,-z
x,-y,1/2+z
1/2+x,1/2+y,z
1/2-x,1/2+y,1/2-z
1/2-x,1/2-y,-z
1/2+x,1/2-y,1/2+z
loop_
_atom_site_type_symbol
_atom_site_label
_atom_site_fract_x
_atom_site_fract_y
_atom_site_fract_z
Si Si1 0.730770 0.296320 0.839341
Si Si2 0.281395 0.861104 0.619428
Si Si3 0.824392 0.986245 0.515437
Si Si4 0.186155 0.351976 0.352815
Si Si5 0.063568 0.327059 0.500852
Si Si6 0.522479 0.541310 0.436574
Si Si7 0.391929 0.747244 0.654989
Si Si8 0.986749 0.818330 0.472980
O O1 0.709296 0.210028 0.807623
O O2 0.846972 0.320161 0.955749
O O3 0.619313 0.332339 0.635099
O O4 0.737321 0.328347 0.952268
O O5 0.378538 0.872034 0.833695
O O6 0.334790 0.823181 0.602251
O O7 0.189597 0.801557 0.525833
O O8 0.224290 0.937472 0.517740
O O9 0.724938 0.928285 0.366407
O O10 0.880204 0.994426 0.490892
O O11 0.910768 0.956801 0.715124
O O12 0.054215 0.364322 0.194975
O O13 0.024612 0.249344 0.476935
O O14 0.500000 0.500000 0.500000
O O15 0.562215 0.618889 0.530048
O O16 0.500000 0.770271 0.750000
O O17 0.418155 0.694657 0.780338
#
# Coordination Sequence:
#
# PCOD8134271 Si02
#       8
#     8   8   8   8   8   8   8   8
#     4  10  19  35  59  85 119 154 206 256 295 359
#     4  10  23  39  59  91 119 161 206 248 312 369
#     4  11  24  41  61  88 132 160 194 260 315 368
#     4  10  21  37  57  87 119 163 201 244 311 362
#     4  10  21  36  59  85 116 161 205 249 294 358
#     4  11  24  39  61  93 120 159 201 250 315 369
#     4  10  21  39  65  89 120 161 209 264 303 356
#     4  10  20  37  60  89 119 153 210 253 307 361
#
# _framework density 20.400081
#
# number of rings (size 3 to 8) (size 9 to 14) (size 15 to 20)
#    0.000    1.750    1.250    2.625    5.250    0.500 
#    0.000    6.250    0.000    0.000    0.000    0.000 
#    0.000    0.000    0.000    0.000    0.000    0.000 
#
# Total GULP energy -396592.066799 kJ/mol
# GULP energy per Si atom -12393.502087 kJ/mol
# Density = 2.035365 g / cm^3
# Si number density = 20.400081 Si / 1000 Ang^3
#
#
#
# Elastic Constant Matrix: (Units=GPa)
#
#
# Indices 1 2 3 4 5 6 
#
# 1 90.8758 43.5464 23.1232 0.0000 13.6803 0.0000
# 2 43.5464 106.2389 20.8926 0.0000 10.0009 0.0000
# 3 23.1232 20.8926 74.7446 0.0000 14.0986 0.0000
# 4 0.0000 0.0000 0.0000 24.7640 0.0000 6.9154
# 5 13.6803 10.0009 14.0986 0.0000 36.4753 0.0000
# 6 0.0000 0.0000 0.0000 6.9154 0.0000 20.3065
#
#
#
# Elastic Compliance Matrix: (Units=1/GPa)
#
#
# Indices 1 2 3 4 5 6 
#
# 1 0.014593 -0.005204 -0.002477 0.000000 -0.003089 0.000000
# 2 -0.005204 0.011925 -0.001591 0.000000 -0.000703 0.000000
# 3 -0.002477 -0.001591 0.015460 0.000000 -0.004610 0.000000
# 4 0.000000 0.000000 0.000000 0.044625 0.000000 -0.015197
# 5 -0.003089 -0.000703 -0.004610 0.000000 0.030549 0.000000
# 6 0.000000 0.000000 0.000000 -0.015197 0.000000 0.054421
#
#
# Mechanical properties :
#
#
# Convention : Reuss Voigt Hill
#
# Bulk Modulus (GPa) = 42.67359 49.66485 46.16922
# Shear Modulus (GPa) = 25.26190 28.59563 26.92877
#
# Velocity S-wave (km/s) = 3.52280 3.74804 3.63717
# Velocity P-wave (km/s) = 6.12459 6.56725 6.34978
#
# Compressibility (1/GPa) = 0.02343370
#
# Stress axis : x y z
#
# Youngs Moduli (GPa) = 68.52684 83.85995 64.68499
#
# Poissons Ratio (x) = 0.43637 0.16025
# Poissons Ratio (y) = 0.35658 0.10290
# Poissons Ratio (z) = 0.16976 0.13340
#
# Static dielectric constant tensor:
#      x y z
#    x 3.919730 0.000000 0.211990 
#    y 0.000000 3.845280 0.000000 
#    z 0.211990 0.000000 3.951150 
# 
# 
# High freq. dielectric constant tensor:
#      x y z
#    x 1.789210 0.000000 0.008560 
#    y 0.000000 1.780300 0.000000 
#    z 0.008560 0.000000 1.807600 
# 
# From -- ./inp_files/174248.got.cif
#   From: 2010.06.25/outbox.cif.g09.slc.cpg/sg15_88_cif.got.tgz:174248.got - 2010.06.28 07:06:18.
