data_PCOD8134873
_publ_section_title
;
Structure prediction by ZEFSAII (Michael W. Deem and Ramdas Pophale) SiO2 
 PCOD8134873
Probable space group: C 2/C
;
_chemical_formula_sum "Si O2"
_cell_formula_units_Z 60
_cell_length_a 22.706027
_cell_length_b 9.332177
_cell_length_c 21.283105
_cell_angle_alpha 90.000000
_cell_angle_beta 142.129299
_cell_angle_gamma 90.000000
_cell_volume 2768.494906
_symmetry_space_group_name_H-M "C 2/C"
_symmetry_group_IT_number 15
_symmetry_cell_setting 'monoclinic'
loop_
_space_group_symop_operation_xyz
x,y,z
-x,y,1/2-z
-x,-y,-z
x,-y,1/2+z
1/2+x,1/2+y,z
1/2-x,1/2+y,1/2-z
1/2-x,1/2-y,-z
1/2+x,1/2-y,1/2+z
loop_
_atom_site_type_symbol
_atom_site_label
_atom_site_fract_x
_atom_site_fract_y
_atom_site_fract_z
Si Si1 0.500000 0.392915 0.250000
Si Si2 0.097063 0.432755 0.606145
Si Si3 0.724139 0.314950 0.567738
Si Si4 0.005310 0.609144 0.827220
Si Si5 0.016904 0.295626 0.882768
Si Si6 0.172761 0.303483 0.545209
Si Si7 0.294330 0.532218 0.575886
Si Si8 0.301800 0.937958 0.204272
O O1 0.523399 0.293498 0.209679
O O2 0.591796 0.495480 0.335761
O O3 0.155455 0.380457 0.596113
O O4 0.170232 0.550413 0.698281
O O5 0.000000 0.500000 0.500000
O O6 0.062686 0.312948 0.628854
O O7 0.611971 0.285634 0.487474
O O8 0.745684 0.416323 0.525257
O O9 0.776632 0.163098 0.608123
O O10 0.776775 0.397346 0.667911
O O11 0.046492 0.452579 0.881003
O O12 0.000000 0.639277 0.750000
O O13 0.896301 0.629767 0.754435
O O14 0.074947 0.721030 0.922804
O O15 0.246113 0.387540 0.561123
O O16 0.212953 0.152522 0.603440
#
# Coordination Sequence:
#
# PCOD8134873 Si02
#       8
#     4   8   8   8   8   8   8   8
#     4  10  20  34  60 102 130 156 230 286 338 376
#     4  11  22  43  68  90 127 181 234 274 334 414
#     4  10  20  38  64  99 130 169 231 281 341 397
#     4  11  21  41  70  93 135 181 224 273 342 412
#     4  10  19  36  66  96 125 170 225 286 324 394
#     4  12  25  45  67  98 139 182 232 276 346 419
#     4  10  20  37  64  93 133 173 216 283 336 403
#     4  11  26  42  65 101 132 177 225 279 342 408
#
# _framework density 21.672426000000002
#
# number of rings (size 3 to 8) (size 9 to 14) (size 15 to 20)
#    0.000    1.333    4.667    2.400    1.867    5.333 
#    6.000    0.667    0.000    0.000    0.000    0.000 
#    0.000    0.000    0.000    0.000    0.000    0.000 
#
# Total GULP energy -371677.291967 kJ/mol
# GULP energy per Si atom -12389.243066 kJ/mol
# Density = 2.162310 g / cm^3
# Si number density = 21.672426 Si / 1000 Ang^3
#
#
#
# Elastic Constant Matrix: (Units=GPa)
#
#
# Indices 1 2 3 4 5 6 
#
# 1 78.6602 5.8789 20.1576 0.0000 -7.6944 0.0000
# 2 5.8789 42.7633 27.2784 0.0000 0.3440 0.0000
# 3 20.1576 27.2784 133.8637 0.0000 -0.5730 0.0000
# 4 0.0000 0.0000 0.0000 35.0758 0.0000 0.8035
# 5 -7.6944 0.3440 -0.5730 0.0000 36.9454 0.0000
# 6 0.0000 0.0000 0.0000 0.8035 0.0000 26.3608
#
#
#
# Elastic Compliance Matrix: (Units=1/GPa)
#
#
# Indices 1 2 3 4 5 6 
#
# 1 0.013520 -0.000678 -0.001886 0.000000 0.002793 0.000000
# 2 -0.000678 0.026917 -0.005385 0.000000 -0.000475 0.000000
# 3 -0.001886 -0.005385 0.008851 0.000000 -0.000205 0.000000
# 4 0.000000 0.000000 0.000000 0.028530 0.000000 -0.000870
# 5 0.002793 -0.000475 -0.000205 0.000000 0.027650 0.000000
# 6 0.000000 0.000000 0.000000 -0.000870 0.000000 0.037962
#
#
# Mechanical properties :
#
#
# Convention : Reuss Voigt Hill
#
# Bulk Modulus (GPa) = 29.94947 40.21298 35.08123
# Shear Modulus (GPa) = 29.33309 33.14122 31.23716
#
# Velocity S-wave (km/s) = 3.68295 3.91473 3.80061
# Velocity P-wave (km/s) = 5.65108 6.24729 5.95665
#
# Compressibility (1/GPa) = 0.03338957
#
# Stress axis : x y z
#
# Youngs Moduli (GPa) = 73.96433 37.15183 112.98566
#
# Poissons Ratio (x) = 0.02520 0.21306
# Poissons Ratio (y) = 0.05017 0.60841
# Poissons Ratio (z) = 0.13948 0.20006
#
# Static dielectric constant tensor:
#      x y z
#    x 3.751680 0.000000 -0.092510 
#    y 0.000000 3.161570 0.000000 
#    z -0.092510 0.000000 4.229440 
# 
# 
# High freq. dielectric constant tensor:
#      x y z
#    x 1.842550 0.000000 0.003940 
#    y 0.000000 1.816230 0.000000 
#    z 0.003940 0.000000 1.877000 
# 
# From -- ./inp_files/255179.got.cif
#   From: 2010.06.25/outbox.cif.g09.slc.cpg/sg15_128_cif.got.tgz:255179.got - 2010.06.28 07:06:18.
