data_PCOD8134723
_publ_section_title
;
Structure prediction by ZEFSAII (Michael W. Deem and Ramdas Pophale) SiO2 
 PCOD8134723
Probable space group: C 2/C
;
_chemical_formula_sum "Si O2"
_cell_formula_units_Z 56
_cell_length_a 10.008575
_cell_length_b 33.909535
_cell_length_c 13.959311
_cell_angle_alpha 90.000000
_cell_angle_beta 36.884166
_cell_angle_gamma 90.000000
_cell_volume 2843.501628
_symmetry_space_group_name_H-M "C 2/C"
_symmetry_group_IT_number 15
_symmetry_cell_setting 'monoclinic'
loop_
_space_group_symop_operation_xyz
x,y,z
-x,y,1/2-z
-x,-y,-z
x,-y,1/2+z
1/2+x,1/2+y,z
1/2-x,1/2+y,1/2-z
1/2-x,1/2-y,-z
1/2+x,1/2-y,1/2+z
loop_
_atom_site_type_symbol
_atom_site_label
_atom_site_fract_x
_atom_site_fract_y
_atom_site_fract_z
Si Si1 0.801132 0.905275 0.438015
Si Si2 0.242636 0.955352 0.632214
Si Si3 0.257511 0.655281 0.126713
Si Si4 0.637295 0.872272 0.896786
Si Si5 0.458336 0.982241 0.881894
Si Si6 0.926579 0.295927 0.445902
Si Si7 0.642190 0.283515 0.425998
O O1 0.849402 0.879699 0.505721
O O2 0.606772 0.884380 0.493192
O O3 0.738827 0.949990 0.501993
O O4 0.000000 0.906553 0.250000
O O5 0.246107 0.908379 0.614208
O O6 0.318799 0.964133 0.697803
O O7 0.000000 0.972356 0.750000
O O8 0.407247 0.977039 0.464860
O O9 0.279805 0.639953 0.222290
O O10 0.000000 0.666643 0.250000
O O11 0.418067 0.693204 0.024989
O O12 0.611664 0.837769 0.986192
O O13 0.500000 0.994325 0.750000
O O14 0.728138 0.293510 0.482927
O O15 0.908709 0.263274 0.540559
O O16 0.169689 0.292614 0.259762
#
# Coordination Sequence:
#
# PCOD8134723 Si02
#       7
#     8   8   8   8   8   8   8
#     4  10  19  36  61  83 114 154 191 234 294 356
#     4  10  22  38  59  88 116 156 201 244 298 356
#     4  10  21  37  59  89 117 154 200 239 298 358
#     4  10  21  37  56  85 118 148 191 247 288 345
#     4  10  21  41  60  84 122 156 198 247 300 362
#     4  10  21  38  59  83 115 153 193 242 296 344
#     4  10  21  38  59  84 114 154 198 237 293 356
#
# _framework density 19.694027999999999
#
# number of rings (size 3 to 8) (size 9 to 14) (size 15 to 20)
#    0.000    2.000    0.000    4.286    2.000    1.714 
#    2.571   11.429    0.000    0.000    0.000    0.000 
#    0.000    0.000    0.000    0.000    0.000    0.000 
#
# Total GULP energy -347163.117903 kJ/mol
# GULP energy per Si atom -12398.682782 kJ/mol
# Density = 1.964920 g / cm^3
# Si number density = 19.694028 Si / 1000 Ang^3
#
#
#
# Elastic Constant Matrix: (Units=GPa)
#
#
# Indices 1 2 3 4 5 6 
#
# 1 62.7885 40.7718 43.9346 0.0000 6.6496 0.0000
# 2 40.7718 118.3372 26.9238 0.0000 5.7208 0.0000
# 3 43.9346 26.9238 89.6669 0.0000 3.7955 0.0000
# 4 0.0000 0.0000 0.0000 17.7491 0.0000 9.7602
# 5 6.6496 5.7208 3.7955 0.0000 31.7307 0.0000
# 6 0.0000 0.0000 0.0000 9.7602 0.0000 27.1871
#
#
#
# Elastic Compliance Matrix: (Units=1/GPa)
#
#
# Indices 1 2 3 4 5 6 
#
# 1 0.029464 -0.007228 -0.012122 0.000000 -0.003421 0.000000
# 2 -0.007228 0.010898 0.000290 0.000000 -0.000485 0.000000
# 3 -0.012122 0.000290 0.016985 0.000000 0.000456 0.000000
# 4 0.000000 0.000000 0.000000 0.070199 0.000000 -0.025202
# 5 -0.003421 -0.000485 0.000456 0.000000 0.032265 0.000000
# 6 0.000000 0.000000 0.000000 -0.025202 0.000000 0.045830
#
#
# Mechanical properties :
#
#
# Convention : Reuss Voigt Hill
#
# Bulk Modulus (GPa) = 52.00781 54.89477 53.45129
# Shear Modulus (GPa) = 19.98632 25.94421 22.96526
#
# Velocity S-wave (km/s) = 3.18911 3.63349 3.41853
# Velocity P-wave (km/s) = 6.32660 6.74813 6.54076
#
# Compressibility (1/GPa) = 0.01922788
#
# Stress axis : x y z
#
# Youngs Moduli (GPa) = 33.93937 91.75680 58.87444
#
# Poissons Ratio (x) = 0.66325 0.71365
# Poissons Ratio (y) = 0.24533 -0.01706
# Poissons Ratio (z) = 0.41140 -0.02659
#
# Static dielectric constant tensor:
#      x y z
#    x 3.599700 0.000000 -0.007110 
#    y 0.000000 3.749510 0.000000 
#    z -0.007110 0.000000 3.570610 
# 
# 
# High freq. dielectric constant tensor:
#      x y z
#    x 1.762510 0.000000 0.000770 
#    y 0.000000 1.776950 0.000000 
#    z 0.000770 0.000000 1.765740 
# 
# From -- ./inp_files/149251.got.cif
#   From: 2010.06.25/outbox.cif.g09.slc.cpg/sg15_75_cif.got.tgz:149251.got - 2010.06.28 07:06:18.
