data_PCOD8134506
_publ_section_title
;
Structure prediction by ZEFSAII (Michael W. Deem and Ramdas Pophale) SiO2 
 PCOD8134506
Probable space group: C 2/C
;
_chemical_formula_sum "Si O2"
_cell_formula_units_Z 56
_cell_length_a 15.675163
_cell_length_b 9.699322
_cell_length_c 22.316573
_cell_angle_alpha 90.000000
_cell_angle_beta 118.555726
_cell_angle_gamma 90.000000
_cell_volume 2980.230422
_symmetry_space_group_name_H-M "C 2/C"
_symmetry_group_IT_number 15
_symmetry_cell_setting 'monoclinic'
loop_
_space_group_symop_operation_xyz
x,y,z
-x,y,1/2-z
-x,-y,-z
x,-y,1/2+z
1/2+x,1/2+y,z
1/2-x,1/2+y,1/2-z
1/2-x,1/2-y,-z
1/2+x,1/2-y,1/2+z
loop_
_atom_site_type_symbol
_atom_site_label
_atom_site_fract_x
_atom_site_fract_y
_atom_site_fract_z
Si Si1 0.935051 0.122771 0.457211
Si Si2 0.395889 0.258379 0.192556
Si Si3 0.355986 0.689740 0.546800
Si Si4 0.607630 0.221419 0.804736
Si Si5 0.753980 0.473582 0.669960
Si Si6 0.627499 0.516220 0.238945
Si Si7 0.442514 0.409814 0.608283
O O1 0.919587 0.228461 0.508197
O O2 0.995337 0.179635 0.420273
O O3 0.830299 0.063178 0.404669
O O4 0.000000 0.000000 0.500000
O O5 0.500000 0.210908 0.250000
O O6 0.395033 0.240309 0.120335
O O7 0.367670 0.413419 0.202960
O O8 0.319357 0.160855 0.199789
O O9 0.250000 0.750000 0.500000
O O10 0.364642 0.521414 0.556067
O O11 0.500000 0.169551 0.750000
O O12 0.681462 0.096231 0.834678
O O13 0.644206 0.328755 0.767073
O O14 0.610863 0.295192 0.870403
O O15 0.710975 0.519467 0.719476
O O16 0.520128 0.501945 0.173824
#
# Coordination Sequence:
#
# PCOD8134506 Si02
#       7
#     8   8   8   8   8   8   8
#     4   9  20  36  56  81 107 150 193 228 266 346
#     4  12  21  36  61  87 113 148 193 239 287 336
#     4  11  19  35  59  86 111 145 197 238 278 333
#     4  10  19  36  56  84 120 150 184 233 291 345
#     4  11  22  34  56  91 118 142 185 245 295 325
#     4  10  19  36  58  84 111 154 195 227 273 348
#     4   9  18  36  60  81 107 153 194 225 275 346
#
# _framework density 18.790493000000001
#
# number of rings (size 3 to 8) (size 9 to 14) (size 15 to 20)
#    0.000    1.714    4.286    1.714    0.000    0.000 
#    0.000    2.857    0.000    0.857    0.000    0.000 
#    0.000    0.000    0.000    0.000    0.000    0.000 
#
# Total GULP energy -346995.167122 kJ/mol
# GULP energy per Si atom -12392.684540 kJ/mol
# Density = 1.874772 g / cm^3
# Si number density = 18.790493 Si / 1000 Ang^3
#
#
#
# Elastic Constant Matrix: (Units=GPa)
#
#
# Indices 1 2 3 4 5 6 
#
# 1 122.3917 43.4123 52.6169 0.0000 -10.7255 0.0000
# 2 43.4123 60.2024 22.1371 0.0000 1.9994 0.0000
# 3 52.6169 22.1371 105.9286 0.0000 -7.8637 0.0000
# 4 0.0000 0.0000 0.0000 9.7281 0.0000 2.0966
# 5 -10.7255 1.9994 -7.8637 0.0000 37.3848 0.0000
# 6 0.0000 0.0000 0.0000 2.0966 0.0000 33.3877
#
#
#
# Elastic Compliance Matrix: (Units=1/GPa)
#
#
# Indices 1 2 3 4 5 6 
#
# 1 0.013305 -0.007974 -0.004701 0.000000 0.003255 0.000000
# 2 -0.007974 0.022890 -0.001101 0.000000 -0.003743 0.000000
# 3 -0.004701 -0.001101 0.012098 0.000000 0.001255 0.000000
# 4 0.000000 0.000000 0.000000 0.104206 0.000000 -0.006544
# 5 0.003255 -0.003743 0.001255 0.000000 0.028147 0.000000
# 6 0.000000 0.000000 0.000000 -0.006544 0.000000 0.030362
#
#
# Mechanical properties :
#
#
# Convention : Reuss Voigt Hill
#
# Bulk Modulus (GPa) = 48.21016 58.31723 53.26370
# Shear Modulus (GPa) = 20.36887 27.45720 23.91303
#
# Velocity S-wave (km/s) = 3.29599 3.82675 3.57124
# Velocity P-wave (km/s) = 6.34012 7.11535 6.73889
#
# Compressibility (1/GPa) = 0.02074251
#
# Stress axis : x y z
#
# Youngs Moduli (GPa) = 75.16002 43.68784 82.65489
#
# Poissons Ratio (x) = 0.34836 0.38855
# Poissons Ratio (y) = 0.59931 0.09097
# Poissons Ratio (z) = 0.35331 0.04808
#
# Static dielectric constant tensor:
#      x y z
#    x 4.353880 0.000000 -0.700700 
#    y 0.000000 3.105390 0.000000 
#    z -0.700700 0.000000 3.914830 
# 
# 
# High freq. dielectric constant tensor:
#      x y z
#    x 1.744460 0.000000 -0.017210 
#    y 0.000000 1.692540 0.000000 
#    z -0.017210 0.000000 1.734680 
# 
# From -- ./inp_files/273239.got.cif
#   From: 2010.06.25/outbox.cif.g09.slc.cpg/sg15_137_cif.got.tgz:273239.got - 2010.06.28 07:06:18.
