data_PCOD8134565
_publ_section_title
;
Structure prediction by ZEFSAII (Michael W. Deem and Ramdas Pophale) SiO2 
 PCOD8134565
Probable space group: C 2/C
;
_chemical_formula_sum "Si O2"
_cell_formula_units_Z 48
_cell_length_a 17.247101
_cell_length_b 29.452931
_cell_length_c 9.200959
_cell_angle_alpha 90.000000
_cell_angle_beta 32.049892
_cell_angle_gamma 90.000000
_cell_volume 2480.230537
_symmetry_space_group_name_H-M "C 2/C"
_symmetry_group_IT_number 15
_symmetry_cell_setting 'monoclinic'
loop_
_space_group_symop_operation_xyz
x,y,z
-x,y,1/2-z
-x,-y,-z
x,-y,1/2+z
1/2+x,1/2+y,z
1/2-x,1/2+y,1/2-z
1/2-x,1/2-y,-z
1/2+x,1/2-y,1/2+z
loop_
_atom_site_type_symbol
_atom_site_label
_atom_site_fract_x
_atom_site_fract_y
_atom_site_fract_z
Si Si1 0.153941 0.279740 0.048729
Si Si2 0.323070 0.959091 0.899302
Si Si3 0.338492 0.617247 0.007591
Si Si4 0.148364 0.380661 0.087631
Si Si5 0.663023 0.044773 0.798573
Si Si6 0.662074 0.718384 0.528406
O O1 0.119636 0.328302 0.179163
O O2 0.000000 0.256024 0.250000
O O3 0.250000 0.250000 0.000000
O O4 0.245654 0.285518 0.760933
O O5 0.495596 0.961940 0.606388
O O6 0.265275 0.004686 0.912129
O O7 0.271846 0.913582 0.904723
O O8 0.261586 0.956143 0.162245
O O9 0.500000 0.595614 0.750000
O O10 0.348597 0.665716 0.905551
O O11 0.282925 0.618710 0.261944
O O12 0.187891 0.408597 0.170040
O O13 0.000000 0.400916 0.250000
O O14 0.500000 0.738213 0.750000
O O15 0.750000 0.750000 0.500000
#
# Coordination Sequence:
#
# PCOD8134565 Si02
#       6
#     8   8   8   8   8   8
#     4  10  21  36  57  82 112 149 191 238 287 340
#     4  10  20  35  56  87 113 145 186 236 286 334
#     4  10  21  38  57  81 117 153 186 232 293 344
#     4  10  19  36  58  80 110 149 191 231 280 336
#     4  10  20  34  59  85 112 142 191 240 278 330
#     4  10  21  38  58  83 116 155 193 238 292 345
#
# _framework density 19.35304
#
# number of rings (size 3 to 8) (size 9 to 14) (size 15 to 20)
#    0.000    2.000    1.667    2.000    2.333    1.333 
#    3.000    4.167    0.000    0.000    0.000    0.000 
#    0.000    0.000    0.000    0.000    0.000    0.000 
#
# Total GULP energy -297439.612862 kJ/mol
# GULP energy per Si atom -12393.317203 kJ/mol
# Density = 1.930899 g / cm^3
# Si number density = 19.353040 Si / 1000 Ang^3
#
#
#
# Elastic Constant Matrix: (Units=GPa)
#
#
# Indices 1 2 3 4 5 6 
#
# 1 104.7785 61.6356 28.8035 0.0000 13.6200 0.0000
# 2 61.6356 101.1900 17.9579 0.0000 13.4690 0.0000
# 3 28.8035 17.9579 79.8889 0.0000 -0.0771 0.0001
# 4 0.0000 0.0000 0.0000 34.0196 0.0000 7.7671
# 5 13.6200 13.4690 -0.0771 0.0000 37.7067 0.0000
# 6 0.0000 0.0000 0.0001 7.7671 0.0000 31.5726
#
#
#
# Elastic Compliance Matrix: (Units=1/GPa)
#
#
# Indices 1 2 3 4 5 6 
#
# 1 0.016110 -0.008773 -0.003839 0.000000 -0.002693 0.000000
# 2 -0.008773 0.015608 -0.000348 0.000000 -0.002407 0.000000
# 3 -0.003839 -0.000348 0.013981 0.000000 0.001539 0.000000
# 4 0.000000 0.000000 0.000000 0.031144 0.000000 -0.007662
# 5 -0.002693 -0.002407 0.001539 0.000000 0.028356 0.000000
# 6 0.000000 0.000000 0.000000 -0.007662 0.000000 0.033558
#
#
# Mechanical properties :
#
#
# Convention : Reuss Voigt Hill
#
# Bulk Modulus (GPa) = 50.55610 55.85014 53.20312
# Shear Modulus (GPa) = 29.19364 32.49049 30.84207
#
# Velocity S-wave (km/s) = 3.88813 4.10180 3.99639
# Velocity P-wave (km/s) = 6.80709 7.16619 6.98895
#
# Compressibility (1/GPa) = 0.01978001
#
# Stress axis : x y z
#
# Youngs Moduli (GPa) = 62.07318 64.06886 71.52485
#
# Poissons Ratio (x) = 0.56207 0.27458
# Poissons Ratio (y) = 0.54457 0.02487
# Poissons Ratio (z) = 0.23830 0.02228
#
# Static dielectric constant tensor:
#      x y z
#    x 3.232880 0.000000 0.015280 
#    y 0.000000 3.754810 0.000000 
#    z 0.015280 0.000000 3.632220 
# 
# 
# High freq. dielectric constant tensor:
#      x y z
#    x 1.734520 0.000000 0.007590 
#    y 0.000000 1.753410 0.000000 
#    z 0.007590 0.000000 1.753650 
# 
# From -- ./inp_files/43794.got.cif
#   From: 2010.06.25/outbox.cif.g09.slc.cpg/sg15_22_cif.got.tgz:43794.got - 2010.06.28 07:06:18.
