data_PCOD8134392
_publ_section_title
;
Structure prediction by ZEFSAII (Michael W. Deem and Ramdas Pophale) SiO2 
 PCOD8134392
Probable space group: C 2/C
;
_chemical_formula_sum "Si O2"
_cell_formula_units_Z 60
_cell_length_a 14.350568
_cell_length_b 14.881203
_cell_length_c 15.292352
_cell_angle_alpha 90.000000
_cell_angle_beta 115.739213
_cell_angle_gamma 90.000000
_cell_volume 2941.712058
_symmetry_space_group_name_H-M "C 2/C"
_symmetry_group_IT_number 15
_symmetry_cell_setting 'monoclinic'
loop_
_space_group_symop_operation_xyz
x,y,z
-x,y,1/2-z
-x,-y,-z
x,-y,1/2+z
1/2+x,1/2+y,z
1/2-x,1/2+y,1/2-z
1/2-x,1/2-y,-z
1/2+x,1/2-y,1/2+z
loop_
_atom_site_type_symbol
_atom_site_label
_atom_site_fract_x
_atom_site_fract_y
_atom_site_fract_z
Si Si1 0.272417 0.790744 0.915224
Si Si2 0.903053 0.700054 0.766769
Si Si3 0.822034 0.127203 0.562522
Si Si4 0.333335 0.017871 0.479416
Si Si5 0.638646 0.766554 0.053433
Si Si6 0.051985 0.481425 0.143438
Si Si7 0.000000 0.826630 0.250000
Si Si8 0.454914 0.814333 0.870609
O O1 0.197734 0.743718 0.815634
O O2 0.387553 0.777630 0.924690
O O3 0.250000 0.750000 0.000000
O O4 0.264635 0.898096 0.919441
O O5 0.909077 0.734507 0.869094
O O6 0.902940 0.589811 0.767462
O O7 0.000000 0.735584 0.750000
O O8 0.754856 0.196560 0.593701
O O9 0.860045 0.165346 0.484686
O O10 0.921562 0.108744 0.665156
O O11 0.754739 0.040813 0.510460
O O12 0.429526 0.043089 0.582039
O O13 0.384361 0.962563 0.419666
O O14 0.569757 0.824331 0.956686
O O15 0.072150 0.585651 0.178272
O O16 0.939751 0.758833 0.289691
#
# Coordination Sequence:
#
# PCOD8134392 Si02
#       8
#     8   8   8   8   8   8   4   8
#     4  11  24  41  58  83 121 169 202 250 311 371
#     4  12  23  38  59  87 124 162 204 253 307 377
#     4  10  19  36  62  89 125 160 194 253 305 372
#     4  10  19  39  64  87 122 156 200 257 311 358
#     4  10  19  36  63  90 120 158 200 248 314 361
#     4  10  19  35  62  95 118 151 205 259 307 353
#     4  10  22  34  58  98 130 160 196 242 310 376
#     4  10  20  37  62  92 126 152 200 259 306 369
#
# _framework density 20.396286
#
# number of rings (size 3 to 8) (size 9 to 14) (size 15 to 20)
#    0.000    1.600    2.667    4.000    0.933    0.000 
#    1.200    1.333    0.000    2.400    0.000    0.000 
#    0.000    0.000    0.000    0.000    0.000    0.000 
#
# Total GULP energy -371712.846339 kJ/mol
# GULP energy per Si atom -12390.428211 kJ/mol
# Density = 2.034986 g / cm^3
# Si number density = 20.396286 Si / 1000 Ang^3
#
#
#
# Elastic Constant Matrix: (Units=GPa)
#
#
# Indices 1 2 3 4 5 6 
#
# 1 93.4453 47.1309 32.5969 0.0000 -8.0095 0.0000
# 2 47.1309 95.5826 40.8556 0.0000 8.0009 0.0000
# 3 32.5969 40.8556 79.2426 0.0000 -3.7756 0.0000
# 4 0.0000 0.0000 0.0000 26.7587 0.0000 5.0878
# 5 -8.0095 8.0009 -3.7756 0.0000 43.7410 0.0000
# 6 0.0000 0.0000 0.0000 5.0878 0.0000 33.8120
#
#
#
# Elastic Compliance Matrix: (Units=1/GPa)
#
#
# Indices 1 2 3 4 5 6 
#
# 1 0.015365 -0.006763 -0.002652 0.000000 0.003822 0.000000
# 2 -0.006763 0.016818 -0.006120 0.000000 -0.004843 0.000000
# 3 -0.002652 -0.006120 0.016965 0.000000 0.002098 0.000000
# 4 0.000000 0.000000 0.000000 0.038472 0.000000 -0.005789
# 5 0.003822 -0.004843 0.002098 0.000000 0.024629 0.000000
# 6 0.000000 0.000000 0.000000 -0.005789 0.000000 0.030446
#
#
# Mechanical properties :
#
#
# Convention : Reuss Voigt Hill
#
# Bulk Modulus (GPa) = 55.30993 56.60416 55.95704
# Shear Modulus (GPa) = 27.81017 30.70814 29.25915
#
# Velocity S-wave (km/s) = 3.69655 3.88438 3.79163
# Velocity P-wave (km/s) = 6.73765 6.92317 6.83104
#
# Compressibility (1/GPa) = 0.01807994
#
# Stress axis : x y z
#
# Youngs Moduli (GPa) = 65.08325 59.45980 58.94333
#
# Poissons Ratio (x) = 0.40212 0.15629
# Poissons Ratio (y) = 0.44015 0.36072
# Poissons Ratio (z) = 0.17258 0.36388
#
# Static dielectric constant tensor:
#      x y z
#    x 3.898310 0.000000 -0.017070 
#    y 0.000000 3.603890 0.000000 
#    z -0.017070 0.000000 3.693710 
# 
# 
# High freq. dielectric constant tensor:
#      x y z
#    x 1.799840 0.000000 -0.006150 
#    y 0.000000 1.779640 0.000000 
#    z -0.006150 0.000000 1.785280 
# 
# From -- ./inp_files/154039.got.cif
#   From: 2010.06.25/outbox.cif.g09.slc.cpg/sg15_78_cif.got.tgz:154039.got - 2010.06.28 07:06:18.
