data_PCOD8134577
_publ_section_title
;
Structure prediction by ZEFSAII (Michael W. Deem and Ramdas Pophale) SiO2 
 PCOD8134577
Probable space group: C 2/C
;
_chemical_formula_sum "Si O2"
_cell_formula_units_Z 48
_cell_length_a 19.260968
_cell_length_b 18.486114
_cell_length_c 14.468938
_cell_angle_alpha 90.000000
_cell_angle_beta 149.188114
_cell_angle_gamma 90.000000
_cell_volume 2638.868871
_symmetry_space_group_name_H-M "C 2/C"
_symmetry_group_IT_number 15
_symmetry_cell_setting 'monoclinic'
loop_
_space_group_symop_operation_xyz
x,y,z
-x,y,1/2-z
-x,-y,-z
x,-y,1/2+z
1/2+x,1/2+y,z
1/2-x,1/2+y,1/2-z
1/2-x,1/2-y,-z
1/2+x,1/2-y,1/2+z
loop_
_atom_site_type_symbol
_atom_site_label
_atom_site_fract_x
_atom_site_fract_y
_atom_site_fract_z
Si Si1 0.618325 0.583757 0.105683
Si Si2 0.810823 0.072716 0.789807
Si Si3 0.368392 0.687573 0.219879
Si Si4 0.854458 0.654116 0.049515
Si Si5 0.672321 0.310935 0.035805
Si Si6 0.360846 0.681096 0.541583
O O1 0.705749 0.510279 0.196677
O O2 0.644032 0.613990 0.237387
O O3 0.457094 0.575676 0.908038
O O4 0.668507 0.638413 0.085458
O O5 0.700325 0.097427 0.588442
O O6 0.791585 0.121244 0.858952
O O7 0.522406 0.717303 0.391139
O O8 0.278961 0.746667 0.171449
O O9 0.317000 0.666268 0.059300
O O10 0.863969 0.734432 0.016710
O O11 0.000000 0.625982 0.250000
O O12 0.760307 0.659496 0.030590
O O13 0.500000 0.658270 0.750000
#
# Coordination Sequence:
#
# PCOD8134577 Si02
#       6
#     8   8   8   8   8   8
#     4  10  20  34  56  83 111 142 184 224 268 326
#     4  10  20  35  54  84 111 143 181 225 273 322
#     4   9  18  34  56  80 105 138 180 225 267 312
#     4  10  21  36  58  82 113 143 183 231 275 323
#     4   9  18  34  56  80 104 139 182 223 267 314
#     4  10  19  36  58  83 107 147 187 225 271 321
#
# _framework density 18.189610999999999
#
# number of rings (size 3 to 8) (size 9 to 14) (size 15 to 20)
#    0.000    2.333    1.667    1.000    0.000    1.333 
#    6.000    0.833    7.333    0.000    0.000    0.000 
#    0.000    0.000    0.000    0.000    0.000    0.000 
#
# Total GULP energy -297564.575573 kJ/mol
# GULP energy per Si atom -12398.523982 kJ/mol
# Density = 1.814821 g / cm^3
# Si number density = 18.189611 Si / 1000 Ang^3
#
#
#
# Elastic Constant Matrix: (Units=GPa)
#
#
# Indices 1 2 3 4 5 6 
#
# 1 69.5760 49.7309 43.3192 0.0000 -3.7085 0.0000
# 2 49.7309 106.7316 59.5813 0.0000 -6.7651 0.0000
# 3 43.3192 59.5813 114.6040 0.0000 -0.0097 0.0000
# 4 0.0000 0.0000 0.0000 24.8082 0.0000 -7.7473
# 5 -3.7085 -6.7651 -0.0097 0.0000 24.5613 0.0000
# 6 0.0000 0.0000 0.0000 -7.7473 0.0000 6.8255
#
#
#
# Elastic Compliance Matrix: (Units=1/GPa)
#
#
# Indices 1 2 3 4 5 6 
#
# 1 0.023062 -0.008174 -0.004468 0.000000 0.001229 0.000000
# 2 -0.008174 0.016430 -0.005452 0.000000 0.003289 0.000000
# 3 -0.004468 -0.005452 0.013249 0.000000 -0.002171 0.000000
# 4 0.000000 0.000000 0.000000 0.062443 0.000000 0.070876
# 5 0.001229 0.003289 -0.002171 0.000000 0.041805 0.000000
# 6 0.000000 0.000000 0.000000 0.070876 0.000000 0.226958
#
#
# Mechanical properties :
#
#
# Convention : Reuss Voigt Hill
#
# Bulk Modulus (GPa) = 60.40817 66.24158 63.32488
# Shear Modulus (GPa) = 11.74671 20.45769 16.10220
#
# Velocity S-wave (km/s) = 2.54400 3.35728 2.97853
# Velocity P-wave (km/s) = 6.47392 7.17807 6.83507
#
# Compressibility (1/GPa) = 0.01655405
#
# Stress axis : x y z
#
# Youngs Moduli (GPa) = 43.36066 60.86578 75.47997
#
# Poissons Ratio (x) = 0.49750 0.33723
# Poissons Ratio (y) = 0.35442 0.41149
# Poissons Ratio (z) = 0.19373 0.33182
#
# Static dielectric constant tensor:
#      x y z
#    x 3.342850 0.000000 0.036930 
#    y 0.000000 3.302740 0.000000 
#    z 0.036930 0.000000 3.365620 
# 
# 
# High freq. dielectric constant tensor:
#      x y z
#    x 1.708960 0.000000 -0.007900 
#    y 0.000000 1.690470 0.000000 
#    z -0.007900 0.000000 1.701330 
# 
# From -- ./inp_files/97161.got.cif
#   From: 2010.06.25/outbox.cif.g09.slc.cpg/sg15_49_cif.got.tgz:97161.got - 2010.06.28 07:06:18.
