data_PCOD8134264
_publ_section_title
;
Structure prediction by ZEFSAII (Michael W. Deem and Ramdas Pophale) SiO2 
 PCOD8134264
Probable space group: C 2/C
;
_chemical_formula_sum "Si O2"
_cell_formula_units_Z 40
_cell_length_a 12.245851
_cell_length_b 9.603610
_cell_length_c 16.149616
_cell_angle_alpha 90.000000
_cell_angle_beta 55.230445
_cell_angle_gamma 90.000000
_cell_volume 1560.156135
_symmetry_space_group_name_H-M "C 2/C"
_symmetry_group_IT_number 15
_symmetry_cell_setting 'monoclinic'
loop_
_space_group_symop_operation_xyz
x,y,z
-x,y,1/2-z
-x,-y,-z
x,-y,1/2+z
1/2+x,1/2+y,z
1/2-x,1/2+y,1/2-z
1/2-x,1/2-y,-z
1/2+x,1/2-y,1/2+z
loop_
_atom_site_type_symbol
_atom_site_label
_atom_site_fract_x
_atom_site_fract_y
_atom_site_fract_z
Si Si1 0.948664 0.986465 0.659078
Si Si2 0.901605 0.691296 0.731328
Si Si3 0.180846 0.711780 0.444271
Si Si4 0.725373 0.914835 0.369923
Si Si5 0.100594 0.155630 0.476688
O O1 0.987148 0.832544 0.673820
O O2 0.864210 0.961787 0.609133
O O3 0.871630 0.065489 0.766325
O O4 0.079424 0.078500 0.575415
O O5 0.760286 0.732100 0.830349
O O6 0.879208 0.599242 0.660436
O O7 0.000000 0.606129 0.750000
O O8 0.250000 0.750000 0.500000
O O9 0.178197 0.544130 0.444386
O O10 0.034154 0.770670 0.496426
O O11 0.716639 0.772591 0.429005
#
# Coordination Sequence:
#
# PCOD8134264 Si02
#       5
#     8   8   8   8   8
#     4   9  19  35  57  85 121 167 205 251 319 374
#     4  10  20  37  62  89 122 165 210 257 314 379
#     4  11  21  35  60  96 126 160 213 261 316 374
#     4  10  20  36  59  93 124 165 210 260 312 381
#     4  10  19  35  59  84 120 165 210 254 314 375
#
# _framework density 25.638459000000001
#
# number of rings (size 3 to 8) (size 9 to 14) (size 15 to 20)
#    0.000    2.000    2.000    3.000    0.000    0.000 
#    0.000    0.000    0.000   33.600    5.200    0.000 
#    0.000    0.000    0.000    0.000    0.000    0.000 
#
# Total GULP energy -247823.568320 kJ/mol
# GULP energy per Si atom -12391.178416 kJ/mol
# Density = 2.558010 g / cm^3
# Si number density = 25.638459 Si / 1000 Ang^3
#
#
#
# Elastic Constant Matrix: (Units=GPa)
#
#
# Indices 1 2 3 4 5 6 
#
# 1 32.7024 9.3196 -4.3104 0.0000 -7.3254 0.0000
# 2 9.3196 128.8064 47.2637 0.0000 -4.6897 0.0000
# 3 -4.3104 47.2637 124.6170 0.0000 -0.7120 0.0000
# 4 0.0000 0.0000 0.0000 53.9829 0.0000 -1.7391
# 5 -7.3254 -4.6897 -0.7120 0.0000 32.9499 0.0000
# 6 0.0000 0.0000 0.0000 -1.7391 0.0000 28.6743
#
#
#
# Elastic Compliance Matrix: (Units=1/GPa)
#
#
# Indices 1 2 3 4 5 6 
#
# 1 0.033319 -0.003012 0.002335 0.000000 0.007029 0.000000
# 2 -0.003012 0.009339 -0.003643 0.000000 0.000581 0.000000
# 3 0.002335 -0.003643 0.009488 0.000000 0.000206 0.000000
# 4 0.000000 0.000000 0.000000 0.018561 0.000000 0.001126
# 5 0.007029 0.000581 0.000206 0.000000 0.031999 0.000000
# 6 0.000000 0.000000 0.000000 0.001126 0.000000 0.034943
#
#
# Mechanical properties :
#
#
# Convention : Reuss Voigt Hill
#
# Bulk Modulus (GPa) = 22.98450 43.40795 33.19623
# Shear Modulus (GPa) = 31.09616 38.71160 34.90388
#
# Velocity S-wave (km/s) = 3.48641 3.88996 3.69370
# Velocity P-wave (km/s) = 5.01907 6.09453 5.58276
#
# Compressibility (1/GPa) = 0.04350757
#
# Stress axis : x y z
#
# Youngs Moduli (GPa) = 30.01250 107.07334 105.39390
#
# Poissons Ratio (x) = 0.32246 -0.24608
# Poissons Ratio (y) = 0.09039 0.38395
# Poissons Ratio (z) = -0.07007 0.39007
#
# Static dielectric constant tensor:
#      x y z
#    x 4.197260 0.000000 0.006930 
#    y 0.000000 4.852500 0.000000 
#    z 0.006930 0.000000 5.493150 
# 
# 
# High freq. dielectric constant tensor:
#      x y z
#    x 1.992070 0.000000 0.007900 
#    y 0.000000 2.013800 0.000000 
#    z 0.007900 0.000000 2.056530 
# 
# From -- ./inp_files/208475.got.cif
#   From: 2010.06.25/outbox.cif.g09.slc.cpg/sg15_105_cif.got.tgz:208475.got - 2010.06.28 07:06:18.
