data_PCOD8134665
_publ_section_title
;
Structure prediction by ZEFSAII (Michael W. Deem and Ramdas Pophale) SiO2 
 PCOD8134665
Probable space group: C 2/C
;
_chemical_formula_sum "Si O2"
_cell_formula_units_Z 40
_cell_length_a 28.098199
_cell_length_b 8.477787
_cell_length_c 8.996679
_cell_angle_alpha 90.000000
_cell_angle_beta 50.449892
_cell_angle_gamma 90.000000
_cell_volume 1652.478789
_symmetry_space_group_name_H-M "C 2/C"
_symmetry_group_IT_number 15
_symmetry_cell_setting 'monoclinic'
loop_
_space_group_symop_operation_xyz
x,y,z
-x,y,1/2-z
-x,-y,-z
x,-y,1/2+z
1/2+x,1/2+y,z
1/2-x,1/2+y,1/2-z
1/2-x,1/2-y,-z
1/2+x,1/2-y,1/2+z
loop_
_atom_site_type_symbol
_atom_site_label
_atom_site_fract_x
_atom_site_fract_y
_atom_site_fract_z
Si Si1 0.500000 0.235455 0.750000
Si Si2 0.209410 0.650159 0.473505
Si Si3 0.709400 0.648783 0.688485
Si Si4 0.421710 0.069534 0.657058
Si Si5 0.920693 0.192493 0.654021
Si Si6 0.000000 0.743043 0.250000
O O1 0.457042 0.123123 0.734509
O O2 0.539851 0.355693 0.569195
O O3 0.250000 0.750000 0.500000
O O4 0.250542 0.500900 0.340334
O O5 0.189591 0.748281 0.369064
O O6 0.149762 0.613358 0.690017
O O7 0.750000 0.750000 0.500000
O O8 0.646135 0.608574 0.724319
O O9 0.454131 0.139911 0.445824
O O10 0.421456 0.882217 0.648498
O O11 0.955612 0.144874 0.737180
#
# Coordination Sequence:
#
# PCOD8134665 Si02
#       6
#     4   8   8   8   8   4
#     4  10  19  36  60 101 140 189 237 298 351 412
#     4  12  28  47  72 105 144 192 243 297 364 433
#     4  12  26  45  71 103 147 192 240 298 359 425
#     4  11  20  38  64 104 143 180 240 298 345 420
#     4  11  20  36  65 100 143 184 238 292 351 412
#     4  10  23  34  68 109 144 185 239 294 351 418
#
# _framework density 24.206060999999998
#
# number of rings (size 3 to 8) (size 9 to 14) (size 15 to 20)
#    0.000    0.800    4.000    6.000    2.800    0.000 
#    0.000    0.000    0.000    7.200    0.000    0.000 
#    0.000    0.000    0.000    0.000    0.000    0.000 
#
# Total GULP energy -247914.310731 kJ/mol
# GULP energy per Si atom -12395.715537 kJ/mol
# Density = 2.415097 g / cm^3
# Si number density = 24.206061 Si / 1000 Ang^3
#
#
#
# Elastic Constant Matrix: (Units=GPa)
#
#
# Indices 1 2 3 4 5 6 
#
# 1 187.4288 25.7481 75.0908 0.0000 -18.3823 0.0000
# 2 25.7481 40.5987 11.9249 0.0000 -5.2972 0.0000
# 3 75.0908 11.9249 145.0768 0.0000 -8.6965 0.0000
# 4 0.0000 0.0000 0.0000 3.7530 0.0000 -4.7716
# 5 -18.3823 -5.2972 -8.6965 0.0000 54.9357 0.0000
# 6 0.0000 0.0000 0.0000 -4.7716 0.0000 32.6145
#
#
#
# Elastic Compliance Matrix: (Units=1/GPa)
#
#
# Indices 1 2 3 4 5 6 
#
# 1 0.007332 -0.003440 -0.003418 0.000000 0.001581 0.000000
# 2 -0.003440 0.027103 -0.000363 0.000000 0.001405 0.000000
# 3 -0.003418 -0.000363 0.008704 0.000000 0.000199 0.000000
# 4 0.000000 0.000000 0.000000 0.327348 0.000000 0.047892
# 5 0.001581 0.001405 0.000199 0.000000 0.018899 0.000000
# 6 0.000000 0.000000 0.000000 0.047892 0.000000 0.037668
#
#
# Mechanical properties :
#
#
# Convention : Reuss Voigt Hill
#
# Bulk Modulus (GPa) = 34.84628 66.51467 50.68047
# Shear Modulus (GPa) = 11.08499 35.61667 23.35083
#
# Velocity S-wave (km/s) = 2.14228 3.84004 3.10928
# Velocity P-wave (km/s) = 4.53278 6.87018 5.82003
#
# Compressibility (1/GPa) = 0.02869747
#
# Stress axis : x y z
#
# Youngs Moduli (GPa) = 136.38519 36.89625 114.89508
#
# Poissons Ratio (x) = 0.12693 0.39266
# Poissons Ratio (y) = 0.46917 0.04171
# Poissons Ratio (z) = 0.46611 0.01339
#
# Static dielectric constant tensor:
#      x y z
#    x 4.442730 0.000000 0.074670 
#    y 0.000000 3.662830 0.000000 
#    z 0.074670 0.000000 4.023760 
# 
# 
# High freq. dielectric constant tensor:
#      x y z
#    x 1.983890 0.000000 -0.002270 
#    y 0.000000 1.930130 0.000000 
#    z -0.002270 0.000000 1.984310 
# 
# From -- ./inp_files/68267.got.cif
#   From: 2010.06.25/outbox.cif.g09.slc.cpg/sg15_35_cif.got.tgz:68267.got - 2010.06.28 07:06:18.
