data_PCOD8134012
_publ_section_title
;
Structure prediction by ZEFSAII (Michael W. Deem and Ramdas Pophale) SiO2 
 PCOD8134012
Probable space group: C 2/C
;
_chemical_formula_sum "Si O2"
_cell_formula_units_Z 56
_cell_length_a 30.515807
_cell_length_b 10.311299
_cell_length_c 9.728842
_cell_angle_alpha 90.000000
_cell_angle_beta 68.813457
_cell_angle_gamma 90.000000
_cell_volume 2854.340055
_symmetry_space_group_name_H-M "C 2/C"
_symmetry_group_IT_number 15
_symmetry_cell_setting 'monoclinic'
loop_
_space_group_symop_operation_xyz
x,y,z
-x,y,1/2-z
-x,-y,-z
x,-y,1/2+z
1/2+x,1/2+y,z
1/2-x,1/2+y,1/2-z
1/2-x,1/2-y,-z
1/2+x,1/2-y,1/2+z
loop_
_atom_site_type_symbol
_atom_site_label
_atom_site_fract_x
_atom_site_fract_y
_atom_site_fract_z
Si Si1 0.269235 0.400192 0.624630
Si Si2 0.610176 0.408879 0.287697
Si Si3 0.125031 0.867664 0.961110
Si Si4 0.431129 0.135156 0.564861
Si Si5 0.448677 0.974294 0.309330
Si Si6 0.716787 0.638742 0.706604
Si Si7 0.524108 0.241310 0.351696
O O1 0.319706 0.354828 0.619990
O O2 0.259718 0.539985 0.708406
O O3 0.267799 0.414354 0.460983
O O4 0.233788 0.286417 0.712702
O O5 0.601605 0.547250 0.367870
O O6 0.660066 0.353170 0.285789
O O7 0.565195 0.321614 0.381312
O O8 0.611326 0.428176 0.123016
O O9 0.106757 0.722786 0.966749
O O10 0.429718 0.994461 0.486259
O O11 0.483649 0.197040 0.503799
O O12 0.416700 0.110097 0.740914
O O13 0.500000 0.909089 0.250000
O O14 0.451347 0.119144 0.246907
O O15 0.500000 0.320112 0.250000
#
# Coordination Sequence:
#
# PCOD8134012 Si02
#       7
#     8   8   8   8   8   8   8
#     4   9  19  37  59  81 108 144 175 221 275 318
#     4  10  19  37  56  74 109 141 174 214 273 302
#     4  10  20  37  54  77 107 139 174 221 259 317
#     4  10  19  35  52  75 106 140 179 216 264 313
#     4   9  17  33  54  69 102 143 171 221 262 305
#     4   9  19  36  60  81 110 141 178 221 270 328
#     4   9  16  32  53  72 100 145 169 215 254 312
#
# _framework density 19.619244999999999
#
# number of rings (size 3 to 8) (size 9 to 14) (size 15 to 20)
#    0.000    2.857    2.857    1.714    0.000    1.143 
#    7.714    0.000    0.000    0.000    0.000    0.000 
#    0.000    0.000    0.000    0.000    0.000    0.000 
#
# Total GULP energy -346868.287900 kJ/mol
# GULP energy per Si atom -12388.153139 kJ/mol
# Density = 1.957459 g / cm^3
# Si number density = 19.619245 Si / 1000 Ang^3
#
#
#
# Elastic Constant Matrix: (Units=GPa)
#
#
# Indices 1 2 3 4 5 6 
#
# 1 63.2625 30.8456 27.6027 0.0000 9.3153 0.0000
# 2 30.8456 47.8013 26.5802 0.0000 9.3035 0.0000
# 3 27.6027 26.5802 70.0159 0.0000 16.9634 0.0000
# 4 0.0000 0.0000 0.0000 26.9914 0.0000 9.4268
# 5 9.3153 9.3035 16.9634 0.0000 28.8803 0.0000
# 6 0.0000 0.0000 0.0000 9.4268 0.0000 29.5874
#
#
#
# Elastic Compliance Matrix: (Units=1/GPa)
#
#
# Indices 1 2 3 4 5 6 
#
# 1 0.024194 -0.012986 -0.004350 0.000000 -0.001065 0.000000
# 2 -0.012986 0.033722 -0.007072 0.000000 -0.002521 0.000000
# 3 -0.004350 -0.007072 0.020742 0.000000 -0.008502 0.000000
# 4 0.000000 0.000000 0.000000 0.041688 0.000000 -0.013282
# 5 -0.001065 -0.002521 -0.008502 0.000000 0.040775 0.000000
# 6 0.000000 0.000000 0.000000 -0.013282 0.000000 0.038030
#
#
# Mechanical properties :
#
#
# Convention : Reuss Voigt Hill
#
# Bulk Modulus (GPa) = 33.50896 39.01519 36.26208
# Shear Modulus (GPa) = 19.38634 23.49524 21.44079
#
# Velocity S-wave (km/s) = 3.14686 3.46433 3.30941
# Velocity P-wave (km/s) = 5.50639 5.99429 5.75551
#
# Compressibility (1/GPa) = 0.02984276
#
# Stress axis : x y z
#
# Youngs Moduli (GPa) = 41.33326 29.65385 48.21138
#
# Poissons Ratio (x) = 0.38507 0.20972
# Poissons Ratio (y) = 0.53674 0.34095
# Poissons Ratio (z) = 0.17980 0.20971
#
# Static dielectric constant tensor:
#      x y z
#    x 3.604390 0.000000 0.214320 
#    y 0.000000 3.364880 0.000000 
#    z 0.214320 0.000000 3.726760 
# 
# 
# High freq. dielectric constant tensor:
#      x y z
#    x 1.753400 0.000000 0.015920 
#    y 0.000000 1.738160 0.000000 
#    z 0.015920 0.000000 1.756830 
# 
# From -- ./inp_files/69046.got.cif
#   From: 2010.06.25/outbox.cif.g09.slc.cpg/sg15_35_cif.got.tgz:69046.got - 2010.06.28 07:06:18.
