data_PCOD8134735
_publ_section_title
;
Structure prediction by ZEFSAII (Michael W. Deem and Ramdas Pophale) SiO2 
 PCOD8134735
Probable space group: C 2/C
;
_chemical_formula_sum "Si O2"
_cell_formula_units_Z 52
_cell_length_a 10.084942
_cell_length_b 20.259606
_cell_length_c 13.986271
_cell_angle_alpha 90.000000
_cell_angle_beta 71.704349
_cell_angle_gamma 90.000000
_cell_volume 2713.176966
_symmetry_space_group_name_H-M "C 2/C"
_symmetry_group_IT_number 15
_symmetry_cell_setting 'monoclinic'
loop_
_space_group_symop_operation_xyz
x,y,z
-x,y,1/2-z
-x,-y,-z
x,-y,1/2+z
1/2+x,1/2+y,z
1/2-x,1/2+y,1/2-z
1/2-x,1/2-y,-z
1/2+x,1/2-y,1/2+z
loop_
_atom_site_type_symbol
_atom_site_label
_atom_site_fract_x
_atom_site_fract_y
_atom_site_fract_z
Si Si1 0.619758 0.516814 0.341279
Si Si2 0.500000 0.843881 0.250000
Si Si3 0.140906 0.066685 0.537312
Si Si4 0.597189 0.281464 0.032669
Si Si5 0.107184 0.241405 0.088238
Si Si6 0.000000 0.812290 0.250000
Si Si7 0.761090 0.409821 0.195830
Si Si8 0.000000 0.868429 0.750000
O O1 0.683146 0.529018 0.432025
O O2 0.477321 0.474713 0.379324
O O3 0.735639 0.475585 0.261184
O O4 0.600098 0.585802 0.291072
O O5 0.605385 0.800764 0.163564
O O6 0.410531 0.885511 0.195783
O O7 0.089644 0.139681 0.521539
O O8 0.271326 0.071976 0.580620
O O9 0.523215 0.265763 0.151668
O O10 0.750000 0.250000 0.000000
O O11 0.517155 0.250901 0.960531
O O12 0.093005 0.174776 0.154914
O O13 0.250000 0.250000 0.000000
O O14 0.862906 0.856721 0.263310
#
# Coordination Sequence:
#
# PCOD8134735 Si02
#       8
#     8   4   8   8   8   4   8   4
#     4  11  19  36  65  93 116 149 212 271 291 350
#     4  11  26  40  61  89 132 161 202 254 316 387
#     4  10  20  33  63  93 114 152 212 254 305 355
#     4  11  21  37  59  87 120 160 203 251 302 370
#     4  11  24  40  63  91 126 163 204 257 322 368
#     4  10  19  36  61  87 114 153 216 242 300 362
#     4  11  19  39  61  91 118 162 201 255 307 371
#     4  11  21  40  64 100 122 154 216 272 298 361
#
# _framework density 19.165723
#
# number of rings (size 3 to 8) (size 9 to 14) (size 15 to 20)
#    0.000    1.231    6.154    2.769    0.000    1.231 
#    0.000    0.769    3.385    0.000    0.000    0.000 
#    0.000    0.000    0.000    0.000    0.000    0.000 
#
# Total GULP energy -322291.779595 kJ/mol
# GULP energy per Si atom -12395.837677 kJ/mol
# Density = 1.912210 g / cm^3
# Si number density = 19.165723 Si / 1000 Ang^3
#
#
#
# Elastic Constant Matrix: (Units=GPa)
#
#
# Indices 1 2 3 4 5 6 
#
# 1 104.8092 34.3588 38.6291 0.0000 18.4886 0.0000
# 2 34.3588 83.0777 40.1418 0.0000 1.1981 0.0000
# 3 38.6291 40.1418 121.1271 0.0000 12.6860 0.0000
# 4 0.0000 0.0000 0.0000 23.8875 0.0000 10.9281
# 5 18.4886 1.1981 12.6860 0.0000 37.7186 0.0000
# 6 0.0000 0.0000 0.0000 10.9281 0.0000 18.7961
#
#
#
# Elastic Compliance Matrix: (Units=1/GPa)
#
#
# Indices 1 2 3 4 5 6 
#
# 1 0.012608 -0.004126 -0.002094 0.000000 -0.005345 0.000000
# 2 -0.004126 0.015733 -0.004206 0.000000 0.002937 0.000000
# 3 -0.002094 -0.004206 0.010568 0.000000 -0.002394 0.000000
# 4 0.000000 0.000000 0.000000 0.057032 0.000000 -0.033159
# 5 -0.005345 0.002937 -0.002394 0.000000 0.029844 0.000000
# 6 0.000000 0.000000 0.000000 -0.033159 0.000000 0.072481
#
#
# Mechanical properties :
#
#
# Convention : Reuss Voigt Hill
#
# Bulk Modulus (GPa) = 55.37510 59.47482 57.42496
# Shear Modulus (GPa) = 22.20865 29.13940 25.67402
#
# Velocity S-wave (km/s) = 3.40776 3.90345 3.66400
# Velocity P-wave (km/s) = 6.66628 7.17043 6.92295
#
# Compressibility (1/GPa) = 0.01805866
#
# Stress axis : x y z
#
# Youngs Moduli (GPa) = 79.31347 63.56061 94.62367
#
# Poissons Ratio (x) = 0.26223 0.19813
# Poissons Ratio (y) = 0.32722 0.39797
# Poissons Ratio (z) = 0.16608 0.26733
#
# Static dielectric constant tensor:
#      x y z
#    x 3.218940 0.000000 0.365270 
#    y 0.000000 3.563650 0.000000 
#    z 0.365270 0.000000 3.959740 
# 
# 
# High freq. dielectric constant tensor:
#      x y z
#    x 1.713840 0.000000 0.028600 
#    y 0.000000 1.739560 0.000000 
#    z 0.028600 0.000000 1.768410 
# 
# From -- ./inp_files/136025.got.cif
#   From: 2010.06.25/outbox.cif.g09.slc.cpg/sg15_69_cif.got.tgz:136025.got - 2010.06.28 07:06:18.
