data_PCOD8134051
_publ_section_title
;
Structure prediction by ZEFSAII (Michael W. Deem and Ramdas Pophale) SiO2 
 PCOD8134051
Probable space group: C 2/C
;
_chemical_formula_sum "Si O2"
_cell_formula_units_Z 60
_cell_length_a 12.210239
_cell_length_b 18.486867
_cell_length_c 25.182258
_cell_angle_alpha 90.000000
_cell_angle_beta 34.324417
_cell_angle_gamma 90.000000
_cell_volume 3205.290057
_symmetry_space_group_name_H-M "C 2/C"
_symmetry_group_IT_number 15
_symmetry_cell_setting 'monoclinic'
loop_
_space_group_symop_operation_xyz
x,y,z
-x,y,1/2-z
-x,-y,-z
x,-y,1/2+z
1/2+x,1/2+y,z
1/2-x,1/2+y,1/2-z
1/2-x,1/2-y,-z
1/2+x,1/2-y,1/2+z
loop_
_atom_site_type_symbol
_atom_site_label
_atom_site_fract_x
_atom_site_fract_y
_atom_site_fract_z
Si Si1 0.500000 0.351346 0.250000
Si Si2 0.670579 0.769940 0.442096
Si Si3 0.854686 0.195001 0.496167
Si Si4 0.303033 0.975839 0.897018
Si Si5 0.999832 0.617348 0.691862
Si Si6 0.590411 0.414402 0.323032
Si Si7 0.781653 0.350705 0.977493
Si Si8 0.049204 0.052946 0.404611
O O1 0.315909 0.300987 0.338969
O O2 0.540391 0.406624 0.281528
O O3 0.481611 0.736918 0.489580
O O4 0.786530 0.713179 0.432319
O O5 0.609035 0.831450 0.510606
O O6 0.750000 0.250000 0.500000
O O7 0.673926 0.154482 0.592846
O O8 0.987669 0.135021 0.412078
O O9 0.234713 0.938394 0.869339
O O10 0.475449 0.030662 0.815690
O O11 0.384892 0.918160 0.907077
O O12 0.124328 0.019779 0.992364
O O13 0.000000 0.651155 0.750000
O O14 0.791400 0.629075 0.748970
O O15 0.440774 0.372318 0.420899
O O16 0.597258 0.499889 0.335800
#
# Coordination Sequence:
#
# PCOD8134051 Si02
#       8
#     4   8   8   8   8   8   8   8
#     4  10  22  36  54  78 112 156 192 226 278 340
#     4  10  19  35  54  80 111 153 183 223 280 342
#     4  11  22  36  55  81 119 152 180 220 281 349
#     4   9  16  31  52  83 101 129 179 235 272 314
#     4  11  20  32  59  86 107 139 185 241 287 317
#     4  10  19  36  56  81 108 148 193 235 278 330
#     4   9  18  34  58  77 111 145 185 228 278 336
#     4   9  17  32  55  75 103 139 181 222 272 321
#
# _framework density 18.719054
#
# number of rings (size 3 to 8) (size 9 to 14) (size 15 to 20)
#    0.000    2.133    2.667    1.600    0.000    0.000 
#    3.600    1.333    1.467    6.400    0.000    0.000 
#    0.000    0.000    0.000    0.000    0.000    0.000 
#
# Total GULP energy -371689.855413 kJ/mol
# GULP energy per Si atom -12389.661847 kJ/mol
# Density = 1.867645 g / cm^3
# Si number density = 18.719054 Si / 1000 Ang^3
#
#
#
# Elastic Constant Matrix: (Units=GPa)
#
#
# Indices 1 2 3 4 5 6 
#
# 1 102.1465 51.9783 31.6064 0.0341 3.1880 0.1599
# 2 51.9783 103.0721 30.7523 0.0296 8.4967 0.0550
# 3 31.6064 30.7523 58.5454 0.0406 7.6742 0.1638
# 4 0.0341 0.0296 0.0406 31.0081 0.0125 31.7789
# 5 3.1880 8.4967 7.6742 0.0125 27.7006 0.0013
# 6 0.1599 0.0550 0.1638 31.7789 0.0013 133.5362
#
#
#
# Elastic Compliance Matrix: (Units=1/GPa)
#
#
# Indices 1 2 3 4 5 6 
#
# 1 0.014206 -0.005858 -0.004787 0.000006 0.001488 -0.000010
# 2 -0.005858 0.014021 -0.003867 -0.000009 -0.002555 0.000008
# 3 -0.004787 -0.003867 0.022278 0.000003 -0.004435 -0.000021
# 4 0.000006 -0.000009 0.000003 0.042652 -0.000017 -0.010150
# 5 0.001488 -0.002555 -0.004435 -0.000017 0.037941 0.000008
# 6 -0.000010 0.000008 -0.000021 -0.010150 0.000008 0.009904
#
#
# Mechanical properties :
#
#
# Convention : Reuss Voigt Hill
#
# Bulk Modulus (GPa) = 46.55636 54.71536 50.63586
# Shear Modulus (GPa) = 28.21887 48.41077 38.31482
#
# Velocity S-wave (km/s) = 3.88686 5.09096 4.52910
# Velocity P-wave (km/s) = 6.71332 7.99065 7.37967
#
# Compressibility (1/GPa) = 0.02147934
#
# Stress axis : x y z
#
# Youngs Moduli (GPa) = 70.39455 71.32360 44.88791
#
# Poissons Ratio (x) = 0.41783 0.21488
# Poissons Ratio (y) = 0.41239 0.17359
# Poissons Ratio (z) = 0.33698 0.27582
#
# Static dielectric constant tensor:
#      x y z
#    x 3.432500 0.000040 0.062870 
#    y 0.000040 1.719290 0.000120 
#    z 0.062870 0.000120 3.387410 
# 
# 
# High freq. dielectric constant tensor:
#      x y z
#    x 1.714680 0.000000 0.003630 
#    y 0.000000 1.723510 0.000000 
#    z 0.003630 0.000000 1.718880 
# 
# From -- ./inp_files/145650.got.cif
#   From: 2010.06.25/outbox.cif.g09.slc.cpg/sg15_73_cif.got.tgz:145650.got - 2010.06.28 07:06:18.
