data_PCOD8134960
_publ_section_title
;
Structure prediction by ZEFSAII (Michael W. Deem and Ramdas Pophale) SiO2 
 PCOD8134960
Probable space group: C 2/C
;
_chemical_formula_sum "Si O2"
_cell_formula_units_Z 44
_cell_length_a 6.680985
_cell_length_b 24.281151
_cell_length_c 18.541199
_cell_angle_alpha 90.000000
_cell_angle_beta 48.095667
_cell_angle_gamma 90.000000
_cell_volume 2238.581274
_symmetry_space_group_name_H-M "C 2/C"
_symmetry_group_IT_number 15
_symmetry_cell_setting 'monoclinic'
loop_
_space_group_symop_operation_xyz
x,y,z
-x,y,1/2-z
-x,-y,-z
x,-y,1/2+z
1/2+x,1/2+y,z
1/2-x,1/2+y,1/2-z
1/2-x,1/2-y,-z
1/2+x,1/2-y,1/2+z
loop_
_atom_site_type_symbol
_atom_site_label
_atom_site_fract_x
_atom_site_fract_y
_atom_site_fract_z
Si Si1 0.756679 0.974612 0.473230
Si Si2 0.012888 0.172829 0.454131
Si Si3 0.917342 0.289783 0.117800
Si Si4 0.234663 0.055253 0.363993
Si Si5 0.427170 0.357999 0.402357
Si Si6 0.000000 0.669296 0.750000
O O1 0.699695 0.965034 0.571324
O O2 0.788921 0.916295 0.427383
O O3 0.500000 0.000000 0.500000
O O4 0.008194 0.013030 0.391454
O O5 0.691166 0.181393 0.523499
O O6 0.137868 0.226323 0.387188
O O7 0.108559 0.116864 0.391838
O O8 0.126582 0.172208 0.508502
O O9 0.669212 0.321722 0.141533
O O10 0.920359 0.291359 0.203164
O O11 0.500000 0.052554 0.250000
O O12 0.746938 0.369869 0.325132
#
# Coordination Sequence:
#
# PCOD8134960 Si02
#       6
#     8   8   8   8   8   4
#     4  10  22  41  61  83 117 156 198 245 299 356
#     4   9  20  37  60  83 116 154 192 243 299 354
#     4  10  19  37  58  85 119 155 195 237 297 357
#     4  10  22  40  60  88 119 153 198 252 302 353
#     4  10  20  36  59  82 114 151 194 239 292 352
#     4  10  22  34  52  90 116 150 188 240 288 342
#
# _framework density 19.655304999999998
#
# number of rings (size 3 to 8) (size 9 to 14) (size 15 to 20)
#    0.000    2.182    0.000    2.182    1.273    3.636 
#    3.273    5.455    0.000    0.000    0.000    0.000 
#    0.000    0.000    0.000    0.000    0.000    0.000 
#
# Total GULP energy -272663.883275 kJ/mol
# GULP energy per Si atom -12393.812876 kJ/mol
# Density = 1.961057 g / cm^3
# Si number density = 19.655305 Si / 1000 Ang^3
#
#
#
# Elastic Constant Matrix: (Units=GPa)
#
#
# Indices 1 2 3 4 5 6 
#
# 1 111.0815 57.9621 26.7526 0.0000 -1.5112 0.0000
# 2 57.9621 120.9520 39.3191 0.0000 1.1008 0.0000
# 3 26.7526 39.3191 95.1596 0.0000 -1.1237 0.0000
# 4 0.0000 0.0000 0.0000 9.2881 0.0000 -8.3588
# 5 -1.5112 1.1008 -1.1237 0.0000 24.9464 0.0000
# 6 0.0000 0.0000 0.0000 -8.3588 0.0000 34.2198
#
#
#
# Elastic Compliance Matrix: (Units=1/GPa)
#
#
# Indices 1 2 3 4 5 6 
#
# 1 0.012136 -0.005451 -0.001149 0.000000 0.000924 0.000000
# 2 -0.005451 0.012008 -0.003441 0.000000 -0.001015 0.000000
# 3 -0.001149 -0.003441 0.012261 0.000000 0.000635 0.000000
# 4 0.000000 0.000000 0.000000 0.138001 0.000000 0.033709
# 5 0.000924 -0.001015 0.000635 0.000000 0.040215 0.000000
# 6 0.000000 0.000000 0.000000 0.033709 0.000000 0.037457
#
#
# Mechanical properties :
#
#
# Convention : Reuss Voigt Hill
#
# Bulk Modulus (GPa) = 61.26146 63.91784 62.58965
# Shear Modulus (GPa) = 18.01156 27.23481 22.62318
#
# Velocity S-wave (km/s) = 3.03045 3.72643 3.39631
# Velocity P-wave (km/s) = 6.59397 7.14878 6.87697
#
# Compressibility (1/GPa) = 0.01632348
#
# Stress axis : x y z
#
# Youngs Moduli (GPa) = 82.40117 83.28038 81.55993
#
# Poissons Ratio (x) = 0.45393 0.09369
# Poissons Ratio (y) = 0.44914 0.28065
# Poissons Ratio (z) = 0.09466 0.28657
#
# Static dielectric constant tensor:
#      x y z
#    x 3.384980 0.000000 -0.182080 
#    y 0.000000 3.611030 0.000000 
#    z -0.182080 0.000000 3.467330 
# 
# 
# High freq. dielectric constant tensor:
#      x y z
#    x 1.775900 0.000000 -0.004610 
#    y 0.000000 1.769330 0.000000 
#    z -0.004610 0.000000 1.758560 
# 
# From -- ./inp_files/129338.got.cif
#   From: 2010.06.25/outbox.cif.g09.slc.cpg/sg15_65_cif.got.tgz:129338.got - 2010.06.28 07:06:18.
