data_PCOD8134552
_publ_section_title
;
Structure prediction by ZEFSAII (Michael W. Deem and Ramdas Pophale) SiO2 
 PCOD8134552
Probable space group: C 2/C
;
_chemical_formula_sum "Si O2"
_cell_formula_units_Z 64
_cell_length_a 17.235440
_cell_length_b 22.073680
_cell_length_c 8.964901
_cell_angle_alpha 90.000000
_cell_angle_beta 81.078966
_cell_angle_gamma 90.000000
_cell_volume 3369.433744
_symmetry_space_group_name_H-M "C 2/C"
_symmetry_group_IT_number 15
_symmetry_cell_setting 'monoclinic'
loop_
_space_group_symop_operation_xyz
x,y,z
-x,y,1/2-z
-x,-y,-z
x,-y,1/2+z
1/2+x,1/2+y,z
1/2-x,1/2+y,1/2-z
1/2-x,1/2-y,-z
1/2+x,1/2-y,1/2+z
loop_
_atom_site_type_symbol
_atom_site_label
_atom_site_fract_x
_atom_site_fract_y
_atom_site_fract_z
Si Si1 0.474654 0.228619 0.094088
Si Si2 0.321199 0.500496 0.845286
Si Si3 0.154939 0.676418 0.534673
Si Si4 0.244218 0.079988 0.883197
Si Si5 0.070388 0.954262 0.940864
Si Si6 0.407055 0.676020 0.031804
Si Si7 0.218237 0.224123 0.216289
Si Si8 0.155326 0.816079 0.266265
O O1 0.500000 0.204087 0.250000
O O2 0.410716 0.280717 0.125190
O O3 0.432605 0.174177 0.013539
O O4 0.545948 0.260033 0.982677
O O5 0.257233 0.534135 0.757603
O O6 0.391462 0.472328 0.727443
O O7 0.273749 0.450614 0.953033
O O8 0.362637 0.544507 0.951901
O O9 0.171592 0.615167 0.626106
O O10 0.159132 0.738081 0.629033
O O11 0.225092 0.679110 0.392092
O O12 0.176990 0.129195 0.869201
O O13 0.042647 0.883695 0.934993
O O14 0.000000 0.000000 0.000000
O O15 0.331777 0.682537 0.159199
O O16 0.378533 0.659146 0.876053
O O17 0.270884 0.272493 0.291320
#
# Coordination Sequence:
#
# PCOD8134552 Si02
#       8
#     8   8   8   8   8   8   8   8
#     4   9  20  32  51  78 110 144 184 215 282 356
#     4  10  22  35  52  75 102 143 205 225 265 324
#     4   9  18  36  53  75 109 147 177 234 299 325
#     4  10  19  36  58  74 106 139 187 242 272 319
#     4  11  23  35  46  73 111 155 187 223 264 316
#     4  11  20  32  52  79 111 147 187 227 264 330
#     4   9  18  32  53  78 102 140 193 226 275 333
#     4   9  18  34  53  74 110 148 174 231 289 318
#
# _framework density 18.994289999999999
#
# number of rings (size 3 to 8) (size 9 to 14) (size 15 to 20)
#    0.000    2.250    1.250    2.250    3.500    1.500 
#    2.250    0.000    0.000    0.000    0.000    0.875 
#    0.000    0.125    0.000    0.000    0.000    0.000 
#
# Total GULP energy -396537.706961 kJ/mol
# GULP energy per Si atom -12391.803343 kJ/mol
# Density = 1.895106 g / cm^3
# Si number density = 18.994290 Si / 1000 Ang^3
#
#
#
# Elastic Constant Matrix: (Units=GPa)
#
#
# Indices 1 2 3 4 5 6 
#
# 1 61.3372 28.8005 12.7364 0.0000 16.4464 0.0000
# 2 28.8005 72.2523 22.8924 0.0000 5.4113 0.0000
# 3 12.7364 22.8924 56.4516 0.0000 1.7836 0.0000
# 4 0.0000 0.0000 0.0000 22.0225 0.0000 9.7286
# 5 16.4464 5.4113 1.7836 0.0000 27.5303 0.0000
# 6 0.0000 0.0000 0.0000 9.7286 0.0000 24.5563
#
#
#
# Elastic Compliance Matrix: (Units=1/GPa)
#
#
# Indices 1 2 3 4 5 6 
#
# 1 0.023770 -0.007990 -0.001727 0.000000 -0.012518 0.000000
# 2 -0.007990 0.018771 -0.005856 0.000000 0.001463 0.000000
# 3 -0.001727 -0.005856 0.020451 0.000000 0.000858 0.000000
# 4 0.000000 0.000000 0.000000 0.055041 0.000000 -0.021806
# 5 -0.012518 0.001463 0.000858 0.000000 0.043459 0.000000
# 6 0.000000 0.000000 0.000000 -0.021806 0.000000 0.049362
#
#
# Mechanical properties :
#
#
# Convention : Reuss Voigt Hill
#
# Bulk Modulus (GPa) = 31.40058 35.43331 33.41694
# Shear Modulus (GPa) = 19.79294 23.19594 21.49444
#
# Velocity S-wave (km/s) = 3.23158 3.49837 3.36762
# Velocity P-wave (km/s) = 5.52192 5.91720 5.72298
#
# Compressibility (1/GPa) = 0.03184655
#
# Stress axis : x y z
#
# Youngs Moduli (GPa) = 42.06963 53.27348 48.89629
#
# Poissons Ratio (x) = 0.42567 0.08446
# Poissons Ratio (y) = 0.33615 0.28632
# Poissons Ratio (z) = 0.07266 0.31195
#
# Static dielectric constant tensor:
#      x y z
#    x 3.619920 0.000000 0.551380 
#    y 0.000000 3.496780 0.000000 
#    z 0.551380 0.000000 3.788020 
# 
# 
# High freq. dielectric constant tensor:
#      x y z
#    x 1.710050 0.000000 0.023330 
#    y 0.000000 1.719620 0.000000 
#    z 0.023330 0.000000 1.742610 
# 
# From -- ./inp_files/51224.got.cif
#   From: 2010.06.25/outbox.cif.g09.slc.cpg/sg15_26_cif.got.tgz:51224.got - 2010.06.28 07:06:18.
