data_PCOD8134804
_publ_section_title
;
Structure prediction by ZEFSAII (Michael W. Deem and Ramdas Pophale) SiO2 
 PCOD8134804
Probable space group: C 2/C
;
_chemical_formula_sum "Si O2"
_cell_formula_units_Z 52
_cell_length_a 8.933786
_cell_length_b 12.457320
_cell_length_c 31.625737
_cell_angle_alpha 90.000000
_cell_angle_beta 45.127701
_cell_angle_gamma 90.000000
_cell_volume 2494.316879
_symmetry_space_group_name_H-M "C 2/C"
_symmetry_group_IT_number 15
_symmetry_cell_setting 'monoclinic'
loop_
_space_group_symop_operation_xyz
x,y,z
-x,y,1/2-z
-x,-y,-z
x,-y,1/2+z
1/2+x,1/2+y,z
1/2-x,1/2+y,1/2-z
1/2-x,1/2-y,-z
1/2+x,1/2-y,1/2+z
loop_
_atom_site_type_symbol
_atom_site_label
_atom_site_fract_x
_atom_site_fract_y
_atom_site_fract_z
Si Si1 0.854891 0.383629 0.937718
Si Si2 0.603665 0.771262 0.343823
Si Si3 0.958451 0.003505 0.442692
Si Si4 0.206591 0.633864 0.437483
Si Si5 0.000000 0.374599 0.750000
Si Si6 0.926455 0.479017 0.343850
Si Si7 0.423401 0.746341 0.057067
O O1 0.953518 0.453755 0.881085
O O2 0.778540 0.266698 0.934749
O O3 0.028329 0.374632 0.938561
O O4 0.645849 0.439362 0.998350
O O5 0.391537 0.703370 0.380607
O O6 0.797043 0.701380 0.288609
O O7 0.575361 0.875133 0.319677
O O8 0.639265 0.803616 0.386208
O O9 0.797053 0.016759 0.434640
O O10 0.010473 0.124870 0.445710
O O11 0.179409 0.946612 0.385824
O O12 0.113985 0.690001 0.497910
O O13 0.990157 0.450534 0.711319
#
# Coordination Sequence:
#
# PCOD8134804 Si02
#       7
#     8   8   8   8   4   8   8
#     4  11  20  35  61 103 137 165 210 277 334 402
#     4  11  23  45  69  90 126 179 225 272 339 404
#     4  10  19  36  62  93 133 172 210 261 330 410
#     4  11  20  35  61 103 137 165 210 277 334 402
#     4  12  24  52  70  90 132 180 242 276 336 406
#     4  11  23  45  69  90 126 179 225 272 339 404
#     4  10  19  36  62  93 133 172 210 261 330 410
#
# _framework density 20.847390999999998
#
# number of rings (size 3 to 8) (size 9 to 14) (size 15 to 20)
#    0.000    1.231    4.615    7.385    0.000    0.000 
#    5.538    1.538    0.000    0.000    0.000    0.000 
#    0.000    0.000    0.000    0.000    0.000    0.000 
#
# Total GULP energy -322315.434039 kJ/mol
# GULP energy per Si atom -12396.747463 kJ/mol
# Density = 2.079994 g / cm^3
# Si number density = 20.847391 Si / 1000 Ang^3
#
#
#
# Elastic Constant Matrix: (Units=GPa)
#
#
# Indices 1 2 3 4 5 6 
#
# 1 126.2105 41.6143 50.8673 -0.0001 -1.2638 0.0004
# 2 41.6143 88.0324 59.4145 -0.0002 -0.3232 0.0001
# 3 50.8673 59.4145 146.1008 -0.0006 -0.1433 -0.0011
# 4 -0.0001 -0.0002 -0.0006 2.0742 0.0009 2.6538
# 5 -1.2638 -0.3232 -0.1433 0.0009 3.9290 -0.0030
# 6 0.0004 0.0001 -0.0011 2.6538 -0.0030 -2.7141
#
#
#
# Elastic Compliance Matrix: (Units=1/GPa)
#
#
# Indices 1 2 3 4 5 6 
#
# 1 0.009870 -0.003222 -0.002123 0.000000 0.002832 -0.000001
# 2 -0.003222 0.016713 -0.005675 -0.000002 0.000131 0.000001
# 3 -0.002123 -0.005675 0.009891 0.000003 -0.000789 -0.000001
# 4 0.000000 -0.000002 0.000003 0.214174 0.000114 0.209419
# 5 0.002832 0.000131 -0.000789 0.000114 0.255411 -0.000171
# 6 -0.000001 0.000001 -0.000001 0.209419 -0.000171 -0.163681
#
#
# Mechanical properties :
#
#
# Convention : Reuss Voigt Hill
#
# Bulk Modulus (GPa) = 69.28354 73.79286 71.53820
# Shear Modulus (GPa) = 13.54175 14.55434 14.04804
#
# Velocity S-wave (km/s) = 2.55142 2.64509 2.59868
# Velocity P-wave (km/s) = 6.47962 6.69345 6.58740
#
# Compressibility (1/GPa) = 0.01443344
#
# Stress axis : x y z
#
# Youngs Moduli (GPa) = 101.31931 59.83345 101.10479
#
# Poissons Ratio (x) = 0.19280 0.21466
# Poissons Ratio (y) = 0.32648 0.57374
# Poissons Ratio (z) = 0.21512 0.33953
#
# Static dielectric constant tensor:
#      x y z
#    x 4.865110 0.000000 -0.011350 
#    y 0.000000 3.799940 0.000000 
#    z -0.011350 0.000000 3.675550 
# 
# 
# High freq. dielectric constant tensor:
#      x y z
#    x 1.837080 0.000000 -0.000670 
#    y 0.000000 1.803730 0.000000 
#    z -0.000670 0.000000 1.797590 
# 
# From -- ./inp_files/308201.got.cif
#   From: 2010.06.25/outbox.cif.g09.slc.cpg/sg15_155_cif.got.tgz:308201.got - 2010.06.28 07:06:18.
