data_PCOD8134261
_publ_section_title
;
Structure prediction by ZEFSAII (Michael W. Deem and Ramdas Pophale) SiO2 
 PCOD8134261
Probable space group: C 2/C
;
_chemical_formula_sum "Si O2"
_cell_formula_units_Z 48
_cell_length_a 24.321228
_cell_length_b 11.848732
_cell_length_c 21.879694
_cell_angle_alpha 90.000000
_cell_angle_beta 155.338174
_cell_angle_gamma 90.000000
_cell_volume 2630.916824
_symmetry_space_group_name_H-M "C 2/C"
_symmetry_group_IT_number 15
_symmetry_cell_setting 'monoclinic'
loop_
_space_group_symop_operation_xyz
x,y,z
-x,y,1/2-z
-x,-y,-z
x,-y,1/2+z
1/2+x,1/2+y,z
1/2-x,1/2+y,1/2-z
1/2-x,1/2-y,-z
1/2+x,1/2-y,1/2+z
loop_
_atom_site_type_symbol
_atom_site_label
_atom_site_fract_x
_atom_site_fract_y
_atom_site_fract_z
Si Si1 0.251337 0.431820 0.862478
Si Si2 0.383380 0.209037 0.170580
Si Si3 0.855657 0.970137 0.286228
Si Si4 0.877540 0.577470 0.866175
Si Si5 0.986916 0.948736 0.303989
Si Si6 0.580578 0.670438 0.064655
O O1 0.151527 0.373411 0.808780
O O2 0.190991 0.540934 0.766731
O O3 0.294398 0.340477 0.854677
O O4 0.377727 0.478719 0.025511
O O5 0.500000 0.144827 0.250000
O O6 0.465172 0.315354 0.277373
O O7 0.250000 0.250000 0.000000
O O8 0.711187 0.939937 0.163211
O O9 0.863960 0.992976 0.221106
O O10 0.947652 0.861456 0.394112
O O11 0.909074 0.084038 0.369442
O O12 0.925097 0.706233 0.911419
O O13 0.000000 0.500000 0.000000
O O14 0.000000 0.005010 0.250000
#
# Coordination Sequence:
#
# PCOD8134261 Si02
#       6
#     8   8   8   8   8   8
#     4  10  21  37  54  87 118 155 196 246 302 353
#     4  11  20  33  55  86 120 158 196 248 299 352
#     4   9  20  37  60  82 114 156 192 241 297 355
#     4  11  24  35  57  89 119 154 193 250 302 354
#     4  10  19  35  59  84 113 155 200 239 299 354
#     4   9  20  38  58  83 114 154 196 241 298 352
#
# _framework density 18.244591
#
# number of rings (size 3 to 8) (size 9 to 14) (size 15 to 20)
#    0.000    2.000    3.333    2.000    9.333    1.333 
#    0.000    0.000    0.000    2.000    0.000    0.000 
#    0.000    0.000    0.000    0.000    0.000    0.000 
#
# Total GULP energy -297355.691689 kJ/mol
# GULP energy per Si atom -12389.820487 kJ/mol
# Density = 1.820307 g / cm^3
# Si number density = 18.244591 Si / 1000 Ang^3
#
#
#
# Elastic Constant Matrix: (Units=GPa)
#
#
# Indices 1 2 3 4 5 6 
#
# 1 180.5490 40.2839 44.3745 0.0003 3.0548 0.0002
# 2 40.2839 96.0856 42.1252 0.0007 -1.7354 0.0006
# 3 44.3745 42.1252 90.7613 0.0004 2.4288 0.0004
# 4 0.0003 0.0007 0.0004 24.2205 0.0005 -1.8420
# 5 3.0548 -1.7354 2.4288 0.0005 35.7779 0.0004
# 6 0.0002 0.0006 0.0004 -1.8420 0.0004 26.1324
#
#
#
# Elastic Compliance Matrix: (Units=1/GPa)
#
#
# Indices 1 2 3 4 5 6 
#
# 1 0.006510 -0.001693 -0.002385 0.000000 -0.000476 0.000000
# 2 -0.001693 0.013545 -0.005491 0.000000 0.001174 0.000000
# 3 -0.002385 -0.005491 0.014761 0.000000 -0.001065 0.000000
# 4 0.000000 0.000000 0.000000 0.041510 -0.000001 0.002926
# 5 -0.000476 0.001174 -0.001065 -0.000001 0.028120 -0.000001
# 6 0.000000 0.000000 0.000000 0.002926 -0.000001 0.038473
#
#
# Mechanical properties :
#
#
# Convention : Reuss Voigt Hill
#
# Bulk Modulus (GPa) = 63.77349 68.99588 66.38468
# Shear Modulus (GPa) = 29.88955 33.26699 31.57827
#
# Velocity S-wave (km/s) = 4.05194 4.27475 4.16484
# Velocity P-wave (km/s) = 7.54464 7.89075 7.71964
#
# Compressibility (1/GPa) = 0.01568050
#
# Stress axis : x y z
#
# Youngs Moduli (GPa) = 153.59846 73.82563 67.74717
#
# Poissons Ratio (x) = 0.12496 0.16156
# Poissons Ratio (y) = 0.25998 0.37198
# Poissons Ratio (z) = 0.36629 0.40536
#
# Static dielectric constant tensor:
#      x y z
#    x 4.117790 0.000000 0.137690 
#    y 0.000000 3.123640 0.000000 
#    z 0.137690 0.000000 3.774000 
# 
# 
# High freq. dielectric constant tensor:
#      x y z
#    x 1.727660 0.000000 0.007890 
#    y 0.000000 1.665680 0.000000 
#    z 0.007890 0.000000 1.703030 
# 
# From -- ./inp_files/255376.got.cif
#   From: 2010.06.25/outbox.cif.g09.slc.cpg/sg15_128_cif.got.tgz:255376.got - 2010.06.28 07:06:18.
