data_PCOD8134336
_publ_section_title
;
Structure prediction by ZEFSAII (Michael W. Deem and Ramdas Pophale) SiO2 
 PCOD8134336
Probable space group: C 2/C
;
_chemical_formula_sum "Si O2"
_cell_formula_units_Z 56
_cell_length_a 5.156057
_cell_length_b 28.114719
_cell_length_c 18.924981
_cell_angle_alpha 90.000000
_cell_angle_beta 107.799185
_cell_angle_gamma 90.000000
_cell_volume 2612.070322
_symmetry_space_group_name_H-M "C 2/C"
_symmetry_group_IT_number 15
_symmetry_cell_setting 'monoclinic'
loop_
_space_group_symop_operation_xyz
x,y,z
-x,y,1/2-z
-x,-y,-z
x,-y,1/2+z
1/2+x,1/2+y,z
1/2-x,1/2+y,1/2-z
1/2-x,1/2-y,-z
1/2+x,1/2-y,1/2+z
loop_
_atom_site_type_symbol
_atom_site_label
_atom_site_fract_x
_atom_site_fract_y
_atom_site_fract_z
Si Si1 0.793105 0.148774 0.797435
Si Si2 0.524110 0.550949 0.668186
Si Si3 0.306363 0.549675 0.301017
Si Si4 0.705436 0.302476 0.413640
Si Si5 0.975940 0.888470 0.555594
Si Si6 0.498936 0.717692 0.044439
Si Si7 0.883603 0.400620 0.459120
O O1 0.500000 0.166186 0.750000
O O2 0.784932 0.096741 0.834880
O O3 0.000000 0.145522 0.750000
O O4 0.901175 0.189171 0.859345
O O5 0.500000 0.547876 0.750000
O O6 0.665039 0.501553 0.656838
O O7 0.234171 0.558434 0.603467
O O8 0.500000 0.553283 0.250000
O O9 0.396159 0.589281 0.363931
O O10 0.000000 0.558447 0.250000
O O11 0.696428 0.295660 0.496540
O O12 0.885330 0.350477 0.415075
O O13 0.831586 0.254009 0.390004
O O14 0.917115 0.832886 0.571541
O O15 0.688429 0.913046 0.509997
O O16 0.184133 0.896197 0.509308
O O17 0.250000 0.750000 0.000000
#
# Coordination Sequence:
#
# PCOD8134336 Si02
#       7
#     8   8   8   8   8   8   8
#     4  10  21  35  56  82 118 149 184 237 292 350
#     4   9  21  38  62  89 123 164 201 237 306 383
#     4  11  24  43  64  85 120 167 208 246 303 367
#     4   9  20  34  55  85 112 147 191 233 292 356
#     4  11  23  39  62  89 121 155 206 259 300 351
#     4  10  19  35  61  80 110 152 192 240 294 361
#     4  10  21  37  60  94 121 151 196 256 306 350
#
# _framework density 21.438932000000001
#
# number of rings (size 3 to 8) (size 9 to 14) (size 15 to 20)
#    0.000    2.000    1.429    1.286    2.000   10.286 
#    0.000    0.714    0.000    0.000    0.000    0.000 
#    0.000    0.000    0.000    0.000    0.000    0.000 
#
# Total GULP energy -346929.539878 kJ/mol
# GULP energy per Si atom -12390.340710 kJ/mol
# Density = 2.139014 g / cm^3
# Si number density = 21.438932 Si / 1000 Ang^3
#
#
#
# Elastic Constant Matrix: (Units=GPa)
#
#
# Indices 1 2 3 4 5 6 
#
# 1 98.4364 33.5435 44.7821 0.0000 34.6102 0.0000
# 2 33.5435 138.5629 79.2994 0.0000 24.1535 0.0000
# 3 44.7821 79.2994 123.1701 0.0000 41.9346 0.0000
# 4 0.0000 0.0000 0.0000 41.1355 0.0000 5.8667
# 5 34.6102 24.1535 41.9346 0.0000 45.5920 0.0000
# 6 0.0000 0.0000 0.0000 5.8667 0.0000 24.4094
#
#
#
# Elastic Compliance Matrix: (Units=1/GPa)
#
#
# Indices 1 2 3 4 5 6 
#
# 1 0.014347 -0.001064 -0.001478 0.000000 -0.008968 0.000000
# 2 -0.001064 0.011540 -0.007624 0.000000 0.001706 0.000000
# 3 -0.001478 -0.007624 0.017191 0.000000 -0.010651 0.000000
# 4 0.000000 0.000000 0.000000 0.025173 0.000000 -0.006050
# 5 -0.008968 0.001706 -0.010651 0.000000 0.037634 0.000000
# 6 0.000000 0.000000 0.000000 -0.006050 0.000000 0.042422
#
#
# Mechanical properties :
#
#
# Convention : Reuss Voigt Hill
#
# Bulk Modulus (GPa) = 43.96317 75.04660 59.50489
# Shear Modulus (GPa) = 28.37352 35.73035 32.05193
#
# Velocity S-wave (km/s) = 3.64188 4.08684 3.87076
# Velocity P-wave (km/s) = 6.18346 7.57301 6.91324
#
# Compressibility (1/GPa) = 0.02274631
#
# Stress axis : x y z
#
# Youngs Moduli (GPa) = 69.70103 86.65328 58.17061
#
# Poissons Ratio (x) = 0.09220 0.08597
# Poissons Ratio (y) = 0.07417 0.44349
# Poissons Ratio (z) = 0.10301 0.66064
#
# Static dielectric constant tensor:
#      x y z
#    x 3.733610 0.000000 0.193840 
#    y 0.000000 4.675440 0.000000 
#    z 0.193840 0.000000 3.883520 
# 
# 
# High freq. dielectric constant tensor:
#      x y z
#    x 1.834740 0.000000 0.017080 
#    y 0.000000 1.842230 0.000000 
#    z 0.017080 0.000000 1.825250 
# 
# From -- ./inp_files/228550.got.cif
#   From: 2010.06.25/outbox.cif.g09.slc.cpg/sg15_115_cif.got.tgz:228550.got - 2010.06.28 07:06:18.
