data_PCOD8134396
_publ_section_title
;
Structure prediction by ZEFSAII (Michael W. Deem and Ramdas Pophale) SiO2 
 PCOD8134396
Probable space group: C 2/C
;
_chemical_formula_sum "Si O2"
_cell_formula_units_Z 24
_cell_length_a 8.043784
_cell_length_b 25.461747
_cell_length_c 5.054546
_cell_angle_alpha 90.000000
_cell_angle_beta 92.975847
_cell_angle_gamma 90.000000
_cell_volume 1033.819487
_symmetry_space_group_name_H-M "C 2/C"
_symmetry_group_IT_number 15
_symmetry_cell_setting 'monoclinic'
loop_
_space_group_symop_operation_xyz
x,y,z
-x,y,1/2-z
-x,-y,-z
x,-y,1/2+z
1/2+x,1/2+y,z
1/2-x,1/2+y,1/2-z
1/2-x,1/2-y,-z
1/2+x,1/2-y,1/2+z
loop_
_atom_site_type_symbol
_atom_site_label
_atom_site_fract_x
_atom_site_fract_y
_atom_site_fract_z
Si Si1 0.685019 0.023954 0.032503
Si Si2 0.323254 0.854134 0.858169
Si Si3 0.685891 0.303376 0.365416
O O1 0.681239 0.086118 0.050434
O O2 0.781857 0.995885 0.281086
O O3 0.500000 0.000000 0.000000
O O4 0.500000 0.837851 0.750000
O O5 0.192052 0.845686 0.606660
O O6 0.295022 0.818992 0.117412
O O7 0.500000 0.297202 0.250000
O O8 0.750000 0.250000 0.500000
#
# Coordination Sequence:
#
# PCOD8134396 Si02
#       3
#     8   8   8
#     4  10  19  35  63 108 145 169 233 296 333 413
#     4  12  24  42  77 110 137 189 242 297 361 416
#     4  12  28  50  69 100 147 189 245 304 366 431
#
# _framework density 23.214884999999999
#
# number of rings (size 3 to 8) (size 9 to 14) (size 15 to 20)
#    0.000    0.667    3.333    6.000    4.667    2.667 
#    0.000    0.000    0.000   20.000    0.000    0.000 
#    0.000    0.000    0.000    0.000    0.000    0.000 
#
# Total GULP energy -148713.135979 kJ/mol
# GULP energy per Si atom -12392.761332 kJ/mol
# Density = 2.316205 g / cm^3
# Si number density = 23.214885 Si / 1000 Ang^3
#
#
#
# Elastic Constant Matrix: (Units=GPa)
#
#
# Indices 1 2 3 4 5 6 
#
# 1 83.5568 72.6532 62.5433 0.0000 8.8171 0.0000
# 2 72.6532 170.9366 100.6858 0.0000 -0.9922 0.0000
# 3 62.5433 100.6858 269.1276 0.0000 -5.0667 0.0000
# 4 0.0000 0.0000 0.0000 59.2602 0.0000 7.0942
# 5 8.8171 -0.9922 -5.0667 0.0000 42.0913 0.0000
# 6 0.0000 0.0000 0.0000 7.0942 0.0000 21.6951
#
#
#
# Elastic Compliance Matrix: (Units=1/GPa)
#
#
# Indices 1 2 3 4 5 6 
#
# 1 0.020578 -0.007573 -0.002038 0.000000 -0.004734 0.000000
# 2 -0.007573 0.010292 -0.002061 0.000000 0.001581 0.000000
# 3 -0.002038 -0.002061 0.004979 0.000000 0.000978 0.000000
# 4 0.000000 0.000000 0.000000 0.017562 0.000000 -0.005743
# 5 -0.004734 0.001581 0.000978 0.000000 0.024905 0.000000
# 6 0.000000 0.000000 0.000000 -0.005743 0.000000 0.047971
#
#
# Mechanical properties :
#
#
# Convention : Reuss Voigt Hill
#
# Bulk Modulus (GPa) = 79.97008 110.59841 95.28424
# Shear Modulus (GPa) = 32.51000 43.79190 38.15095
#
# Velocity S-wave (km/s) = 3.74624 4.34795 4.05826
# Velocity P-wave (km/s) = 7.29623 8.54112 7.94310
#
# Compressibility (1/GPa) = 0.01250468
#
# Stress axis : x y z
#
# Youngs Moduli (GPa) = 48.59552 97.16300 200.85695
#
# Poissons Ratio (x) = 0.73585 0.40934
# Poissons Ratio (y) = 0.36803 0.41390
# Poissons Ratio (z) = 0.09904 0.20022
#
# Static dielectric constant tensor:
#      x y z
#    x 3.876970 0.000000 0.117520 
#    y 0.000000 4.214840 0.000000 
#    z 0.117520 0.000000 4.349590 
# 
# 
# High freq. dielectric constant tensor:
#      x y z
#    x 1.874250 0.000000 0.005540 
#    y 0.000000 1.927140 0.000000 
#    z 0.005540 0.000000 1.969770 
# 
# From -- ./inp_files/1627.got.cif
#   From: 2010.06.25/outbox.cif.g09.slc.cpg/sg15_1_cif.got.tgz:1627.got - 2010.06.28 07:06:18.
