data_PCOD8134289
_publ_section_title
;
Structure prediction by ZEFSAII (Michael W. Deem and Ramdas Pophale) SiO2 
 PCOD8134289
Probable space group: C 2/C
;
_chemical_formula_sum "Si O2"
_cell_formula_units_Z 56
_cell_length_a 29.890443
_cell_length_b 19.881613
_cell_length_c 9.157682
_cell_angle_alpha 90.000000
_cell_angle_beta 147.243693
_cell_angle_gamma 90.000000
_cell_volume 2944.561379
_symmetry_space_group_name_H-M "C 2/C"
_symmetry_group_IT_number 15
_symmetry_cell_setting 'monoclinic'
loop_
_space_group_symop_operation_xyz
x,y,z
-x,y,1/2-z
-x,-y,-z
x,-y,1/2+z
1/2+x,1/2+y,z
1/2-x,1/2+y,1/2-z
1/2-x,1/2-y,-z
1/2+x,1/2-y,1/2+z
loop_
_atom_site_type_symbol
_atom_site_label
_atom_site_fract_x
_atom_site_fract_y
_atom_site_fract_z
Si Si1 0.619005 0.814627 0.209555
Si Si2 0.520108 0.757566 0.459115
Si Si3 0.783986 0.518638 0.164632
Si Si4 0.071070 0.568683 0.365167
Si Si5 0.570819 0.897037 0.549054
Si Si6 0.228902 0.909056 0.790726
Si Si7 0.910856 0.806011 0.071823
O O1 0.560891 0.789320 0.182832
O O2 0.699331 0.852507 0.496072
O O3 0.575612 0.866024 0.981126
O O4 0.638281 0.750215 0.158357
O O5 0.500000 0.717795 0.250000
O O6 0.579543 0.816787 0.562189
O O7 0.575112 0.713829 0.720346
O O8 0.844153 0.470693 0.422773
O O9 0.839190 0.571380 0.227005
O O10 0.728115 0.559270 0.125931
O O11 0.732737 0.470764 0.915740
O O12 0.036151 0.587360 0.113411
O O13 0.000000 0.523400 0.250000
O O14 0.500000 0.925251 0.250000
O O15 0.141381 0.874082 0.575847
O O16 0.000000 0.821555 0.250000
#
# Coordination Sequence:
#
# PCOD8134289 Si02
#       7
#     8   8   8   8   8   8   8
#     4  10  19  36  59  88 119 148 184 227 286 348
#     4  10  19  35  59  89 117 145 183 236 282 342
#     4  11  24  36  52  80 121 157 196 229 270 332
#     4  11  19  32  52  82 119 162 188 215 266 347
#     4  11  20  32  52  85 123 154 185 221 272 341
#     4  11  23  40  59  84 116 152 189 237 287 336
#     4  10  21  41  65  85 107 146 194 239 293 346
#
# _framework density 19.018113
#
# number of rings (size 3 to 8) (size 9 to 14) (size 15 to 20)
#    0.000    1.429    4.286    3.000    2.000    1.143 
#    0.000    6.429    0.000    0.000    0.000    0.000 
#    0.000    0.000    0.000    0.000    0.000    0.000 
#
# Total GULP energy -346888.410332 kJ/mol
# GULP energy per Si atom -12388.871798 kJ/mol
# Density = 1.897483 g / cm^3
# Si number density = 19.018113 Si / 1000 Ang^3
#
#
#
# Elastic Constant Matrix: (Units=GPa)
#
#
# Indices 1 2 3 4 5 6 
#
# 1 103.9780 48.9169 48.4346 0.0000 -24.2100 0.0000
# 2 48.9169 87.3770 46.0507 0.0000 3.2211 0.0000
# 3 48.4346 46.0507 79.6411 0.0000 -12.0631 0.0000
# 4 0.0000 0.0000 0.0000 32.3790 0.0000 11.6991
# 5 -24.2100 3.2211 -12.0631 0.0000 33.4548 0.0000
# 6 0.0000 0.0000 0.0000 11.6991 0.0000 31.5222
#
#
#
# Elastic Compliance Matrix: (Units=1/GPa)
#
#
# Indices 1 2 3 4 5 6 
#
# 1 0.018714 -0.008582 -0.004488 0.000000 0.012751 0.000000
# 2 -0.008582 0.021338 -0.008855 0.000000 -0.011458 0.000000
# 3 -0.004488 -0.008855 0.021201 0.000000 0.005250 0.000000
# 4 0.000000 0.000000 0.000000 0.035667 0.000000 -0.013238
# 5 0.012751 -0.011458 0.005250 0.000000 0.042114 0.000000
# 6 0.000000 0.000000 0.000000 -0.013238 0.000000 0.036637
#
#
# Mechanical properties :
#
#
# Convention : Reuss Voigt Hill
#
# Bulk Modulus (GPa) = 57.45544 61.97783 59.71664
# Shear Modulus (GPa) = 22.19061 27.97746 25.08404
#
# Velocity S-wave (km/s) = 3.41957 3.83965 3.63568
# Velocity P-wave (km/s) = 6.77258 7.23303 7.00659
#
# Compressibility (1/GPa) = 0.01740479
#
# Stress axis : x y z
#
# Youngs Moduli (GPa) = 53.43606 46.86443 47.16835
#
# Poissons Ratio (x) = 0.40218 0.21167
# Poissons Ratio (y) = 0.45857 0.41766
# Poissons Ratio (z) = 0.23980 0.41497
#
# Static dielectric constant tensor:
#      x y z
#    x 3.518980 0.000000 -0.276570 
#    y 0.000000 3.378790 0.000000 
#    z -0.276570 0.000000 3.325280 
# 
# 
# High freq. dielectric constant tensor:
#      x y z
#    x 1.742810 0.000000 -0.028400 
#    y 0.000000 1.725590 0.000000 
#    z -0.028400 0.000000 1.715050 
# 
# From -- ./inp_files/49791.got.cif
#   From: 2010.06.25/outbox.cif.g09.slc.cpg/sg15_25_cif.got.tgz:49791.got - 2010.06.28 07:06:18.
