data_PCOD8134030
_publ_section_title
;
Structure prediction by ZEFSAII (Michael W. Deem and Ramdas Pophale) SiO2 
 PCOD8134030
Probable space group: C 2/C
;
_chemical_formula_sum "Si O2"
_cell_formula_units_Z 48
_cell_length_a 13.842156
_cell_length_b 30.883863
_cell_length_c 5.771102
_cell_angle_alpha 90.000000
_cell_angle_beta 80.947451
_cell_angle_gamma 90.000000
_cell_volume 2436.412168
_symmetry_space_group_name_H-M "C 2/C"
_symmetry_group_IT_number 15
_symmetry_cell_setting 'monoclinic'
loop_
_space_group_symop_operation_xyz
x,y,z
-x,y,1/2-z
-x,-y,-z
x,-y,1/2+z
1/2+x,1/2+y,z
1/2-x,1/2+y,1/2-z
1/2-x,1/2-y,-z
1/2+x,1/2-y,1/2+z
loop_
_atom_site_type_symbol
_atom_site_label
_atom_site_fract_x
_atom_site_fract_y
_atom_site_fract_z
Si Si1 0.706089 0.615043 0.107793
Si Si2 0.767219 0.323479 0.955764
Si Si3 0.886053 0.977149 0.802539
Si Si4 0.912121 0.723112 0.106317
Si Si5 0.604700 0.143906 0.710834
Si Si6 0.902913 0.182400 0.650420
O O1 0.708897 0.638238 0.351823
O O2 0.675827 0.566215 0.157829
O O3 0.814226 0.616041 0.954543
O O4 0.625142 0.640900 0.989779
O O5 0.807854 0.286439 0.770993
O O6 0.858722 0.346755 0.045237
O O7 0.687955 0.303120 0.155848
O O8 0.000000 0.966186 0.750000
O O9 0.859986 0.998554 0.558821
O O10 0.918920 0.772467 0.004832
O O11 0.000000 0.714823 0.250000
O O12 0.917591 0.690676 0.891625
O O13 0.500000 0.118541 0.750000
O O14 0.000000 0.168750 0.750000
#
# Coordination Sequence:
#
# PCOD8134030 Si02
#       6
#     8   8   8   8   8   8
#     4  10  24  38  60  91 119 153 203 256 313 375
#     4  10  21  35  56  80 115 162 203 262 295 362
#     4  10  24  44  72  98 127 165 200 247 313 392
#     4  10  19  35  53  80 115 165 215 251 299 356
#     4  10  20  37  60  83 117 161 210 255 300 359
#     4  10  23  35  52  83 121 164 204 254 310 357
#
# _framework density 19.701101000000001
#
# number of rings (size 3 to 8) (size 9 to 14) (size 15 to 20)
#    0.000    2.000    1.667    0.500    7.000    8.000 
#    0.000    0.000    0.000    1.000    0.000    0.000 
#    0.000    0.000    0.000    0.000    0.000    0.000 
#
# Total GULP energy -297357.801201 kJ/mol
# GULP energy per Si atom -12389.908383 kJ/mol
# Density = 1.965626 g / cm^3
# Si number density = 19.701101 Si / 1000 Ang^3
#
#
#
# Elastic Constant Matrix: (Units=GPa)
#
#
# Indices 1 2 3 4 5 6 
#
# 1 113.8183 53.4654 27.1857 0.0000 9.3237 0.0000
# 2 53.4654 120.9369 39.4305 0.0000 0.2884 0.0000
# 3 27.1857 39.4305 86.0100 0.0000 9.1333 0.0000
# 4 0.0000 0.0000 0.0000 -32.4403 0.0000 -54.2394
# 5 9.3237 0.2884 9.1333 0.0000 27.0124 0.0000
# 6 0.0000 0.0000 0.0000 -54.2394 0.0000 -36.0642
#
#
#
# Elastic Compliance Matrix: (Units=1/GPa)
#
#
# Indices 1 2 3 4 5 6 
#
# 1 0.011572 -0.004748 -0.001102 0.000000 -0.003571 0.000000
# 2 -0.004748 0.011726 -0.004186 0.000000 0.002929 0.000000
# 3 -0.001102 -0.004186 0.014364 0.000000 -0.004432 0.000000
# 4 0.000000 0.000000 0.000000 0.020352 0.000000 -0.030609
# 5 -0.003571 0.002929 -0.004432 0.000000 0.039720 0.000000
# 6 0.000000 0.000000 0.000000 -0.030609 0.000000 0.018307
#
#
# Mechanical properties :
#
#
# Convention : Reuss Voigt Hill
#
# Bulk Modulus (GPa) = 56.84809 62.32538 59.58674
# Shear Modulus (GPa) = 35.21711 5.08049 20.14880
#
# Velocity S-wave (km/s) = 4.23255 1.60760 3.20148
# Velocity P-wave (km/s) = 7.26663 5.92874 6.63151
#
# Compressibility (1/GPa) = 0.01759074
#
# Stress axis : x y z
#
# Youngs Moduli (GPa) = 86.41523 85.28291 69.61707
#
# Poissons Ratio (x) = 0.40494 0.07669
# Poissons Ratio (y) = 0.41032 0.29140
# Poissons Ratio (z) = 0.09520 0.35697
#
# Static dielectric constant tensor:
#      x y z
#    x 3.959350 0.000000 -0.050280 
#    y 0.000000 3.190980 0.000000 
#    z -0.050280 0.000000 3.864740 
# 
# 
# High freq. dielectric constant tensor:
#      x y z
#    x 1.783000 0.000000 0.000570 
#    y 0.000000 1.729310 0.000000 
#    z 0.000570 0.000000 1.775250 
# 
# From -- ./inp_files/8229.got.cif
#   From: 2010.06.25/outbox.cif.g09.slc.cpg/sg15_5_cif.got.tgz:8229.got - 2010.06.28 07:06:18.
