data_PCOD8134288
_publ_section_title
;
Structure prediction by ZEFSAII (Michael W. Deem and Ramdas Pophale) SiO2 
 PCOD8134288
Probable space group: C 2/C
;
_chemical_formula_sum "Si O2"
_cell_formula_units_Z 48
_cell_length_a 18.802247
_cell_length_b 8.513013
_cell_length_c 13.609785
_cell_angle_alpha 90.000000
_cell_angle_beta 97.313300
_cell_angle_gamma 90.000000
_cell_volume 2160.711809
_symmetry_space_group_name_H-M "C 2/C"
_symmetry_group_IT_number 15
_symmetry_cell_setting 'monoclinic'
loop_
_space_group_symop_operation_xyz
x,y,z
-x,y,1/2-z
-x,-y,-z
x,-y,1/2+z
1/2+x,1/2+y,z
1/2-x,1/2+y,1/2-z
1/2-x,1/2-y,-z
1/2+x,1/2-y,1/2+z
loop_
_atom_site_type_symbol
_atom_site_label
_atom_site_fract_x
_atom_site_fract_y
_atom_site_fract_z
Si Si1 0.559552 0.794314 0.488381
Si Si2 0.076725 0.420705 0.282121
Si Si3 0.198972 0.111780 0.532058
Si Si4 0.743666 0.901359 0.113802
Si Si5 0.408920 0.863616 0.431626
Si Si6 0.716942 0.923142 0.798139
O O1 0.616412 0.664892 0.536392
O O2 0.473480 0.755704 0.488627
O O3 0.571552 0.803635 0.373247
O O4 0.571967 0.954269 0.549294
O O5 0.098484 0.326749 0.186944
O O6 0.135924 0.548542 0.320666
O O7 0.000000 0.504804 0.250000
O O8 0.250000 0.250000 0.500000
O O9 0.199731 0.967969 0.454284
O O10 0.228222 0.041172 0.638478
O O11 0.671982 0.839613 0.041123
O O12 0.772807 0.759411 0.182598
O O13 0.723113 0.044884 0.182833
#
# Coordination Sequence:
#
# PCOD8134288 Si02
#       6
#     8   8   8   8   8   8
#     4  10  19  35  59  89 115 157 198 247 289 363
#     4   9  18  33  57  83 113 152 200 235 284 360
#     4  12  21  37  62  90 119 155 203 255 304 357
#     4  11  23  38  60  88 122 159 202 251 305 366
#     4   9  19  34  58  87 118 152 202 235 298 361
#     4  11  23  37  60  87 120 156 199 252 306 363
#
# _framework density 22.214901999999999
#
# number of rings (size 3 to 8) (size 9 to 14) (size 15 to 20)
#    0.000    1.667    3.333    1.500    4.667    0.000 
#    0.000    0.833    3.667    0.000    0.000    0.000 
#    0.000    0.000    0.000    0.000    0.000    0.000 
#
# Total GULP energy -297315.221532 kJ/mol
# GULP energy per Si atom -12388.134230 kJ/mol
# Density = 2.216434 g / cm^3
# Si number density = 22.214902 Si / 1000 Ang^3
#
#
#
# Elastic Constant Matrix: (Units=GPa)
#
#
# Indices 1 2 3 4 5 6 
#
# 1 123.1896 36.0165 3.3302 0.0000 41.2744 0.0000
# 2 36.0165 54.3525 7.2472 0.0000 12.3383 0.0000
# 3 3.3302 7.2472 65.4272 0.0000 13.3179 0.0000
# 4 0.0000 0.0000 0.0000 31.0017 0.0000 -1.7233
# 5 41.2744 12.3383 13.3179 0.0000 34.2101 0.0000
# 6 0.0000 0.0000 0.0000 -1.7233 0.0000 24.8852
#
#
#
# Elastic Compliance Matrix: (Units=1/GPa)
#
#
# Indices 1 2 3 4 5 6 
#
# 1 0.016316 -0.007092 0.003738 0.000000 -0.018582 0.000000
# 2 -0.007092 0.023161 -0.002439 0.000000 0.001152 0.000000
# 3 0.003738 -0.002439 0.017489 0.000000 -0.010438 0.000000
# 4 0.000000 0.000000 0.000000 0.032381 0.000000 0.002242
# 5 -0.018582 0.001152 -0.010438 0.000000 0.055299 0.000000
# 6 0.000000 0.000000 0.000000 0.002242 0.000000 0.040340
#
#
# Mechanical properties :
#
#
# Convention : Reuss Voigt Hill
#
# Bulk Modulus (GPa) = 22.03641 37.35082 29.69361
# Shear Modulus (GPa) = 23.61851 31.11110 27.36480
#
# Velocity S-wave (km/s) = 3.26419 3.74633 3.51354
# Velocity P-wave (km/s) = 4.91403 5.96349 5.46402
#
# Compressibility (1/GPa) = 0.04537945
#
# Stress axis : x y z
#
# Youngs Moduli (GPa) = 61.28998 43.17534 57.17960
#
# Poissons Ratio (x) = 0.30619 -0.21371
# Poissons Ratio (y) = 0.43465 0.13947
# Poissons Ratio (z) = -0.22907 0.10531
#
# Static dielectric constant tensor:
#      x y z
#    x 4.517730 0.000000 0.211200 
#    y 0.000000 3.501750 0.000000 
#    z 0.211200 0.000000 4.196240 
# 
# 
# High freq. dielectric constant tensor:
#      x y z
#    x 1.883200 0.000000 0.013200 
#    y 0.000000 1.819890 0.000000 
#    z 0.013200 0.000000 1.888680 
# 
# From -- ./inp_files/166390.got.cif
#   From: 2010.06.25/outbox.cif.g09.slc.cpg/sg15_84_cif.got.tgz:166390.got - 2010.06.28 07:06:18.
