data_PCOD8134668
_publ_section_title
;
Structure prediction by ZEFSAII (Michael W. Deem and Ramdas Pophale) SiO2 
 PCOD8134668
Probable space group: C 2/C
;
_chemical_formula_sum "Si O2"
_cell_formula_units_Z 44
_cell_length_a 10.421109
_cell_length_b 16.488655
_cell_length_c 15.271873
_cell_angle_alpha 90.000000
_cell_angle_beta 119.341252
_cell_angle_gamma 90.000000
_cell_volume 2287.530215
_symmetry_space_group_name_H-M "C 2/C"
_symmetry_group_IT_number 15
_symmetry_cell_setting 'monoclinic'
loop_
_space_group_symop_operation_xyz
x,y,z
-x,y,1/2-z
-x,-y,-z
x,-y,1/2+z
1/2+x,1/2+y,z
1/2-x,1/2+y,1/2-z
1/2-x,1/2-y,-z
1/2+x,1/2-y,1/2+z
loop_
_atom_site_type_symbol
_atom_site_label
_atom_site_fract_x
_atom_site_fract_y
_atom_site_fract_z
Si Si1 0.187583 0.665725 0.619267
Si Si2 0.785844 0.638907 0.500745
Si Si3 0.529463 0.273826 0.859611
Si Si4 0.020207 0.650651 0.099674
Si Si5 0.500000 0.271930 0.250000
Si Si6 0.497122 0.969549 0.350077
O O1 0.137708 0.661185 0.501044
O O2 0.363028 0.669507 0.683191
O O3 0.129651 0.584866 0.647919
O O4 0.119547 0.747603 0.640633
O O5 0.608330 0.648046 0.433707
O O6 0.851894 0.700776 0.595238
O O7 0.851067 0.662614 0.427708
O O8 0.843599 0.550524 0.550999
O O9 0.500000 0.296844 0.750000
O O10 0.038891 0.717400 0.180010
O O11 0.037431 0.563101 0.149253
O O12 0.500000 0.946605 0.250000
#
# Coordination Sequence:
#
# PCOD8134668 Si02
#       6
#     8   8   8   8   4   8
#     4  10  21  34  57  82 111 145 186 230 272 332
#     4   9  17  29  54  79 108 138 179 233 267 319
#     4   9  16  30  50  83 109 133 182 229 274 314
#     4  10  20  36  56  80 112 148 183 224 283 334
#     4  12  22  36  58  82 114 148 186 228 278 326
#     4  10  19  36  60  80 107 148 191 222 278 337
#
# _framework density 19.234718999999998
#
# number of rings (size 3 to 8) (size 9 to 14) (size 15 to 20)
#    0.000    2.545    0.909    6.000    0.000    2.909 
#    0.000    0.000   16.000    2.182    0.000    0.000 
#    0.000    0.000    0.000    0.000    0.000    0.000 
#
# Total GULP energy -272654.572754 kJ/mol
# GULP energy per Si atom -12393.389671 kJ/mol
# Density = 1.919094 g / cm^3
# Si number density = 19.234719 Si / 1000 Ang^3
#
#
#
# Elastic Constant Matrix: (Units=GPa)
#
#
# Indices 1 2 3 4 5 6 
#
# 1 58.9445 15.1035 24.2754 0.0000 20.1082 0.0000
# 2 15.1035 59.5384 11.2582 0.0000 5.9043 0.0000
# 3 24.2754 11.2582 94.5233 0.0000 -2.9683 0.0000
# 4 0.0000 0.0000 0.0000 27.0170 0.0000 -4.6461
# 5 20.1082 5.9043 -2.9683 0.0000 35.3170 0.0000
# 6 0.0000 0.0000 0.0000 -4.6461 0.0000 9.4594
#
#
#
# Elastic Compliance Matrix: (Units=1/GPa)
#
#
# Indices 1 2 3 4 5 6 
#
# 1 0.025590 -0.003812 -0.006573 0.000000 -0.014485 0.000000
# 2 -0.003812 0.018085 -0.001205 0.000000 -0.000954 0.000000
# 3 -0.006573 -0.001205 0.012568 0.000000 0.005000 0.000000
# 4 0.000000 0.000000 0.000000 0.040428 0.000000 0.019857
# 5 -0.014485 -0.000954 0.005000 0.000000 0.037142 0.000000
# 6 0.000000 0.000000 0.000000 0.019857 0.000000 0.115468
#
#
# Mechanical properties :
#
#
# Convention : Reuss Voigt Hill
#
# Bulk Modulus (GPa) = 30.24490 34.92006 32.58248
# Shear Modulus (GPa) = 17.63765 25.18329 21.41047
#
# Velocity S-wave (km/s) = 3.03144 3.62230 3.33996
# Velocity P-wave (km/s) = 5.29255 5.97401 5.64358
#
# Compressibility (1/GPa) = 0.03306343
#
# Stress axis : x y z
#
# Youngs Moduli (GPa) = 39.07713 55.29307 79.56719
#
# Poissons Ratio (x) = 0.21080 0.52299
# Poissons Ratio (y) = 0.14897 0.09588
# Poissons Ratio (z) = 0.25685 0.06663
#
# Static dielectric constant tensor:
#      x y z
#    x 3.334330 0.000000 0.048100 
#    y 0.000000 3.330760 0.000000 
#    z 0.048100 0.000000 3.761460 
# 
# 
# High freq. dielectric constant tensor:
#      x y z
#    x 1.717980 0.000000 -0.003480 
#    y 0.000000 1.722680 0.000000 
#    z -0.003480 0.000000 1.769100 
# 
# From -- ./inp_files/143876.got.cif
#   From: 2010.06.25/outbox.cif.g09.slc.cpg/sg15_72_cif.got.tgz:143876.got - 2010.06.28 07:06:18.
