data_PCOD8134104
_publ_section_title
;
Structure prediction by ZEFSAII (Michael W. Deem and Ramdas Pophale) SiO2 
 PCOD8134104
Probable space group: C 2/C
;
_chemical_formula_sum "Si O2"
_cell_formula_units_Z 52
_cell_length_a 13.623974
_cell_length_b 9.794193
_cell_length_c 21.106957
_cell_angle_alpha 90.000000
_cell_angle_beta 111.481389
_cell_angle_gamma 90.000000
_cell_volume 2620.785839
_symmetry_space_group_name_H-M "C 2/C"
_symmetry_group_IT_number 15
_symmetry_cell_setting 'monoclinic'
loop_
_space_group_symop_operation_xyz
x,y,z
-x,y,1/2-z
-x,-y,-z
x,-y,1/2+z
1/2+x,1/2+y,z
1/2-x,1/2+y,1/2-z
1/2-x,1/2-y,-z
1/2+x,1/2-y,1/2+z
loop_
_atom_site_type_symbol
_atom_site_label
_atom_site_fract_x
_atom_site_fract_y
_atom_site_fract_z
Si Si1 0.283138 0.293143 0.824029
Si Si2 0.000000 0.093657 0.250000
Si Si3 0.575430 0.999201 0.457984
Si Si4 0.831435 0.744546 0.076093
Si Si5 0.478150 0.270054 0.618530
Si Si6 0.222005 0.990273 0.789674
Si Si7 0.204143 0.956279 0.926033
O O1 0.216670 0.320303 0.871433
O O2 0.404946 0.321121 0.872964
O O3 0.239189 0.392062 0.758218
O O4 0.275295 0.138166 0.796202
O O5 0.960694 0.199289 0.187890
O O6 0.904691 0.995710 0.248372
O O7 0.532652 0.889461 0.398293
O O8 0.695824 0.964408 0.504449
O O9 0.500000 0.000000 0.500000
O O10 0.571677 0.147740 0.422965
O O11 0.862376 0.901384 0.096540
O O12 0.750000 0.750000 0.000000
O O13 0.380277 0.351545 0.562587
O O14 0.246744 0.923389 0.864776
#
# Coordination Sequence:
#
# PCOD8134104 Si02
#       7
#     8   4   8   8   8   8   8
#     4  10  20  36  58  81 111 144 181 225 275 329
#     4   8  18  34  54  74 106 142 178 222 270 326
#     4  11  21  36  56  80 109 143 184 231 272 318
#     4   9  19  36  54  77 108 144 181 223 269 321
#     4  10  19  35  56  81 108 141 179 224 275 323
#     4   9  18  35  55  79 107 142 179 223 271 323
#     4   9  19  37  56  78 112 146 180 220 271 330
#
# _framework density 19.841377000000001
#
# number of rings (size 3 to 8) (size 9 to 14) (size 15 to 20)
#    0.000    2.462    0.000    3.231    0.000    3.692 
#    0.000   20.769    0.000    0.923    0.000    0.000 
#    0.000    0.000    0.000    0.000    0.000    0.000 
#
# Total GULP energy -322129.506608 kJ/mol
# GULP energy per Si atom -12389.596408 kJ/mol
# Density = 1.979622 g / cm^3
# Si number density = 19.841377 Si / 1000 Ang^3
#
#
#
# Elastic Constant Matrix: (Units=GPa)
#
#
# Indices 1 2 3 4 5 6 
#
# 1 74.6561 37.5306 12.4109 0.0000 -9.3846 0.0000
# 2 37.5306 82.0596 24.2830 0.0000 -18.0380 0.0000
# 3 12.4109 24.2830 63.2579 0.0000 -8.6819 0.0000
# 4 0.0000 0.0000 0.0000 35.0471 0.0000 -2.2807
# 5 -9.3846 -18.0380 -8.6819 0.0000 33.2804 0.0000
# 6 0.0000 0.0000 0.0000 -2.2807 0.0000 29.7742
#
#
#
# Elastic Compliance Matrix: (Units=1/GPa)
#
#
# Indices 1 2 3 4 5 6 
#
# 1 0.017415 -0.007717 -0.000368 0.000000 0.000632 0.000000
# 2 -0.007717 0.018571 -0.004700 0.000000 0.006663 0.000000
# 3 -0.000368 -0.004700 0.017964 0.000000 0.002035 0.000000
# 4 0.000000 0.000000 0.000000 0.028676 0.000000 0.002197
# 5 0.000632 0.006663 0.002035 0.000000 0.034368 0.000000
# 6 0.000000 0.000000 0.000000 0.002197 0.000000 0.033754
#
#
# Mechanical properties :
#
#
# Convention : Reuss Voigt Hill
#
# Bulk Modulus (GPa) = 35.23599 40.93586 38.08593
# Shear Modulus (GPa) = 26.91363 29.33692 28.12527
#
# Velocity S-wave (km/s) = 3.68698 3.84939 3.76906
# Velocity P-wave (km/s) = 5.99354 6.35873 6.17883
#
# Compressibility (1/GPa) = 0.02838007
#
# Stress axis : x y z
#
# Youngs Moduli (GPa) = 57.42242 53.84615 55.66655
#
# Poissons Ratio (x) = 0.41553 0.02046
# Poissons Ratio (y) = 0.44313 0.26166
# Poissons Ratio (z) = 0.02111 0.25310
#
# Static dielectric constant tensor:
#      x y z
#    x 3.676560 0.000000 -0.007310 
#    y 0.000000 4.081150 0.000000 
#    z -0.007310 0.000000 3.675610 
# 
# 
# High freq. dielectric constant tensor:
#      x y z
#    x 1.763160 0.000000 -0.000770 
#    y 0.000000 1.764240 0.000000 
#    z -0.000770 0.000000 1.774370 
# 
# From -- ./inp_files/242427.got.cif
#   From: 2010.06.25/outbox.cif.g09.slc.cpg/sg15_122_cif.got.tgz:242427.got - 2010.06.28 07:06:18.
