data_PCOD8134778
_publ_section_title
;
Structure prediction by ZEFSAII (Michael W. Deem and Ramdas Pophale) SiO2 
 PCOD8134778
Probable space group: C 2/C
;
_chemical_formula_sum "Si O2"
_cell_formula_units_Z 52
_cell_length_a 17.200576
_cell_length_b 15.706940
_cell_length_c 18.556845
_cell_angle_alpha 90.000000
_cell_angle_beta 30.605069
_cell_angle_gamma 90.000000
_cell_volume 2552.447368
_symmetry_space_group_name_H-M "C 2/C"
_symmetry_group_IT_number 15
_symmetry_cell_setting 'monoclinic'
loop_
_space_group_symop_operation_xyz
x,y,z
-x,y,1/2-z
-x,-y,-z
x,-y,1/2+z
1/2+x,1/2+y,z
1/2-x,1/2+y,1/2-z
1/2-x,1/2-y,-z
1/2+x,1/2-y,1/2+z
loop_
_atom_site_type_symbol
_atom_site_label
_atom_site_fract_x
_atom_site_fract_y
_atom_site_fract_z
Si Si1 0.334379 0.180764 0.885017
Si Si2 0.152413 0.197724 0.727441
Si Si3 0.391197 0.139495 0.056578
Si Si4 0.540663 0.853537 0.584146
Si Si5 0.186797 0.481344 0.005240
Si Si6 0.692789 0.210125 0.749802
Si Si7 0.500000 0.431378 0.250000
O O1 0.500000 0.223136 0.750000
O O2 0.350612 0.088387 0.906279
O O3 0.270447 0.163623 0.855373
O O4 0.250000 0.250000 0.000000
O O5 0.305166 0.199125 0.557340
O O6 0.194009 0.176154 0.777572
O O7 0.036268 0.126595 0.790989
O O8 0.073903 0.290425 0.782920
O O9 0.466820 0.109206 0.070288
O O10 0.340927 0.056712 0.052385
O O11 0.515008 0.197868 0.913720
O O12 0.236478 0.191559 0.198639
O O13 0.579451 0.935696 0.601802
O O14 0.360638 0.507309 0.878493
#
# Coordination Sequence:
#
# PCOD8134778 Si02
#       7
#     8   8   8   8   8   8   4
#     4  12  23  38  59  88 121 158 194 239 291 352
#     4   9  20  40  63  83 117 153 201 243 292 362
#     4  10  19  36  62  85 119 152 200 243 292 352
#     4   9  20  39  62  88 113 157 197 249 298 347
#     4  11  22  36  58  86 122 154 199 245 290 352
#     4  10  19  37  59  87 115 155 197 239 291 352
#     4  10  24  42  58  88 116 164 196 240 308 350
#
# _framework density 20.372605
#
# number of rings (size 3 to 8) (size 9 to 14) (size 15 to 20)
#    0.000    1.846    3.077    0.462    1.077    3.692 
#    4.154    0.769    0.000    0.000    0.000    0.000 
#    0.000    0.000    0.000    0.000    0.000    0.000 
#
# Total GULP energy -322235.788860 kJ/mol
# GULP energy per Si atom -12393.684187 kJ/mol
# Density = 2.032624 g / cm^3
# Si number density = 20.372605 Si / 1000 Ang^3
#
#
#
# Elastic Constant Matrix: (Units=GPa)
#
#
# Indices 1 2 3 4 5 6 
#
# 1 92.2847 44.4584 32.6514 0.0012 -4.9727 -0.0008
# 2 44.4584 104.5858 44.4872 0.0041 -4.5362 -0.0018
# 3 32.6514 44.4872 53.3656 0.0033 -5.7646 -0.0013
# 4 0.0012 0.0041 0.0033 28.8878 -0.0011 -0.8775
# 5 -4.9727 -4.5362 -5.7646 -0.0011 30.1715 0.0007
# 6 -0.0008 -0.0018 -0.0013 -0.8775 0.0007 42.9960
#
#
#
# Elastic Compliance Matrix: (Units=1/GPa)
#
#
# Indices 1 2 3 4 5 6 
#
# 1 0.014743 -0.003768 -0.005798 0.000001 0.000756 0.000000
# 2 -0.003768 0.015779 -0.010883 -0.000001 -0.000328 0.000000
# 3 -0.005798 -0.010883 0.031733 -0.000002 0.003471 0.000000
# 4 0.000001 -0.000001 -0.000002 0.034638 0.000001 0.000707
# 5 0.000756 -0.000328 0.003471 0.000001 0.033882 0.000000
# 6 0.000000 0.000000 0.000000 0.000707 0.000000 0.023272
#
#
# Mechanical properties :
#
#
# Convention : Reuss Voigt Hill
#
# Bulk Modulus (GPa) = 46.82316 54.82556 50.82436
# Shear Modulus (GPa) = 24.74441 28.98703 26.86572
#
# Velocity S-wave (km/s) = 3.48888 3.77615 3.63536
# Velocity P-wave (km/s) = 6.26602 6.78102 6.52860
#
# Compressibility (1/GPa) = 0.02135695
#
# Stress axis : x y z
#
# Youngs Moduli (GPa) = 67.82674 63.37707 31.51245
#
# Poissons Ratio (x) = 0.23883 0.18270
# Poissons Ratio (y) = 0.25560 0.34296
# Poissons Ratio (z) = 0.39323 0.68975
#
# Static dielectric constant tensor:
#      x y z
#    x 4.058600 0.000000 -0.166400 
#    y 0.000000 3.509290 0.000010 
#    z -0.166400 0.000010 3.699310 
# 
# 
# High freq. dielectric constant tensor:
#      x y z
#    x 1.815730 0.000000 -0.011180 
#    y 0.000000 1.780030 0.000000 
#    z -0.011180 0.000000 1.786010 
# 
# From -- ./inp_files/249092.got.cif
#   From: 2010.06.25/outbox.cif.g09.slc.cpg/sg15_125_cif.got.tgz:249092.got - 2010.06.28 07:06:18.
