data_PCOD8134520
_publ_section_title
;
Structure prediction by ZEFSAII (Michael W. Deem and Ramdas Pophale) SiO2 
 PCOD8134520
Probable space group: C 2/C
;
_chemical_formula_sum "Si O2"
_cell_formula_units_Z 56
_cell_length_a 21.847932
_cell_length_b 14.038472
_cell_length_c 10.473947
_cell_angle_alpha 90.000000
_cell_angle_beta 69.524740
_cell_angle_gamma 90.000000
_cell_volume 3009.526974
_symmetry_space_group_name_H-M "C 2/C"
_symmetry_group_IT_number 15
_symmetry_cell_setting 'monoclinic'
loop_
_space_group_symop_operation_xyz
x,y,z
-x,y,1/2-z
-x,-y,-z
x,-y,1/2+z
1/2+x,1/2+y,z
1/2-x,1/2+y,1/2-z
1/2-x,1/2-y,-z
1/2+x,1/2-y,1/2+z
loop_
_atom_site_type_symbol
_atom_site_label
_atom_site_fract_x
_atom_site_fract_y
_atom_site_fract_z
Si Si1 0.583362 0.317125 0.798934
Si Si2 0.623931 0.577048 0.510310
Si Si3 0.350970 0.657373 0.743832
Si Si4 0.285027 0.182098 0.156340
Si Si5 0.742059 0.487449 0.307847
Si Si6 0.673872 0.823647 0.148736
Si Si7 0.939289 0.110431 0.447218
O O1 0.603577 0.205294 0.764196
O O2 0.602539 0.366261 0.649801
O O3 0.508153 0.336484 0.885621
O O4 0.626358 0.359566 0.881579
O O5 0.619718 0.645893 0.635839
O O6 0.691492 0.516467 0.457876
O O7 0.560783 0.505843 0.551026
O O8 0.319470 0.761315 0.747718
O O9 0.296706 0.576158 0.765965
O O10 0.408304 0.647909 0.599380
O O11 0.220762 0.237491 0.158493
O O12 0.271490 0.077195 0.215316
O O13 0.333144 0.174852 0.999398
O O14 0.801476 0.426482 0.323249
#
# Coordination Sequence:
#
# PCOD8134520 Si02
#       7
#     8   8   8   8   8   8   8
#     4  11  21  37  56  81 112 151 193 228 277 340
#     4  11  21  34  54  89 121 144 181 236 283 345
#     4  10  21  35  56  84 117 147 183 230 289 335
#     4  10  19  36  57  79 115 153 188 231 282 338
#     4  10  20  34  55  84 116 150 190 231 280 334
#     4  10  20  35  57  80 111 155 192 230 278 342
#     4  10  21  36  57  79 109 154 192 225 279 336
#
# _framework density 18.607575000000001
#
# number of rings (size 3 to 8) (size 9 to 14) (size 15 to 20)
#    0.000    1.714    2.857    3.000    2.000    2.286 
#    2.571    0.000    0.000    0.857    0.000    0.000 
#    0.000    0.000    0.000    0.000    0.000    0.000 
#
# Total GULP energy -347011.028184 kJ/mol
# GULP energy per Si atom -12393.251007 kJ/mol
# Density = 1.856522 g / cm^3
# Si number density = 18.607575 Si / 1000 Ang^3
#
#
#
# Elastic Constant Matrix: (Units=GPa)
#
#
# Indices 1 2 3 4 5 6 
#
# 1 64.8808 46.8178 46.3402 0.0000 -6.5078 0.0000
# 2 46.8178 120.2090 57.3056 0.0000 -8.4751 0.0000
# 3 46.3402 57.3056 121.9871 0.0000 5.9130 0.0000
# 4 0.0000 0.0000 0.0000 28.3793 0.0000 -4.6972
# 5 -6.5078 -8.4751 5.9130 0.0000 26.0122 0.0000
# 6 0.0000 0.0000 0.0000 -4.6972 0.0000 28.7501
#
#
#
# Elastic Compliance Matrix: (Units=1/GPa)
#
#
# Indices 1 2 3 4 5 6 
#
# 1 0.025508 -0.006125 -0.007103 0.000000 0.006001 0.000000
# 2 -0.006125 0.012787 -0.003850 0.000000 0.003509 0.000000
# 3 -0.007103 -0.003850 0.012995 0.000000 -0.005986 0.000000
# 4 0.000000 0.000000 0.000000 0.036216 0.000000 0.005917
# 5 0.006001 0.003509 -0.005986 0.000000 0.042449 0.000000
# 6 0.000000 0.000000 0.000000 0.005917 0.000000 0.035749
#
#
# Mechanical properties :
#
#
# Convention : Reuss Voigt Hill
#
# Bulk Modulus (GPa) = 58.36873 67.55600 62.96236
# Shear Modulus (GPa) = 24.32214 27.06919 25.69567
#
# Velocity S-wave (km/s) = 3.61932 3.81824 3.72011
# Velocity P-wave (km/s) = 6.99302 7.47149 7.23621
#
# Compressibility (1/GPa) = 0.01713246
#
# Stress axis : x y z
#
# Youngs Moduli (GPa) = 39.20294 78.20211 76.95318
#
# Poissons Ratio (x) = 0.47901 0.54663
# Poissons Ratio (y) = 0.24013 0.29629
# Poissons Ratio (z) = 0.27848 0.30110
#
# Static dielectric constant tensor:
#      x y z
#    x 3.226810 0.000000 0.066490 
#    y 0.000000 3.362820 0.000000 
#    z 0.066490 0.000000 3.493560 
# 
# 
# High freq. dielectric constant tensor:
#      x y z
#    x 1.694750 0.000000 0.005750 
#    y 0.000000 1.703080 0.000000 
#    z 0.005750 0.000000 1.733100 
# 
# From -- ./inp_files/61499.got.cif
#   From: 2010.06.25/outbox.cif.g09.slc.cpg/sg15_31_cif.got.tgz:61499.got - 2010.06.28 07:06:18.
