data_PCOD8134147
_publ_section_title
;
Structure prediction by ZEFSAII (Michael W. Deem and Ramdas Pophale) SiO2 
 PCOD8134147
Probable space group: C 2/C
;
_chemical_formula_sum "Si O2"
_cell_formula_units_Z 56
_cell_length_a 13.945269
_cell_length_b 8.465765
_cell_length_c 24.537787
_cell_angle_alpha 90.000000
_cell_angle_beta 110.472799
_cell_angle_gamma 90.000000
_cell_volume 2713.895711
_symmetry_space_group_name_H-M "C 2/C"
_symmetry_group_IT_number 15
_symmetry_cell_setting 'monoclinic'
loop_
_space_group_symop_operation_xyz
x,y,z
-x,y,1/2-z
-x,-y,-z
x,-y,1/2+z
1/2+x,1/2+y,z
1/2-x,1/2+y,1/2-z
1/2-x,1/2-y,-z
1/2+x,1/2-y,1/2+z
loop_
_atom_site_type_symbol
_atom_site_label
_atom_site_fract_x
_atom_site_fract_y
_atom_site_fract_z
Si Si1 0.788179 0.303511 0.376301
Si Si2 0.932466 0.595379 0.818132
Si Si3 0.157768 0.383606 0.384568
Si Si4 0.624159 0.521327 0.403857
Si Si5 0.296501 0.393063 0.976488
Si Si6 0.443826 0.545654 0.293589
Si Si7 0.772063 0.476774 0.706940
O O1 0.877866 0.403429 0.366292
O O2 0.707434 0.417421 0.388739
O O3 0.842485 0.182847 0.430235
O O4 0.733000 0.199628 0.318570
O O5 0.871360 0.479763 0.765523
O O6 0.047284 0.535441 0.851314
O O7 0.936141 0.765723 0.790371
O O8 0.209038 0.480973 0.443611
O O9 0.220709 0.396131 0.340628
O O10 0.152066 0.203354 0.401271
O O11 0.621607 0.479787 0.467897
O O12 0.511377 0.487506 0.358295
O O13 0.250000 0.250000 0.000000
O O14 0.500000 0.485777 0.250000
O O15 0.329105 0.477712 0.277789
#
# Coordination Sequence:
#
# PCOD8134147 Si02
#       7
#     8   8   8   8   8   8   8
#     4   9  20  37  56  82 114 146 185 236 285 333
#     4  10  19  35  57  81 112 148 186 231 280 339
#     4  10  20  36  59  85 110 150 194 231 282 338
#     4  10  19  37  60  82 111 148 188 235 284 336
#     4   9  19  38  57  80 116 149 189 240 284 332
#     4  10  20  35  56  83 111 144 185 232 282 336
#     4  10  20  36  56  81 114 147 180 229 285 340
#
# _framework density 20.634544000000002
#
# number of rings (size 3 to 8) (size 9 to 14) (size 15 to 20)
#    0.000    2.286    0.000    3.429    0.000    1.143 
#    0.000   37.143    0.000    0.000    0.000    0.000 
#    0.000    0.000    0.000    0.000    0.000    0.000 
#
# Total GULP energy -347075.066885 kJ/mol
# GULP energy per Si atom -12395.538103 kJ/mol
# Density = 2.058758 g / cm^3
# Si number density = 20.634544 Si / 1000 Ang^3
#
#
#
# Elastic Constant Matrix: (Units=GPa)
#
#
# Indices 1 2 3 4 5 6 
#
# 1 86.5368 18.9231 50.9265 0.0000 6.9972 0.0000
# 2 18.9231 54.9848 36.9194 0.0000 4.0932 0.0000
# 3 50.9265 36.9194 145.8740 0.0000 17.2664 0.0000
# 4 0.0000 0.0000 0.0000 33.0681 0.0000 -1.1407
# 5 6.9972 4.0932 17.2664 0.0000 32.9711 0.0000
# 6 0.0000 0.0000 0.0000 -1.1407 0.0000 24.7248
#
#
#
# Elastic Compliance Matrix: (Units=1/GPa)
#
#
# Indices 1 2 3 4 5 6 
#
# 1 0.014722 -0.001949 -0.004590 0.000000 -0.000479 0.000000
# 2 -0.001949 0.022169 -0.004961 0.000000 0.000259 0.000000
# 3 -0.004590 -0.004961 0.010154 0.000000 -0.003728 0.000000
# 4 0.000000 0.000000 0.000000 0.030289 0.000000 0.001397
# 5 -0.000479 0.000259 -0.003728 0.000000 0.032351 0.000000
# 6 0.000000 0.000000 0.000000 0.001397 0.000000 0.040510
#
#
# Mechanical properties :
#
#
# Convention : Reuss Voigt Hill
#
# Bulk Modulus (GPa) = 41.58735 55.65929 48.62332
# Shear Modulus (GPa) = 27.59230 30.19459 28.89345
#
# Velocity S-wave (km/s) = 3.66073 3.82946 3.74605
# Velocity P-wave (km/s) = 6.16976 6.82535 6.50582
#
# Compressibility (1/GPa) = 0.02404577
#
# Stress axis : x y z
#
# Youngs Moduli (GPa) = 67.92721 45.10709 98.48010
#
# Poissons Ratio (x) = 0.08792 0.45198
# Poissons Ratio (y) = 0.13241 0.48857
# Poissons Ratio (z) = 0.31175 0.22378
#
# Static dielectric constant tensor:
#      x y z
#    x 3.830810 0.000000 -0.078040 
#    y 0.000000 3.611330 0.000000 
#    z -0.078040 0.000000 4.259350 
# 
# 
# High freq. dielectric constant tensor:
#      x y z
#    x 1.794400 0.000000 -0.006100 
#    y 0.000000 1.793870 0.000000 
#    z -0.006100 0.000000 1.820610 
# 
# From -- ./inp_files/272631.got.cif
#   From: 2010.06.25/outbox.cif.g09.slc.cpg/sg15_137_cif.got.tgz:272631.got - 2010.06.28 07:06:18.
