data_PCOD8134748
_publ_section_title
;
Structure prediction by ZEFSAII (Michael W. Deem and Ramdas Pophale) SiO2 
 PCOD8134748
Probable space group: C 2/C
;
_chemical_formula_sum "Si O2"
_cell_formula_units_Z 64
_cell_length_a 15.190240
_cell_length_b 13.670678
_cell_length_c 15.697011
_cell_angle_alpha 90.000000
_cell_angle_beta 62.654523
_cell_angle_gamma 90.000000
_cell_volume 2895.398147
_symmetry_space_group_name_H-M "C 2/C"
_symmetry_group_IT_number 15
_symmetry_cell_setting 'monoclinic'
loop_
_space_group_symop_operation_xyz
x,y,z
-x,y,1/2-z
-x,-y,-z
x,-y,1/2+z
1/2+x,1/2+y,z
1/2-x,1/2+y,1/2-z
1/2-x,1/2-y,-z
1/2+x,1/2-y,1/2+z
loop_
_atom_site_type_symbol
_atom_site_label
_atom_site_fract_x
_atom_site_fract_y
_atom_site_fract_z
Si Si1 0.361111 0.987415 0.538858
Si Si2 0.055826 0.171391 0.637070
Si Si3 0.308855 0.520700 0.998803
Si Si4 0.609480 0.807095 0.858657
Si Si5 0.750441 0.149893 0.636987
Si Si6 0.948598 0.617456 0.855260
Si Si7 0.214826 0.692045 0.138430
Si Si8 0.135321 0.670862 0.853275
O O1 0.401791 0.908228 0.587507
O O2 0.428774 0.974478 0.424973
O O3 0.245043 0.978152 0.562486
O O4 0.381717 0.093871 0.564841
O O5 0.085960 0.070689 0.573862
O O6 0.160508 0.224098 0.607905
O O7 0.000000 0.144447 0.750000
O O8 0.989892 0.241541 0.606261
O O9 0.319618 0.435603 0.065621
O O10 0.232192 0.598116 0.073432
O O11 0.686165 0.747497 0.883223
O O12 0.646578 0.835388 0.748567
O O13 0.654872 0.172185 0.619645
O O14 0.711099 0.123547 0.749741
O O15 0.000000 0.569902 0.750000
O O16 0.027158 0.695056 0.860882
O O17 0.320663 0.730847 0.125803
#
# Coordination Sequence:
#
# PCOD8134748 Si02
#       8
#     8   8   8   8   8   8   8   8
#     4  11  22  35  62  91 119 160 202 248 303 371
#     4  10  22  40  62  91 125 161 200 252 306 360
#     4  11  22  38  65  89 123 160 204 250 311 359
#     4  10  23  40  62  88 123 163 208 247 304 362
#     4   9  21  40  59  84 122 162 196 257 300 359
#     4   9  20  35  54  84 120 153 192 245 304 355
#     4  10  21  39  62  89 125 157 194 259 307 364
#     4  10  19  36  61  89 121 152 201 249 308 364
#
# _framework density 22.104042
#
# number of rings (size 3 to 8) (size 9 to 14) (size 15 to 20)
#    0.000    2.000    1.250    1.500    1.750    4.500 
#    0.000    6.875    2.750    1.500    0.000    0.000 
#    0.000    0.000    0.000    0.000    0.000    0.000 
#
# Total GULP energy -396617.929495 kJ/mol
# GULP energy per Si atom -12394.310297 kJ/mol
# Density = 2.205373 g / cm^3
# Si number density = 22.104042 Si / 1000 Ang^3
#
#
#
# Elastic Constant Matrix: (Units=GPa)
#
#
# Indices 1 2 3 4 5 6 
#
# 1 90.3142 11.6768 29.2697 0.0000 3.0114 0.0000
# 2 11.6768 35.4828 12.8155 0.0000 2.6360 0.0000
# 3 29.2697 12.8155 45.9126 0.0000 1.0668 0.0000
# 4 0.0000 0.0000 0.0000 21.2711 0.0000 4.1327
# 5 3.0114 2.6360 1.0668 0.0000 29.5255 0.0000
# 6 0.0000 0.0000 0.0000 4.1327 0.0000 33.5708
#
#
#
# Elastic Compliance Matrix: (Units=1/GPa)
#
#
# Indices 1 2 3 4 5 6 
#
# 1 0.014060 -0.001473 -0.008529 0.000000 -0.000994 0.000000
# 2 -0.001473 0.031680 -0.007848 0.000000 -0.002395 0.000000
# 3 -0.008529 -0.007848 0.029397 0.000000 0.000508 0.000000
# 4 0.000000 0.000000 0.000000 0.048164 0.000000 -0.005929
# 5 -0.000994 -0.002395 0.000508 0.000000 0.034166 0.000000
# 6 0.000000 0.000000 0.000000 -0.005929 0.000000 0.030518
#
#
# Mechanical properties :
#
#
# Convention : Reuss Voigt Hill
#
# Bulk Modulus (GPa) = 25.35726 31.02596 28.19161
# Shear Modulus (GPa) = 21.11213 24.73665 22.92439
#
# Velocity S-wave (km/s) = 3.09386 3.34893 3.22392
# Velocity P-wave (km/s) = 4.92538 5.38707 5.16139
#
# Compressibility (1/GPa) = 0.03943644
#
# Stress axis : x y z
#
# Youngs Moduli (GPa) = 71.12244 31.56591 34.01716
#
# Poissons Ratio (x) = 0.04648 0.29015
# Poissons Ratio (y) = 0.10473 0.26698
# Poissons Ratio (z) = 0.60663 0.24774
#
# Static dielectric constant tensor:
#      x y z
#    x 4.267040 0.000000 0.154600 
#    y 0.000000 3.544320 0.000000 
#    z 0.154600 0.000000 4.205910 
# 
# 
# High freq. dielectric constant tensor:
#      x y z
#    x 1.877600 0.000000 0.009960 
#    y 0.000000 1.830750 0.000000 
#    z 0.009960 0.000000 1.882490 
# 
# From -- ./inp_files/205415.got.cif
#   From: 2010.06.25/outbox.cif.g09.slc.cpg/sg15_103_cif.got.tgz:205415.got - 2010.06.28 07:06:18.
