data_PCOD8134680
_publ_section_title
;
Structure prediction by ZEFSAII (Michael W. Deem and Ramdas Pophale) SiO2 
 PCOD8134680
Probable space group: C 2/C
;
_chemical_formula_sum "Si O2"
_cell_formula_units_Z 64
_cell_length_a 12.487376
_cell_length_b 15.715692
_cell_length_c 31.190277
_cell_angle_alpha 90.000000
_cell_angle_beta 145.950494
_cell_angle_gamma 90.000000
_cell_volume 3427.215332
_symmetry_space_group_name_H-M "C 2/C"
_symmetry_group_IT_number 15
_symmetry_cell_setting 'monoclinic'
loop_
_space_group_symop_operation_xyz
x,y,z
-x,y,1/2-z
-x,-y,-z
x,-y,1/2+z
1/2+x,1/2+y,z
1/2-x,1/2+y,1/2-z
1/2-x,1/2-y,-z
1/2+x,1/2-y,1/2+z
loop_
_atom_site_type_symbol
_atom_site_label
_atom_site_fract_x
_atom_site_fract_y
_atom_site_fract_z
Si Si1 0.484621 0.509019 0.444335
Si Si2 0.271763 0.264944 0.072488
Si Si3 0.348562 0.307391 0.664388
Si Si4 0.204322 0.663788 0.332622
Si Si5 0.284070 0.872182 0.013319
Si Si6 0.034041 0.820257 0.087157
Si Si7 0.032094 0.598250 0.014596
Si Si8 0.506165 0.741196 0.126688
O O1 0.500000 0.500000 0.500000
O O2 0.326390 0.578865 0.380655
O O3 0.695951 0.536999 0.497460
O O4 0.431170 0.421517 0.402482
O O5 0.318337 0.222984 0.133169
O O6 0.467769 0.284754 0.111656
O O7 0.133267 0.199362 0.002149
O O8 0.166153 0.355619 0.040892
O O9 0.500000 0.338297 0.750000
O O10 0.192085 0.381272 0.603916
O O11 0.473812 0.291873 0.663599
O O12 0.235729 0.222814 0.641574
O O13 0.278456 0.723771 0.317695
O O14 0.000000 0.629885 0.250000
O O15 0.431498 0.839010 0.099014
O O16 0.397744 0.868765 0.007232
O O17 0.107258 0.808042 0.948936
O O18 0.000000 0.500000 0.000000
#
# Coordination Sequence:
#
# PCOD8134680 Si02
#       8
#     8   8   8   8   8   8   8   8
#     4  11  20  35  58  89 119 153 200 249 294 352
#     4  10  20  38  59  85 116 155 197 243 294 357
#     4  10  22  37  58  83 117 155 190 240 302 355
#     4  11  23  37  60  85 122 161 196 244 307 356
#     4   9  17  31  58  82 105 144 196 243 273 332
#     4  10  21  36  60  87 118 154 198 240 295 357
#     4  10  19  36  60  86 111 147 200 242 287 350
#     4   9  18  35  57  80 107 148 200 234 278 347
#
# _framework density 18.674053000000001
#
# number of rings (size 3 to 8) (size 9 to 14) (size 15 to 20)
#    0.000    2.000    2.500    1.500    5.250    0.500 
#    0.000    0.625    0.000    1.500    0.000    0.000 
#    0.000    0.000    0.000    0.000    0.000    0.000 
#
# Total GULP energy -396643.465199 kJ/mol
# GULP energy per Si atom -12395.108287 kJ/mol
# Density = 1.863155 g / cm^3
# Si number density = 18.674053 Si / 1000 Ang^3
#
#
#
# Elastic Constant Matrix: (Units=GPa)
#
#
# Indices 1 2 3 4 5 6 
#
# 1 112.7719 31.1369 35.4407 0.0000 -3.1377 0.0000
# 2 31.1369 118.8510 40.8548 0.0000 1.7525 0.0000
# 3 35.4407 40.8548 89.9748 0.0000 -2.2636 0.0000
# 4 0.0000 0.0000 0.0000 16.3516 0.0000 -2.0085
# 5 -3.1377 1.7525 -2.2636 0.0000 22.3801 0.0000
# 6 0.0000 0.0000 0.0000 -2.0085 0.0000 28.1600
#
#
#
# Elastic Compliance Matrix: (Units=1/GPa)
#
#
# Indices 1 2 3 4 5 6 
#
# 1 0.010391 -0.001593 -0.003338 0.000000 0.001244 0.000000
# 2 -0.001593 0.010249 -0.004062 0.000000 -0.001437 0.000000
# 3 -0.003338 -0.004062 0.014306 0.000000 0.001297 0.000000
# 4 0.000000 0.000000 0.000000 0.061697 0.000000 0.004401
# 5 0.001244 -0.001437 0.001297 0.000000 0.045101 0.000000
# 6 0.000000 0.000000 0.000000 0.004401 0.000000 0.035825
#
#
# Mechanical properties :
#
#
# Convention : Reuss Voigt Hill
#
# Bulk Modulus (GPa) = 58.96637 59.60696 59.28666
# Shear Modulus (GPa) = 24.84972 27.65601 26.25286
#
# Velocity S-wave (km/s) = 3.65185 3.85253 3.75353
# Velocity P-wave (km/s) = 7.03040 7.19571 7.11354
#
# Compressibility (1/GPa) = 0.01695882
#
# Stress axis : x y z
#
# Youngs Moduli (GPa) = 96.23654 97.57179 69.89883
#
# Poissons Ratio (x) = 0.15544 0.23335
# Poissons Ratio (y) = 0.15331 0.28395
# Poissons Ratio (z) = 0.32127 0.39637
#
# Static dielectric constant tensor:
#      x y z
#    x 3.560180 0.000000 0.021830 
#    y 0.000000 3.350070 0.000000 
#    z 0.021830 0.000000 3.185790 
# 
# 
# High freq. dielectric constant tensor:
#      x y z
#    x 1.746210 0.000000 -0.001550 
#    y 0.000000 1.715260 0.000000 
#    z -0.001550 0.000000 1.696230 
# 
# From -- ./inp_files/293072.got.cif
#   From: 2010.06.25/outbox.cif.g09.slc.cpg/sg15_147_cif.got.tgz:293072.got - 2010.06.28 07:06:18.
