data_PCOD8134840
_publ_section_title
;
Structure prediction by ZEFSAII (Michael W. Deem and Ramdas Pophale) SiO2 
 PCOD8134840
Probable space group: C 2/C
;
_chemical_formula_sum "Si O2"
_cell_formula_units_Z 52
_cell_length_a 7.575239
_cell_length_b 15.685000
_cell_length_c 23.439993
_cell_angle_alpha 90.000000
_cell_angle_beta 118.233390
_cell_angle_gamma 90.000000
_cell_volume 2453.736989
_symmetry_space_group_name_H-M "C 2/C"
_symmetry_group_IT_number 15
_symmetry_cell_setting 'monoclinic'
loop_
_space_group_symop_operation_xyz
x,y,z
-x,y,1/2-z
-x,-y,-z
x,-y,1/2+z
1/2+x,1/2+y,z
1/2-x,1/2+y,1/2-z
1/2-x,1/2-y,-z
1/2+x,1/2-y,1/2+z
loop_
_atom_site_type_symbol
_atom_site_label
_atom_site_fract_x
_atom_site_fract_y
_atom_site_fract_z
Si Si1 0.683176 0.985905 0.197475
Si Si2 0.749354 0.496205 0.165313
Si Si3 0.102482 0.081124 0.956662
Si Si4 0.000000 0.131550 0.250000
Si Si5 0.636181 0.849182 0.098095
Si Si6 0.195662 0.893440 0.995328
Si Si7 0.052870 0.823764 0.637122
O O1 0.445897 0.998741 0.156230
O O2 0.725710 0.954563 0.268373
O O3 0.737480 0.916878 0.157131
O O4 0.808897 0.071661 0.206200
O O5 0.586221 0.438173 0.111362
O O6 0.693608 0.594533 0.159786
O O7 0.255905 0.142830 0.946915
O O8 0.221383 0.995007 0.991070
O O9 0.005889 0.125516 0.997776
O O10 0.011947 0.194770 0.197696
O O11 0.672704 0.755631 0.129086
O O12 0.397135 0.858918 0.054452
O O13 0.152025 0.844880 0.929031
#
# Coordination Sequence:
#
# PCOD8134840 Si02
#       7
#     8   8   8   4   8   8   8
#     4  10  19  36  64  84 118 159 217 243 307 365
#     4   9  19  40  58  86 120 168 196 262 300 377
#     4  10  21  38  63  90 124 160 212 244 301 365
#     4  10  22  44  62  88 120 172 200 258 306 384
#     4  12  22  37  64  98 117 165 202 263 302 362
#     4  10  21  41  60  90 128 163 203 254 300 375
#     4  10  23  41  59  88 131 153 207 253 323 357
#
# _framework density 21.192163000000001
#
# number of rings (size 3 to 8) (size 9 to 14) (size 15 to 20)
#    0.000    1.846    1.538    3.692    0.000    1.846 
#    2.769    7.692    0.000    0.000    0.000    0.000 
#    0.000    0.000    0.000    0.000    0.000    0.000 
#
# Total GULP energy -322288.121349 kJ/mol
# GULP energy per Si atom -12395.696975 kJ/mol
# Density = 2.114393 g / cm^3
# Si number density = 21.192163 Si / 1000 Ang^3
#
#
#
# Elastic Constant Matrix: (Units=GPa)
#
#
# Indices 1 2 3 4 5 6 
#
# 1 87.7695 21.3957 23.9063 0.0000 -12.9036 0.0000
# 2 21.3957 59.0296 38.9566 0.0000 -11.1972 0.0000
# 3 23.9063 38.9566 95.8608 0.0000 -16.3902 0.0000
# 4 0.0000 0.0000 0.0000 21.1699 0.0000 -10.4144
# 5 -12.9036 -11.1972 -16.3902 0.0000 36.7765 0.0000
# 6 0.0000 0.0000 0.0000 -10.4144 0.0000 18.9261
#
#
#
# Elastic Compliance Matrix: (Units=1/GPa)
#
#
# Indices 1 2 3 4 5 6 
#
# 1 0.012999 -0.003206 -0.001435 0.000000 0.002945 0.000000
# 2 -0.003206 0.024269 -0.008651 0.000000 0.002409 0.000000
# 3 -0.001435 -0.008651 0.014905 0.000000 0.003505 0.000000
# 4 0.000000 0.000000 0.000000 0.064770 0.000000 0.035641
# 5 0.002945 0.002409 0.003505 0.000000 0.030520 0.000000
# 6 0.000000 0.000000 0.000000 0.035641 0.000000 0.072449
#
#
# Mechanical properties :
#
#
# Convention : Reuss Voigt Hill
#
# Bulk Modulus (GPa) = 39.08096 45.68635 42.38365
# Shear Modulus (GPa) = 19.60585 25.93459 22.77022
#
# Velocity S-wave (km/s) = 3.04492 3.50205 3.28146
# Velocity P-wave (km/s) = 5.55368 6.16096 5.86518
#
# Compressibility (1/GPa) = 0.02558791
#
# Stress axis : x y z
#
# Youngs Moduli (GPa) = 76.92977 41.20503 67.09230
#
# Poissons Ratio (x) = 0.13208 0.09631
# Poissons Ratio (y) = 0.24660 0.58044
# Poissons Ratio (z) = 0.11043 0.35648
#
# Static dielectric constant tensor:
#      x y z
#    x 3.949930 0.000000 -0.301850 
#    y 0.000000 3.475750 0.000000 
#    z -0.301850 0.000000 4.208000 
# 
# 
# High freq. dielectric constant tensor:
#      x y z
#    x 1.827560 0.000000 -0.009860 
#    y 0.000000 1.798250 0.000000 
#    z -0.009860 0.000000 1.850630 
# 
# From -- ./inp_files/264464.got.cif
#   From: 2010.06.25/outbox.cif.g09.slc.cpg/sg15_133_cif.got.tgz:264464.got - 2010.06.28 07:06:18.
