data_PCOD8134912
_publ_section_title
;
Structure prediction by ZEFSAII (Michael W. Deem and Ramdas Pophale) SiO2 
 PCOD8134912
Probable space group: C 2/C
;
_chemical_formula_sum "Si O2"
_cell_formula_units_Z 44
_cell_length_a 12.960609
_cell_length_b 24.120832
_cell_length_c 10.065917
_cell_angle_alpha 90.000000
_cell_angle_beta 129.114349
_cell_angle_gamma 90.000000
_cell_volume 2441.576397
_symmetry_space_group_name_H-M "C 2/C"
_symmetry_group_IT_number 15
_symmetry_cell_setting 'monoclinic'
loop_
_space_group_symop_operation_xyz
x,y,z
-x,y,1/2-z
-x,-y,-z
x,-y,1/2+z
1/2+x,1/2+y,z
1/2-x,1/2+y,1/2-z
1/2-x,1/2-y,-z
1/2+x,1/2-y,1/2+z
loop_
_atom_site_type_symbol
_atom_site_label
_atom_site_fract_x
_atom_site_fract_y
_atom_site_fract_z
Si Si1 0.443709 0.726138 0.016129
Si Si2 0.853605 0.278927 0.684110
Si Si3 0.820625 0.852644 0.797060
Si Si4 0.000000 0.677978 0.750000
Si Si5 0.980906 0.946956 0.575883
Si Si6 0.762559 0.869969 0.460261
O O1 0.379887 0.733565 0.819862
O O2 0.355972 0.683146 0.024762
O O3 0.595514 0.704823 0.143439
O O4 0.436406 0.785394 0.081906
O O5 0.750000 0.250000 0.500000
O O6 0.791002 0.337565 0.683911
O O7 0.000000 0.294273 0.750000
O O8 0.748136 0.875502 0.607022
O O9 0.921893 0.902225 0.914985
O O10 0.884194 0.639287 0.718498
O O11 0.830269 0.922894 0.443401
O O12 0.000000 0.957610 0.750000
O O13 0.000000 0.000000 0.500000
#
# Coordination Sequence:
#
# PCOD8134912 Si02
#       6
#     8   8   8   4   8   8
#     4  11  19  32  53  82 114 149 186 218 270 326
#     4  12  24  35  48  77 125 166 185 215 271 340
#     4  10  19  37  56  80 110 147 190 229 274 334
#     4  12  18  28  56  86 114 140 178 226 264 336
#     4   9  20  41  63  81 102 138 190 246 291 333
#     4  10  20  32  58  84 108 142 186 231 282 326
#
# _framework density 18.021144
#
# number of rings (size 3 to 8) (size 9 to 14) (size 15 to 20)
#    0.000    1.455    5.455    2.727    0.000    0.000 
#    6.545    0.000    2.000    2.182    0.000    0.000 
#    0.000    0.000    0.000    0.000    0.000    0.000 
#
# Total GULP energy -272565.079946 kJ/mol
# GULP energy per Si atom -12389.321816 kJ/mol
# Density = 1.798013 g / cm^3
# Si number density = 18.021144 Si / 1000 Ang^3
#
#
#
# Elastic Constant Matrix: (Units=GPa)
#
#
# Indices 1 2 3 4 5 6 
#
# 1 129.6126 58.2989 34.9490 0.0000 14.3920 0.0000
# 2 58.2989 96.5016 23.0446 0.0000 2.3102 0.0000
# 3 34.9490 23.0446 65.6233 0.0000 -0.3272 0.0000
# 4 0.0000 0.0000 0.0000 17.0766 0.0000 -8.8083
# 5 14.3920 2.3102 -0.3272 0.0000 31.4027 0.0000
# 6 0.0000 0.0000 0.0000 -8.8083 0.0000 20.4798
#
#
#
# Elastic Compliance Matrix: (Units=1/GPa)
#
#
# Indices 1 2 3 4 5 6 
#
# 1 0.012286 -0.006253 -0.004373 0.000000 -0.005216 0.000000
# 2 -0.006253 0.014518 -0.001759 0.000000 0.001780 0.000000
# 3 -0.004373 -0.001759 0.018197 0.000000 0.002323 0.000000
# 4 0.000000 0.000000 0.000000 0.075255 0.000000 0.032367
# 5 -0.005216 0.001780 0.002323 0.000000 0.034128 0.000000
# 6 0.000000 0.000000 0.000000 0.032367 0.000000 0.062750
#
#
# Mechanical properties :
#
#
# Convention : Reuss Voigt Hill
#
# Bulk Modulus (GPa) = 49.43217 58.25804 53.84511
# Shear Modulus (GPa) = 20.10872 25.48817 22.79845
#
# Velocity S-wave (km/s) = 3.34404 3.76486 3.56068
# Velocity P-wave (km/s) = 6.51151 7.16217 6.84458
#
# Compressibility (1/GPa) = 0.02022974
#
# Stress axis : x y z
#
# Youngs Moduli (GPa) = 81.39023 68.88137 54.95436
#
# Poissons Ratio (x) = 0.43074 0.24034
# Poissons Ratio (y) = 0.50896 0.09666
# Poissons Ratio (z) = 0.35596 0.12116
#
# Static dielectric constant tensor:
#      x y z
#    x 3.582100 0.000000 0.149980 
#    y 0.000000 3.054280 0.000000 
#    z 0.149980 0.000000 3.337750 
# 
# 
# High freq. dielectric constant tensor:
#      x y z
#    x 1.705920 0.000000 0.011040 
#    y 0.000000 1.658040 0.000000 
#    z 0.011040 0.000000 1.693370 
# 
# From -- ./inp_files/34480.got.cif
#   From: 2010.06.25/outbox.cif.g09.slc.cpg/sg15_18_cif.got.tgz:34480.got - 2010.06.28 07:06:18.
