data_PCOD8134639
_publ_section_title
;
Structure prediction by ZEFSAII (Michael W. Deem and Ramdas Pophale) SiO2 
 PCOD8134639
Probable space group: C 2/C
;
_chemical_formula_sum "Si O2"
_cell_formula_units_Z 60
_cell_length_a 15.757899
_cell_length_b 9.005527
_cell_length_c 23.094243
_cell_angle_alpha 90.000000
_cell_angle_beta 59.832584
_cell_angle_gamma 90.000000
_cell_volume 2833.392114
_symmetry_space_group_name_H-M "C 2/C"
_symmetry_group_IT_number 15
_symmetry_cell_setting 'monoclinic'
loop_
_space_group_symop_operation_xyz
x,y,z
-x,y,1/2-z
-x,-y,-z
x,-y,1/2+z
1/2+x,1/2+y,z
1/2-x,1/2+y,1/2-z
1/2-x,1/2-y,-z
1/2+x,1/2-y,1/2+z
loop_
_atom_site_type_symbol
_atom_site_label
_atom_site_fract_x
_atom_site_fract_y
_atom_site_fract_z
Si Si1 0.486935 0.217896 0.554529
Si Si2 0.693283 0.845766 0.307708
Si Si3 0.180219 0.921890 0.137304
Si Si4 0.861787 0.357507 0.710235
Si Si5 0.480953 0.118815 0.433574
Si Si6 0.286851 0.852053 0.937220
Si Si7 0.820113 0.888447 0.978540
Si Si8 0.500000 0.695139 0.750000
O O1 0.393363 0.240819 0.628284
O O2 0.458935 0.230635 0.495394
O O3 0.568933 0.339651 0.544741
O O4 0.528011 0.051888 0.544266
O O5 0.754574 0.960880 0.328958
O O6 0.758486 0.729249 0.249638
O O7 0.650644 0.964665 0.276164
O O8 0.219915 0.749735 0.117280
O O9 0.064232 0.917152 0.189030
O O10 0.193903 0.030122 0.078483
O O11 0.913880 0.334628 0.629545
O O12 0.930517 0.300581 0.737306
O O13 0.402125 0.126229 0.409337
O O14 0.250000 0.750000 0.000000
O O15 0.221714 0.002127 0.956752
O O16 0.750000 0.750000 0.000000
#
# Coordination Sequence:
#
# PCOD8134639 Si02
#       8
#     8   8   8   8   8   8   8   4
#     4  10  21  36  61  90 128 160 202 260 322 358
#     4  10  23  44  64  88 126 170 207 260 318 385
#     4  10  22  40  63  88 125 168 204 249 325 373
#     4  10  22  41  67  91 121 166 212 257 313 378
#     4  10  19  38  62  89 123 167 202 254 319 371
#     4  10  19  36  59  86 122 162 199 247 311 374
#     4  11  22  36  61  98 127 157 213 266 303 372
#     4  10  20  42  68  86 118 172 208 250 312 388
#
# _framework density 21.176033
#
# number of rings (size 3 to 8) (size 9 to 14) (size 15 to 20)
#    0.000    1.867    2.667    1.600    3.733    2.133 
#    4.800    6.000    0.000    0.800    0.000    0.000 
#    0.000    0.000    0.000    0.000    0.000    0.000 
#
# Total GULP energy -371674.731234 kJ/mol
# GULP energy per Si atom -12389.157708 kJ/mol
# Density = 2.112784 g / cm^3
# Si number density = 21.176033 Si / 1000 Ang^3
#
#
#
# Elastic Constant Matrix: (Units=GPa)
#
#
# Indices 1 2 3 4 5 6 
#
# 1 70.4407 27.5013 17.3796 0.0000 -18.5482 0.0000
# 2 27.5013 92.1714 51.3824 0.0000 -13.0642 0.0001
# 3 17.3796 51.3824 111.8503 0.0000 -28.9413 0.0000
# 4 0.0000 0.0000 0.0000 35.8160 0.0000 -6.0796
# 5 -18.5482 -13.0642 -28.9413 0.0000 37.9110 0.0000
# 6 0.0000 0.0001 0.0000 -6.0796 0.0000 30.5163
#
#
#
# Elastic Compliance Matrix: (Units=1/GPa)
#
#
# Indices 1 2 3 4 5 6 
#
# 1 0.017975 -0.005145 0.001729 0.000000 0.008341 0.000000
# 2 -0.005145 0.016057 -0.007223 0.000000 -0.002498 0.000000
# 3 0.001729 -0.007223 0.014412 0.000000 0.009359 0.000000
# 4 0.000000 0.000000 0.000000 0.028898 0.000000 0.005757
# 5 0.008341 -0.002498 0.009359 0.000000 0.036742 0.000000
# 6 0.000000 0.000000 0.000000 0.005757 0.000000 0.033916
#
#
# Mechanical properties :
#
#
# Convention : Reuss Voigt Hill
#
# Bulk Modulus (GPa) = 36.81210 51.88765 44.34988
# Shear Modulus (GPa) = 28.03740 32.72859 30.38299
#
# Velocity S-wave (km/s) = 3.64265 3.93561 3.79196
# Velocity P-wave (km/s) = 5.92566 6.72371 6.33726
#
# Compressibility (1/GPa) = 0.02716498
#
# Stress axis : x y z
#
# Youngs Moduli (GPa) = 55.63369 62.27801 69.38785
#
# Poissons Ratio (x) = 0.32039 -0.11995
# Poissons Ratio (y) = 0.28621 0.50121
# Poissons Ratio (z) = -0.09617 0.44986
#
# Static dielectric constant tensor:
#      x y z
#    x 3.455920 0.000000 0.026940 
#    y 0.000000 2.724230 0.000000 
#    z 0.026940 0.000000 3.436650 
# 
# 
# High freq. dielectric constant tensor:
#      x y z
#    x 1.827740 0.000000 -0.018610 
#    y 0.000000 1.811620 0.000000 
#    z -0.018610 0.000000 1.840230 
# 
# From -- ./inp_files/298384.got.cif
#   From: 2010.06.25/outbox.cif.g09.slc.cpg/sg15_150_cif.got.tgz:298384.got - 2010.06.28 07:06:18.
