data_PCOD8134092
_publ_section_title
;
Structure prediction by ZEFSAII (Michael W. Deem and Ramdas Pophale) SiO2 
 PCOD8134092
Probable space group: C 2/C
;
_chemical_formula_sum "Si O2"
_cell_formula_units_Z 56
_cell_length_a 7.657883
_cell_length_b 36.568603
_cell_length_c 18.091903
_cell_angle_alpha 90.000000
_cell_angle_beta 34.403313
_cell_angle_gamma 90.000000
_cell_volume 2862.602880
_symmetry_space_group_name_H-M "C 2/C"
_symmetry_group_IT_number 15
_symmetry_cell_setting 'monoclinic'
loop_
_space_group_symop_operation_xyz
x,y,z
-x,y,1/2-z
-x,-y,-z
x,-y,1/2+z
1/2+x,1/2+y,z
1/2-x,1/2+y,1/2-z
1/2-x,1/2-y,-z
1/2+x,1/2-y,1/2+z
loop_
_atom_site_type_symbol
_atom_site_label
_atom_site_fract_x
_atom_site_fract_y
_atom_site_fract_z
Si Si1 0.653363 0.333169 0.517940
Si Si2 0.817483 0.294515 0.236699
Si Si3 0.267097 0.712539 0.264474
Si Si4 0.099917 0.590318 0.096898
Si Si5 0.496473 0.410684 0.597838
Si Si6 0.695171 0.666513 0.510293
Si Si7 0.300926 0.033780 0.096940
O O1 0.394785 0.312424 0.654707
O O2 0.709638 0.374331 0.527906
O O3 0.527870 0.337923 0.480442
O O4 0.973465 0.310648 0.403057
O O5 0.718707 0.253380 0.249995
O O6 0.510793 0.319621 0.348951
O O7 0.000000 0.293968 0.250000
O O8 0.500000 0.712306 0.250000
O O9 0.947139 0.697254 0.406284
O O10 0.381915 0.580171 0.054250
O O11 0.163301 0.626341 0.024778
O O12 0.795708 0.598811 0.249738
O O13 0.038769 0.557095 0.062991
O O14 0.690135 0.444347 0.562869
O O15 0.000000 0.021840 0.250000
O O16 0.500000 0.000000 0.000000
#
# Coordination Sequence:
#
# PCOD8134092 Si02
#       7
#     8   8   8   8   8   8   8
#     4  10  19  35  56  76 107 147 190 236 278 333
#     4   9  20  35  49  77 113 146 183 239 296 329
#     4  11  21  31  53  79 107 146 193 235 282 338
#     4   9  18  34  60  87 109 148 194 225 271 338
#     4   9  18  34  60  87 109 148 194 225 271 338
#     4  10  19  35  56  76 107 147 190 236 278 333
#     4  10  22  40  62  86 120 146 178 234 284 336
#
# _framework density 19.562615000000001
#
# number of rings (size 3 to 8) (size 9 to 14) (size 15 to 20)
#    0.000    2.286    1.429    1.286    2.000    0.571 
#    2.571    2.143    0.000    0.000    0.000    0.000 
#    0.000    0.000    0.000    0.000    0.000    0.000 
#
# Total GULP energy -347117.855278 kJ/mol
# GULP energy per Si atom -12397.066260 kJ/mol
# Density = 1.951809 g / cm^3
# Si number density = 19.562615 Si / 1000 Ang^3
#
#
#
# Elastic Constant Matrix: (Units=GPa)
#
#
# Indices 1 2 3 4 5 6 
#
# 1 57.5676 47.4793 16.0654 0.0000 -4.7523 0.0000
# 2 47.4793 163.0893 62.8103 0.0000 -11.9043 0.0000
# 3 16.0654 62.8103 95.1677 0.0000 -13.2366 0.0000
# 4 0.0000 0.0000 0.0000 40.8305 0.0000 -3.3914
# 5 -4.7523 -11.9043 -13.2366 0.0000 13.0805 0.0000
# 6 0.0000 0.0000 0.0000 -3.3914 0.0000 24.7576
#
#
#
# Elastic Compliance Matrix: (Units=1/GPa)
#
#
# Indices 1 2 3 4 5 6 
#
# 1 0.023010 -0.006892 0.001111 0.000000 0.003212 0.000000
# 2 -0.006892 0.010347 -0.005474 0.000000 0.001373 0.000000
# 3 0.001111 -0.005474 0.015474 0.000000 0.011081 0.000000
# 4 0.000000 0.000000 0.000000 0.024773 0.000000 0.003394
# 5 0.003212 0.001373 0.011081 0.000000 0.090079 0.000000
# 6 0.000000 0.000000 0.000000 0.003394 0.000000 0.040857
#
#
# Mechanical properties :
#
#
# Convention : Reuss Voigt Hill
#
# Bulk Modulus (GPa) = 37.99315 63.17049 50.58182
# Shear Modulus (GPa) = 21.20219 28.36502 24.78361
#
# Velocity S-wave (km/s) = 3.29570 3.81197 3.56320
# Velocity P-wave (km/s) = 5.82629 7.19280 6.54530
#
# Compressibility (1/GPa) = 0.02632053
#
# Stress axis : x y z
#
# Youngs Moduli (GPa) = 43.45846 96.64932 64.62285
#
# Poissons Ratio (x) = 0.66615 -0.07181
# Poissons Ratio (y) = 0.29954 0.35377
# Poissons Ratio (z) = -0.04829 0.52909
#
# Static dielectric constant tensor:
#      x y z
#    x 3.648210 0.000000 -0.001760 
#    y 0.000000 3.625070 0.000000 
#    z -0.001760 0.000000 3.699850 
# 
# 
# High freq. dielectric constant tensor:
#      x y z
#    x 1.756790 0.000000 -0.003530 
#    y 0.000000 1.758030 0.000000 
#    z -0.003530 0.000000 1.752260 
# 
# From -- ./inp_files/234907.got.cif
#   From: 2010.06.25/outbox.cif.g09.slc.cpg/sg15_118_cif.got.tgz:234907.got - 2010.06.28 07:06:18.
