data_PCOD8134002
_publ_section_title
;
Structure prediction by ZEFSAII (Michael W. Deem and Ramdas Pophale) SiO2 
 PCOD8134002
Probable space group: C 2/C
;
_chemical_formula_sum "Si O2"
_cell_formula_units_Z 56
_cell_length_a 27.895880
_cell_length_b 8.809091
_cell_length_c 13.402329
_cell_angle_alpha 90.000000
_cell_angle_beta 118.150385
_cell_angle_gamma 90.000000
_cell_volume 2903.877881
_symmetry_space_group_name_H-M "C 2/C"
_symmetry_group_IT_number 15
_symmetry_cell_setting 'monoclinic'
loop_
_space_group_symop_operation_xyz
x,y,z
-x,y,1/2-z
-x,-y,-z
x,-y,1/2+z
1/2+x,1/2+y,z
1/2-x,1/2+y,1/2-z
1/2-x,1/2-y,-z
1/2+x,1/2-y,1/2+z
loop_
_atom_site_type_symbol
_atom_site_label
_atom_site_fract_x
_atom_site_fract_y
_atom_site_fract_z
Si Si1 0.877733 0.973899 0.575306
Si Si2 0.053224 0.160521 0.002448
Si Si3 0.645626 0.110940 0.602343
Si Si4 0.279914 0.332856 0.942993
Si Si5 0.032795 0.988858 0.688039
Si Si6 0.780945 0.391364 0.151013
Si Si7 0.317897 0.818225 0.972449
O O1 0.908545 0.021739 0.707643
O O2 0.866558 0.795661 0.551186
O O3 0.907067 0.030641 0.502568
O O4 0.821056 0.054070 0.537844
O O5 0.084099 0.323716 0.024133
O O6 0.038269 0.129851 0.102860
O O7 0.997650 0.143825 0.881485
O O8 0.691087 0.210485 0.595058
O O9 0.662414 0.131269 0.734458
O O10 0.652293 0.939259 0.570483
O O11 0.250000 0.250000 0.000000
O O12 0.240416 0.440795 0.838874
O O13 0.000000 0.915125 0.750000
O O14 0.733732 0.266922 0.130002
O O15 0.794956 0.398523 0.048196
#
# Coordination Sequence:
#
# PCOD8134002 Si02
#       7
#     8   8   8   8   8   8   8
#     4   9  19  34  54  79 108 147 183 225 281 332
#     4   9  19  34  58  83 104 135 188 236 277 341
#     4  11  20  34  53  81 115 148 187 236 278 331
#     4  10  19  35  50  77 114 148 189 229 261 327
#     4   9  17  36  61  80 101 139 185 236 287 340
#     4  10  20  34  51  75 113 164 188 220 277 329
#     4  10  20  34  51  78 116 149 193 229 271 339
#
# _framework density 19.284558000000001
#
# number of rings (size 3 to 8) (size 9 to 14) (size 15 to 20)
#    0.000    2.286    1.429    1.714    0.000    0.000 
#   10.286    0.000    0.000   20.571    0.000    0.000 
#    0.000    0.000    0.000    0.000    0.000    0.000 
#
# Total GULP energy -346868.511306 kJ/mol
# GULP energy per Si atom -12388.161118 kJ/mol
# Density = 1.924067 g / cm^3
# Si number density = 19.284558 Si / 1000 Ang^3
#
#
#
# Elastic Constant Matrix: (Units=GPa)
#
#
# Indices 1 2 3 4 5 6 
#
# 1 64.3853 32.9416 36.9124 0.0000 2.9725 0.0000
# 2 32.9416 100.6535 38.7310 0.0000 7.1793 0.0000
# 3 36.9124 38.7310 103.3440 0.0000 8.3358 0.0000
# 4 0.0000 0.0000 0.0000 18.9198 0.0000 0.1765
# 5 2.9725 7.1793 8.3358 0.0000 37.9386 0.0000
# 6 0.0000 0.0000 0.0000 0.1765 0.0000 34.1403
#
#
#
# Elastic Compliance Matrix: (Units=1/GPa)
#
#
# Indices 1 2 3 4 5 6 
#
# 1 0.021304 -0.004750 -0.005871 0.000000 0.000520 0.000000
# 2 -0.004750 0.012728 -0.002962 0.000000 -0.001386 0.000000
# 3 -0.005871 -0.002962 0.013032 0.000000 -0.001843 0.000000
# 4 0.000000 0.000000 0.000000 0.052857 0.000000 -0.000273
# 5 0.000520 -0.001386 -0.001843 0.000000 0.026985 0.000000
# 6 0.000000 0.000000 0.000000 -0.000273 0.000000 0.029292
#
#
# Mechanical properties :
#
#
# Convention : Reuss Voigt Hill
#
# Bulk Modulus (GPa) = 50.25590 53.95033 52.10311
# Shear Modulus (GPa) = 26.31623 28.85292 27.58458
#
# Velocity S-wave (km/s) = 3.69809 3.87223 3.78616
# Velocity P-wave (km/s) = 6.65968 6.93029 6.79633
#
# Compressibility (1/GPa) = 0.01989816
#
# Stress axis : x y z
#
# Youngs Moduli (GPa) = 46.94025 78.56554 76.73380
#
# Poissons Ratio (x) = 0.37320 0.45050
# Poissons Ratio (y) = 0.22297 0.22727
# Poissons Ratio (z) = 0.27558 0.23270
#
# Static dielectric constant tensor:
#      x y z
#    x 3.577510 0.000000 0.347030 
#    y 0.000000 4.773890 0.000000 
#    z 0.347030 0.000000 4.404990 
# 
# 
# High freq. dielectric constant tensor:
#      x y z
#    x 1.747700 0.000000 0.001120 
#    y 0.000000 1.728600 0.000000 
#    z 0.001120 0.000000 1.751620 
# 
# From -- ./inp_files/125625.got.cif
#   From: 2010.06.25/outbox.cif.g09.slc.cpg/sg15_63_cif.got.tgz:125625.got - 2010.06.28 07:06:18.
