data_PCOD8134637
_publ_section_title
;
Structure prediction by ZEFSAII (Michael W. Deem and Ramdas Pophale) SiO2 
 PCOD8134637
Probable space group: C 2/C
;
_chemical_formula_sum "Si O2"
_cell_formula_units_Z 48
_cell_length_a 6.613152
_cell_length_b 27.440085
_cell_length_c 14.975295
_cell_angle_alpha 90.000000
_cell_angle_beta 125.141630
_cell_angle_gamma 90.000000
_cell_volume 2222.184862
_symmetry_space_group_name_H-M "C 2/C"
_symmetry_group_IT_number 15
_symmetry_cell_setting 'monoclinic'
loop_
_space_group_symop_operation_xyz
x,y,z
-x,y,1/2-z
-x,-y,-z
x,-y,1/2+z
1/2+x,1/2+y,z
1/2-x,1/2+y,1/2-z
1/2-x,1/2-y,-z
1/2+x,1/2-y,1/2+z
loop_
_atom_site_type_symbol
_atom_site_label
_atom_site_fract_x
_atom_site_fract_y
_atom_site_fract_z
Si Si1 0.233213 0.405957 0.966115
Si Si2 0.023236 0.686939 0.033478
Si Si3 0.500000 0.111193 0.750000
Si Si4 0.588623 0.464428 0.175324
Si Si5 0.162080 0.163065 0.541797
Si Si6 0.955175 0.765476 0.137546
Si Si7 0.500000 0.958598 0.750000
O O1 0.089646 0.367461 0.992716
O O2 0.025595 0.425660 0.844897
O O3 0.351679 0.450794 0.053213
O O4 0.453709 0.377825 0.970566
O O5 0.057430 0.710245 0.142161
O O6 0.840311 0.728302 0.946251
O O7 0.272996 0.687430 0.037457
O O8 0.734671 0.081815 0.774132
O O9 0.420603 0.141004 0.642473
O O10 0.500000 0.479284 0.250000
O O11 0.747512 0.510126 0.181004
O O12 0.085025 0.198425 0.601426
O O13 0.000000 0.780270 0.250000
#
# Coordination Sequence:
#
# PCOD8134637 Si02
#       7
#     8   8   4   8   8   8   4
#     4  10  23  39  60  86 121 157 200 249 305 361
#     4  10  21  37  58  84 120 161 199 246 294 353
#     4   9  18  32  58  88 116 148 194 256 292 343
#     4  10  21  38  61  89 115 152 200 248 307 363
#     4  10  19  36  59  86 119 158 206 242 296 359
#     4  10  21  35  57  87 121 158 200 249 295 343
#     4  11  24  40  60  86 122 156 196 256 304 365
#
# _framework density 21.600363000000002
#
# number of rings (size 3 to 8) (size 9 to 14) (size 15 to 20)
#    0.000    2.000    0.000    3.000    1.167    6.667 
#    0.000    0.000    0.000    0.000    0.000    0.000 
#    0.000    0.000    0.000    0.000    0.000    0.000 
#
# Total GULP energy -297397.499237 kJ/mol
# GULP energy per Si atom -12391.562468 kJ/mol
# Density = 2.155120 g / cm^3
# Si number density = 21.600363 Si / 1000 Ang^3
#
#
#
# Elastic Constant Matrix: (Units=GPa)
#
#
# Indices 1 2 3 4 5 6 
#
# 1 102.3862 29.3267 27.0250 0.0000 -23.7902 0.0000
# 2 29.3267 82.6602 37.9400 0.0000 -8.1022 0.0000
# 3 27.0250 37.9400 99.3378 0.0000 -7.4386 0.0000
# 4 0.0000 0.0000 0.0000 23.6053 0.0000 -5.5934
# 5 -23.7902 -8.1022 -7.4386 0.0000 28.0054 0.0000
# 6 0.0000 0.0000 0.0000 -5.5934 0.0000 12.6261
#
#
#
# Elastic Compliance Matrix: (Units=1/GPa)
#
#
# Indices 1 2 3 4 5 6 
#
# 1 0.013423 -0.002965 -0.001765 0.000000 0.010076 0.000000
# 2 -0.002965 0.015544 -0.005083 0.000000 0.000629 0.000000
# 3 -0.001765 -0.005083 0.012515 0.000000 0.000354 0.000000
# 4 0.000000 0.000000 0.000000 0.047332 0.000000 0.020968
# 5 0.010076 0.000629 0.000354 0.000000 0.044543 0.000000
# 6 0.000000 0.000000 0.000000 0.020968 0.000000 0.088490
#
#
# Mechanical properties :
#
#
# Convention : Reuss Voigt Hill
#
# Bulk Modulus (GPa) = 45.75263 52.55196 49.15230
# Shear Modulus (GPa) = 20.09980 25.52019 22.81000
#
# Velocity S-wave (km/s) = 3.05377 3.44098 3.25314
# Velocity P-wave (km/s) = 5.80185 6.33791 6.07580
#
# Compressibility (1/GPa) = 0.02185667
#
# Stress axis : x y z
#
# Youngs Moduli (GPa) = 74.49729 64.33240 79.90550
#
# Poissons Ratio (x) = 0.19072 0.14103
# Poissons Ratio (y) = 0.22086 0.40618
# Poissons Ratio (z) = 0.13149 0.32702
#
# Static dielectric constant tensor:
#      x y z
#    x 3.791320 0.000000 0.050820 
#    y 0.000000 3.976140 0.000000 
#    z 0.050820 0.000000 3.886860 
# 
# 
# High freq. dielectric constant tensor:
#      x y z
#    x 1.847640 0.000000 -0.002320 
#    y 0.000000 1.847840 0.000000 
#    z -0.002320 0.000000 1.832200 
# 
# From -- ./inp_files/130972.got.cif
#   From: 2010.06.25/outbox.cif.g09.slc.cpg/sg15_66_cif.got.tgz:130972.got - 2010.06.28 07:06:18.
