data_PCOD8134881
_publ_section_title
;
Structure prediction by ZEFSAII (Michael W. Deem and Ramdas Pophale) SiO2 
 PCOD8134881
Probable space group: C 2/C
;
_chemical_formula_sum "Si O2"
_cell_formula_units_Z 60
_cell_length_a 11.153557
_cell_length_b 16.896816
_cell_length_c 16.294613
_cell_angle_alpha 90.000000
_cell_angle_beta 80.635259
_cell_angle_gamma 90.000000
_cell_volume 3029.949100
_symmetry_space_group_name_H-M "C 2/C"
_symmetry_group_IT_number 15
_symmetry_cell_setting 'monoclinic'
loop_
_space_group_symop_operation_xyz
x,y,z
-x,y,1/2-z
-x,-y,-z
x,-y,1/2+z
1/2+x,1/2+y,z
1/2-x,1/2+y,1/2-z
1/2-x,1/2-y,-z
1/2+x,1/2-y,1/2+z
loop_
_atom_site_type_symbol
_atom_site_label
_atom_site_fract_x
_atom_site_fract_y
_atom_site_fract_z
Si Si1 0.500000 0.071673 0.250000
Si Si2 0.711953 0.183998 0.282337
Si Si3 0.436451 0.047869 0.436269
Si Si4 0.300633 0.435206 0.448080
Si Si5 0.771553 0.772995 0.375402
Si Si6 0.416581 0.426838 0.829809
Si Si7 0.481383 0.776523 0.576138
Si Si8 0.059697 0.838838 0.950949
O O1 0.618880 0.125662 0.246209
O O2 0.474105 0.021988 0.337714
O O3 0.752717 0.254825 0.217531
O O4 0.827733 0.135880 0.298754
O O5 0.648002 0.226683 0.365377
O O6 0.293103 0.038077 0.469868
O O7 0.482275 0.135246 0.448619
O O8 0.500000 0.000000 0.500000
O O9 0.240583 0.364669 0.399618
O O10 0.337891 0.508134 0.386144
O O11 0.420345 0.407124 0.483331
O O12 0.687472 0.709663 0.432895
O O13 0.913015 0.760835 0.379510
O O14 0.500000 0.467431 0.750000
O O15 0.510784 0.377595 0.874538
O O16 0.462441 0.724658 0.495929
#
# Coordination Sequence:
#
# PCOD8134881 Si02
#       8
#     4   8   8   8   8   8   8   8
#     4  10  20  38  66  90 122 162 222 260 310 384
#     4  11  20  38  64  94 122 168 212 263 314 384
#     4  11  20  36  63  94 125 160 211 278 321 369
#     4  11  22  39  64  96 119 166 223 262 312 395
#     4  11  18  38  70  90 118 163 218 258 305 381
#     4  12  27  40  60  92 139 171 203 266 348 392
#     4  10  19  36  67  92 111 159 226 264 296 381
#     4  11  21  41  65  87 127 171 206 258 331 398
#
# _framework density 19.802313000000002
#
# number of rings (size 3 to 8) (size 9 to 14) (size 15 to 20)
#    0.000    1.067    6.667    2.800    0.000    2.667 
#    0.000    0.000    7.333    0.000    0.000    0.000 
#    0.000    0.000    0.000    0.000    0.000    0.000 
#
# Total GULP energy -371780.051447 kJ/mol
# GULP energy per Si atom -12392.668382 kJ/mol
# Density = 1.975724 g / cm^3
# Si number density = 19.802313 Si / 1000 Ang^3
#
#
#
# Elastic Constant Matrix: (Units=GPa)
#
#
# Indices 1 2 3 4 5 6 
#
# 1 61.2793 28.3585 39.1065 0.0000 1.9349 0.0000
# 2 28.3585 67.8802 52.8716 0.0000 0.4408 0.0000
# 3 39.1065 52.8716 153.9868 0.0000 -18.4421 0.0000
# 4 0.0000 0.0000 0.0000 39.7099 0.0000 -2.9597
# 5 1.9349 0.4408 -18.4421 0.0000 40.3621 0.0000
# 6 0.0000 0.0000 0.0000 -2.9597 0.0000 21.0181
#
#
#
# Elastic Compliance Matrix: (Units=1/GPa)
#
#
# Indices 1 2 3 4 5 6 
#
# 1 0.021598 -0.006123 -0.003701 0.000000 -0.002660 0.000000
# 2 -0.006123 0.022344 -0.006465 0.000000 -0.002904 0.000000
# 3 -0.003701 -0.006465 0.010244 0.000000 0.004929 0.000000
# 4 0.000000 0.000000 0.000000 0.025450 0.000000 0.003584
# 5 -0.002660 -0.002904 0.004929 0.000000 0.027187 0.000000
# 6 0.000000 0.000000 0.000000 0.003584 0.000000 0.048083
#
#
# Mechanical properties :
#
#
# Convention : Reuss Voigt Hill
#
# Bulk Modulus (GPa) = 46.27836 58.20216 52.24026
# Shear Modulus (GPa) = 25.68231 31.07199 28.37715
#
# Velocity S-wave (km/s) = 3.60520 3.96550 3.78963
# Velocity P-wave (km/s) = 6.38364 7.10086 6.75178
#
# Compressibility (1/GPa) = 0.02160837
#
# Stress axis : x y z
#
# Youngs Moduli (GPa) = 46.29990 44.75471 97.61820
#
# Poissons Ratio (x) = 0.27403 0.36132
# Poissons Ratio (y) = 0.28349 0.63107
# Poissons Ratio (z) = 0.17137 0.28933
#
# Static dielectric constant tensor:
#      x y z
#    x 3.520010 0.000000 -0.225520 
#    y 0.000000 6.011120 0.000000 
#    z -0.225520 0.000000 4.015730 
# 
# 
# High freq. dielectric constant tensor:
#      x y z
#    x 1.759580 0.000000 -0.015150 
#    y 0.000000 1.749810 0.000000 
#    z -0.015150 0.000000 1.788130 
# 
# From -- ./inp_files/197826.got.cif
#   From: 2010.06.25/outbox.cif.g09.slc.cpg/sg15_99_cif.got.tgz:197826.got - 2010.06.28 07:06:18.
