data_PCOD8134123
_publ_section_title
;
Structure prediction by ZEFSAII (Michael W. Deem and Ramdas Pophale) SiO2 
 PCOD8134123
Probable space group: C 2/C
;
_chemical_formula_sum "Si O2"
_cell_formula_units_Z 60
_cell_length_a 6.466354
_cell_length_b 19.517382
_cell_length_c 25.410201
_cell_angle_alpha 90.000000
_cell_angle_beta 91.225108
_cell_angle_gamma 90.000000
_cell_volume 3206.194409
_symmetry_space_group_name_H-M "C 2/C"
_symmetry_group_IT_number 15
_symmetry_cell_setting 'monoclinic'
loop_
_space_group_symop_operation_xyz
x,y,z
-x,y,1/2-z
-x,-y,-z
x,-y,1/2+z
1/2+x,1/2+y,z
1/2-x,1/2+y,1/2-z
1/2-x,1/2-y,-z
1/2+x,1/2-y,1/2+z
loop_
_atom_site_type_symbol
_atom_site_label
_atom_site_fract_x
_atom_site_fract_y
_atom_site_fract_z
Si Si1 0.500000 0.417379 0.750000
Si Si2 0.033533 0.207906 0.691204
Si Si3 0.430420 0.672452 0.957835
Si Si4 0.376557 0.017864 0.198687
Si Si5 0.145398 0.199835 0.427062
Si Si6 0.673036 0.858548 0.672226
Si Si7 0.313992 0.110671 0.627612
Si Si8 0.310475 0.802581 0.395497
O O1 0.354861 0.464075 0.785429
O O2 0.364907 0.370323 0.711506
O O3 0.076697 0.288015 0.690647
O O4 0.225751 0.165148 0.669297
O O5 0.000000 0.181575 0.750000
O O6 0.824900 0.196138 0.657723
O O7 0.307297 0.739518 0.937793
O O8 0.342841 0.608016 0.923451
O O9 0.671087 0.685203 0.946611
O O10 0.401756 0.658950 0.019446
O O11 0.500000 0.988090 0.250000
O O12 0.348701 0.963215 0.152580
O O13 0.499940 0.082825 0.176029
O O14 0.245115 0.145796 0.387209
O O15 0.932898 0.230943 0.402589
O O16 0.535102 0.134082 0.607587
#
# Coordination Sequence:
#
# PCOD8134123 Si02
#       8
#     4   8   8   8   8   8   8   8
#     4  10  24  40  62  76 118 160 190 230 286 338
#     4  11  23  33  56  89 120 142 195 247 283 342
#     4   9  19  36  57  88 118 144 194 244 290 345
#     4  10  24  40  58  81 116 161 195 227 288 363
#     4  10  19  35  59  85 117 153 188 241 295 343
#     4  11  22  39  56  89 116 153 193 237 287 353
#     4  10  22  38  57  86 115 152 192 241 287 343
#     4  10  19  35  56  86 116 152 185 235 299 341
#
# _framework density 18.713774000000001
#
# number of rings (size 3 to 8) (size 9 to 14) (size 15 to 20)
#    0.000    1.867    4.000    1.600    6.533    3.200 
#    0.000    0.667    0.000    1.600    0.000    0.000 
#    0.000    0.000    0.000    0.000    0.000    0.000 
#
# Total GULP energy -371992.544612 kJ/mol
# GULP energy per Si atom -12399.751487 kJ/mol
# Density = 1.867118 g / cm^3
# Si number density = 18.713774 Si / 1000 Ang^3
#
#
#
# Elastic Constant Matrix: (Units=GPa)
#
#
# Indices 1 2 3 4 5 6 
#
# 1 109.5800 29.7304 38.2487 0.0000 -19.8772 0.0000
# 2 29.7304 71.1096 25.1760 0.0000 -4.2636 0.0000
# 3 38.2487 25.1760 128.1365 0.0000 -18.7614 0.0000
# 4 0.0000 0.0000 0.0000 23.8073 0.0000 -7.9996
# 5 -19.8772 -4.2636 -18.7614 0.0000 28.3019 0.0000
# 6 0.0000 0.0000 0.0000 -7.9996 0.0000 0.6779
#
#
#
# Elastic Compliance Matrix: (Units=1/GPa)
#
#
# Indices 1 2 3 4 5 6 
#
# 1 0.012057 -0.003990 -0.001842 0.000000 0.006646 0.000000
# 2 -0.003990 0.016438 -0.002311 0.000000 -0.001858 0.000000
# 3 -0.001842 -0.002311 0.009489 0.000000 0.004648 0.000000
# 4 0.000000 0.000000 0.000000 -0.014166 0.000000 -0.167166
# 5 0.006646 -0.001858 0.004648 0.000000 0.042802 0.000000
# 6 0.000000 0.000000 0.000000 -0.167166 0.000000 -0.497495
#
#
# Mechanical properties :
#
#
# Convention : Reuss Voigt Hill
#
# Bulk Modulus (GPa) = 46.08811 55.01513 50.55162
# Shear Modulus (GPa) = -12.27422 24.93548 6.33063
#
# Velocity S-wave (km/s) = -2.56382 3.65426 1.84125
# Velocity P-wave (km/s) = 3.98963 6.87509 5.62067
#
# Compressibility (1/GPa) = 0.02169757
#
# Stress axis : x y z
#
# Youngs Moduli (GPa) = 82.94102 60.83553 105.39011
#
# Poissons Ratio (x) = 0.24275 0.19412
# Poissons Ratio (y) = 0.33096 0.24351
# Poissons Ratio (z) = 0.15277 0.14057
#
# Static dielectric constant tensor:
#      x y z
#    x 3.719840 0.000000 0.000500 
#    y 0.000000 3.104850 0.000000 
#    z 0.000500 0.000000 3.741370 
# 
# 
# High freq. dielectric constant tensor:
#      x y z
#    x 1.743180 0.000000 -0.009110 
#    y 0.000000 1.691290 0.000000 
#    z -0.009110 0.000000 1.736000 
# 
# From -- ./inp_files/286372.got.cif
#   From: 2010.06.25/outbox.cif.g09.slc.cpg/sg15_144_cif.got.tgz:286372.got - 2010.06.28 07:06:18.
