data_PCOD8134732
_publ_section_title
;
Structure prediction by ZEFSAII (Michael W. Deem and Ramdas Pophale) SiO2 
 PCOD8134732
Probable space group: C 2/C
;
_chemical_formula_sum "Si O2"
_cell_formula_units_Z 56
_cell_length_a 8.209541
_cell_length_b 17.073357
_cell_length_c 22.529418
_cell_angle_alpha 90.000000
_cell_angle_beta 64.014883
_cell_angle_gamma 90.000000
_cell_volume 2838.591911
_symmetry_space_group_name_H-M "C 2/C"
_symmetry_group_IT_number 15
_symmetry_cell_setting 'monoclinic'
loop_
_space_group_symop_operation_xyz
x,y,z
-x,y,1/2-z
-x,-y,-z
x,-y,1/2+z
1/2+x,1/2+y,z
1/2-x,1/2+y,1/2-z
1/2-x,1/2-y,-z
1/2+x,1/2-y,1/2+z
loop_
_atom_site_type_symbol
_atom_site_label
_atom_site_fract_x
_atom_site_fract_y
_atom_site_fract_z
Si Si1 0.391636 0.527926 0.436964
Si Si2 0.293412 0.817379 0.117913
Si Si3 0.972704 0.488108 0.821936
Si Si4 0.289804 0.645049 0.109313
Si Si5 0.934506 0.857726 0.462018
Si Si6 0.817691 0.614585 0.933673
Si Si7 0.827837 0.029566 0.816750
O O1 0.539310 0.593501 0.398854
O O2 0.462838 0.452182 0.461649
O O3 0.226687 0.565767 0.499621
O O4 0.330529 0.493675 0.384431
O O5 0.279830 0.728711 0.144479
O O6 0.163963 0.825963 0.080575
O O7 0.507796 0.834532 0.074435
O O8 0.217326 0.877364 0.179596
O O9 0.171294 0.476548 0.815669
O O10 0.000000 0.513459 0.750000
O O11 0.886774 0.402898 0.844508
O O12 0.860695 0.555912 0.872665
O O13 0.304347 0.666658 0.037141
O O14 0.145704 0.830660 0.439646
O O15 0.000000 0.009938 0.750000
#
# Coordination Sequence:
#
# PCOD8134732 Si02
#       7
#     8   8   8   8   8   8   8
#     4  10  19  36  66  84 120 148 199 252 276 349
#     4  10  24  35  59  87 126 152 189 245 292 360
#     4  11  22  36  65  84 113 152 202 245 283 351
#     4  11  20  38  56  92 118 151 192 243 301 333
#     4  10  19  36  61  86 122 155 191 245 283 356
#     4  10  20  39  60  91 113 158 199 233 299 342
#     4  10  23  40  59  86 112 156 197 240 293 350
#
# _framework density 19.728090999999999
#
# number of rings (size 3 to 8) (size 9 to 14) (size 15 to 20)
#    0.000    1.714    2.857    2.143    4.000    4.571 
#    2.571    0.000    0.000    3.429    0.000    0.000 
#    0.000    0.000    0.000    0.000    0.000    0.000 
#
# Total GULP energy -346990.756382 kJ/mol
# GULP energy per Si atom -12392.527014 kJ/mol
# Density = 1.968319 g / cm^3
# Si number density = 19.728091 Si / 1000 Ang^3
#
#
#
# Elastic Constant Matrix: (Units=GPa)
#
#
# Indices 1 2 3 4 5 6 
#
# 1 104.7339 35.4885 29.7723 0.0000 -22.7752 0.0000
# 2 35.4885 114.8581 26.6480 0.0000 -9.3150 0.0000
# 3 29.7723 26.6480 97.7259 0.0000 -22.8949 0.0000
# 4 0.0000 0.0000 0.0000 14.7428 0.0000 -7.1559
# 5 -22.7752 -9.3150 -22.8949 0.0000 20.7099 0.0000
# 6 0.0000 0.0000 0.0000 -7.1559 0.0000 16.3730
#
#
#
# Elastic Compliance Matrix: (Units=1/GPa)
#
#
# Indices 1 2 3 4 5 6 
#
# 1 0.013528 -0.003061 -0.000167 0.000000 0.013316 0.000000
# 2 -0.003061 0.010041 -0.002073 0.000000 -0.001142 0.000000
# 3 -0.000167 -0.002073 0.014288 0.000000 0.014679 0.000000
# 4 0.000000 0.000000 0.000000 0.086094 0.000000 0.037628
# 5 0.013316 -0.001142 0.014679 0.000000 0.078644 0.000000
# 6 0.000000 0.000000 0.000000 0.037628 0.000000 0.077522
#
#
# Mechanical properties :
#
#
# Convention : Reuss Voigt Hill
#
# Bulk Modulus (GPa) = 36.69118 55.68173 46.18646
# Shear Modulus (GPa) = 16.67758 25.39240 21.03499
#
# Velocity S-wave (km/s) = 2.91068 3.59154 3.26888
# Velocity P-wave (km/s) = 5.47128 6.74424 6.14083
#
# Compressibility (1/GPa) = 0.02725450
#
# Stress axis : x y z
#
# Youngs Moduli (GPa) = 73.91827 99.59612 69.98972
#
# Poissons Ratio (x) = 0.30489 0.01169
# Poissons Ratio (y) = 0.22629 0.14507
# Poissons Ratio (z) = 0.01235 0.20644
#
# Static dielectric constant tensor:
#      x y z
#    x 3.630570 0.000000 -0.166320 
#    y 0.000000 3.577280 0.000000 
#    z -0.166320 0.000000 3.321420 
# 
# 
# High freq. dielectric constant tensor:
#      x y z
#    x 1.778400 0.000000 -0.007540 
#    y 0.000000 1.756500 0.000000 
#    z -0.007540 0.000000 1.758660 
# 
# From -- ./inp_files/265161.got.cif
#   From: 2010.06.25/outbox.cif.g09.slc.cpg/sg15_133_cif.got.tgz:265161.got - 2010.06.28 07:06:18.
