data_PCOD8134594
_publ_section_title
;
Structure prediction by ZEFSAII (Michael W. Deem and Ramdas Pophale) SiO2 
 PCOD8134594
Probable space group: C 2/C
;
_chemical_formula_sum "Si O2"
_cell_formula_units_Z 64
_cell_length_a 27.453744
_cell_length_b 18.067590
_cell_length_c 10.623033
_cell_angle_alpha 90.000000
_cell_angle_beta 36.812151
_cell_angle_gamma 90.000000
_cell_volume 3157.310967
_symmetry_space_group_name_H-M "C 2/C"
_symmetry_group_IT_number 15
_symmetry_cell_setting 'monoclinic'
loop_
_space_group_symop_operation_xyz
x,y,z
-x,y,1/2-z
-x,-y,-z
x,-y,1/2+z
1/2+x,1/2+y,z
1/2-x,1/2+y,1/2-z
1/2-x,1/2-y,-z
1/2+x,1/2-y,1/2+z
loop_
_atom_site_type_symbol
_atom_site_label
_atom_site_fract_x
_atom_site_fract_y
_atom_site_fract_z
Si Si1 0.079015 0.850021 0.521089
Si Si2 0.822707 0.281454 0.579339
Si Si3 0.261005 0.558770 0.818701
Si Si4 0.180337 0.292507 0.458265
Si Si5 0.851370 0.313342 0.253808
Si Si6 0.970286 0.734968 0.072923
Si Si7 0.925304 0.398242 0.485287
Si Si8 0.189052 0.522929 0.696313
O O1 0.111499 0.784188 0.543171
O O2 0.145344 0.914735 0.367935
O O3 0.050453 0.813413 0.448589
O O4 0.000000 0.886162 0.750000
O O5 0.751942 0.268397 0.832562
O O6 0.798872 0.284138 0.480780
O O7 0.860126 0.361768 0.526665
O O8 0.202633 0.628458 0.972016
O O9 0.239981 0.527197 0.722505
O O10 0.247721 0.499189 0.957640
O O11 0.193792 0.294133 0.280699
O O12 0.091357 0.268119 0.681767
O O13 0.857632 0.402210 0.242803
O O14 0.938400 0.272070 0.067911
O O15 0.955966 0.665675 0.013105
O O16 0.884386 0.465127 0.643285
O O17 0.000000 0.430563 0.250000
#
# Coordination Sequence:
#
# PCOD8134594 Si02
#       8
#     8   8   8   8   8   8   8   8
#     4  10  20  39  66  86 112 153 208 262 300 351
#     4  10  19  36  58  85 113 155 206 250 303 354
#     4  10  23  40  62  89 121 163 208 249 300 362
#     4  10  22  34  57  87 120 160 198 256 298 352
#     4  11  21  37  55  85 129 156 193 245 306 370
#     4  11  20  36  58  90 120 152 203 250 304 356
#     4  11  21  35  58  83 116 160 201 241 298 366
#     4  11  24  40  59  90 126 165 203 242 298 375
#
# _framework density 20.270415
#
# number of rings (size 3 to 8) (size 9 to 14) (size 15 to 20)
#    0.000    1.500    3.750    2.250    1.750    4.000 
#    0.000    0.625    0.000    0.000    0.000    0.000 
#    0.000    0.000    0.000    0.000    0.000    0.000 
#
# Total GULP energy -396565.291355 kJ/mol
# GULP energy per Si atom -12392.665355 kJ/mol
# Density = 2.022428 g / cm^3
# Si number density = 20.270415 Si / 1000 Ang^3
#
#
#
# Elastic Constant Matrix: (Units=GPa)
#
#
# Indices 1 2 3 4 5 6 
#
# 1 44.4362 20.2478 12.1680 0.0000 10.4298 0.0000
# 2 20.2478 39.7707 28.6065 0.0000 -0.3899 0.0000
# 3 12.1680 28.6065 115.1122 0.0000 4.3449 0.0000
# 4 0.0000 0.0000 0.0000 27.9055 0.0000 0.0273
# 5 10.4298 -0.3899 4.3449 0.0000 31.8767 0.0000
# 6 0.0000 0.0000 0.0000 0.0273 0.0000 19.0888
#
#
#
# Elastic Compliance Matrix: (Units=1/GPa)
#
#
# Indices 1 2 3 4 5 6 
#
# 1 0.032875 -0.017838 0.001379 0.000000 -0.011162 0.000000
# 2 -0.017838 0.040360 -0.008427 0.000000 0.007479 0.000000
# 3 0.001379 -0.008427 0.010711 0.000000 -0.002014 0.000000
# 4 0.000000 0.000000 0.000000 0.035835 0.000000 -0.000051
# 5 -0.011162 0.007479 -0.002014 0.000000 0.035389 0.000000
# 6 0.000000 0.000000 0.000000 -0.000051 0.000000 0.052387
#
#
# Mechanical properties :
#
#
# Convention : Reuss Voigt Hill
#
# Bulk Modulus (GPa) = 29.26111 35.70708 32.48409
# Shear Modulus (GPa) = 18.60665 24.99398 21.80032
#
# Velocity S-wave (km/s) = 3.03301 3.51526 3.28300
# Velocity P-wave (km/s) = 5.17032 5.84206 5.51643
#
# Compressibility (1/GPa) = 0.03417506
#
# Stress axis : x y z
#
# Youngs Moduli (GPa) = 30.41848 24.77680 93.35762
#
# Poissons Ratio (x) = 0.44198 -0.12877
# Poissons Ratio (y) = 0.54262 0.78669
# Poissons Ratio (z) = -0.04196 0.20878
#
# Static dielectric constant tensor:
#      x y z
#    x 3.720730 0.000000 0.024860 
#    y 0.000000 3.528740 0.000000 
#    z 0.024860 0.000000 3.688530 
# 
# 
# High freq. dielectric constant tensor:
#      x y z
#    x 1.791730 0.000000 0.007000 
#    y 0.000000 1.766680 0.000000 
#    z 0.007000 0.000000 1.800720 
# 
# From -- ./inp_files/127298.got.cif
#   From: 2010.06.25/outbox.cif.g09.slc.cpg/sg15_64_cif.got.tgz:127298.got - 2010.06.28 07:06:18.
