data_PCOD8134982
_publ_section_title
;
Structure prediction by ZEFSAII (Michael W. Deem and Ramdas Pophale) SiO2 
 PCOD8134982
Probable space group: C 2/C
;
_chemical_formula_sum "Si O2"
_cell_formula_units_Z 48
_cell_length_a 9.741094
_cell_length_b 9.809354
_cell_length_c 24.509325
_cell_angle_alpha 90.000000
_cell_angle_beta 89.684999
_cell_angle_gamma 90.000000
_cell_volume 2341.924711
_symmetry_space_group_name_H-M "C 2/C"
_symmetry_group_IT_number 15
_symmetry_cell_setting 'monoclinic'
loop_
_space_group_symop_operation_xyz
x,y,z
-x,y,1/2-z
-x,-y,-z
x,-y,1/2+z
1/2+x,1/2+y,z
1/2-x,1/2+y,1/2-z
1/2-x,1/2-y,-z
1/2+x,1/2-y,1/2+z
loop_
_atom_site_type_symbol
_atom_site_label
_atom_site_fract_x
_atom_site_fract_y
_atom_site_fract_z
Si Si1 0.122548 0.599724 0.288350
Si Si2 0.979496 0.054110 0.663343
Si Si3 0.101257 0.196313 0.515846
Si Si4 0.803961 0.130103 0.755953
Si Si5 0.893315 0.295787 0.596830
Si Si6 0.602371 0.594481 0.071305
O O1 0.228586 0.724640 0.273418
O O2 0.166929 0.446589 0.274652
O O3 0.083637 0.601571 0.352429
O O4 0.000000 0.641843 0.250000
O O5 0.873528 0.023033 0.712484
O O6 0.897266 0.140126 0.617882
O O7 0.100928 0.145371 0.690330
O O8 0.045678 0.921297 0.633949
O O9 0.250000 0.250000 0.500000
O O10 0.018482 0.307031 0.553115
O O11 0.010855 0.177323 0.461841
O O12 0.125965 0.055069 0.546893
O O13 0.745934 0.324362 0.569570
#
# Coordination Sequence:
#
# PCOD8134982 Si02
#       6
#     8   8   8   8   8   8
#     4  11  21  38  59  87 123 161 199 247 302 362
#     4   9  18  36  59  81 115 160 191 243 300 354
#     4  10  23  39  59  89 116 153 198 255 305 355
#     4  10  19  37  59  84 121 158 199 242 298 361
#     4  10  19  37  64  82 117 161 199 246 305 354
#     4  10  20  39  62  84 117 154 201 246 301 360
#
# _framework density 20.495963
#
# number of rings (size 3 to 8) (size 9 to 14) (size 15 to 20)
#    0.000    2.000    5.000    0.500    0.000    2.000 
#    3.000    3.333    0.000    0.000    0.000    0.000 
#    0.000    0.000    0.000    0.000    0.000    0.000 
#
# Total GULP energy -297314.275903 kJ/mol
# GULP energy per Si atom -12388.094829 kJ/mol
# Density = 2.044931 g / cm^3
# Si number density = 20.495963 Si / 1000 Ang^3
#
#
#
# Elastic Constant Matrix: (Units=GPa)
#
#
# Indices 1 2 3 4 5 6 
#
# 1 125.1492 42.5395 49.2689 0.0000 1.4125 0.0000
# 2 42.5395 55.9556 20.7967 0.0000 -0.6727 0.0000
# 3 49.2689 20.7967 93.3575 0.0000 9.5271 0.0000
# 4 0.0000 0.0000 0.0000 15.7873 0.0000 -3.4310
# 5 1.4125 -0.6727 9.5271 0.0000 24.8602 0.0000
# 6 0.0000 0.0000 0.0000 -3.4310 0.0000 30.7585
#
#
#
# Elastic Compliance Matrix: (Units=1/GPa)
#
#
# Indices 1 2 3 4 5 6 
#
# 1 0.012565 -0.007673 -0.005024 0.000000 0.001004 0.000000
# 2 -0.007673 0.024295 -0.001534 0.000000 0.001681 0.000000
# 3 -0.005024 -0.001534 0.014237 0.000000 -0.005212 0.000000
# 4 0.000000 0.000000 0.000000 0.064916 0.000000 0.007241
# 5 0.001004 0.001681 -0.005212 0.000000 0.042211 0.000000
# 6 0.000000 0.000000 0.000000 0.007241 0.000000 0.033319
#
#
# Mechanical properties :
#
#
# Convention : Reuss Voigt Hill
#
# Bulk Modulus (GPa) = 44.18197 55.51918 49.85057
# Shear Modulus (GPa) = 21.97310 25.07167 23.52239
#
# Velocity S-wave (km/s) = 3.27780 3.50129 3.39139
# Velocity P-wave (km/s) = 5.99404 6.59485 6.30161
#
# Compressibility (1/GPa) = 0.02263367
#
# Stress axis : x y z
#
# Youngs Moduli (GPa) = 79.58392 41.16050 70.24066
#
# Poissons Ratio (x) = 0.31583 0.35292
# Poissons Ratio (y) = 0.61066 0.10776
# Poissons Ratio (z) = 0.39986 0.06315
#
# Static dielectric constant tensor:
#      x y z
#    x 3.609590 0.000000 -0.079970 
#    y 0.000000 3.394810 0.000000 
#    z -0.079970 0.000000 4.027200 
# 
# 
# High freq. dielectric constant tensor:
#      x y z
#    x 1.786810 0.000000 0.002820 
#    y 0.000000 1.766150 0.000000 
#    z 0.002820 0.000000 1.819890 
# 
# From -- ./inp_files/263196.got.cif
#   From: 2010.06.25/outbox.cif.g09.slc.cpg/sg15_132_cif.got.tgz:263196.got - 2010.06.28 07:06:18.
