data_PCOD8134707
_publ_section_title
;
Structure prediction by ZEFSAII (Michael W. Deem and Ramdas Pophale) SiO2 
 PCOD8134707
Probable space group: C 2/C
;
_chemical_formula_sum "Si O2"
_cell_formula_units_Z 56
_cell_length_a 27.515019
_cell_length_b 10.254997
_cell_length_c 13.566432
_cell_angle_alpha 90.000000
_cell_angle_beta 135.277756
_cell_angle_gamma 90.000000
_cell_volume 2693.645292
_symmetry_space_group_name_H-M "C 2/C"
_symmetry_group_IT_number 15
_symmetry_cell_setting 'monoclinic'
loop_
_space_group_symop_operation_xyz
x,y,z
-x,y,1/2-z
-x,-y,-z
x,-y,1/2+z
1/2+x,1/2+y,z
1/2-x,1/2+y,1/2-z
1/2-x,1/2-y,-z
1/2+x,1/2-y,1/2+z
loop_
_atom_site_type_symbol
_atom_site_label
_atom_site_fract_x
_atom_site_fract_y
_atom_site_fract_z
Si Si1 0.815844 0.378739 0.376487
Si Si2 0.443415 0.395086 0.593427
Si Si3 0.498908 0.217225 0.512977
Si Si4 0.062403 0.799600 0.408581
Si Si5 0.219150 0.456421 0.492039
Si Si6 0.897740 0.501231 0.322107
Si Si7 0.796678 0.822971 0.446548
O O1 0.863567 0.271829 0.502483
O O2 0.770897 0.457120 0.394692
O O3 0.865896 0.472564 0.384845
O O4 0.762422 0.314462 0.222732
O O5 0.500000 0.340227 0.750000
O O6 0.473893 0.345296 0.534534
O O7 0.430743 0.546799 0.593105
O O8 0.369519 0.331503 0.499642
O O9 0.545330 0.277261 0.496178
O O10 0.548190 0.110125 0.637321
O O11 0.432425 0.142161 0.377035
O O12 0.000000 0.744781 0.250000
O O13 0.158010 0.520700 0.342556
O O14 0.199469 0.310704 0.490029
O O15 0.284093 0.440651 0.508994
#
# Coordination Sequence:
#
# PCOD8134707 Si02
#       7
#     8   8   8   8   8   8   8
#     4  10  21  38  62  88 120 161 201 256 305 358
#     4  11  23  40  59  86 125 160 208 245 298 372
#     4  10  19  36  60  90 119 158 194 253 305 359
#     4  10  22  39  59  88 125 160 201 245 306 369
#     4  10  20  40  62  85 123 158 197 262 305 355
#     4   9  19  34  62  93 118 147 207 247 305 367
#     4  10  23  39  61  91 117 162 213 246 308 372
#
# _framework density 20.789670999999998
#
# number of rings (size 3 to 8) (size 9 to 14) (size 15 to 20)
#    0.000    2.000    0.000    3.000    2.000    1.143 
#    5.143    4.286    0.000    0.000    0.000    0.000 
#    0.000    0.000    0.000    0.000    0.000    0.000 
#
# Total GULP energy -346932.659773 kJ/mol
# GULP energy per Si atom -12390.452135 kJ/mol
# Density = 2.074235 g / cm^3
# Si number density = 20.789671 Si / 1000 Ang^3
#
#
#
# Elastic Constant Matrix: (Units=GPa)
#
#
# Indices 1 2 3 4 5 6 
#
# 1 73.2953 13.0080 22.2748 0.0000 -1.3522 0.0000
# 2 13.0080 38.7160 13.5529 0.0000 -3.6031 0.0000
# 3 22.2748 13.5529 67.2527 0.0000 1.2012 0.0000
# 4 0.0000 0.0000 0.0000 11.1751 0.0000 -5.2659
# 5 -1.3522 -3.6031 1.2012 0.0000 30.3731 0.0000
# 6 0.0000 0.0000 0.0000 -5.2659 0.0000 29.2448
#
#
#
# Elastic Compliance Matrix: (Units=1/GPa)
#
#
# Indices 1 2 3 4 5 6 
#
# 1 0.015655 -0.003659 -0.004456 0.000000 0.000439 0.000000
# 2 -0.003659 0.029026 -0.004699 0.000000 0.003466 0.000000
# 3 -0.004456 -0.004699 0.017318 0.000000 -0.001441 0.000000
# 4 0.000000 0.000000 0.000000 0.097781 0.000000 0.017607
# 5 0.000439 0.003466 -0.001441 0.000000 0.033412 0.000000
# 6 0.000000 0.000000 0.000000 0.017607 0.000000 0.037364
#
#
# Mechanical properties :
#
#
# Convention : Reuss Voigt Hill
#
# Bulk Modulus (GPa) = 27.49466 30.77060 29.13263
# Shear Modulus (GPa) = 18.63531 22.85382 20.74456
#
# Velocity S-wave (km/s) = 2.99720 3.31915 3.16227
# Velocity P-wave (km/s) = 5.02309 5.43342 5.23228
#
# Compressibility (1/GPa) = 0.03637070
#
# Stress axis : x y z
#
# Youngs Moduli (GPa) = 63.87727 34.45158 57.74420
#
# Poissons Ratio (x) = 0.12607 0.25728
# Poissons Ratio (y) = 0.23375 0.27136
# Poissons Ratio (z) = 0.28461 0.16190
#
# Static dielectric constant tensor:
#      x y z
#    x 3.896690 0.000000 0.044590 
#    y 0.000000 3.673700 0.000000 
#    z 0.044590 0.000000 3.782260 
# 
# 
# High freq. dielectric constant tensor:
#      x y z
#    x 1.816170 0.000000 0.001330 
#    y 0.000000 1.803210 0.000000 
#    z 0.001330 0.000000 1.813690 
# 
# From -- ./inp_files/111130.got.cif
#   From: 2010.06.25/outbox.cif.g09.slc.cpg/sg15_56_cif.got.tgz:111130.got - 2010.06.28 07:06:18.
