data_PCOD8134093
_publ_section_title
;
Structure prediction by ZEFSAII (Michael W. Deem and Ramdas Pophale) SiO2 
 PCOD8134093
Probable space group: C 2/C
;
_chemical_formula_sum "Si O2"
_cell_formula_units_Z 56
_cell_length_a 14.707236
_cell_length_b 17.179687
_cell_length_c 12.588683
_cell_angle_alpha 90.000000
_cell_angle_beta 71.222923
_cell_angle_gamma 90.000000
_cell_volume 3011.444180
_symmetry_space_group_name_H-M "C 2/C"
_symmetry_group_IT_number 15
_symmetry_cell_setting 'monoclinic'
loop_
_space_group_symop_operation_xyz
x,y,z
-x,y,1/2-z
-x,-y,-z
x,-y,1/2+z
1/2+x,1/2+y,z
1/2-x,1/2+y,1/2-z
1/2-x,1/2-y,-z
1/2+x,1/2-y,1/2+z
loop_
_atom_site_type_symbol
_atom_site_label
_atom_site_fract_x
_atom_site_fract_y
_atom_site_fract_z
Si Si1 0.724037 0.418377 0.583030
Si Si2 0.269910 0.592458 0.850880
Si Si3 0.900947 0.295033 0.060643
Si Si4 0.888643 0.790792 0.774368
Si Si5 0.381845 0.798425 0.483933
Si Si6 0.550994 0.328255 0.123322
Si Si7 0.360124 0.636363 0.597692
O O1 0.746162 0.502014 0.622450
O O2 0.662613 0.373533 0.694524
O O3 0.825723 0.376465 0.530645
O O4 0.666147 0.417415 0.493059
O O5 0.172345 0.633984 0.926096
O O6 0.360217 0.615607 0.888484
O O7 0.290349 0.612452 0.720223
O O8 0.861767 0.239387 0.168401
O O9 0.007054 0.323721 0.052449
O O10 0.906695 0.247838 0.949229
O O11 0.852377 0.729438 0.876774
O O12 0.000000 0.806380 0.750000
O O13 0.352267 0.728891 0.575482
O O14 0.500000 0.298862 0.250000
O O15 0.472941 0.376565 0.083281
#
# Coordination Sequence:
#
# PCOD8134093 Si02
#       7
#     8   8   8   8   8   8   8
#     4  11  21  33  53  81 109 135 166 211 268 312
#     4  11  22  33  52  80 109 137 168 212 261 309
#     4  10  19  35  56  77 104 137 177 214 243 301
#     4   9  18  33  58  82  97 130 180 219 251 297
#     4   9  18  35  58  77 100 137 177 213 252 300
#     4   9  20  37  55  73 100 142 178 209 254 305
#     4   9  19  38  55  72 104 139 171 215 259 298
#
# _framework density 18.59573
#
# number of rings (size 3 to 8) (size 9 to 14) (size 15 to 20)
#    0.000    2.286    0.000    4.714    0.000    4.000 
#    0.000    4.286    0.000    2.571    0.000    0.000 
#    0.000    0.000    0.000    0.000    0.000    0.000 
#
# Total GULP energy -347186.203714 kJ/mol
# GULP energy per Si atom -12399.507276 kJ/mol
# Density = 1.855341 g / cm^3
# Si number density = 18.595730 Si / 1000 Ang^3
#
#
#
# Elastic Constant Matrix: (Units=GPa)
#
#
# Indices 1 2 3 4 5 6 
#
# 1 74.0001 53.5620 45.2322 0.0000 -0.4493 0.0000
# 2 53.5620 126.5471 68.6046 0.0000 -13.8817 0.0000
# 3 45.2322 68.6046 104.4005 0.0000 -2.6456 0.0000
# 4 0.0000 0.0000 0.0000 13.0163 0.0000 -0.6580
# 5 -0.4493 -13.8817 -2.6456 0.0000 26.8741 0.0000
# 6 0.0000 0.0000 0.0000 -0.6580 0.0000 17.4333
#
#
#
# Elastic Compliance Matrix: (Units=1/GPa)
#
#
# Indices 1 2 3 4 5 6 
#
# 1 0.021411 -0.006808 -0.004895 0.000000 -0.003641 0.000000
# 2 -0.006808 0.015329 -0.006943 0.000000 0.007121 0.000000
# 3 -0.004895 -0.006943 0.016209 0.000000 -0.002072 0.000000
# 4 0.000000 0.000000 0.000000 0.076973 0.000000 0.002905
# 5 -0.003641 0.007121 -0.002072 0.000000 0.040624 0.000000
# 6 0.000000 0.000000 0.000000 0.002905 0.000000 0.057471
#
#
# Mechanical properties :
#
#
# Convention : Reuss Voigt Hill
#
# Bulk Modulus (GPa) = 63.86857 71.08283 67.47570
# Shear Modulus (GPa) = 18.48234 20.63468 19.55851
#
# Velocity S-wave (km/s) = 3.15604 3.33475 3.24663
# Velocity P-wave (km/s) = 6.90660 7.28943 7.10060
#
# Compressibility (1/GPa) = 0.01565715
#
# Stress axis : x y z
#
# Youngs Moduli (GPa) = 46.70451 65.23655 61.69349
#
# Poissons Ratio (x) = 0.44414 0.30199
# Poissons Ratio (y) = 0.31797 0.42833
# Poissons Ratio (z) = 0.22862 0.45293
#
# Static dielectric constant tensor:
#      x y z
#    x 3.590240 0.000000 -0.041990 
#    y 0.000000 3.023040 0.000000 
#    z -0.041990 0.000000 3.637300 
# 
# 
# High freq. dielectric constant tensor:
#      x y z
#    x 1.735650 0.000000 -0.006170 
#    y 0.000000 1.687510 0.000000 
#    z -0.006170 0.000000 1.729160 
# 
# From -- ./inp_files/98245.got.cif
#   From: 2010.06.25/outbox.cif.g09.slc.cpg/sg15_50_cif.got.tgz:98245.got - 2010.06.28 07:06:18.
