data_PCOD8134499
_publ_section_title
;
Structure prediction by ZEFSAII (Michael W. Deem and Ramdas Pophale) SiO2 
 PCOD8134499
Probable space group: C 2/C
;
_chemical_formula_sum "Si O2"
_cell_formula_units_Z 64
_cell_length_a 6.642503
_cell_length_b 18.793008
_cell_length_c 26.350823
_cell_angle_alpha 90.000000
_cell_angle_beta 88.935730
_cell_angle_gamma 90.000000
_cell_volume 3288.874600
_symmetry_space_group_name_H-M "C 2/C"
_symmetry_group_IT_number 15
_symmetry_cell_setting 'monoclinic'
loop_
_space_group_symop_operation_xyz
x,y,z
-x,y,1/2-z
-x,-y,-z
x,-y,1/2+z
1/2+x,1/2+y,z
1/2-x,1/2+y,1/2-z
1/2-x,1/2-y,-z
1/2+x,1/2-y,1/2+z
loop_
_atom_site_type_symbol
_atom_site_label
_atom_site_fract_x
_atom_site_fract_y
_atom_site_fract_z
Si Si1 0.525625 0.493196 0.590009
Si Si2 0.550846 0.202114 0.694378
Si Si3 0.903506 0.699777 0.196467
Si Si4 0.309159 0.889868 0.053365
Si Si5 0.403285 0.941295 0.641222
Si Si6 0.855391 0.426667 0.370675
Si Si7 0.706459 0.260409 0.119998
Si Si8 0.286534 0.119563 0.438619
O O1 0.670741 0.539449 0.553042
O O2 0.668349 0.454938 0.630727
O O3 0.367559 0.545206 0.617830
O O4 0.406134 0.432674 0.559991
O O5 0.500000 0.172095 0.750000
O O6 0.674713 0.274937 0.699334
O O7 0.674640 0.140613 0.665415
O O8 0.354359 0.222460 0.664846
O O9 0.917010 0.615533 0.186407
O O10 0.000000 0.717912 0.250000
O O11 0.997782 0.742555 0.148539
O O12 0.525163 0.904927 0.078416
O O13 0.186793 0.828057 0.083220
O O14 0.353583 0.865864 0.995916
O O15 0.522427 0.914669 0.590589
O O16 0.510990 0.013773 0.659107
O O17 0.781760 0.193177 0.086846
#
# Coordination Sequence:
#
# PCOD8134499 Si02
#       8
#     8   8   8   8   8   8   8   8
#     4  10  19  36  56  81 110 148 189 224 271 328
#     4  11  21  37  60  82 107 143 188 232 286 336
#     4  11  21  37  60  82 107 143 188 232 286 336
#     4  10  20  34  56  82 113 148 185 225 274 328
#     4   9  21  37  55  80 115 146 183 230 277 330
#     4   9  21  37  55  80 115 146 183 230 277 330
#     4  10  21  38  54  82 114 144 181 232 278 332
#     4  10  20  34  56  82 113 148 185 225 274 328
#
# _framework density 19.459544000000001
#
# number of rings (size 3 to 8) (size 9 to 14) (size 15 to 20)
#    0.000    2.000    1.250    2.250    0.000    6.000 
#    0.000    0.000    0.000    9.750    0.000    0.000 
#    0.000    0.000    0.000    0.000    0.000    0.000 
#
# Total GULP energy -396793.138123 kJ/mol
# GULP energy per Si atom -12399.785566 kJ/mol
# Density = 1.941525 g / cm^3
# Si number density = 19.459544 Si / 1000 Ang^3
#
#
#
# Elastic Constant Matrix: (Units=GPa)
#
#
# Indices 1 2 3 4 5 6 
#
# 1 75.2219 14.2722 22.2082 0.0000 3.8127 0.0000
# 2 14.2722 86.2706 32.6141 0.0000 6.9150 0.0000
# 3 22.2082 32.6141 96.0288 0.0000 3.0368 0.0000
# 4 0.0000 0.0000 0.0000 13.0867 0.0000 -0.9224
# 5 3.8127 6.9150 3.0368 0.0000 14.3429 0.0000
# 6 0.0000 0.0000 0.0000 -0.9224 0.0000 24.6412
#
#
#
# Elastic Compliance Matrix: (Units=1/GPa)
#
#
# Indices 1 2 3 4 5 6 
#
# 1 0.014493 -0.001085 -0.002897 0.000000 -0.002716 0.000000
# 2 -0.001085 0.013824 -0.004271 0.000000 -0.005472 0.000000
# 3 -0.002897 -0.004271 0.012529 0.000000 0.000177 0.000000
# 4 0.000000 0.000000 0.000000 0.076615 0.000000 0.002868
# 5 -0.002716 -0.005472 0.000177 0.000000 0.073044 0.000000
# 6 0.000000 0.000000 0.000000 0.002868 0.000000 0.040690
#
#
# Mechanical properties :
#
#
# Convention : Reuss Voigt Hill
#
# Bulk Modulus (GPa) = 41.08583 43.96780 42.52681
# Shear Modulus (GPa) = 19.54544 22.97596 21.26070
#
# Velocity S-wave (km/s) = 3.17269 3.43987 3.30897
# Velocity P-wave (km/s) = 5.88052 6.19842 6.04156
#
# Compressibility (1/GPa) = 0.02433929
#
# Stress axis : x y z
#
# Youngs Moduli (GPa) = 68.99935 72.33693 79.81696
#
# Poissons Ratio (x) = 0.07845 0.23127
# Poissons Ratio (y) = 0.07483 0.34092
# Poissons Ratio (z) = 0.19992 0.30897
#
# Static dielectric constant tensor:
#      x y z
#    x 3.437870 0.000000 0.000180 
#    y 0.000000 3.784220 0.000000 
#    z 0.000180 0.000000 3.372120 
# 
# 
# High freq. dielectric constant tensor:
#      x y z
#    x 1.755180 0.000000 0.001510 
#    y 0.000000 1.770950 0.000000 
#    z 0.001510 0.000000 1.743500 
# 
# From -- ./inp_files/286406.got.cif
#   From: 2010.06.25/outbox.cif.g09.slc.cpg/sg15_144_cif.got.tgz:286406.got - 2010.06.28 07:06:18.
