data_PCOD8134086
_publ_section_title
;
Structure prediction by ZEFSAII (Michael W. Deem and Ramdas Pophale) SiO2 
 PCOD8134086
Probable space group: C 2/C
;
_chemical_formula_sum "Si O2"
_cell_formula_units_Z 64
_cell_length_a 8.841609
_cell_length_b 26.482809
_cell_length_c 14.924708
_cell_angle_alpha 90.000000
_cell_angle_beta 67.351429
_cell_angle_gamma 90.000000
_cell_volume 3225.138463
_symmetry_space_group_name_H-M "C 2/C"
_symmetry_group_IT_number 15
_symmetry_cell_setting 'monoclinic'
loop_
_space_group_symop_operation_xyz
x,y,z
-x,y,1/2-z
-x,-y,-z
x,-y,1/2+z
1/2+x,1/2+y,z
1/2-x,1/2+y,1/2-z
1/2-x,1/2-y,-z
1/2+x,1/2-y,1/2+z
loop_
_atom_site_type_symbol
_atom_site_label
_atom_site_fract_x
_atom_site_fract_y
_atom_site_fract_z
Si Si1 0.462878 0.055266 0.041512
Si Si2 0.187259 0.915736 0.736625
Si Si3 0.286998 0.109755 0.396390
Si Si4 0.379654 0.710998 0.706158
Si Si5 0.008275 0.181246 0.015989
Si Si6 0.592482 0.174874 0.330265
Si Si7 0.959890 0.728961 0.662725
Si Si8 0.148784 0.347750 0.012010
O O1 0.313073 0.052403 0.146791
O O2 0.631563 0.075207 0.046299
O O3 0.409835 0.093471 0.973026
O O4 0.500000 0.000000 0.000000
O O5 0.218282 0.928204 0.834587
O O6 0.238836 0.856734 0.720754
O O7 0.000000 0.925191 0.750000
O O8 0.138132 0.142582 0.469365
O O9 0.426990 0.148433 0.327173
O O10 0.500000 0.684836 0.750000
O O11 0.421561 0.696892 0.595954
O O12 0.384594 0.771204 0.717687
O O13 0.202565 0.695778 0.783972
O O14 0.947590 0.229248 0.087493
O O15 0.153266 0.153229 0.037203
O O16 0.568001 0.178420 0.443259
O O17 0.000000 0.754809 0.750000
O O18 0.094014 0.686162 0.608564
#
# Coordination Sequence:
#
# PCOD8134086 Si02
#       8
#     8   8   8   8   8   8   8   8
#     4  10  23  43  70  91 121 157 206 273 342 385
#     4  10  19  37  64  96 123 154 212 264 317 372
#     4  10  21  37  65  89 126 157 210 264 319 366
#     4  12  25  33  54  85 129 174 220 246 307 369
#     4  12  23  39  59  93 131 169 215 264 302 382
#     4  10  19  35  55  88 120 168 206 259 302 359
#     4  12  23  38  59  87 133 177 217 251 310 381
#     4  10  21  40  60  85 124 165 210 259 320 374
#
# _framework density 19.844107999999999
#
# number of rings (size 3 to 8) (size 9 to 14) (size 15 to 20)
#    0.000    1.500    2.500    6.375    3.500    3.000 
#    0.000    3.750    2.750    0.000    0.000    0.000 
#    0.000    0.000    0.000    0.000    0.000    0.000 
#
# Total GULP energy -396532.674557 kJ/mol
# GULP energy per Si atom -12391.646080 kJ/mol
# Density = 1.979894 g / cm^3
# Si number density = 19.844108 Si / 1000 Ang^3
#
#
#
# Elastic Constant Matrix: (Units=GPa)
#
#
# Indices 1 2 3 4 5 6 
#
# 1 149.1894 30.2890 49.9753 0.0000 -11.0104 0.0000
# 2 30.2890 90.2180 38.0923 0.0000 -7.3622 0.0000
# 3 49.9753 38.0923 100.3059 0.0000 -6.9084 0.0000
# 4 0.0000 0.0000 0.0000 23.1005 0.0000 -1.3067
# 5 -11.0104 -7.3622 -6.9084 0.0000 32.4285 0.0000
# 6 0.0000 0.0000 0.0000 -1.3067 0.0000 16.6476
#
#
#
# Elastic Compliance Matrix: (Units=1/GPa)
#
#
# Indices 1 2 3 4 5 6 
#
# 1 0.008257 -0.001121 -0.003565 0.000000 0.001789 0.000000
# 2 -0.001121 0.013477 -0.004440 0.000000 0.001733 0.000000
# 3 -0.003565 -0.004440 0.013477 0.000000 0.000653 0.000000
# 4 0.000000 0.000000 0.000000 0.043482 0.000000 0.003413
# 5 0.001789 0.001733 0.000653 0.000000 0.031977 0.000000
# 6 0.000000 0.000000 0.000000 0.003413 0.000000 0.060337
#
#
# Mechanical properties :
#
#
# Convention : Reuss Voigt Hill
#
# Bulk Modulus (GPa) = 58.96729 64.04737 61.50733
# Shear Modulus (GPa) = 25.65283 29.19246 27.42264
#
# Velocity S-wave (km/s) = 3.59934 3.83964 3.72143
# Velocity P-wave (km/s) = 6.85955 7.21127 7.03761
#
# Compressibility (1/GPa) = 0.01695855
#
# Stress axis : x y z
#
# Youngs Moduli (GPa) = 121.11460 74.20203 74.20201
#
# Poissons Ratio (x) = 0.08317 0.26452
# Poissons Ratio (y) = 0.13575 0.32947
# Poissons Ratio (z) = 0.43175 0.32947
#
# Static dielectric constant tensor:
#      x y z
#    x 3.986650 0.000000 0.116940 
#    y 0.000000 3.113320 0.000000 
#    z 0.116940 0.000000 3.751200 
# 
# 
# High freq. dielectric constant tensor:
#      x y z
#    x 1.798630 0.000000 0.003370 
#    y 0.000000 1.713510 0.000000 
#    z 0.003370 0.000000 1.781950 
# 
# From -- ./inp_files/139522.got.cif
#   From: 2010.06.25/outbox.cif.g09.slc.cpg/sg15_70_cif.got.tgz:139522.got - 2010.06.28 07:06:18.
