data_PCOD8134608
_publ_section_title
;
Structure prediction by ZEFSAII (Michael W. Deem and Ramdas Pophale) SiO2 
 PCOD8134608
Probable space group: C 2/C
;
_chemical_formula_sum "Si O2"
_cell_formula_units_Z 60
_cell_length_a 11.677182
_cell_length_b 15.468452
_cell_length_c 22.857206
_cell_angle_alpha 90.000000
_cell_angle_beta 134.063365
_cell_angle_gamma 90.000000
_cell_volume 2966.728497
_symmetry_space_group_name_H-M "C 2/C"
_symmetry_group_IT_number 15
_symmetry_cell_setting 'monoclinic'
loop_
_space_group_symop_operation_xyz
x,y,z
-x,y,1/2-z
-x,-y,-z
x,-y,1/2+z
1/2+x,1/2+y,z
1/2-x,1/2+y,1/2-z
1/2-x,1/2-y,-z
1/2+x,1/2-y,1/2+z
loop_
_atom_site_type_symbol
_atom_site_label
_atom_site_fract_x
_atom_site_fract_y
_atom_site_fract_z
Si Si1 0.750242 0.589375 0.084607
Si Si2 0.694355 0.854700 0.587410
Si Si3 0.000000 0.229350 0.250000
Si Si4 0.669383 0.543464 0.460876
Si Si5 0.769803 0.829548 0.298079
Si Si6 0.423301 0.321674 0.477771
Si Si7 0.588610 0.154435 0.176157
Si Si8 0.810640 0.982205 0.815296
O O1 0.735332 0.520683 0.132170
O O2 0.919771 0.636784 0.146244
O O3 0.733106 0.540047 0.017242
O O4 0.612314 0.660669 0.042068
O O5 0.873595 0.828313 0.670068
O O6 0.708985 0.936387 0.549303
O O7 0.606602 0.779038 0.519848
O O8 0.589363 0.872757 0.607959
O O9 0.091873 0.291118 0.236966
O O10 0.659696 0.624735 0.500523
O O11 0.498184 0.524599 0.372325
O O12 0.842533 0.845901 0.387916
O O13 0.876887 0.757292 0.302695
O O14 0.760616 0.925905 0.267354
O O15 0.726119 0.098253 0.254767
#
# Coordination Sequence:
#
# PCOD8134608 Si02
#       8
#     8   8   4   8   8   8   8   8
#     4  11  21  37  62  89 118 153 200 249 297 349
#     4  10  21  36  56  85 123 157 195 243 305 358
#     4   8  18  32  54  80 112 152 198 240 290 348
#     4  11  19  35  62  88 118 153 198 249 296 353
#     4  10  19  36  58  89 114 153 201 243 301 343
#     4   9  18  36  56  89 111 150 199 245 291 347
#     4  10  24  37  59  88 125 157 199 244 303 358
#     4  11  21  39  63  87 119 156 205 254 289 350
#
# _framework density 20.224298999999998
#
# number of rings (size 3 to 8) (size 9 to 14) (size 15 to 20)
#    0.000    2.133    2.667    3.200    1.867    2.667 
#    0.000    2.667    5.867    0.000    0.000    0.000 
#    0.000    0.000    0.000    0.000    0.000    0.000 
#
# Total GULP energy -371846.292160 kJ/mol
# GULP energy per Si atom -12394.876405 kJ/mol
# Density = 2.017827 g / cm^3
# Si number density = 20.224299 Si / 1000 Ang^3
#
#
#
# Elastic Constant Matrix: (Units=GPa)
#
#
# Indices 1 2 3 4 5 6 
#
# 1 63.6015 30.9100 2.6180 0.0000 10.7436 0.0000
# 2 30.9100 101.4664 28.1320 0.0000 1.8326 0.0000
# 3 2.6180 28.1320 45.6000 0.0000 6.4850 0.0000
# 4 0.0000 0.0000 0.0000 25.0862 0.0000 -8.8313
# 5 10.7436 1.8326 6.4850 0.0000 26.6629 0.0000
# 6 0.0000 0.0000 0.0000 -8.8313 0.0000 23.0597
#
#
#
# Elastic Compliance Matrix: (Units=1/GPa)
#
#
# Indices 1 2 3 4 5 6 
#
# 1 0.020649 -0.007422 0.004666 0.000000 -0.008945 0.000000
# 2 -0.007422 0.014583 -0.009171 0.000000 0.004219 0.000000
# 3 0.004666 -0.009171 0.028482 0.000000 -0.008177 0.000000
# 4 0.000000 0.000000 0.000000 0.046074 0.000000 0.017645
# 5 -0.008945 0.004219 -0.008177 0.000000 0.042809 0.000000
# 6 0.000000 0.000000 0.000000 0.017645 0.000000 0.050123
#
#
# Mechanical properties :
#
#
# Convention : Reuss Voigt Hill
#
# Bulk Modulus (GPa) = 25.08779 37.10979 31.09879
# Shear Modulus (GPa) = 20.84532 24.89561 22.87046
#
# Velocity S-wave (km/s) = 3.21394 3.51233 3.36645
# Velocity P-wave (km/s) = 5.11901 5.90234 5.52458
#
# Compressibility (1/GPa) = 0.03986003
#
# Stress axis : x y z
#
# Youngs Moduli (GPa) = 48.42819 68.57318 35.10939
#
# Poissons Ratio (x) = 0.50898 -0.16381
# Poissons Ratio (y) = 0.35946 0.32197
# Poissons Ratio (z) = -0.22595 0.62885
#
# Static dielectric constant tensor:
#      x y z
#    x 3.597600 0.000000 0.042470 
#    y 0.000000 3.765830 0.000000 
#    z 0.042470 0.000000 3.548800 
# 
# 
# High freq. dielectric constant tensor:
#      x y z
#    x 1.776960 0.000000 0.010610 
#    y 0.000000 1.786240 0.000000 
#    z 0.010610 0.000000 1.777590 
# 
# From -- ./inp_files/270633.got.cif
#   From: 2010.06.25/outbox.cif.g09.slc.cpg/sg15_136_cif.got.tgz:270633.got - 2010.06.28 07:06:18.
