data_PCOD8134566
_publ_section_title
;
Structure prediction by ZEFSAII (Michael W. Deem and Ramdas Pophale) SiO2 
 PCOD8134566
Probable space group: C 2/C
;
_chemical_formula_sum "Si O2"
_cell_formula_units_Z 56
_cell_length_a 20.326360
_cell_length_b 9.362507
_cell_length_c 29.322478
_cell_angle_alpha 90.000000
_cell_angle_beta 148.693338
_cell_angle_gamma 90.000000
_cell_volume 2899.592774
_symmetry_space_group_name_H-M "C 2/C"
_symmetry_group_IT_number 15
_symmetry_cell_setting 'monoclinic'
loop_
_space_group_symop_operation_xyz
x,y,z
-x,y,1/2-z
-x,-y,-z
x,-y,1/2+z
1/2+x,1/2+y,z
1/2-x,1/2+y,1/2-z
1/2-x,1/2-y,-z
1/2+x,1/2-y,1/2+z
loop_
_atom_site_type_symbol
_atom_site_label
_atom_site_fract_x
_atom_site_fract_y
_atom_site_fract_z
Si Si1 0.245975 0.959937 0.804000
Si Si2 0.552961 0.186679 0.565215
Si Si3 0.749867 0.135502 0.960806
Si Si4 0.272710 0.103825 0.420746
Si Si5 0.475724 0.780584 0.919886
Si Si6 0.677288 0.891082 0.973439
Si Si7 0.973992 0.037979 0.396873
O O1 0.211773 0.941621 0.836971
O O2 0.330673 0.829805 0.835676
O O3 0.115720 0.963661 0.700147
O O4 0.325871 0.104063 0.843505
O O5 0.425639 0.117047 0.510106
O O6 0.551975 0.167990 0.509919
O O7 0.569586 0.348905 0.590993
O O8 0.715556 0.235402 0.896873
O O9 0.656408 0.001883 0.918122
O O10 0.750000 0.250000 0.000000
O O11 0.886696 0.065490 0.038440
O O12 0.242801 0.981982 0.441200
O O13 0.543231 0.840196 0.914395
O O14 0.470972 0.611692 0.920153
O O15 0.750000 0.750000 0.000000
#
# Coordination Sequence:
#
# PCOD8134566 Si02
#       7
#     8   8   8   8   8   8   8
#     4  11  20  36  58  85 114 145 181 239 297 329
#     4  10  19  36  58  80 114 146 186 231 279 342
#     4   9  20  35  55  81 106 149 192 223 260 337
#     4   9  18  36  57  81 105 147 192 225 270 339
#     4  11  20  36  58  86 111 147 192 227 281 341
#     4  11  18  33  59  82 104 143 196 225 260 322
#     4  11  22  34  55  91 114 141 183 245 288 323
#
# _framework density 19.313057000000001
#
# number of rings (size 3 to 8) (size 9 to 14) (size 15 to 20)
#    0.000    1.714    4.286    2.143    0.000    0.000 
#    0.000    2.857    0.000    0.000   18.571    0.000 
#    0.000    0.000    0.000    0.000    0.000    0.000 
#
# Total GULP energy -347012.361678 kJ/mol
# GULP energy per Si atom -12393.298631 kJ/mol
# Density = 1.926910 g / cm^3
# Si number density = 19.313057 Si / 1000 Ang^3
#
#
#
# Elastic Constant Matrix: (Units=GPa)
#
#
# Indices 1 2 3 4 5 6 
#
# 1 89.2615 43.1881 2.0139 0.0000 -4.7699 -0.0001
# 2 43.1881 139.0289 -1.0578 -0.0001 2.4632 -0.0006
# 3 2.0139 -1.0578 29.5496 -0.0002 -9.3903 0.0001
# 4 0.0000 -0.0001 -0.0002 8.3909 0.0000 -20.0278
# 5 -4.7699 2.4632 -9.3903 0.0000 9.9572 0.0000
# 6 -0.0001 -0.0006 0.0001 -20.0278 0.0000 10.7629
#
#
#
# Elastic Compliance Matrix: (Units=1/GPa)
#
#
# Indices 1 2 3 4 5 6 
#
# 1 0.013821 -0.004448 0.001931 0.000000 0.009543 0.000000
# 2 -0.004448 0.008660 -0.001063 0.000000 -0.005276 0.000000
# 3 0.001931 -0.001063 0.048620 0.000000 0.047041 -0.000001
# 4 0.000000 0.000000 0.000000 -0.034630 0.000000 -0.064439
# 5 0.009543 -0.005276 0.047041 0.000000 0.150668 -0.000001
# 6 0.000000 0.000000 -0.000001 -0.064439 -0.000001 -0.026998
#
#
# Mechanical properties :
#
#
# Convention : Reuss Voigt Hill
#
# Bulk Modulus (GPa) = 15.63928 38.45873 27.04900
# Shear Modulus (GPa) = 26.50878 20.06861 23.28869
#
# Velocity S-wave (km/s) = 3.70886 3.22704 3.47631
# Velocity P-wave (km/s) = 5.14356 5.81735 5.49080
#
# Compressibility (1/GPa) = 0.06394155
#
# Stress axis : x y z
#
# Youngs Moduli (GPa) = 72.35130 115.47579 20.56752
#
# Poissons Ratio (x) = 0.51362 -0.03972
# Poissons Ratio (y) = 0.32181 0.02187
# Poissons Ratio (z) = -0.13973 0.12280
#
# Static dielectric constant tensor:
#      x y z
#    x 3.831550 0.000000 -0.106210 
#    y 0.000000 4.185610 0.000000 
#    z -0.106210 0.000000 2.986730 
# 
# 
# High freq. dielectric constant tensor:
#      x y z
#    x 1.764410 0.000000 -0.002980 
#    y 0.000000 1.780720 0.000000 
#    z -0.002980 0.000000 1.691670 
# 
# From -- ./inp_files/281528.got.cif
#   From: 2010.06.25/outbox.cif.g09.slc.cpg/sg15_141_cif.got.tgz:281528.got - 2010.06.28 07:06:18.
