data_PCOD8134702
_publ_section_title
;
Structure prediction by ZEFSAII (Michael W. Deem and Ramdas Pophale) SiO2 
 PCOD8134702
Probable space group: C 2/C
;
_chemical_formula_sum "Si O2"
_cell_formula_units_Z 52
_cell_length_a 15.287654
_cell_length_b 16.464581
_cell_length_c 13.951100
_cell_angle_alpha 90.000000
_cell_angle_beta 131.175280
_cell_angle_gamma 90.000000
_cell_volume 2643.147105
_symmetry_space_group_name_H-M "C 2/C"
_symmetry_group_IT_number 15
_symmetry_cell_setting 'monoclinic'
loop_
_space_group_symop_operation_xyz
x,y,z
-x,y,1/2-z
-x,-y,-z
x,-y,1/2+z
1/2+x,1/2+y,z
1/2-x,1/2+y,1/2-z
1/2-x,1/2-y,-z
1/2+x,1/2-y,1/2+z
loop_
_atom_site_type_symbol
_atom_site_label
_atom_site_fract_x
_atom_site_fract_y
_atom_site_fract_z
Si Si1 0.500000 0.796967 0.750000
Si Si2 0.731657 0.140709 0.337226
Si Si3 0.277615 0.403719 0.659770
Si Si4 0.050871 0.318428 0.429666
Si Si5 0.888981 0.712839 0.986522
Si Si6 0.703894 0.050962 0.489827
Si Si7 0.500000 0.315778 0.750000
Si Si8 0.500000 0.948332 0.250000
O O1 0.405892 0.852733 0.738529
O O2 0.435751 0.745692 0.620003
O O3 0.752602 0.091313 0.255113
O O4 0.787204 0.230850 0.370932
O O5 0.786503 0.090137 0.466569
O O6 0.181755 0.347268 0.541468
O O7 0.274368 0.493388 0.612044
O O8 0.405598 0.370469 0.734992
O O9 0.992926 0.293439 0.487056
O O10 0.063858 0.238539 0.375022
O O11 0.973163 0.388088 0.321107
O O12 0.848075 0.621983 0.981283
O O13 0.607974 0.002421 0.359063
#
# Coordination Sequence:
#
# PCOD8134702 Si02
#       8
#     4   8   8   8   8   8   4   4
#     4  10  19  36  60  88 123 148 198 246 297 342
#     4  11  22  40  62  92 121 162 199 246 296 363
#     4  11  23  40  65  87 123 157 198 252 303 351
#     4  10  21  38  63  93 115 156 206 251 302 349
#     4  11  21  38  64  91 120 159 200 248 299 359
#     4  10  22  37  58  93 126 153 196 246 305 358
#     4  11  22  44  62  85 120 164 206 245 292 362
#     4   9  21  34  60  91 125 146 194 263 301 350
#
# _framework density 19.673518000000001
#
# number of rings (size 3 to 8) (size 9 to 14) (size 15 to 20)
#    0.000    1.538    3.077    4.154    2.154    1.231 
#    0.000    3.846    0.000    0.000    0.000    0.000 
#    0.000    0.000    0.000    0.000    0.000    0.000 
#
# Total GULP energy -322206.794629 kJ/mol
# GULP energy per Si atom -12392.569024 kJ/mol
# Density = 1.962874 g / cm^3
# Si number density = 19.673518 Si / 1000 Ang^3
#
#
#
# Elastic Constant Matrix: (Units=GPa)
#
#
# Indices 1 2 3 4 5 6 
#
# 1 118.7201 29.9095 31.5703 0.0000 -10.1493 0.0000
# 2 29.9095 72.5274 31.4955 0.0000 1.8072 0.0000
# 3 31.5703 31.4955 64.3919 0.0000 -10.5666 0.0000
# 4 0.0000 0.0000 0.0000 24.4646 0.0000 -7.5165
# 5 -10.1493 1.8072 -10.5666 0.0000 34.8887 0.0000
# 6 0.0000 0.0000 0.0000 -7.5165 0.0000 20.9900
#
#
#
# Elastic Compliance Matrix: (Units=1/GPa)
#
#
# Indices 1 2 3 4 5 6 
#
# 1 0.010186 -0.002839 -0.003257 0.000000 0.002124 0.000000
# 2 -0.002839 0.018759 -0.008501 0.000000 -0.004372 0.000000
# 3 -0.003257 -0.008501 0.022310 0.000000 0.006250 0.000000
# 4 0.000000 0.000000 0.000000 0.045929 0.000000 0.016447
# 5 0.002124 -0.004372 0.006250 0.000000 0.031400 0.000000
# 6 0.000000 0.000000 0.000000 0.016447 0.000000 0.053531
#
#
# Mechanical properties :
#
#
# Convention : Reuss Voigt Hill
#
# Bulk Modulus (GPa) = 45.32783 49.06557 47.19670
# Shear Modulus (GPa) = 22.86613 26.91292 24.88953
#
# Velocity S-wave (km/s) = 3.41292 3.70263 3.56072
# Velocity P-wave (km/s) = 6.21456 6.57825 6.39899
#
# Compressibility (1/GPa) = 0.02206150
#
# Stress axis : x y z
#
# Youngs Moduli (GPa) = 98.17295 53.30668 44.82230
#
# Poissons Ratio (x) = 0.15135 0.14598
# Poissons Ratio (y) = 0.27874 0.38104
# Poissons Ratio (z) = 0.31973 0.45316
#
# Static dielectric constant tensor:
#      x y z
#    x 3.589070 0.000000 -0.308080 
#    y 0.000000 3.688440 0.000000 
#    z -0.308080 0.000000 3.699700 
# 
# 
# High freq. dielectric constant tensor:
#      x y z
#    x 1.768320 0.000000 -0.023670 
#    y 0.000000 1.757370 0.000000 
#    z -0.023670 0.000000 1.761750 
# 
# From -- ./inp_files/98225.got.cif
#   From: 2010.06.25/outbox.cif.g09.slc.cpg/sg15_50_cif.got.tgz:98225.got - 2010.06.28 07:06:18.
