data_PCOD8134897
_publ_section_title
;
Structure prediction by ZEFSAII (Michael W. Deem and Ramdas Pophale) SiO2 
 PCOD8134897
Probable space group: C 2/C
;
_chemical_formula_sum "Si O2"
_cell_formula_units_Z 52
_cell_length_a 25.218952
_cell_length_b 17.251213
_cell_length_c 22.995623
_cell_angle_alpha 90.000000
_cell_angle_beta 162.768516
_cell_angle_gamma 90.000000
_cell_volume 2963.638221
_symmetry_space_group_name_H-M "C 2/C"
_symmetry_group_IT_number 15
_symmetry_cell_setting 'monoclinic'
loop_
_space_group_symop_operation_xyz
x,y,z
-x,y,1/2-z
-x,-y,-z
x,-y,1/2+z
1/2+x,1/2+y,z
1/2-x,1/2+y,1/2-z
1/2-x,1/2-y,-z
1/2+x,1/2-y,1/2+z
loop_
_atom_site_type_symbol
_atom_site_label
_atom_site_fract_x
_atom_site_fract_y
_atom_site_fract_z
Si Si1 0.609670 0.550898 0.161002
Si Si2 0.000000 0.937936 0.250000
Si Si3 0.480754 0.978996 0.546750
Si Si4 0.436104 0.346664 0.985274
Si Si5 0.694209 0.172720 0.473852
Si Si6 0.167402 0.678434 0.581619
Si Si7 0.356032 0.509754 0.482216
O O1 0.646627 0.631048 0.164949
O O2 0.483446 0.555181 0.085642
O O3 0.797241 0.514951 0.378926
O O4 0.500000 0.500000 0.000000
O O5 0.153411 0.889467 0.378738
O O6 0.094922 0.989732 0.398500
O O7 0.481151 0.885753 0.557121
O O8 0.500000 0.000000 0.500000
O O9 0.648293 0.014610 0.757548
O O10 0.382588 0.259682 0.942787
O O11 0.648382 0.352720 0.199497
O O12 0.377316 0.405435 0.974792
O O13 0.500000 0.142209 0.250000
O O14 0.750000 0.250000 0.500000
O O15 0.684427 0.191439 0.531124
#
# Coordination Sequence:
#
# PCOD8134897 Si02
#       7
#     8   4   8   8   8   8   8
#     4  10  19  37  53  73 102 137 174 225 269 310
#     4  12  22  36  52  74 104 144 184 222 254 316
#     4  12  20  35  58  75 101 146 181 214 272 322
#     4  11  20  34  51  74 106 140 176 220 262 306
#     4  12  22  35  47  67 105 149 185 217 250 297
#     4  12  22  34  49  76 108 142 181 220 258 305
#     4  11  21  37  53  76 104 142 182 221 267 311
#
# _framework density 17.545999999999999
#
# number of rings (size 3 to 8) (size 9 to 14) (size 15 to 20)
#    0.000    0.615    8.462    3.692    0.000    0.000 
#    0.000    0.000    0.000    0.000    0.000    0.000 
#    0.000    4.923    0.000    0.154    0.000    0.000 
#
# Total GULP energy -322348.140490 kJ/mol
# GULP energy per Si atom -12398.005403 kJ/mol
# Density = 1.750606 g / cm^3
# Si number density = 17.546000 Si / 1000 Ang^3
#
#
#
# Elastic Constant Matrix: (Units=GPa)
#
#
# Indices 1 2 3 4 5 6 
#
# 1 100.3951 52.2708 43.4796 -0.0021 -11.1301 0.0090
# 2 52.2708 56.3660 19.9290 -0.1113 -7.5288 -0.1303
# 3 43.4796 19.9290 131.7414 -0.0833 3.8493 -0.0971
# 4 -0.0021 -0.1113 -0.0833 16.5397 -0.0315 -3.6998
# 5 -11.1301 -7.5288 3.8493 -0.0315 34.1773 -0.0371
# 6 0.0090 -0.1303 -0.0971 -3.6998 -0.0371 21.0429
#
#
#
# Elastic Compliance Matrix: (Units=1/GPa)
#
#
# Indices 1 2 3 4 5 6 
#
# 1 0.021738 -0.018070 -0.004547 -0.000172 0.003610 -0.000166
# 2 -0.018070 0.034469 0.000702 0.000299 0.001630 0.000280
# 3 -0.004547 0.000702 0.009054 0.000057 -0.002346 0.000054
# 4 -0.000172 0.000299 0.000057 0.062939 0.000073 0.011068
# 5 0.003610 0.001630 -0.002346 0.000073 0.031058 0.000065
# 6 -0.000166 0.000280 0.000054 0.011068 0.000065 0.049470
#
#
# Mechanical properties :
#
#
# Convention : Reuss Voigt Hill
#
# Bulk Modulus (GPa) = 46.65878 57.76237 52.21057
# Shear Modulus (GPa) = 19.25305 25.87353 22.56329
#
# Velocity S-wave (km/s) = 3.31613 3.84423 3.58991
# Velocity P-wave (km/s) = 6.42746 7.25921 6.85596
#
# Compressibility (1/GPa) = 0.02143220
#
# Stress axis : x y z
#
# Youngs Moduli (GPa) = 46.00263 29.01194 110.45375
#
# Poissons Ratio (x) = 0.52423 0.50219
# Poissons Ratio (y) = 0.83124 -0.07756
# Poissons Ratio (z) = 0.20916 -0.02037
#
# Static dielectric constant tensor:
#      x y z
#    x 3.422210 0.000100 0.122220 
#    y 0.000100 3.165700 -0.000020 
#    z 0.122220 -0.000020 3.723140 
# 
# 
# High freq. dielectric constant tensor:
#      x y z
#    x 1.674270 -0.000010 0.018490 
#    y -0.000010 1.632880 -0.000010 
#    z 0.018490 -0.000010 1.698520 
# 
# From -- ./inp_files/255865.got.cif
#   From: 2010.06.25/outbox.cif.g09.slc.cpg/sg15_128_cif.got.tgz:255865.got - 2010.06.28 07:06:18.
