data_PCOD8134307
_publ_section_title
;
Structure prediction by ZEFSAII (Michael W. Deem and Ramdas Pophale) SiO2 
 PCOD8134307
Probable space group: C 2/C
;
_chemical_formula_sum "Si O2"
_cell_formula_units_Z 60
_cell_length_a 9.009590
_cell_length_b 22.589238
_cell_length_c 16.503523
_cell_angle_alpha 90.000000
_cell_angle_beta 87.987541
_cell_angle_gamma 90.000000
_cell_volume 3356.721596
_symmetry_space_group_name_H-M "C 2/C"
_symmetry_group_IT_number 15
_symmetry_cell_setting 'monoclinic'
loop_
_space_group_symop_operation_xyz
x,y,z
-x,y,1/2-z
-x,-y,-z
x,-y,1/2+z
1/2+x,1/2+y,z
1/2-x,1/2+y,1/2-z
1/2-x,1/2-y,-z
1/2+x,1/2-y,1/2+z
loop_
_atom_site_type_symbol
_atom_site_label
_atom_site_fract_x
_atom_site_fract_y
_atom_site_fract_z
Si Si1 0.124292 0.432444 0.134110
Si Si2 0.084472 0.700670 0.667101
Si Si3 0.000000 0.472205 0.750000
Si Si4 0.398802 0.081146 0.505271
Si Si5 0.830479 0.982517 0.999276
Si Si6 0.816060 0.274140 0.582355
Si Si7 0.836534 0.587973 0.115234
Si Si8 0.898673 0.714406 0.507010
O O1 0.136864 0.367424 0.173568
O O2 0.112414 0.485565 0.198226
O O3 0.268982 0.440956 0.073695
O O4 0.966023 0.431793 0.091901
O O5 0.237830 0.738428 0.656704
O O6 0.000000 0.720154 0.750000
O O7 0.978404 0.717159 0.593269
O O8 0.885903 0.428461 0.705129
O O9 0.526643 0.063510 0.440193
O O10 0.349616 0.147826 0.492182
O O11 0.253132 0.044251 0.492738
O O12 0.804753 0.949701 0.913566
O O13 0.000000 0.000000 0.000000
O O14 0.750000 0.250000 0.500000
O O15 0.794490 0.343869 0.600368
O O16 0.992484 0.263608 0.567718
O O17 0.750000 0.750000 0.500000
#
# Coordination Sequence:
#
# PCOD8134307 Si02
#       8
#     8   8   4   8   8   8   8   8
#     4  10  19  35  60  81 106 154 195 232 277 353
#     4  10  20  36  58  83 110 151 193 234 294 352
#     4  12  18  34  64  80 116 144 198 240 280 352
#     4   9  17  35  55  77 105 145 206 221 261 353
#     4  11  20  33  54  85 113 144 192 243 289 334
#     4   9  19  38  58  78 112 151 195 233 283 354
#     4  10  20  36  58  83 107 156 193 232 287 348
#     4   9  19  34  57  79 105 147 194 239 277 329
#
# _framework density 17.874583999999999
#
# number of rings (size 3 to 8) (size 9 to 14) (size 15 to 20)
#    0.000    2.133    3.333    3.200    0.000    3.200 
#    4.800    2.000    0.000    1.600    0.000    0.000 
#    0.000    0.000    0.000    0.000    0.000    0.000 
#
# Total GULP energy -371704.812619 kJ/mol
# GULP energy per Si atom -12390.160421 kJ/mol
# Density = 1.783390 g / cm^3
# Si number density = 17.874584 Si / 1000 Ang^3
#
#
#
# Elastic Constant Matrix: (Units=GPa)
#
#
# Indices 1 2 3 4 5 6 
#
# 1 116.3008 71.4472 36.2452 0.0000 -8.9762 0.0000
# 2 71.4472 114.6796 43.2943 0.0000 -2.8951 0.0000
# 3 36.2452 43.2943 84.9388 0.0000 -7.7227 0.0000
# 4 0.0000 0.0000 0.0000 29.7933 0.0000 1.4825
# 5 -8.9762 -2.8951 -7.7227 0.0000 26.3235 0.0000
# 6 0.0000 0.0000 0.0000 1.4825 0.0000 33.8927
#
#
#
# Elastic Compliance Matrix: (Units=1/GPa)
#
#
# Indices 1 2 3 4 5 6 
#
# 1 0.014493 -0.008330 -0.001616 0.000000 0.003552 0.000000
# 2 -0.008330 0.015590 -0.004617 0.000000 -0.002480 0.000000
# 3 -0.001616 -0.004617 0.015123 0.000000 0.003378 0.000000
# 4 0.000000 0.000000 0.000000 0.033638 0.000000 -0.001471
# 5 0.003552 -0.002480 0.003378 0.000000 0.039918 0.000000
# 6 0.000000 0.000000 0.000000 -0.001471 0.000000 0.029569
#
#
# Mechanical properties :
#
#
# Convention : Reuss Voigt Hill
#
# Bulk Modulus (GPa) = 62.18699 68.65476 65.42088
# Shear Modulus (GPa) = 27.34942 28.99740 28.17341
#
# Velocity S-wave (km/s) = 3.91586 4.03211 3.97441
# Velocity P-wave (km/s) = 7.43717 7.75692 7.59873
#
# Compressibility (1/GPa) = 0.01608053
#
# Stress axis : x y z
#
# Youngs Moduli (GPa) = 68.99648 64.14269 66.12265
#
# Poissons Ratio (x) = 0.53431 0.10684
# Poissons Ratio (y) = 0.57474 0.30532
# Poissons Ratio (z) = 0.11149 0.29618
#
# Static dielectric constant tensor:
#      x y z
#    x 3.438110 0.000000 -0.092170 
#    y 0.000000 3.552850 0.000000 
#    z -0.092170 0.000000 3.345960 
# 
# 
# High freq. dielectric constant tensor:
#      x y z
#    x 1.667910 0.000000 -0.008250 
#    y 0.000000 1.708500 0.000000 
#    z -0.008250 0.000000 1.677290 
# 
# From -- ./inp_files/192130.got.cif
#   From: 2010.06.25/outbox.cif.g09.slc.cpg/sg15_97_cif.got.tgz:192130.got - 2010.06.28 07:06:18.
