data_PCOD8134728
_publ_section_title
;
Structure prediction by ZEFSAII (Michael W. Deem and Ramdas Pophale) SiO2 
 PCOD8134728
Probable space group: C 2/C
;
_chemical_formula_sum "Si O2"
_cell_formula_units_Z 40
_cell_length_a 13.458560
_cell_length_b 11.696209
_cell_length_c 16.057823
_cell_angle_alpha 90.000000
_cell_angle_beta 54.824678
_cell_angle_gamma 90.000000
_cell_volume 2066.147625
_symmetry_space_group_name_H-M "C 2/C"
_symmetry_group_IT_number 15
_symmetry_cell_setting 'monoclinic'
loop_
_space_group_symop_operation_xyz
x,y,z
-x,y,1/2-z
-x,-y,-z
x,-y,1/2+z
1/2+x,1/2+y,z
1/2-x,1/2+y,1/2-z
1/2-x,1/2-y,-z
1/2+x,1/2-y,1/2+z
loop_
_atom_site_type_symbol
_atom_site_label
_atom_site_fract_x
_atom_site_fract_y
_atom_site_fract_z
Si Si1 0.369598 0.537527 0.091283
Si Si2 0.211543 0.861293 0.134081
Si Si3 0.591712 0.267033 0.040642
Si Si4 0.310670 0.699469 0.665820
Si Si5 0.869120 0.108325 0.279298
O O1 0.284846 0.424254 0.135666
O O2 0.379734 0.591279 0.176736
O O3 0.500000 0.500000 0.000000
O O4 0.328827 0.633413 0.045282
O O5 0.108637 0.792864 0.130598
O O6 0.218486 0.807019 0.222292
O O7 0.176583 0.994513 0.152308
O O8 0.342121 0.848401 0.023787
O O9 0.450625 0.262536 0.085647
O O10 0.226516 0.789781 0.658530
O O11 0.000000 0.146239 0.250000
#
# Coordination Sequence:
#
# PCOD8134728 Si02
#       5
#     8   8   8   8   8
#     4   9  18  35  57  80 110 146 188 227 280 337
#     4  10  20  36  61  84 112 146 190 232 280 342
#     4  10  19  36  61  86 109 146 192 232 284 336
#     4  10  20  35  59  85 116 146 184 240 279 333
#     4  11  21  36  57  80 115 154 189 228 284 332
#
# _framework density 19.3597
#
# number of rings (size 3 to 8) (size 9 to 14) (size 15 to 20)
#    0.000    2.000    2.000    4.200    0.000    0.800 
#    0.000    9.000   17.600    0.000    0.000    0.000 
#    0.000    0.000    0.000    0.000    0.000    0.000 
#
# Total GULP energy -247857.369412 kJ/mol
# GULP energy per Si atom -12392.868471 kJ/mol
# Density = 1.931564 g / cm^3
# Si number density = 19.359700 Si / 1000 Ang^3
#
#
#
# Elastic Constant Matrix: (Units=GPa)
#
#
# Indices 1 2 3 4 5 6 
#
# 1 103.3849 60.3598 17.4079 0.0000 -19.2113 0.0000
# 2 60.3598 90.5441 40.2796 0.0000 -9.3055 0.0000
# 3 17.4079 40.2796 73.0824 0.0000 -3.8447 0.0000
# 4 0.0000 0.0000 0.0000 29.0360 0.0000 0.0697
# 5 -19.2113 -9.3055 -3.8447 0.0000 17.9529 0.0000
# 6 0.0000 0.0000 0.0000 0.0697 0.0000 29.4069
#
#
#
# Elastic Compliance Matrix: (Units=1/GPa)
#
#
# Indices 1 2 3 4 5 6 
#
# 1 0.019361 -0.012829 0.003236 0.000000 0.014761 0.000000
# 2 -0.012829 0.023783 -0.010241 0.000000 -0.003594 0.000000
# 3 0.003236 -0.010241 0.018670 0.000000 0.002152 0.000000
# 4 0.000000 0.000000 0.000000 0.034440 0.000000 -0.000082
# 5 0.014761 -0.003594 0.002152 0.000000 0.070095 0.000000
# 6 0.000000 0.000000 0.000000 -0.000082 0.000000 0.034006
#
#
# Mechanical properties :
#
#
# Convention : Reuss Voigt Hill
#
# Bulk Modulus (GPa) = 45.15747 55.90067 50.52907
# Shear Modulus (GPa) = 20.20967 25.21009 22.70988
#
# Velocity S-wave (km/s) = 3.23446 3.61251 3.42870
# Velocity P-wave (km/s) = 6.10942 6.80718 6.46772
#
# Compressibility (1/GPa) = 0.02214473
#
# Stress axis : x y z
#
# Youngs Moduli (GPa) = 51.65118 42.04666 53.56102
#
# Poissons Ratio (x) = 0.53941 -0.17330
# Poissons Ratio (y) = 0.66262 0.54854
# Poissons Ratio (z) = -0.16712 0.43062
#
# Static dielectric constant tensor:
#      x y z
#    x 3.349460 0.000000 0.098640 
#    y 0.000000 4.266240 0.000000 
#    z 0.098640 0.000000 3.752750 
# 
# 
# High freq. dielectric constant tensor:
#      x y z
#    x 1.730910 0.000000 0.003890 
#    y 0.000000 1.748870 0.000000 
#    z 0.003890 0.000000 1.765340 
# 
# From -- ./inp_files/142114.got.cif
#   From: 2010.06.25/outbox.cif.g09.slc.cpg/sg15_72_cif.got.tgz:142114.got - 2010.06.28 07:06:18.
