data_PCOD8134073
_publ_section_title
;
Structure prediction by ZEFSAII (Michael W. Deem and Ramdas Pophale) SiO2 
 PCOD8134073
Probable space group: C 2/C
;
_chemical_formula_sum "Si O2"
_cell_formula_units_Z 48
_cell_length_a 12.786982
_cell_length_b 22.787885
_cell_length_c 9.792538
_cell_angle_alpha 90.000000
_cell_angle_beta 69.865520
_cell_angle_gamma 90.000000
_cell_volume 2679.049819
_symmetry_space_group_name_H-M "C 2/C"
_symmetry_group_IT_number 15
_symmetry_cell_setting 'monoclinic'
loop_
_space_group_symop_operation_xyz
x,y,z
-x,y,1/2-z
-x,-y,-z
x,-y,1/2+z
1/2+x,1/2+y,z
1/2-x,1/2+y,1/2-z
1/2-x,1/2-y,-z
1/2+x,1/2-y,1/2+z
loop_
_atom_site_type_symbol
_atom_site_label
_atom_site_fract_x
_atom_site_fract_y
_atom_site_fract_z
Si Si1 0.237355 0.328769 0.908921
Si Si2 0.249687 0.674745 0.881651
Si Si3 0.365981 0.706126 0.094811
Si Si4 0.382204 0.715276 0.582102
Si Si5 0.870806 0.552828 0.968543
Si Si6 0.630596 0.942976 0.345847
O O1 0.335080 0.320565 0.754848
O O2 0.133387 0.285765 0.920824
O O3 0.286841 0.314510 0.034144
O O4 0.195640 0.394852 0.930527
O O5 0.155260 0.724171 0.902925
O O6 0.358724 0.692515 0.745311
O O7 0.199561 0.612903 0.862675
O O8 0.290344 0.671936 0.019135
O O9 0.496056 0.694965 0.015557
O O10 0.838468 0.542318 0.824906
O O11 0.000178 0.569145 0.921475
O O12 0.835679 0.496191 0.070839
#
# Coordination Sequence:
#
# PCOD8134073 Si02
#       6
#     8   8   8   8   8   8
#     4  10  20  34  56  83 109 139 180 222 268 318
#     4  10  20  36  54  81 112 144 176 220 272 317
#     4  10  21  33  55  83 112 143 177 217 268 326
#     4  10  19  35  55  81 110 144 178 218 268 320
#     4  10  21  37  57  82 107 140 179 224 271 320
#     4  10  21  37  58  80 108 141 179 223 272 318
#
# _framework density 17.916799999999999
#
# number of rings (size 3 to 8) (size 9 to 14) (size 15 to 20)
#    0.000    2.000    1.667    2.000    2.333    0.000 
#    0.000    1.667    0.000    6.000    0.000    0.000 
#    0.000    0.000    0.000    0.000    0.000    0.000 
#
# Total GULP energy -297647.729434 kJ/mol
# GULP energy per Si atom -12401.988726 kJ/mol
# Density = 1.787602 g / cm^3
# Si number density = 17.916800 Si / 1000 Ang^3
#
#
#
# Elastic Constant Matrix: (Units=GPa)
#
#
# Indices 1 2 3 4 5 6 
#
# 1 46.9284 41.9894 17.1270 0.0000 -6.8174 0.0000
# 2 41.9894 126.5321 38.7764 0.0000 6.1192 0.0000
# 3 17.1270 38.7764 68.3724 0.0000 5.2582 0.0000
# 4 0.0000 0.0000 0.0000 24.2140 0.0000 3.8003
# 5 -6.8174 6.1192 5.2582 0.0000 25.0343 0.0000
# 6 0.0000 0.0000 0.0000 3.8003 0.0000 19.3037
#
#
#
# Elastic Compliance Matrix: (Units=1/GPa)
#
#
# Indices 1 2 3 4 5 6 
#
# 1 0.034135 -0.010919 -0.003332 0.000000 0.012664 0.000000
# 2 -0.010919 0.013095 -0.004286 0.000000 -0.005274 0.000000
# 3 -0.003332 -0.004286 0.018174 0.000000 -0.003677 0.000000
# 4 0.000000 0.000000 0.000000 0.042615 0.000000 -0.008390
# 5 0.012664 -0.005274 -0.003677 0.000000 0.045455 0.000000
# 6 0.000000 0.000000 0.000000 -0.008390 0.000000 0.053455
#
#
# Mechanical properties :
#
#
# Convention : Reuss Voigt Hill
#
# Bulk Modulus (GPa) = 35.29839 48.62426 41.96132
# Shear Modulus (GPa) = 19.72804 23.30641 21.51723
#
# Velocity S-wave (km/s) = 3.32187 3.61059 3.46924
# Velocity P-wave (km/s) = 5.87002 6.67680 6.28637
#
# Compressibility (1/GPa) = 0.02832990
#
# Stress axis : x y z
#
# Youngs Moduli (GPa) = 29.29582 76.36502 55.02381
#
# Poissons Ratio (x) = 0.83381 0.18334
# Poissons Ratio (y) = 0.31987 0.23583
# Poissons Ratio (z) = 0.09762 0.32729
#
# Static dielectric constant tensor:
#      x y z
#    x 3.048040 0.000000 0.120440 
#    y 0.000000 3.154450 0.000000 
#    z 0.120440 0.000000 3.490900 
# 
# 
# High freq. dielectric constant tensor:
#      x y z
#    x 1.678800 0.000000 0.007690 
#    y 0.000000 1.681000 0.000000 
#    z 0.007690 0.000000 1.713390 
# 
# From -- ./inp_files/31886.got.cif
#   From: 2010.06.25/outbox.cif.g09.slc.cpg/sg15_16_cif.got.tgz:31886.got - 2010.06.28 07:06:18.
