data_PCOD8134888
_publ_section_title
;
Structure prediction by ZEFSAII (Michael W. Deem and Ramdas Pophale) SiO2 
 PCOD8134888
Probable space group: C 2/C
;
_chemical_formula_sum "Si O2"
_cell_formula_units_Z 52
_cell_length_a 8.733379
_cell_length_b 13.272197
_cell_length_c 24.779914
_cell_angle_alpha 90.000000
_cell_angle_beta 61.215259
_cell_angle_gamma 90.000000
_cell_volume 2517.355839
_symmetry_space_group_name_H-M "C 2/C"
_symmetry_group_IT_number 15
_symmetry_cell_setting 'monoclinic'
loop_
_space_group_symop_operation_xyz
x,y,z
-x,y,1/2-z
-x,-y,-z
x,-y,1/2+z
1/2+x,1/2+y,z
1/2-x,1/2+y,1/2-z
1/2-x,1/2-y,-z
1/2+x,1/2-y,1/2+z
loop_
_atom_site_type_symbol
_atom_site_label
_atom_site_fract_x
_atom_site_fract_y
_atom_site_fract_z
Si Si1 0.239964 0.777899 0.842166
Si Si2 0.500000 0.935323 0.750000
Si Si3 0.336636 0.396592 0.075034
Si Si4 0.353127 0.708788 0.931233
Si Si5 0.157621 0.490490 0.432916
Si Si6 0.441217 0.920111 0.161719
Si Si7 0.547323 0.405204 0.564561
O O1 0.335321 0.862339 0.790184
O O2 0.358654 0.775769 0.876357
O O3 0.201959 0.672460 0.815980
O O4 0.048981 0.808798 0.895310
O O5 0.575730 0.009711 0.783026
O O6 0.447843 0.310909 0.086133
O O7 0.405073 0.506032 0.081855
O O8 0.138041 0.378467 0.125747
O O9 0.358701 0.382027 0.007613
O O10 0.251770 0.611842 0.929893
O O11 0.250000 0.750000 0.000000
O O12 0.089794 0.494443 0.383455
O O13 0.300587 0.576626 0.417775
O O14 0.000000 0.500000 0.500000
#
# Coordination Sequence:
#
# PCOD8134888 Si02
#       7
#     8   4   8   8   8   8   8
#     4  11  25  46  69  98 131 185 236 283 347 418
#     4  12  28  52  72  86 148 190 234 300 340 402
#     4  10  19  36  68  99 139 173 212 278 349 420
#     4  10  21  35  64 102 136 171 218 279 353 415
#     4  10  21  36  63 102 138 167 212 282 346 414
#     4  11  25  46  69  98 130 184 238 277 347 420
#     4  10  19  37  65 101 137 175 211 272 359 408
#
# _framework density 20.656593999999998
#
# number of rings (size 3 to 8) (size 9 to 14) (size 15 to 20)
#    0.000    1.538    4.615    0.000    2.154    3.077 
#    5.538    0.000    0.000    0.000    0.000    0.000 
#    0.000    0.000    0.000    0.000    0.000    0.000 
#
# Total GULP energy -322238.906022 kJ/mol
# GULP energy per Si atom -12393.804078 kJ/mol
# Density = 2.060958 g / cm^3
# Si number density = 20.656594 Si / 1000 Ang^3
#
#
#
# Elastic Constant Matrix: (Units=GPa)
#
#
# Indices 1 2 3 4 5 6 
#
# 1 127.5728 42.1333 58.1845 0.0000 22.6383 0.0000
# 2 42.1333 75.4555 51.8371 0.0000 13.3553 0.0000
# 3 58.1845 51.8371 101.7098 0.0000 16.9596 0.0000
# 4 0.0000 0.0000 0.0000 36.7356 0.0000 0.9695
# 5 22.6383 13.3553 16.9596 0.0000 35.0072 0.0000
# 6 0.0000 0.0000 0.0000 0.9695 0.0000 38.8526
#
#
#
# Elastic Compliance Matrix: (Units=1/GPa)
#
#
# Indices 1 2 3 4 5 6 
#
# 1 0.011525 -0.002523 -0.004596 0.000000 -0.004264 0.000000
# 2 -0.002523 0.021236 -0.009031 0.000000 -0.002095 0.000000
# 3 -0.004596 -0.009031 0.017399 0.000000 -0.002012 0.000000
# 4 0.000000 0.000000 0.000000 0.027240 0.000000 -0.000680
# 5 -0.004264 -0.002095 -0.002012 0.000000 0.033097 0.000000
# 6 0.000000 0.000000 0.000000 -0.000680 0.000000 0.025755
#
#
# Mechanical properties :
#
#
# Convention : Reuss Voigt Hill
#
# Bulk Modulus (GPa) = 55.98853 67.67197 61.83025
# Shear Modulus (GPa) = 28.65252 32.29131 30.47191
#
# Velocity S-wave (km/s) = 3.72840 3.95808 3.84496
# Velocity P-wave (km/s) = 6.76002 7.32940 7.05046
#
# Compressibility (1/GPa) = 0.01786080
#
# Stress axis : x y z
#
# Youngs Moduli (GPa) = 86.76964 47.08875 57.47452
#
# Poissons Ratio (x) = 0.11882 0.26415
# Poissons Ratio (y) = 0.21894 0.51902
# Poissons Ratio (z) = 0.39879 0.42524
#
# Static dielectric constant tensor:
#      x y z
#    x 4.793070 0.000000 0.575600 
#    y 0.000000 4.267210 0.000000 
#    z 0.575600 0.000000 3.705330 
# 
# 
# High freq. dielectric constant tensor:
#      x y z
#    x 1.823650 0.000000 0.006920 
#    y 0.000000 1.806560 0.000000 
#    z 0.006920 0.000000 1.791060 
# 
# From -- ./inp_files/231145.got.cif
#   From: 2010.06.25/outbox.cif.g09.slc.cpg/sg15_116_cif.got.tgz:231145.got - 2010.06.28 07:06:18.
