data_PCOD8134368
_publ_section_title
;
Structure prediction by ZEFSAII (Michael W. Deem and Ramdas Pophale) SiO2 
 PCOD8134368
Probable space group: C 2/C
;
_chemical_formula_sum "Si O2"
_cell_formula_units_Z 52
_cell_length_a 11.838714
_cell_length_b 20.489898
_cell_length_c 11.097688
_cell_angle_alpha 90.000000
_cell_angle_beta 121.506106
_cell_angle_gamma 90.000000
_cell_volume 2295.166823
_symmetry_space_group_name_H-M "C 2/C"
_symmetry_group_IT_number 15
_symmetry_cell_setting 'monoclinic'
loop_
_space_group_symop_operation_xyz
x,y,z
-x,y,1/2-z
-x,-y,-z
x,-y,1/2+z
1/2+x,1/2+y,z
1/2-x,1/2+y,1/2-z
1/2-x,1/2-y,-z
1/2+x,1/2-y,1/2+z
loop_
_atom_site_type_symbol
_atom_site_label
_atom_site_fract_x
_atom_site_fract_y
_atom_site_fract_z
Si Si1 0.339457 0.243194 0.170864
Si Si2 0.344335 0.424434 0.544769
Si Si3 0.196335 0.119645 0.728692
Si Si4 0.548212 0.925168 0.029962
Si Si5 0.713141 0.123000 0.195433
Si Si6 0.000000 0.026846 0.750000
Si Si7 0.146160 0.471710 0.859189
O O1 0.500000 0.232045 0.250000
O O2 0.316062 0.307976 0.232551
O O3 0.273402 0.186211 0.213887
O O4 0.250000 0.250000 0.000000
O O5 0.369023 0.379905 0.441311
O O6 0.330674 0.381965 0.661125
O O7 0.458442 0.479016 0.617712
O O8 0.210129 0.464152 0.449989
O O9 0.349667 0.094360 0.806605
O O10 0.120732 0.070860 0.775247
O O11 0.425180 0.875387 0.955945
O O12 0.632913 0.914469 0.952773
O O13 0.500000 0.000000 0.000000
O O14 0.719539 0.058098 0.283228
O O15 0.000000 0.497719 0.750000
#
# Coordination Sequence:
#
# PCOD8134368 Si02
#       7
#     8   8   8   8   8   4   8
#     4  12  27  50  73  99 137 194 249 293 340 432
#     4  12  25  39  66 101 136 179 219 294 362 409
#     4  12  25  42  69  99 139 187 236 281 352 429
#     4  11  19  40  66 106 135 171 226 298 353 407
#     4  11  24  41  68 100 141 176 234 290 354 406
#     4  12  24  46  62 100 144 184 232 278 350 436
#     4  10  19  35  61  95 130 165 213 276 349 403
#
# _framework density 22.656305
#
# number of rings (size 3 to 8) (size 9 to 14) (size 15 to 20)
#    0.000    0.615    3.846    6.462    0.000    1.846 
#    0.000    0.000    0.000    1.846    0.000    0.000 
#    0.000    0.000    0.000    0.000    0.000    0.000 
#
# Total GULP energy -322196.043066 kJ/mol
# GULP energy per Si atom -12392.155503 kJ/mol
# Density = 2.260474 g / cm^3
# Si number density = 22.656305 Si / 1000 Ang^3
#
#
#
# Elastic Constant Matrix: (Units=GPa)
#
#
# Indices 1 2 3 4 5 6 
#
# 1 51.5777 25.9689 9.8085 0.0000 -5.4169 0.0000
# 2 25.9689 114.9215 36.5318 0.0000 -4.9092 0.0000
# 3 9.8085 36.5318 91.7632 0.0000 -4.1313 0.0000
# 4 0.0000 0.0000 0.0000 40.5532 0.0000 -9.3587
# 5 -5.4169 -4.9092 -4.1313 0.0000 37.2880 0.0000
# 6 0.0000 0.0000 0.0000 -9.3587 0.0000 29.5487
#
#
#
# Elastic Compliance Matrix: (Units=1/GPa)
#
#
# Indices 1 2 3 4 5 6 
#
# 1 0.022129 -0.004781 -0.000347 0.000000 0.002547 0.000000
# 2 -0.004781 0.011024 -0.003863 0.000000 0.000329 0.000000
# 3 -0.000347 -0.003863 0.012510 0.000000 0.000827 0.000000
# 4 0.000000 0.000000 0.000000 0.026603 0.000000 0.008426
# 5 0.002547 0.000329 0.000827 0.000000 0.027323 0.000000
# 6 0.000000 0.000000 0.000000 0.008426 0.000000 0.036511
#
#
# Mechanical properties :
#
#
# Convention : Reuss Voigt Hill
#
# Bulk Modulus (GPa) = 36.12710 44.76451 40.44580
# Shear Modulus (GPa) = 30.61657 33.87487 32.24572
#
# Velocity S-wave (km/s) = 3.68006 3.87093 3.77670
# Velocity P-wave (km/s) = 5.83416 6.30712 6.07524
#
# Compressibility (1/GPa) = 0.02768005
#
# Stress axis : x y z
#
# Youngs Moduli (GPa) = 45.18932 90.71079 79.93724
#
# Poissons Ratio (x) = 0.43372 0.02775
# Poissons Ratio (y) = 0.21607 0.30879
# Poissons Ratio (z) = 0.01569 0.35041
#
# Static dielectric constant tensor:
#      x y z
#    x 4.287900 0.000000 -0.366450 
#    y 0.000000 3.784480 0.000000 
#    z -0.366450 0.000000 5.230110 
# 
# 
# High freq. dielectric constant tensor:
#      x y z
#    x 1.885800 0.000000 -0.001620 
#    y 0.000000 1.863760 0.000000 
#    z -0.001620 0.000000 1.918170 
# 
# From -- ./inp_files/89703.got.cif
#   From: 2010.06.25/outbox.cif.g09.slc.cpg/sg15_45_cif.got.tgz:89703.got - 2010.06.28 07:06:18.
