data_PCOD8134848
_publ_section_title
;
Structure prediction by ZEFSAII (Michael W. Deem and Ramdas Pophale) SiO2 
 PCOD8134848
Probable space group: C 2/C
;
_chemical_formula_sum "Si O2"
_cell_formula_units_Z 56
_cell_length_a 9.349302
_cell_length_b 16.295472
_cell_length_c 24.332458
_cell_angle_alpha 90.000000
_cell_angle_beta 46.870129
_cell_angle_gamma 90.000000
_cell_volume 2705.450036
_symmetry_space_group_name_H-M "C 2/C"
_symmetry_group_IT_number 15
_symmetry_cell_setting 'monoclinic'
loop_
_space_group_symop_operation_xyz
x,y,z
-x,y,1/2-z
-x,-y,-z
x,-y,1/2+z
1/2+x,1/2+y,z
1/2-x,1/2+y,1/2-z
1/2-x,1/2-y,-z
1/2+x,1/2-y,1/2+z
loop_
_atom_site_type_symbol
_atom_site_label
_atom_site_fract_x
_atom_site_fract_y
_atom_site_fract_z
Si Si1 0.978121 0.352559 0.644838
Si Si2 0.685243 0.172209 0.427913
Si Si3 0.407556 0.424625 0.961617
Si Si4 0.790275 0.505788 0.886347
Si Si5 0.299200 0.261740 0.282377
Si Si6 0.627678 0.279027 0.940970
Si Si7 0.553756 0.821005 0.176933
O O1 0.857457 0.366832 0.620418
O O2 0.841428 0.304948 0.723947
O O3 0.037068 0.438313 0.658106
O O4 0.174005 0.299658 0.577059
O O5 0.800469 0.105134 0.434081
O O6 0.476928 0.195230 0.511802
O O7 0.811153 0.255311 0.389789
O O8 0.606981 0.475148 0.897364
O O9 0.464169 0.350123 0.987950
O O10 0.262227 0.481076 0.035500
O O11 0.854464 0.589648 0.840891
O O12 0.500000 0.304361 0.250000
O O13 0.192441 0.217215 0.360565
O O14 0.152715 0.332073 0.300472
O O15 0.500000 0.784238 0.250000
#
# Coordination Sequence:
#
# PCOD8134848 Si02
#       7
#     8   8   8   8   8   8   8
#     4  10  23  39  61  91 134 165 206 263 327 377
#     4  12  21  38  67  98 121 166 218 268 307 369
#     4  10  20  37  63  92 126 161 209 257 313 384
#     4  10  23  41  60  92 128 168 205 254 325 383
#     4  10  21  39  63  91 122 167 212 254 317 386
#     4  10  19  36  64  91 120 166 212 255 305 382
#     4  12  23  40  65  93 123 162 219 267 306 379
#
# _framework density 20.698961000000001
#
# number of rings (size 3 to 8) (size 9 to 14) (size 15 to 20)
#    0.000    1.429    4.286    1.714    0.000    3.429 
#    0.000    1.429    0.000    0.000    0.000    0.000 
#    0.000    0.000    0.000    0.000    0.000    0.000 
#
# Total GULP energy -347033.035804 kJ/mol
# GULP energy per Si atom -12394.036993 kJ/mol
# Density = 2.065185 g / cm^3
# Si number density = 20.698961 Si / 1000 Ang^3
#
#
#
# Elastic Constant Matrix: (Units=GPa)
#
#
# Indices 1 2 3 4 5 6 
#
# 1 136.1433 35.7461 32.9545 0.0002 2.9058 0.0000
# 2 35.7461 67.3728 21.2967 0.0000 -7.3091 -0.0001
# 3 32.9545 21.2967 81.2660 0.0009 2.6747 -0.0004
# 4 0.0002 0.0000 0.0009 17.5345 -0.0004 -3.3813
# 5 2.9058 -7.3091 2.6747 -0.0004 24.5547 0.0002
# 6 0.0000 -0.0001 -0.0004 -3.3813 0.0002 33.1796
#
#
#
# Elastic Compliance Matrix: (Units=1/GPa)
#
#
# Indices 1 2 3 4 5 6 
#
# 1 0.009118 -0.004270 -0.002510 0.000000 -0.002077 0.000000
# 2 -0.004270 0.018900 -0.003436 0.000000 0.006505 0.000000
# 3 -0.002510 -0.003436 0.014299 -0.000001 -0.002283 0.000000
# 4 0.000000 0.000000 -0.000001 0.058174 0.000001 0.005928
# 5 -0.002077 0.006505 -0.002283 0.000001 0.043156 0.000000
# 6 0.000000 0.000000 0.000000 0.005928 0.000000 0.030743
#
#
# Mechanical properties :
#
#
# Convention : Reuss Voigt Hill
#
# Bulk Modulus (GPa) = 45.69201 51.64183 48.66692
# Shear Modulus (GPa) = 24.73822 28.03941 26.38881
#
# Velocity S-wave (km/s) = 3.46083 3.68452 3.57443
# Velocity P-wave (km/s) = 6.17190 6.56537 6.37167
#
# Compressibility (1/GPa) = 0.02188566
#
# Stress axis : x y z
#
# Youngs Moduli (GPa) = 109.67078 52.91039 69.93622
#
# Poissons Ratio (x) = 0.22591 0.17556
# Poissons Ratio (y) = 0.46825 0.24028
# Poissons Ratio (z) = 0.27531 0.18178
#
# Static dielectric constant tensor:
#      x y z
#    x 4.001650 0.000000 -0.245610 
#    y 0.000000 3.437610 0.000000 
#    z -0.245610 0.000000 3.759220 
# 
# 
# High freq. dielectric constant tensor:
#      x y z
#    x 1.814180 0.000000 -0.010400 
#    y 0.000000 1.779800 0.000000 
#    z -0.010400 0.000000 1.814960 
# 
# From -- ./inp_files/265481.got.cif
#   From: 2010.06.25/outbox.cif.g09.slc.cpg/sg15_133_cif.got.tgz:265481.got - 2010.06.28 07:06:18.
