data_PCOD8134619
_publ_section_title
;
Structure prediction by ZEFSAII (Michael W. Deem and Ramdas Pophale) SiO2 
 PCOD8134619
Probable space group: C 2/C
;
_chemical_formula_sum "Si O2"
_cell_formula_units_Z 64
_cell_length_a 22.407851
_cell_length_b 9.115935
_cell_length_c 25.938890
_cell_angle_alpha 90.000000
_cell_angle_beta 141.910156
_cell_angle_gamma 90.000000
_cell_volume 3268.624524
_symmetry_space_group_name_H-M "C 2/C"
_symmetry_group_IT_number 15
_symmetry_cell_setting 'monoclinic'
loop_
_space_group_symop_operation_xyz
x,y,z
-x,y,1/2-z
-x,-y,-z
x,-y,1/2+z
1/2+x,1/2+y,z
1/2-x,1/2+y,1/2-z
1/2-x,1/2-y,-z
1/2+x,1/2-y,1/2+z
loop_
_atom_site_type_symbol
_atom_site_label
_atom_site_fract_x
_atom_site_fract_y
_atom_site_fract_z
Si Si1 0.184053 0.169687 0.070843
Si Si2 0.869459 0.759245 0.489131
Si Si3 0.218355 0.518784 0.544538
Si Si4 0.217592 0.553604 0.930879
Si Si5 0.210570 0.056561 0.200440
Si Si6 0.502186 0.499484 0.061558
Si Si7 0.224522 0.275547 0.298446
Si Si8 0.891756 0.194959 0.187870
O O1 0.208735 0.332605 0.069481
O O2 0.187046 0.160190 0.135008
O O3 0.266425 0.062237 0.104408
O O4 0.078674 0.120168 0.975581
O O5 0.871677 0.584643 0.498833
O O6 0.807421 0.831495 0.493855
O O7 0.973915 0.834803 0.560823
O O8 0.815514 0.796724 0.398591
O O9 0.208548 0.541584 0.476659
O O10 0.319806 0.438828 0.625482
O O11 0.124145 0.655508 0.856020
O O12 0.251531 0.152314 0.274953
O O13 0.112171 0.974234 0.154419
O O14 0.288801 0.931416 0.239732
O O15 0.500000 0.500000 0.000000
O O16 0.128088 0.234078 0.265272
O O17 0.000000 0.139902 0.250000
#
# Coordination Sequence:
#
# PCOD8134619 Si02
#       8
#     8   8   8   8   8   8   8   8
#     4  10  19  36  59  81 119 144 185 240 292 334
#     4   9  17  35  55  81 112 140 188 229 281 335
#     4  10  20  32  59  88 106 147 194 238 285 332
#     4   9  17  36  57  75 109 151 186 228 287 337
#     4  11  21  37  60  81 116 153 191 226 291 348
#     4   9  17  36  58  77 107 152 180 230 282 337
#     4  10  21  36  57  85 112 157 183 227 289 346
#     4  10  21  39  58  81 117 151 195 236 277 341
#
# _framework density 19.580100999999999
#
# number of rings (size 3 to 8) (size 9 to 14) (size 15 to 20)
#    0.000    2.500    5.000    1.875    3.500    3.000 
#    0.000    5.625    0.000    0.000    0.000    0.000 
#    0.000    0.000    0.000    0.000    0.000    0.000 
#
# Total GULP energy -396430.246848 kJ/mol
# GULP energy per Si atom -12388.445214 kJ/mol
# Density = 1.953554 g / cm^3
# Si number density = 19.580101 Si / 1000 Ang^3
#
#
#
# Elastic Constant Matrix: (Units=GPa)
#
#
# Indices 1 2 3 4 5 6 
#
# 1 92.4753 45.3511 36.6785 0.0000 -4.5246 -0.0001
# 2 45.3511 112.6248 17.5997 -0.0003 0.3058 -0.0007
# 3 36.6785 17.5997 32.1737 0.0000 -2.3236 -0.0001
# 4 0.0000 -0.0003 0.0000 21.9250 0.0000 -7.6788
# 5 -4.5246 0.3058 -2.3236 0.0000 29.6934 0.0000
# 6 -0.0001 -0.0007 -0.0001 -7.6788 0.0000 34.2581
#
#
#
# Elastic Compliance Matrix: (Units=1/GPa)
#
#
# Indices 1 2 3 4 5 6 
#
# 1 0.022584 -0.005571 -0.022573 0.000000 0.001732 0.000000
# 2 -0.005571 0.011091 0.000216 0.000000 -0.000946 0.000000
# 3 -0.022573 0.000216 0.056769 0.000000 0.001000 0.000000
# 4 0.000000 0.000000 0.000000 0.049496 0.000000 0.011094
# 5 0.001732 -0.000946 0.001000 0.000000 0.034029 0.000000
# 6 0.000000 0.000000 0.000000 0.011094 0.000000 0.031677
#
#
# Mechanical properties :
#
#
# Convention : Reuss Voigt Hill
#
# Bulk Modulus (GPa) = 28.91258 48.50362 38.70810
# Shear Modulus (GPa) = 18.31281 26.35161 22.33221
#
# Velocity S-wave (km/s) = 3.06155 3.67254 3.38088
# Velocity P-wave (km/s) = 5.22454 6.54287 5.92051
#
# Compressibility (1/GPa) = 0.03458702
#
# Stress axis : x y z
#
# Youngs Moduli (GPa) = 44.27937 90.16108 17.61513
#
# Poissons Ratio (x) = 0.50230 0.39763
# Poissons Ratio (y) = 0.24669 -0.00380
# Poissons Ratio (z) = 0.99953 -0.01945
#
# Static dielectric constant tensor:
#      x y z
#    x 2.446880 0.000020 -0.962100 
#    y 0.000020 3.516280 0.000010 
#    z -0.962100 0.000010 2.647430 
# 
# 
# High freq. dielectric constant tensor:
#      x y z
#    x 1.769320 0.000000 -0.016740 
#    y 0.000000 1.753590 0.000000 
#    z -0.016740 0.000000 1.722200 
# 
# From -- ./inp_files/300370.got.cif
#   From: 2010.06.25/outbox.cif.g09.slc.cpg/sg15_151_cif.got.tgz:300370.got - 2010.06.28 07:06:18.
