data_PCOD8134022
_publ_section_title
;
Structure prediction by ZEFSAII (Michael W. Deem and Ramdas Pophale) SiO2 
 PCOD8134022
Probable space group: C 2/C
;
_chemical_formula_sum "Si O2"
_cell_formula_units_Z 60
_cell_length_a 18.167978
_cell_length_b 26.499344
_cell_length_c 12.433839
_cell_angle_alpha 90.000000
_cell_angle_beta 149.656975
_cell_angle_gamma 90.000000
_cell_volume 3024.053853
_symmetry_space_group_name_H-M "C 2/C"
_symmetry_group_IT_number 15
_symmetry_cell_setting 'monoclinic'
loop_
_space_group_symop_operation_xyz
x,y,z
-x,y,1/2-z
-x,-y,-z
x,-y,1/2+z
1/2+x,1/2+y,z
1/2-x,1/2+y,1/2-z
1/2-x,1/2-y,-z
1/2+x,1/2-y,1/2+z
loop_
_atom_site_type_symbol
_atom_site_label
_atom_site_fract_x
_atom_site_fract_y
_atom_site_fract_z
Si Si1 0.033844 0.946112 0.651490
Si Si2 0.220084 0.896570 0.058215
Si Si3 0.087753 0.203306 0.969420
Si Si4 0.000000 0.962264 0.250000
Si Si5 0.666778 0.718316 0.486598
Si Si6 0.335161 0.404886 0.879781
Si Si7 0.899605 0.273663 0.886187
Si Si8 0.476259 0.124319 0.592138
O O1 0.071919 0.944264 0.574819
O O2 0.868171 0.926198 0.460456
O O3 0.061079 0.001815 0.732519
O O4 0.144873 0.907589 0.849264
O O5 0.390656 0.912181 0.277333
O O6 0.232220 0.836694 0.083741
O O7 0.000000 0.199443 0.750000
O O8 0.015295 0.243390 0.959916
O O9 0.092230 0.150225 0.038641
O O10 0.252815 0.213436 0.135019
O O11 0.135363 0.927513 0.463267
O O12 0.500000 0.712840 0.250000
O O13 0.750000 0.750000 0.500000
O O14 0.678472 0.744533 0.615569
O O15 0.169243 0.404830 0.629229
O O16 0.982183 0.322115 0.038111
O O17 0.500000 0.133770 0.750000
#
# Coordination Sequence:
#
# PCOD8134022 Si02
#       8
#     8   8   8   4   8   8   8   8
#     4  10  21  38  65  86 116 153 196 250 305 357
#     4  10  19  35  52  87 121 156 193 236 302 359
#     4  11  23  40  57  82 119 164 211 246 284 353
#     4  10  22  42  64  94 112 148 210 248 302 374
#     4  12  21  31  51  84 126 159 196 244 292 363
#     4  11  22  40  65  89 117 159 196 253 305 348
#     4  11  23  34  55  84 116 168 201 240 294 340
#     4  11  21  36  59  89 127 158 193 245 302 358
#
# _framework density 19.840916
#
# number of rings (size 3 to 8) (size 9 to 14) (size 15 to 20)
#    0.000    1.333    3.333    5.200    1.867    0.000 
#    0.000    3.333    0.000    0.000    0.000    0.000 
#    0.000    0.000    0.000    0.000    0.000    0.000 
#
# Total GULP energy -371702.258935 kJ/mol
# GULP energy per Si atom -12390.075298 kJ/mol
# Density = 1.979576 g / cm^3
# Si number density = 19.840916 Si / 1000 Ang^3
#
#
#
# Elastic Constant Matrix: (Units=GPa)
#
#
# Indices 1 2 3 4 5 6 
#
# 1 89.5551 27.7431 56.8061 0.0000 15.3641 0.0000
# 2 27.7431 71.1185 37.7671 0.0000 7.5249 0.0000
# 3 56.8061 37.7671 154.1421 0.0000 17.3302 0.0000
# 4 0.0000 0.0000 0.0000 16.5345 0.0000 -4.5160
# 5 15.3641 7.5249 17.3302 0.0000 24.7840 0.0000
# 6 0.0000 0.0000 0.0000 -4.5160 0.0000 20.0875
#
#
#
# Elastic Compliance Matrix: (Units=1/GPa)
#
#
# Indices 1 2 3 4 5 6 
#
# 1 0.015992 -0.003265 -0.004439 0.000000 -0.005818 0.000000
# 2 -0.003265 0.016955 -0.002821 0.000000 -0.001151 0.000000
# 3 -0.004439 -0.002821 0.009127 0.000000 -0.002773 0.000000
# 4 0.000000 0.000000 0.000000 0.064436 0.000000 0.014486
# 5 -0.005818 -0.001151 -0.002773 0.000000 0.046244 0.000000
# 6 0.000000 0.000000 0.000000 0.014486 0.000000 0.053039
#
#
# Mechanical properties :
#
#
# Convention : Reuss Voigt Hill
#
# Bulk Modulus (GPa) = 47.57091 62.16092 54.86591
# Shear Modulus (GPa) = 21.38105 25.11449 23.24777
#
# Velocity S-wave (km/s) = 3.28628 3.56166 3.42674
# Velocity P-wave (km/s) = 6.19901 6.95065 6.58556
#
# Compressibility (1/GPa) = 0.02102125
#
# Stress axis : x y z
#
# Youngs Moduli (GPa) = 62.53140 58.97996 109.56943
#
# Poissons Ratio (x) = 0.19259 0.48642
# Poissons Ratio (y) = 0.20419 0.30915
# Poissons Ratio (z) = 0.27760 0.16641
#
# Static dielectric constant tensor:
#      x y z
#    x 3.695370 0.000000 -0.054420 
#    y 0.000000 2.820090 0.000000 
#    z -0.054420 0.000000 3.928140 
# 
# 
# High freq. dielectric constant tensor:
#      x y z
#    x 1.757540 0.000000 0.005220 
#    y 0.000000 1.767530 0.000000 
#    z 0.005220 0.000000 1.790530 
# 
# From -- ./inp_files/108594.got.cif
#   From: 2010.06.25/outbox.cif.g09.slc.cpg/sg15_55_cif.got.tgz:108594.got - 2010.06.28 07:06:18.
