data_PCOD8134082
_publ_section_title
;
Structure prediction by ZEFSAII (Michael W. Deem and Ramdas Pophale) SiO2 
 PCOD8134082
Probable space group: C 2/C
;
_chemical_formula_sum "Si O2"
_cell_formula_units_Z 56
_cell_length_a 8.559376
_cell_length_b 19.733472
_cell_length_c 17.304713
_cell_angle_alpha 90.000000
_cell_angle_beta 61.282488
_cell_angle_gamma 90.000000
_cell_volume 2563.358087
_symmetry_space_group_name_H-M "C 2/C"
_symmetry_group_IT_number 15
_symmetry_cell_setting 'monoclinic'
loop_
_space_group_symop_operation_xyz
x,y,z
-x,y,1/2-z
-x,-y,-z
x,-y,1/2+z
1/2+x,1/2+y,z
1/2-x,1/2+y,1/2-z
1/2-x,1/2-y,-z
1/2+x,1/2-y,1/2+z
loop_
_atom_site_type_symbol
_atom_site_label
_atom_site_fract_x
_atom_site_fract_y
_atom_site_fract_z
Si Si1 0.444911 0.939063 0.428475
Si Si2 0.529971 0.314658 0.329834
Si Si3 0.759814 0.941754 0.165905
Si Si4 0.110732 0.998732 0.566766
Si Si5 0.762829 0.531398 0.179523
Si Si6 0.560968 0.836369 0.821382
Si Si7 0.687912 0.136317 0.979356
O O1 0.419868 0.931555 0.341040
O O2 0.542100 0.874944 0.445027
O O3 0.236618 0.939364 0.504211
O O4 0.561367 0.008612 0.414809
O O5 0.500000 0.340023 0.250000
O O6 0.656738 0.368050 0.341348
O O7 0.627807 0.241350 0.307939
O O8 0.335252 0.309005 0.416666
O O9 0.906091 0.991851 0.086051
O O10 0.722114 0.979137 0.254584
O O11 0.208433 0.068308 0.527733
O O12 0.092365 0.982153 0.664515
O O13 0.780920 0.610701 0.195964
O O14 0.500000 0.856261 0.750000
O O15 0.400152 0.840671 0.920100
#
# Coordination Sequence:
#
# PCOD8134082 Si02
#       7
#     8   8   8   8   8   8   8
#     4  11  19  34  57  86 115 145 194 247 290 357
#     4  10  22  39  59  85 117 155 197 247 298 363
#     4  11  22  34  57  86 116 156 195 238 300 355
#     4  10  19  35  55  83 119 148 190 248 296 342
#     4  11  20  36  60  85 113 149 200 251 297 340
#     4  11  21  36  60  87 115 149 206 246 293 358
#     4  10  19  37  62  84 117 153 194 245 306 343
#
# _framework density 21.846344999999999
#
# number of rings (size 3 to 8) (size 9 to 14) (size 15 to 20)
#    0.000    1.429    2.857    6.000    0.000    0.000 
#    0.000    0.714    0.000    6.857    0.000    0.000 
#    0.000    0.000    0.000    0.000    0.000    0.000 
#
# Total GULP energy -346941.196622 kJ/mol
# GULP energy per Si atom -12390.757022 kJ/mol
# Density = 2.179662 g / cm^3
# Si number density = 21.846345 Si / 1000 Ang^3
#
#
#
# Elastic Constant Matrix: (Units=GPa)
#
#
# Indices 1 2 3 4 5 6 
#
# 1 97.4784 27.8253 -0.5643 0.0000 4.2838 0.0000
# 2 27.8253 95.2298 -3.4607 0.0000 1.3296 0.0000
# 3 -0.5643 -3.4607 43.2297 0.0000 8.9896 0.0000
# 4 0.0000 0.0000 0.0000 7.4185 0.0000 10.5185
# 5 4.2838 1.3296 8.9896 0.0000 19.9629 0.0000
# 6 0.0000 0.0000 0.0000 10.5185 0.0000 5.1502
#
#
#
# Elastic Compliance Matrix: (Units=1/GPa)
#
#
# Indices 1 2 3 4 5 6 
#
# 1 0.011294 -0.003253 0.000382 0.000000 -0.002379 0.000000
# 2 -0.003253 0.011494 0.000984 0.000000 -0.000511 0.000000
# 3 0.000382 0.000984 0.025648 0.000000 -0.011697 0.000000
# 4 0.000000 0.000000 0.000000 -0.071105 0.000000 0.145220
# 5 -0.002379 -0.000511 -0.011697 0.000000 0.055905 0.000000
# 6 0.000000 0.000000 0.000000 0.145220 0.000000 -0.102421
#
#
# Mechanical properties :
#
#
# Convention : Reuss Voigt Hill
#
# Bulk Modulus (GPa) = 22.39040 31.50426 26.94733
# Shear Modulus (GPa) = -98.96569 20.64884 -39.15843
#
# Velocity S-wave (km/s) = -6.73789 3.07772 -4.23832
# Velocity P-wave (km/s) = 7.08949 5.20403 3.40433
#
# Compressibility (1/GPa) = 0.04466201
#
# Stress axis : x y z
#
# Youngs Moduli (GPa) = 88.54275 86.99990 38.98870
#
# Poissons Ratio (x) = 0.28300 -0.01488
# Poissons Ratio (y) = 0.28802 -0.03836
# Poissons Ratio (z) = -0.03380 -0.08560
#
# Static dielectric constant tensor:
#      x y z
#    x 4.091660 0.000000 -0.054310 
#    y 0.000000 3.593100 0.000000 
#    z -0.054310 0.000000 4.479790 
# 
# 
# High freq. dielectric constant tensor:
#      x y z
#    x 1.853670 0.000000 0.007380 
#    y 0.000000 1.820470 0.000000 
#    z 0.007380 0.000000 1.891360 
# 
# From -- ./inp_files/136458.got.cif
#   From: 2010.06.25/outbox.cif.g09.slc.cpg/sg15_69_cif.got.tgz:136458.got - 2010.06.28 07:06:18.
