data_PCOD8134741
_publ_section_title
;
Structure prediction by ZEFSAII (Michael W. Deem and Ramdas Pophale) SiO2 
 PCOD8134741
Probable space group: C 2/C
;
_chemical_formula_sum "Si O2"
_cell_formula_units_Z 36
_cell_length_a 10.069020
_cell_length_b 20.409901
_cell_length_c 9.843518
_cell_angle_alpha 90.000000
_cell_angle_beta 104.471508
_cell_angle_gamma 90.000000
_cell_volume 1958.735651
_symmetry_space_group_name_H-M "C 2/C"
_symmetry_group_IT_number 15
_symmetry_cell_setting 'monoclinic'
loop_
_space_group_symop_operation_xyz
x,y,z
-x,y,1/2-z
-x,-y,-z
x,-y,1/2+z
1/2+x,1/2+y,z
1/2-x,1/2+y,1/2-z
1/2-x,1/2-y,-z
1/2+x,1/2-y,1/2+z
loop_
_atom_site_type_symbol
_atom_site_label
_atom_site_fract_x
_atom_site_fract_y
_atom_site_fract_z
Si Si1 0.692796 0.568162 0.394132
Si Si2 0.152166 0.078567 0.841785
Si Si3 0.410698 0.627154 0.392635
Si Si4 0.645345 0.871217 0.330554
Si Si5 0.500000 0.254134 0.750000
O O1 0.719970 0.490799 0.396614
O O2 0.545600 0.581493 0.425633
O O3 0.697807 0.598867 0.244413
O O4 0.812839 0.601352 0.512196
O O5 0.238372 0.114544 0.749374
O O6 0.000000 0.066056 0.750000
O O7 0.154807 0.125137 0.975086
O O8 0.451389 0.701299 0.363972
O O9 0.500000 0.904221 0.250000
O O10 0.625130 0.792157 0.333302
#
# Coordination Sequence:
#
# PCOD8134741 Si02
#       5
#     8   8   8   8   4
#     4  10  19  36  61  88 117 142 189 242 296 322
#     4  12  20  36  63  93 109 141 202 244 277 333
#     4  10  20  34  64  88 109 149 194 248 273 324
#     4  10  23  40  56  82 124 158 178 229 294 348
#     4   8  22  42  52  80 126 154 190 216 296 346
#
# _framework density 18.379203
#
# number of rings (size 3 to 8) (size 9 to 14) (size 15 to 20)
#    0.667    1.333    4.444    2.000    0.000    5.333 
#    0.000    1.111    0.000    0.000    0.000    0.000 
#    0.000    0.000    0.000    0.000    0.000    0.000 
#
# Total GULP energy -223156.393572 kJ/mol
# GULP energy per Si atom -12397.577421 kJ/mol
# Density = 1.833737 g / cm^3
# Si number density = 18.379203 Si / 1000 Ang^3
#
#
#
# Elastic Constant Matrix: (Units=GPa)
#
#
# Indices 1 2 3 4 5 6 
#
# 1 47.4642 27.2597 30.6456 0.0000 5.0570 0.0000
# 2 27.2597 144.2553 46.2961 0.0000 -1.3644 0.0000
# 3 30.6456 46.2961 129.0176 0.0000 7.8456 0.0000
# 4 0.0000 0.0000 0.0000 16.4242 0.0000 8.2296
# 5 5.0570 -1.3644 7.8456 0.0000 28.7711 0.0000
# 6 0.0000 0.0000 0.0000 8.2296 0.0000 8.3253
#
#
#
# Elastic Compliance Matrix: (Units=1/GPa)
#
#
# Indices 1 2 3 4 5 6 
#
# 1 0.026582 -0.003502 -0.004843 0.000000 -0.003518 0.000000
# 2 -0.003502 0.008334 -0.002258 0.000000 0.001626 0.000000
# 3 -0.004843 -0.002258 0.009829 0.000000 -0.001936 0.000000
# 4 0.000000 0.000000 0.000000 0.120640 0.000000 -0.119255
# 5 -0.003518 0.001626 -0.001936 0.000000 0.035980 0.000000
# 6 0.000000 0.000000 0.000000 -0.119255 0.000000 0.238001
#
#
# Mechanical properties :
#
#
# Convention : Reuss Voigt Hill
#
# Bulk Modulus (GPa) = 42.48303 58.79335 50.63819
# Shear Modulus (GPa) = 10.67421 25.13982 17.90702
#
# Velocity S-wave (km/s) = 2.41255 3.70244 3.12478
# Velocity P-wave (km/s) = 5.56106 7.09478 6.37422
#
# Compressibility (1/GPa) = 0.02353881
#
# Stress axis : x y z
#
# Youngs Moduli (GPa) = 37.61980 119.99305 101.73802
#
# Poissons Ratio (x) = 0.42021 0.49276
# Poissons Ratio (y) = 0.13174 0.22968
# Poissons Ratio (z) = 0.18221 0.27089
#
# Static dielectric constant tensor:
#      x y z
#    x 3.093810 0.000000 0.062110 
#    y 0.000000 3.285640 0.000000 
#    z 0.062110 0.000000 3.529730 
# 
# 
# High freq. dielectric constant tensor:
#      x y z
#    x 1.679740 0.000000 0.001270 
#    y 0.000000 1.709530 0.000000 
#    z 0.001270 0.000000 1.723180 
# 
# From -- ./inp_files/23869.got.cif
#   From: 2010.06.25/outbox.cif.g09.slc.cpg/sg15_12_cif.got.tgz:23869.got - 2010.06.28 07:06:18.
