data_PCOD8134448
_publ_section_title
;
Structure prediction by ZEFSAII (Michael W. Deem and Ramdas Pophale) SiO2 
 PCOD8134448
Probable space group: C 2/C
;
_chemical_formula_sum "Si O2"
_cell_formula_units_Z 60
_cell_length_a 24.678945
_cell_length_b 13.975746
_cell_length_c 13.335017
_cell_angle_alpha 90.000000
_cell_angle_beta 147.061833
_cell_angle_gamma 90.000000
_cell_volume 2500.813820
_symmetry_space_group_name_H-M "C 2/C"
_symmetry_group_IT_number 15
_symmetry_cell_setting 'monoclinic'
loop_
_space_group_symop_operation_xyz
x,y,z
-x,y,1/2-z
-x,-y,-z
x,-y,1/2+z
1/2+x,1/2+y,z
1/2-x,1/2+y,1/2-z
1/2-x,1/2-y,-z
1/2+x,1/2-y,1/2+z
loop_
_atom_site_type_symbol
_atom_site_label
_atom_site_fract_x
_atom_site_fract_y
_atom_site_fract_z
Si Si1 0.408105 0.395206 0.680895
Si Si2 0.321618 0.613666 0.345397
Si Si3 0.810987 0.086688 0.551598
Si Si4 0.698456 0.957446 0.059697
Si Si5 0.485239 0.766812 0.051821
Si Si6 0.782331 0.196341 0.824182
Si Si7 0.000000 0.419378 0.250000
Si Si8 0.515489 0.276639 0.164302
O O1 0.500000 0.408318 0.750000
O O2 0.380732 0.496006 0.686424
O O3 0.433951 0.317611 0.806086
O O4 0.312584 0.359185 0.470856
O O5 0.274079 0.587539 0.379842
O O6 0.294325 0.524775 0.232255
O O7 0.270538 0.707715 0.221217
O O8 0.439534 0.632600 0.540557
O O9 0.873176 0.182508 0.670282
O O10 0.712964 0.082383 0.469479
O O11 0.701162 0.866345 0.137596
O O12 0.596014 0.014320 0.910276
O O13 0.508361 0.854072 0.163243
O O14 0.376657 0.722489 0.901691
O O15 0.497109 0.794554 0.951672
O O16 0.500000 0.224772 0.250000
#
# Coordination Sequence:
#
# PCOD8134448 Si02
#       8
#     8   8   8   8   8   8   4   8
#     4  10  19  35  67 103 135 175 226 296 372 425
#     4  11  23  43  68 101 140 182 240 293 360 448
#     4  11  23  39  67 104 138 178 235 304 366 425
#     4  12  25  45  70  99 142 191 247 297 368 427
#     4  11  20  42  71 101 146 185 236 301 364 423
#     4  11  22  42  69  97 140 192 234 293 361 430
#     4  12  26  48  70 106 142 200 246 300 358 440
#     4  10  23  40  66 111 141 180 233 299 371 434
#
# _framework density 23.992189
#
# number of rings (size 3 to 8) (size 9 to 14) (size 15 to 20)
#    0.000    1.067    6.000    2.000    1.867    2.667 
#    3.600    3.333    0.000    0.000    0.000    0.000 
#    0.000    0.000    0.000    0.000    0.000    0.000 
#
# Total GULP energy -371944.760863 kJ/mol
# GULP energy per Si atom -12398.158695 kJ/mol
# Density = 2.393758 g / cm^3
# Si number density = 23.992189 Si / 1000 Ang^3
#
#
#
# Elastic Constant Matrix: (Units=GPa)
#
#
# Indices 1 2 3 4 5 6 
#
# 1 99.5550 9.0968 23.6751 0.0000 -37.8341 0.0000
# 2 9.0968 44.2823 5.8419 0.0000 -3.8784 0.0000
# 3 23.6751 5.8419 77.9969 0.0000 -10.1744 0.0000
# 4 0.0000 0.0000 0.0000 37.6211 0.0000 2.4364
# 5 -37.8341 -3.8784 -10.1744 0.0000 30.2753 0.0000
# 6 0.0000 0.0000 0.0000 2.4364 0.0000 8.3652
#
#
#
# Elastic Compliance Matrix: (Units=1/GPa)
#
#
# Indices 1 2 3 4 5 6 
#
# 1 0.019853 -0.001635 -0.002818 0.000000 0.023654 0.000000
# 2 -0.001635 0.023118 -0.001167 0.000000 0.000526 0.000000
# 3 -0.002818 -0.001167 0.013894 0.000000 0.000998 0.000000
# 4 0.000000 0.000000 0.000000 0.027092 0.000000 -0.007891
# 5 0.023654 0.000526 0.000998 0.000000 0.062992 0.000000
# 6 0.000000 0.000000 0.000000 -0.007891 0.000000 0.121841
#
#
# Mechanical properties :
#
#
# Convention : Reuss Voigt Hill
#
# Bulk Modulus (GPa) = 21.91735 33.22909 27.57322
# Shear Modulus (GPa) = 16.93539 27.46701 22.20120
#
# Velocity S-wave (km/s) = 2.65971 3.38721 3.04526
# Velocity P-wave (km/s) = 4.31127 5.40163 4.88696
#
# Compressibility (1/GPa) = 0.04562596
#
# Stress axis : x y z
#
# Youngs Moduli (GPa) = 50.36898 43.25590 71.97331
#
# Poissons Ratio (x) = 0.07072 0.20284
# Poissons Ratio (y) = 0.08235 0.08396
# Poissons Ratio (z) = 0.14196 0.05046
#
# Static dielectric constant tensor:
#      x y z
#    x 4.242480 0.000000 -0.189300 
#    y 0.000000 4.167150 0.000000 
#    z -0.189300 0.000000 4.420260 
# 
# 
# High freq. dielectric constant tensor:
#      x y z
#    x 1.947110 0.000000 -0.011840 
#    y 0.000000 1.936410 0.000000 
#    z -0.011840 0.000000 1.952540 
# 
# From -- ./inp_files/178561.got.cif
#   From: 2010.06.25/outbox.cif.g09.slc.cpg/sg15_90_cif.got.tgz:178561.got - 2010.06.28 07:06:18.
