data_PCOD8134999
_publ_section_title
;
Structure prediction by ZEFSAII (Michael W. Deem and Ramdas Pophale) SiO2 
 PCOD8134999
Probable space group: C 2/C
;
_chemical_formula_sum "Si O2"
_cell_formula_units_Z 44
_cell_length_a 9.501104
_cell_length_b 17.544194
_cell_length_c 15.092516
_cell_angle_alpha 90.000000
_cell_angle_beta 116.365544
_cell_angle_gamma 90.000000
_cell_volume 2254.067739
_symmetry_space_group_name_H-M "C 2/C"
_symmetry_group_IT_number 15
_symmetry_cell_setting 'monoclinic'
loop_
_space_group_symop_operation_xyz
x,y,z
-x,y,1/2-z
-x,-y,-z
x,-y,1/2+z
1/2+x,1/2+y,z
1/2-x,1/2+y,1/2-z
1/2-x,1/2-y,-z
1/2+x,1/2-y,1/2+z
loop_
_atom_site_type_symbol
_atom_site_label
_atom_site_fract_x
_atom_site_fract_y
_atom_site_fract_z
Si Si1 0.500000 0.003630 0.750000
Si Si2 0.148368 0.024424 0.397044
Si Si3 0.669065 0.796565 0.841664
Si Si4 0.719253 0.856508 0.050353
Si Si5 0.049743 0.567707 0.948396
Si Si6 0.812728 0.077370 0.291252
O O1 0.491549 0.056498 0.832940
O O2 0.341575 0.954168 0.701915
O O3 0.261051 0.072166 0.495097
O O4 0.186265 0.060063 0.311894
O O5 0.970092 0.040561 0.377305
O O6 0.182158 0.934205 0.407431
O O7 0.500000 0.809158 0.750000
O O8 0.690252 0.707803 0.868882
O O9 0.799601 0.831698 0.809549
O O10 0.695469 0.841870 0.940488
O O11 0.543095 0.858799 0.042103
O O12 0.000000 0.500000 0.000000
#
# Coordination Sequence:
#
# PCOD8134999 Si02
#       6
#     4   8   8   8   8   8
#     4  12  20  32  62  88 114 160 206 248 324 358
#     4  10  22  39  65  88 130 158 213 268 312 359
#     4  11  23  37  63  89 127 168 212 251 326 385
#     4  10  22  41  60  92 124 168 207 269 310 379
#     4  10  19  37  59  88 121 154 204 270 304 365
#     4  11  21  37  61  95 118 167 210 258 312 378
#
# _framework density 19.520264999999998
#
# number of rings (size 3 to 8) (size 9 to 14) (size 15 to 20)
#    0.000    1.455    4.545    3.273    2.545    2.909 
#    0.000    4.545    0.000    0.000    0.000    0.000 
#    0.000    0.000    0.000    0.000    0.000    0.000 
#
# Total GULP energy -272607.305768 kJ/mol
# GULP energy per Si atom -12391.241171 kJ/mol
# Density = 1.947584 g / cm^3
# Si number density = 19.520265 Si / 1000 Ang^3
#
#
#
# Elastic Constant Matrix: (Units=GPa)
#
#
# Indices 1 2 3 4 5 6 
#
# 1 129.8247 52.9200 36.0736 0.0000 26.1805 0.0000
# 2 52.9200 100.2692 52.6049 0.0000 5.4800 0.0000
# 3 36.0736 52.6049 109.9182 0.0000 9.3245 0.0000
# 4 0.0000 0.0000 0.0000 19.1929 0.0000 -0.2321
# 5 26.1805 5.4800 9.3245 0.0000 38.6676 0.0000
# 6 0.0000 0.0000 0.0000 -0.2321 0.0000 27.5697
#
#
#
# Elastic Compliance Matrix: (Units=1/GPa)
#
#
# Indices 1 2 3 4 5 6 
#
# 1 0.011426 -0.005333 -0.000618 0.000000 -0.006831 0.000000
# 2 -0.005333 0.015810 -0.006057 0.000000 0.002830 0.000000
# 3 -0.000618 -0.006057 0.012343 0.000000 -0.001700 0.000000
# 4 0.000000 0.000000 0.000000 0.052108 0.000000 0.000439
# 5 -0.006831 0.002830 -0.001700 0.000000 0.030495 0.000000
# 6 0.000000 0.000000 0.000000 0.000439 0.000000 0.036275
#
#
# Mechanical properties :
#
#
# Convention : Reuss Voigt Hill
#
# Bulk Modulus (GPa) = 64.24791 69.24545 66.74668
# Shear Modulus (GPa) = 26.64374 30.31360 28.47867
#
# Velocity S-wave (km/s) = 3.69850 3.94500 3.82374
# Velocity P-wave (km/s) = 7.15705 7.50342 7.33228
#
# Compressibility (1/GPa) = 0.01556471
#
# Stress axis : x y z
#
# Youngs Moduli (GPa) = 87.52156 63.24943 81.01552
#
# Poissons Ratio (x) = 0.33728 0.05008
# Poissons Ratio (y) = 0.46672 0.49068
# Poissons Ratio (z) = 0.05410 0.38308
#
# Static dielectric constant tensor:
#      x y z
#    x 3.975880 0.000000 0.345000 
#    y 0.000000 3.539420 0.000000 
#    z 0.345000 0.000000 3.758710 
# 
# 
# High freq. dielectric constant tensor:
#      x y z
#    x 1.760850 0.000000 0.010020 
#    y 0.000000 1.734620 0.000000 
#    z 0.010020 0.000000 1.777670 
# 
# From -- ./inp_files/134572.got.cif
#   From: 2010.06.25/outbox.cif.g09.slc.cpg/sg15_68_cif.got.tgz:134572.got - 2010.06.28 07:06:18.
