data_PCOD8134149
_publ_section_title
;
Structure prediction by ZEFSAII (Michael W. Deem and Ramdas Pophale) SiO2 
 PCOD8134149
Probable space group: C 2/C
;
_chemical_formula_sum "Si O2"
_cell_formula_units_Z 48
_cell_length_a 10.220320
_cell_length_b 25.847580
_cell_length_c 14.727410
_cell_angle_alpha 90.000000
_cell_angle_beta 41.390281
_cell_angle_gamma 90.000000
_cell_volume 2572.370375
_symmetry_space_group_name_H-M "C 2/C"
_symmetry_group_IT_number 15
_symmetry_cell_setting 'monoclinic'
loop_
_space_group_symop_operation_xyz
x,y,z
-x,y,1/2-z
-x,-y,-z
x,-y,1/2+z
1/2+x,1/2+y,z
1/2-x,1/2+y,1/2-z
1/2-x,1/2-y,-z
1/2+x,1/2-y,1/2+z
loop_
_atom_site_type_symbol
_atom_site_label
_atom_site_fract_x
_atom_site_fract_y
_atom_site_fract_z
Si Si1 0.224373 0.612284 0.786812
Si Si2 0.189889 0.286365 0.711351
Si Si3 0.000000 0.963009 0.250000
Si Si4 0.864710 0.139433 0.990671
Si Si5 0.411580 0.807693 0.013771
Si Si6 0.500000 0.050530 0.750000
Si Si7 0.842313 0.982714 0.508630
O O1 0.319815 0.572124 0.807507
O O2 0.402348 0.646911 0.651470
O O3 0.116253 0.585311 0.760087
O O4 0.063531 0.646194 0.925798
O O5 0.302902 0.338772 0.621524
O O6 0.341239 0.239984 0.612684
O O7 0.000000 0.275009 0.750000
O O8 0.117083 0.293306 0.854396
O O9 0.925837 0.000461 0.367882
O O10 0.750536 0.173507 0.975020
O O11 0.808636 0.078974 0.021584
O O12 0.639644 0.012131 0.623178
O O13 0.000000 0.000000 0.500000
#
# Coordination Sequence:
#
# PCOD8134149 Si02
#       7
#     8   8   4   8   8   4   8
#     4  11  20  39  59  84 119 160 198 246 295 357
#     4  10  20  30  56  94 116 149 187 251 307 353
#     4  10  20  40  62  83 117 166 196 252 308 336
#     4  10  19  35  57  81 121 154 190 244 299 346
#     4  11  19  35  58  89 120 148 194 246 306 358
#     4  12  26  38  62  87 121 168 208 240 302 358
#     4  11  22  41  59  89 124 163 203 249 299 352
#
# _framework density 18.659832999999999
#
# number of rings (size 3 to 8) (size 9 to 14) (size 15 to 20)
#    0.000    1.333    6.667    4.000    3.500    0.667 
#    3.000    0.000    0.000    4.000    0.000    0.000 
#    0.000    0.000    0.000    0.000    0.000    0.000 
#
# Total GULP energy -297400.448169 kJ/mol
# GULP energy per Si atom -12391.685340 kJ/mol
# Density = 1.861736 g / cm^3
# Si number density = 18.659833 Si / 1000 Ang^3
#
#
#
# Elastic Constant Matrix: (Units=GPa)
#
#
# Indices 1 2 3 4 5 6 
#
# 1 76.0960 31.9630 36.6351 0.0000 14.9841 0.0000
# 2 31.9630 81.3845 60.3788 0.0000 17.2455 0.0000
# 3 36.6351 60.3788 165.8045 0.0000 37.2442 0.0000
# 4 0.0000 0.0000 0.0000 41.4652 0.0000 9.8619
# 5 14.9841 17.2455 37.2442 0.0000 26.0303 0.0000
# 6 0.0000 0.0000 0.0000 9.8619 0.0000 21.8108
#
#
#
# Elastic Compliance Matrix: (Units=1/GPa)
#
#
# Indices 1 2 3 4 5 6 
#
# 1 0.016566 -0.004864 -0.000694 0.000000 -0.005321 0.000000
# 2 -0.004864 0.018484 -0.005209 0.000000 -0.001994 0.000000
# 3 -0.000694 -0.005209 0.010634 0.000000 -0.011365 0.000000
# 4 0.000000 0.000000 0.000000 0.027023 0.000000 -0.012218
# 5 -0.005321 -0.001994 -0.011365 0.000000 0.059062 0.000000
# 6 0.000000 0.000000 0.000000 -0.012218 0.000000 0.051374
#
#
# Mechanical properties :
#
#
# Convention : Reuss Voigt Hill
#
# Bulk Modulus (GPa) = 41.40474 64.58207 52.99341
# Shear Modulus (GPa) = 23.50438 30.81512 27.15975
#
# Velocity S-wave (km/s) = 3.55297 4.06817 3.81927
# Velocity P-wave (km/s) = 6.25051 7.53339 6.92174
#
# Compressibility (1/GPa) = 0.02415182
#
# Stress axis : x y z
#
# Youngs Moduli (GPa) = 60.36428 54.09979 94.03609
#
# Poissons Ratio (x) = 0.26313 0.06525
# Poissons Ratio (y) = 0.29360 0.48980
# Poissons Ratio (z) = 0.04189 0.28179
#
# Static dielectric constant tensor:
#      x y z
#    x 2.853720 0.000000 0.264250 
#    y 0.000000 3.538750 0.000000 
#    z 0.264250 0.000000 4.001080 
# 
# 
# High freq. dielectric constant tensor:
#      x y z
#    x 1.677270 0.000000 0.023860 
#    y 0.000000 1.724750 0.000000 
#    z 0.023860 0.000000 1.743630 
# 
# From -- ./inp_files/138965.got.cif
#   From: 2010.06.25/outbox.cif.g09.slc.cpg/sg15_70_cif.got.tgz:138965.got - 2010.06.28 07:06:18.
