data_PCOD8134420
_publ_section_title
;
Structure prediction by ZEFSAII (Michael W. Deem and Ramdas Pophale) SiO2 
 PCOD8134420
Probable space group: C 2/C
;
_chemical_formula_sum "Si O2"
_cell_formula_units_Z 40
_cell_length_a 14.414151
_cell_length_b 12.732919
_cell_length_c 10.697639
_cell_angle_alpha 90.000000
_cell_angle_beta 84.347563
_cell_angle_gamma 90.000000
_cell_volume 1953.836195
_symmetry_space_group_name_H-M "C 2/C"
_symmetry_group_IT_number 15
_symmetry_cell_setting 'monoclinic'
loop_
_space_group_symop_operation_xyz
x,y,z
-x,y,1/2-z
-x,-y,-z
x,-y,1/2+z
1/2+x,1/2+y,z
1/2-x,1/2+y,1/2-z
1/2-x,1/2-y,-z
1/2+x,1/2-y,1/2+z
loop_
_atom_site_type_symbol
_atom_site_label
_atom_site_fract_x
_atom_site_fract_y
_atom_site_fract_z
Si Si1 0.238595 0.442826 0.656433
Si Si2 0.915080 0.430119 0.618046
Si Si3 0.593163 0.139914 0.004435
Si Si4 0.904490 0.195498 0.195906
Si Si5 0.691268 0.833160 0.086508
O O1 0.165669 0.409114 0.773002
O O2 0.198508 0.379696 0.541144
O O3 0.341299 0.406946 0.683070
O O4 0.250669 0.566753 0.627764
O O5 0.927817 0.554860 0.601457
O O6 0.890279 0.378352 0.487948
O O7 0.018136 0.378905 0.629062
O O8 0.580154 0.253721 0.943285
O O9 0.850833 0.278999 0.286924
O O10 0.000000 0.159471 0.250000
O O11 0.750000 0.750000 0.000000
#
# Coordination Sequence:
#
# PCOD8134420 Si02
#       5
#     8   8   8   8   8
#     4  11  23  38  64  94 127 164 217 267 319 384
#     4  10  19  35  63  96 119 159 215 271 317 369
#     4  10  21  35  61  97 126 154 216 278 315 365
#     4  12  23  40  64  93 131 175 211 261 324 389
#     4  11  22  40  65  87 125 171 212 260 322 379
#
# _framework density 20.472546999999999
#
# number of rings (size 3 to 8) (size 9 to 14) (size 15 to 20)
#    0.000    1.200    6.000    1.200    0.000    0.000 
#    0.000    1.000    4.400    0.000    0.000    0.000 
#    0.000    0.000    0.000    0.000    0.000    0.000 
#
# Total GULP energy -247885.927213 kJ/mol
# GULP energy per Si atom -12394.296361 kJ/mol
# Density = 2.042595 g / cm^3
# Si number density = 20.472547 Si / 1000 Ang^3
#
#
#
# Elastic Constant Matrix: (Units=GPa)
#
#
# Indices 1 2 3 4 5 6 
#
# 1 150.5447 69.2436 27.5249 0.0000 2.3398 0.0000
# 2 69.2436 103.1058 31.5975 0.0000 -0.1680 0.0000
# 3 27.5249 31.5975 66.6268 0.0000 -11.6997 0.0000
# 4 0.0000 0.0000 0.0000 29.9196 0.0000 3.2691
# 5 2.3398 -0.1680 -11.6997 0.0000 29.7684 0.0000
# 6 0.0000 0.0000 0.0000 3.2691 0.0000 32.2083
#
#
#
# Elastic Compliance Matrix: (Units=1/GPa)
#
#
# Indices 1 2 3 4 5 6 
#
# 1 0.009725 -0.006120 -0.001349 0.000000 -0.001329 0.000000
# 2 -0.006120 0.015335 -0.004989 0.000000 -0.001393 0.000000
# 3 -0.001349 -0.004989 0.019276 0.000000 0.007654 0.000000
# 4 0.000000 0.000000 0.000000 0.033798 0.000000 -0.003430
# 5 -0.001329 -0.001393 0.007654 0.000000 0.036697 0.000000
# 6 0.000000 0.000000 0.000000 -0.003430 0.000000 0.031396
#
#
# Mechanical properties :
#
#
# Convention : Reuss Voigt Hill
#
# Bulk Modulus (GPa) = 51.49006 64.11214 57.80110
# Shear Modulus (GPa) = 28.15065 31.17336 29.66201
#
# Velocity S-wave (km/s) = 3.71218 3.90640 3.81053
# Velocity P-wave (km/s) = 6.60145 7.19241 6.90326
#
# Compressibility (1/GPa) = 0.01942122
#
# Stress axis : x y z
#
# Youngs Moduli (GPa) = 102.83276 65.20890 51.87741
#
# Poissons Ratio (x) = 0.39906 0.06996
# Poissons Ratio (y) = 0.62930 0.25883
# Poissons Ratio (z) = 0.13867 0.32534
#
# Static dielectric constant tensor:
#      x y z
#    x 3.851830 0.000000 -0.003540 
#    y 0.000000 3.599200 0.000000 
#    z -0.003540 0.000000 3.789590 
# 
# 
# High freq. dielectric constant tensor:
#      x y z
#    x 1.797660 0.000000 0.004970 
#    y 0.000000 1.777540 0.000000 
#    z 0.004970 0.000000 1.804270 
# 
# From -- ./inp_files/85531.got.cif
#   From: 2010.06.25/outbox.cif.g09.slc.cpg/sg15_43_cif.got.tgz:85531.got - 2010.06.28 07:06:18.
