data_PCOD8134443
_publ_section_title
;
Structure prediction by ZEFSAII (Michael W. Deem and Ramdas Pophale) SiO2 
 PCOD8134443
Probable space group: C 2/C
;
_chemical_formula_sum "Si O2"
_cell_formula_units_Z 60
_cell_length_a 11.921722
_cell_length_b 14.913574
_cell_length_c 17.572252
_cell_angle_alpha 90.000000
_cell_angle_beta 66.130790
_cell_angle_gamma 90.000000
_cell_volume 2857.053291
_symmetry_space_group_name_H-M "C 2/C"
_symmetry_group_IT_number 15
_symmetry_cell_setting 'monoclinic'
loop_
_space_group_symop_operation_xyz
x,y,z
-x,y,1/2-z
-x,-y,-z
x,-y,1/2+z
1/2+x,1/2+y,z
1/2-x,1/2+y,1/2-z
1/2-x,1/2-y,-z
1/2+x,1/2-y,1/2+z
loop_
_atom_site_type_symbol
_atom_site_label
_atom_site_fract_x
_atom_site_fract_y
_atom_site_fract_z
Si Si1 0.523726 0.985414 0.653934
Si Si2 0.922786 0.331928 0.197311
Si Si3 0.664139 0.341178 0.335727
Si Si4 0.683529 0.138547 0.345079
Si Si5 0.000000 0.101628 0.750000
Si Si6 0.375572 0.536972 0.378514
Si Si7 0.387033 0.357794 0.661440
Si Si8 0.690412 0.492904 0.936985
O O1 0.500000 0.977904 0.750000
O O2 0.482909 0.084414 0.636885
O O3 0.665158 0.977712 0.594438
O O4 0.447517 0.908429 0.631958
O O5 0.790472 0.364703 0.260235
O O6 0.912782 0.247965 0.142609
O O7 0.000000 0.301354 0.250000
O O8 0.664160 0.242467 0.372928
O O9 0.555890 0.339572 0.302828
O O10 0.647560 0.418187 0.403291
O O11 0.751511 0.092375 0.397436
O O12 0.768543 0.128208 0.247318
O O13 0.112280 0.043550 0.685099
O O14 0.494405 0.598597 0.332574
O O15 0.372082 0.498059 0.464123
O O16 0.362255 0.403581 0.587544
#
# Coordination Sequence:
#
# PCOD8134443 Si02
#       8
#     8   8   8   8   4   8   8   8
#     4  11  21  41  65  90 125 168 209 254 314 380
#     4  10  19  35  66  93 120 160 218 254 304 375
#     4  11  23  39  64  99 124 162 216 260 315 380
#     4  11  23  41  68  91 126 171 213 258 317 385
#     4  12  24  42  66  90 126 170 212 264 320 386
#     4  12  24  40  67  93 131 166 214 265 319 373
#     4  11  20  38  64  96 121 163 211 262 315 373
#     4  12  24  41  64  96 132 166 211 265 317 373
#
# _framework density 21.000658999999999
#
# number of rings (size 3 to 8) (size 9 to 14) (size 15 to 20)
#    0.000    0.800    6.667    2.800    0.933    1.067 
#    0.000    0.000    2.933    8.000    0.000    0.000 
#    0.000    0.000    0.000    0.000    0.000    0.000 
#
# Total GULP energy -372060.900594 kJ/mol
# GULP energy per Si atom -12402.030020 kJ/mol
# Density = 2.095286 g / cm^3
# Si number density = 21.000659 Si / 1000 Ang^3
#
#
#
# Elastic Constant Matrix: (Units=GPa)
#
#
# Indices 1 2 3 4 5 6 
#
# 1 110.9066 41.0934 11.2172 0.0000 -2.4382 0.0000
# 2 41.0934 116.9163 22.8091 0.0000 6.0068 0.0000
# 3 11.2172 22.8091 59.9385 0.0000 8.0853 0.0000
# 4 0.0000 0.0000 0.0000 10.8081 0.0000 4.5480
# 5 -2.4382 6.0068 8.0853 0.0000 29.0794 0.0000
# 6 0.0000 0.0000 0.0000 4.5480 0.0000 58.7636
#
#
#
# Elastic Compliance Matrix: (Units=1/GPa)
#
#
# Indices 1 2 3 4 5 6 
#
# 1 0.010482 -0.003617 -0.000836 0.000000 0.001858 0.000000
# 2 -0.003617 0.010513 -0.003107 0.000000 -0.001611 0.000000
# 3 -0.000836 -0.003107 0.018645 0.000000 -0.004612 0.000000
# 4 0.000000 0.000000 0.000000 0.095638 0.000000 -0.007402
# 5 0.001858 -0.001611 -0.004612 0.000000 0.036160 0.000000
# 6 0.000000 0.000000 0.000000 -0.007402 0.000000 0.017590
#
#
# Mechanical properties :
#
#
# Convention : Reuss Voigt Hill
#
# Bulk Modulus (GPa) = 40.78076 48.66674 44.72375
# Shear Modulus (GPa) = 23.54942 33.90633 28.72787
#
# Velocity S-wave (km/s) = 3.35231 4.02249 3.70259
# Velocity P-wave (km/s) = 5.86898 6.69314 6.29456
#
# Compressibility (1/GPa) = 0.02452137
#
# Stress axis : x y z
#
# Youngs Moduli (GPa) = 95.40137 95.11960 53.63487
#
# Poissons Ratio (x) = 0.34401 0.04484
# Poissons Ratio (y) = 0.34502 0.16662
# Poissons Ratio (z) = 0.07977 0.29549
#
# Static dielectric constant tensor:
#      x y z
#    x 3.421700 0.000000 -0.266520 
#    y 0.000000 3.894670 0.000000 
#    z -0.266520 0.000000 3.367970 
# 
# 
# High freq. dielectric constant tensor:
#      x y z
#    x 1.837320 0.000000 -0.010100 
#    y 0.000000 1.826230 0.000000 
#    z -0.010100 0.000000 1.788350 
# 
# From -- ./inp_files/238709.got.cif
#   From: 2010.06.25/outbox.cif.g09.slc.cpg/sg15_120_cif.got.tgz:238709.got - 2010.06.28 07:06:18.
