data_PCOD8134975
_publ_section_title
;
Structure prediction by ZEFSAII (Michael W. Deem and Ramdas Pophale) SiO2 
 PCOD8134975
Probable space group: C 2/C
;
_chemical_formula_sum "Si O2"
_cell_formula_units_Z 48
_cell_length_a 20.704219
_cell_length_b 20.116677
_cell_length_c 17.338083
_cell_angle_alpha 90.000000
_cell_angle_beta 159.419966
_cell_angle_gamma 90.000000
_cell_volume 2538.403011
_symmetry_space_group_name_H-M "C 2/C"
_symmetry_group_IT_number 15
_symmetry_cell_setting 'monoclinic'
loop_
_space_group_symop_operation_xyz
x,y,z
-x,y,1/2-z
-x,-y,-z
x,-y,1/2+z
1/2+x,1/2+y,z
1/2-x,1/2+y,1/2-z
1/2-x,1/2-y,-z
1/2+x,1/2-y,1/2+z
loop_
_atom_site_type_symbol
_atom_site_label
_atom_site_fract_x
_atom_site_fract_y
_atom_site_fract_z
Si Si1 0.000000 0.634065 0.250000
Si Si2 0.500000 0.924119 0.250000
Si Si3 0.279265 0.529716 0.493079
Si Si4 0.967257 0.776627 0.488498
Si Si5 0.896230 0.679901 0.975803
Si Si6 0.185947 0.651231 0.096617
Si Si7 0.877968 0.439518 0.838358
O O1 0.177084 0.591632 0.419750
O O2 0.083509 0.682157 0.409185
O O3 0.584320 0.876542 0.408831
O O4 0.669287 0.965753 0.403100
O O5 0.266176 0.534294 0.385780
O O6 0.500000 0.526324 0.750000
O O7 0.030769 0.749823 0.475709
O O8 0.113706 0.820283 0.699454
O O9 0.805857 0.826862 0.286206
O O10 0.929120 0.712611 0.498284
O O11 0.996031 0.614287 0.060950
O O12 0.218755 0.592593 0.195476
O O13 0.000000 0.500000 0.000000
#
# Coordination Sequence:
#
# PCOD8134975 Si02
#       7
#     4   4   8   8   8   8   8
#     4   9  20  36  56  86 118 152 183 242 288 336
#     4  11  22  40  58  86 118 150 195 244 286 336
#     4  10  22  38  56  88 123 149 188 235 291 352
#     4   9  20  38  56  81 113 152 197 233 277 348
#     4   9  19  35  56  81 114 149 191 235 283 342
#     4  10  21  38  60  83 114 152 193 239 286 340
#     4  10  19  37  59  82 114 150 185 237 295 340
#
# _framework density 18.909527000000001
#
# number of rings (size 3 to 8) (size 9 to 14) (size 15 to 20)
#    0.000    2.333    1.667    0.000    2.333    2.667 
#    3.000    1.667    0.000    0.000    0.000    0.000 
#    0.000    0.000    0.000    0.000    0.000    0.000 
#
# Total GULP energy -297355.821671 kJ/mol
# GULP energy per Si atom -12389.825903 kJ/mol
# Density = 1.886649 g / cm^3
# Si number density = 18.909527 Si / 1000 Ang^3
#
#
#
# Elastic Constant Matrix: (Units=GPa)
#
#
# Indices 1 2 3 4 5 6 
#
# 1 86.6257 24.0447 59.7392 0.0008 -30.1531 -0.0002
# 2 24.0447 62.9744 50.2837 0.0004 -16.5021 -0.0001
# 3 59.7392 50.2837 160.5449 0.0019 -13.7258 -0.0005
# 4 0.0008 0.0004 0.0019 28.3572 0.0009 -16.6288
# 5 -30.1531 -16.5021 -13.7258 0.0009 37.7345 -0.0003
# 6 -0.0002 -0.0001 -0.0005 -16.6288 -0.0003 4.7310
#
#
#
# Elastic Compliance Matrix: (Units=1/GPa)
#
#
# Indices 1 2 3 4 5 6 
#
# 1 0.021264 0.001491 -0.007092 0.000000 0.015065 0.000001
# 2 0.001491 0.023278 -0.007094 0.000000 0.008791 0.000000
# 3 -0.007092 -0.007094 0.010672 0.000000 -0.004887 0.000000
# 4 0.000000 0.000000 0.000000 -0.033233 0.000000 -0.116809
# 5 0.015065 0.008791 -0.004887 0.000000 0.040606 0.000003
# 6 0.000001 0.000000 0.000000 -0.116809 0.000003 -0.199195
#
#
# Mechanical properties :
#
#
# Convention : Reuss Voigt Hill
#
# Bulk Modulus (GPa) = 33.52912 64.25338 48.89125
# Shear Modulus (GPa) = -49.36942 25.90303 -11.73320
#
# Velocity S-wave (km/s) = -5.11516 3.70515 -2.49367
# Velocity P-wave (km/s) = 4.13723 7.23584 4.19765
#
# Compressibility (1/GPa) = 0.02982482
#
# Stress axis : x y z
#
# Youngs Moduli (GPa) = 47.02713 42.95843 93.70630
#
# Poissons Ratio (x) = -0.06405 0.66452
# Poissons Ratio (y) = -0.07011 0.66476
# Poissons Ratio (z) = 0.33349 0.30475
#
# Static dielectric constant tensor:
#      x y z
#    x 3.671660 0.000000 -0.062400 
#    y 0.000000 3.473910 0.000000 
#    z -0.062400 0.000000 3.608460 
# 
# 
# High freq. dielectric constant tensor:
#      x y z
#    x 1.732000 0.000000 -0.008210 
#    y 0.000000 1.734180 0.000000 
#    z -0.008210 0.000000 1.738120 
# 
# From -- ./inp_files/40298.got.cif
#   From: 2010.06.25/outbox.cif.g09.slc.cpg/sg15_21_cif.got.tgz:40298.got - 2010.06.28 07:06:18.
