data_PCOD8134427
_publ_section_title
;
Structure prediction by ZEFSAII (Michael W. Deem and Ramdas Pophale) SiO2 
 PCOD8134427
Probable space group: C 2/C
;
_chemical_formula_sum "Si O2"
_cell_formula_units_Z 56
_cell_length_a 13.018039
_cell_length_b 13.200350
_cell_length_c 16.633386
_cell_angle_alpha 90.000000
_cell_angle_beta 64.249505
_cell_angle_gamma 90.000000
_cell_volume 2574.477999
_symmetry_space_group_name_H-M "C 2/C"
_symmetry_group_IT_number 15
_symmetry_cell_setting 'monoclinic'
loop_
_space_group_symop_operation_xyz
x,y,z
-x,y,1/2-z
-x,-y,-z
x,-y,1/2+z
1/2+x,1/2+y,z
1/2-x,1/2+y,1/2-z
1/2-x,1/2-y,-z
1/2+x,1/2-y,1/2+z
loop_
_atom_site_type_symbol
_atom_site_label
_atom_site_fract_x
_atom_site_fract_y
_atom_site_fract_z
Si Si1 0.730225 0.813832 0.173285
Si Si2 0.203124 0.792588 0.934292
Si Si3 0.058876 0.679991 0.868022
Si Si4 0.111005 0.262901 0.756049
Si Si5 0.837238 0.342815 0.521860
Si Si6 0.456941 0.948745 0.626064
Si Si7 0.787303 0.498956 0.425393
O O1 0.621656 0.776368 0.265564
O O2 0.849707 0.805951 0.181909
O O3 0.754691 0.743345 0.085764
O O4 0.709101 0.929490 0.155609
O O5 0.087509 0.741828 0.940812
O O6 0.289319 0.754195 0.839436
O O7 0.192478 0.914344 0.944457
O O8 0.250000 0.750000 0.000000
O O9 0.095238 0.561440 0.857754
O O10 0.919774 0.689331 0.916354
O O11 0.098078 0.380978 0.784805
O O12 0.000000 0.217592 0.750000
O O13 0.927121 0.394280 0.552279
O O14 0.753901 0.429472 0.513780
O O15 0.591818 0.947119 0.597583
#
# Coordination Sequence:
#
# PCOD8134427 Si02
#       7
#     8   8   8   8   8   8   8
#     4  10  23  36  56  90 121 152 195 244 294 350
#     4  11  21  33  56  89 114 147 191 240 289 349
#     4  10  21  35  55  90 120 150 187 244 297 342
#     4  10  20  36  59  87 115 146 190 247 298 339
#     4  10  21  38  60  89 123 150 192 249 292 345
#     4  10  19  35  64  92 116 143 198 249 297 342
#     4  11  20  37  61  89 114 154 196 240 296 347
#
# _framework density 21.751982999999999
#
# number of rings (size 3 to 8) (size 9 to 14) (size 15 to 20)
#    0.000    1.714    1.429    4.714    2.000    1.714 
#    0.000    0.714    0.000    0.000   11.143    0.000 
#    0.000    0.000    0.000    0.000    0.000    0.000 
#
# Total GULP energy -346883.087753 kJ/mol
# GULP energy per Si atom -12388.681705 kJ/mol
# Density = 2.170247 g / cm^3
# Si number density = 21.751983 Si / 1000 Ang^3
#
#
#
# Elastic Constant Matrix: (Units=GPa)
#
#
# Indices 1 2 3 4 5 6 
#
# 1 55.3777 43.5996 -1.0038 0.0000 -0.5025 0.0000
# 2 43.5996 104.9519 26.2858 0.0000 1.9249 0.0000
# 3 -1.0038 26.2858 93.9311 0.0000 -3.2634 0.0000
# 4 0.0000 0.0000 0.0000 20.1897 0.0000 2.3095
# 5 -0.5025 1.9249 -3.2634 0.0000 23.0490 0.0000
# 6 0.0000 0.0000 0.0000 2.3095 0.0000 40.4388
#
#
#
# Elastic Compliance Matrix: (Units=1/GPa)
#
#
# Indices 1 2 3 4 5 6 
#
# 1 0.028174 -0.012732 0.003942 0.000000 0.002236 0.000000
# 2 -0.012732 0.016037 -0.004703 0.000000 -0.002283 0.000000
# 3 0.003942 -0.004703 0.012080 0.000000 0.002189 0.000000
# 4 0.000000 0.000000 0.000000 0.049856 0.000000 -0.002847
# 5 0.002236 -0.002283 0.002189 0.000000 0.043935 0.000000
# 6 0.000000 0.000000 0.000000 -0.002847 0.000000 0.024891
#
#
# Mechanical properties :
#
#
# Convention : Reuss Voigt Hill
#
# Bulk Modulus (GPa) = 34.12504 43.55823 38.84164
# Shear Modulus (GPa) = 23.61497 29.09410 26.35454
#
# Velocity S-wave (km/s) = 3.29849 3.66120 3.48457
# Velocity P-wave (km/s) = 5.49809 6.15962 5.83824
#
# Compressibility (1/GPa) = 0.02930399
#
# Stress axis : x y z
#
# Youngs Moduli (GPa) = 35.49374 62.35434 82.77827
#
# Poissons Ratio (x) = 0.79392 -0.32630
# Poissons Ratio (y) = 0.45192 0.38933
# Poissons Ratio (z) = -0.13991 0.29327
#
# Static dielectric constant tensor:
#      x y z
#    x 3.881620 0.000000 0.103090 
#    y 0.000000 3.982820 0.000000 
#    z 0.103090 0.000000 3.984650 
# 
# 
# High freq. dielectric constant tensor:
#      x y z
#    x 1.849710 0.000000 0.028160 
#    y 0.000000 1.839350 0.000000 
#    z 0.028160 0.000000 1.862760 
# 
# From -- ./inp_files/203947.got.cif
#   From: 2010.06.25/outbox.cif.g09.slc.cpg/sg15_102_cif.got.tgz:203947.got - 2010.06.28 07:06:18.
