data_PCOD8134828
_publ_section_title
;
Structure prediction by ZEFSAII (Michael W. Deem and Ramdas Pophale) SiO2 
 PCOD8134828
Probable space group: C 2/C
;
_chemical_formula_sum "Si O2"
_cell_formula_units_Z 56
_cell_length_a 8.805225
_cell_length_b 20.688724
_cell_length_c 17.177233
_cell_angle_alpha 90.000000
_cell_angle_beta 117.696313
_cell_angle_gamma 90.000000
_cell_volume 2770.629365
_symmetry_space_group_name_H-M "C 2/C"
_symmetry_group_IT_number 15
_symmetry_cell_setting 'monoclinic'
loop_
_space_group_symop_operation_xyz
x,y,z
-x,y,1/2-z
-x,-y,-z
x,-y,1/2+z
1/2+x,1/2+y,z
1/2-x,1/2+y,1/2-z
1/2-x,1/2-y,-z
1/2+x,1/2-y,1/2+z
loop_
_atom_site_type_symbol
_atom_site_label
_atom_site_fract_x
_atom_site_fract_y
_atom_site_fract_z
Si Si1 0.873746 0.542516 0.374232
Si Si2 0.517619 0.577816 0.560446
Si Si3 0.937348 0.170874 0.352027
Si Si4 0.788524 0.684700 0.347174
Si Si5 0.430683 0.718832 0.522527
Si Si6 0.101043 0.030851 0.195821
Si Si7 0.763669 0.483801 0.014699
O O1 0.902622 0.619537 0.383043
O O2 0.795191 0.522697 0.272694
O O3 0.747130 0.526305 0.417538
O O4 0.041757 0.498821 0.418871
O O5 0.459340 0.649291 0.569609
O O6 0.555079 0.537193 0.647258
O O7 0.353234 0.542782 0.481852
O O8 0.685875 0.578054 0.543349
O O9 0.780968 0.193345 0.258053
O O10 0.930168 0.211470 0.429410
O O11 0.918411 0.093597 0.365225
O O12 0.122658 0.184882 0.361452
O O13 0.913158 0.740571 0.405522
O O14 0.250000 0.750000 0.500000
O O15 0.000000 0.049614 0.250000
#
# Coordination Sequence:
#
# PCOD8134828 Si02
#       7
#     8   8   8   8   8   8   8
#     4  10  19  36  63  92 116 153 208 256 313 369
#     4  11  22  38  57  86 125 163 199 254 326 364
#     4  10  20  41  70  87 116 168 220 263 315 373
#     4  10  20  40  64  89 119 165 218 259 305 384
#     4  12  26  41  58  91 131 173 209 255 315 379
#     4  11  19  39  67  91 118 158 205 265 324 368
#     4  10  20  35  59  90 120 154 204 265 309 374
#
# _framework density 20.212012999999999
#
# number of rings (size 3 to 8) (size 9 to 14) (size 15 to 20)
#    0.000    1.429    4.286    3.857    0.000    1.143 
#    2.571    5.714    0.000    0.000    0.000    0.000 
#    0.000    0.000    0.000    0.000    0.000    0.000 
#
# Total GULP energy -346978.510327 kJ/mol
# GULP energy per Si atom -12392.089655 kJ/mol
# Density = 2.016601 g / cm^3
# Si number density = 20.212013 Si / 1000 Ang^3
#
#
#
# Elastic Constant Matrix: (Units=GPa)
#
#
# Indices 1 2 3 4 5 6 
#
# 1 90.4833 46.5011 37.8981 0.0000 7.4353 0.0000
# 2 46.5011 136.5012 60.4391 0.0000 11.3515 0.0000
# 3 37.8981 60.4391 102.7743 0.0000 9.9568 0.0000
# 4 0.0000 0.0000 0.0000 42.6921 0.0000 0.5666
# 5 7.4353 11.3515 9.9568 0.0000 23.4481 0.0000
# 6 0.0000 0.0000 0.0000 0.5666 0.0000 29.8032
#
#
#
# Elastic Compliance Matrix: (Units=1/GPa)
#
#
# Indices 1 2 3 4 5 6 
#
# 1 0.014198 -0.003320 -0.003131 0.000000 -0.001565 0.000000
# 2 -0.003320 0.010815 -0.004933 0.000000 -0.002088 0.000000
# 3 -0.003131 -0.004933 0.014036 0.000000 -0.002579 0.000000
# 4 0.000000 0.000000 0.000000 0.023429 0.000000 -0.000445
# 5 -0.001565 -0.002088 -0.002579 0.000000 0.045250 0.000000
# 6 0.000000 0.000000 0.000000 -0.000445 0.000000 0.033562
#
#
# Mechanical properties :
#
#
# Convention : Reuss Voigt Hill
#
# Bulk Modulus (GPa) = 61.42894 68.82615 65.12755
# Shear Modulus (GPa) = 29.50083 31.51669 30.50876
#
# Velocity S-wave (km/s) = 3.82458 3.95309 3.88936
# Velocity P-wave (km/s) = 7.06834 7.41363 7.24304
#
# Compressibility (1/GPa) = 0.01627897
#
# Stress axis : x y z
#
# Youngs Moduli (GPa) = 70.43119 92.46369 71.24584
#
# Poissons Ratio (x) = 0.30699 0.22311
# Poissons Ratio (y) = 0.23384 0.35149
# Poissons Ratio (z) = 0.22055 0.45617
#
# Static dielectric constant tensor:
#      x y z
#    x 3.674320 0.000000 0.057730 
#    y 0.000000 3.543940 0.000000 
#    z 0.057730 0.000000 4.034030 
# 
# 
# High freq. dielectric constant tensor:
#      x y z
#    x 1.792190 0.000000 0.006440 
#    y 0.000000 1.768920 0.000000 
#    z 0.006440 0.000000 1.805540 
# 
# From -- ./inp_files/193050.got.cif
#   From: 2010.06.25/outbox.cif.g09.slc.cpg/sg15_97_cif.got.tgz:193050.got - 2010.06.28 07:06:18.
