data_PCOD8134257
_publ_section_title
;
Structure prediction by ZEFSAII (Michael W. Deem and Ramdas Pophale) SiO2 
 PCOD8134257
Probable space group: C 2/C
;
_chemical_formula_sum "Si O2"
_cell_formula_units_Z 60
_cell_length_a 16.185519
_cell_length_b 9.301358
_cell_length_c 26.972884
_cell_angle_alpha 90.000000
_cell_angle_beta 124.558836
_cell_angle_gamma 90.000000
_cell_volume 3344.161530
_symmetry_space_group_name_H-M "C 2/C"
_symmetry_group_IT_number 15
_symmetry_cell_setting 'monoclinic'
loop_
_space_group_symop_operation_xyz
x,y,z
-x,y,1/2-z
-x,-y,-z
x,-y,1/2+z
1/2+x,1/2+y,z
1/2-x,1/2+y,1/2-z
1/2-x,1/2-y,-z
1/2+x,1/2-y,1/2+z
loop_
_atom_site_type_symbol
_atom_site_label
_atom_site_fract_x
_atom_site_fract_y
_atom_site_fract_z
Si Si1 0.348658 0.305567 0.274935
Si Si2 0.159252 0.958350 0.573008
Si Si3 0.470602 0.271961 0.496058
Si Si4 0.500000 0.181023 0.250000
Si Si5 0.835680 0.891645 0.813370
Si Si6 0.499277 0.826171 0.112137
Si Si7 0.117669 0.456366 0.876299
Si Si8 0.957175 0.371276 0.890148
O O1 0.432813 0.281752 0.261976
O O2 0.246498 0.228128 0.225467
O O3 0.332078 0.476978 0.273387
O O4 0.381631 0.240647 0.339114
O O5 0.112519 0.108115 0.540948
O O6 0.083950 0.831310 0.532698
O O7 0.181422 0.959416 0.638743
O O8 0.263687 0.934501 0.580237
O O9 0.447471 0.204652 0.541589
O O10 0.462205 0.153419 0.450425
O O11 0.426884 0.079808 0.192992
O O12 0.943744 0.812909 0.847330
O O13 0.412478 0.876859 0.121164
O O14 0.576303 0.962195 0.130685
O O15 0.066987 0.353516 0.901079
#
# Coordination Sequence:
#
# PCOD8134257 Si02
#       8
#     8   8   8   4   8   8   8   8
#     4  11  21  36  63  82 114 149 189 243 283 350
#     4  10  20  35  57  86 115 155 186 238 289 334
#     4  10  19  35  59  83 119 149 198 235 275 340
#     4  10  20  38  58  82 120 146 188 236 298 342
#     4  11  21  37  59  87 111 150 198 231 290 343
#     4   9  21  36  59  83 117 151 191 237 280 346
#     4   9  20  36  57  83 116 154 188 231 293 336
#     4   9  19  36  57  85 111 153 190 233 280 337
#
# _framework density 17.941716
#
# number of rings (size 3 to 8) (size 9 to 14) (size 15 to 20)
#    0.800    1.333    2.667    1.200    0.000    1.067 
#    0.000    2.000    0.000    0.000    0.000    0.000 
#    0.000    0.000    0.000    0.000    0.000    0.000 
#
# Total GULP energy -371800.435542 kJ/mol
# GULP energy per Si atom -12393.347851 kJ/mol
# Density = 1.790088 g / cm^3
# Si number density = 17.941716 Si / 1000 Ang^3
#
#
#
# Elastic Constant Matrix: (Units=GPa)
#
#
# Indices 1 2 3 4 5 6 
#
# 1 40.5854 5.6915 27.5670 0.0000 0.9615 0.0000
# 2 5.6915 79.2155 25.6271 0.0000 -10.5219 0.0000
# 3 27.5670 25.6271 81.4336 0.0000 -4.4182 0.0000
# 4 0.0000 0.0000 0.0000 35.3152 0.0000 -4.9092
# 5 0.9615 -10.5219 -4.4182 0.0000 24.4349 0.0000
# 6 0.0000 0.0000 0.0000 -4.9092 0.0000 21.9933
#
#
#
# Elastic Compliance Matrix: (Units=1/GPa)
#
#
# Indices 1 2 3 4 5 6 
#
# 1 0.032319 0.000982 -0.011408 0.000000 -0.002912 0.000000
# 2 0.000982 0.014800 -0.004692 0.000000 0.005486 0.000000
# 3 -0.011408 -0.004692 0.017707 0.000000 0.001630 0.000000
# 4 0.000000 0.000000 0.000000 0.029223 0.000000 0.006523
# 5 -0.002912 0.005486 0.001630 0.000000 0.043697 0.000000
# 6 0.000000 0.000000 0.000000 0.006523 0.000000 0.046925
#
#
# Mechanical properties :
#
#
# Convention : Reuss Voigt Hill
#
# Bulk Modulus (GPa) = 28.91050 35.44507 32.17778
# Shear Modulus (GPa) = 22.08127 25.83861 23.95994
#
# Velocity S-wave (km/s) = 3.51197 3.79904 3.65832
# Velocity P-wave (km/s) = 5.70910 6.24837 5.98481
#
# Compressibility (1/GPa) = 0.03458951
#
# Stress axis : x y z
#
# Youngs Moduli (GPa) = 30.94139 67.56797 56.47571
#
# Poissons Ratio (x) = -0.06633 0.64425
# Poissons Ratio (y) = -0.03037 0.26499
# Poissons Ratio (z) = 0.35297 0.31704
#
# Static dielectric constant tensor:
#      x y z
#    x 3.111830 0.000000 -0.058310 
#    y 0.000000 3.212490 0.000000 
#    z -0.058310 0.000000 3.332970 
# 
# 
# High freq. dielectric constant tensor:
#      x y z
#    x 1.676450 0.000000 -0.004490 
#    y 0.000000 1.688330 0.000000 
#    z -0.004490 0.000000 1.700270 
# 
# From -- ./inp_files/315364.got.cif
#   From: 2010.06.25/outbox.cif.g09.slc.cpg/sg15_158_cif.got.tgz:315364.got - 2010.06.28 07:06:18.
