data_PCOD8134325
_publ_section_title
;
Structure prediction by ZEFSAII (Michael W. Deem and Ramdas Pophale) SiO2 
 PCOD8134325
Probable space group: C 2/C
;
_chemical_formula_sum "Si O2"
_cell_formula_units_Z 60
_cell_length_a 8.865269
_cell_length_b 20.237297
_cell_length_c 17.239892
_cell_angle_alpha 90.000000
_cell_angle_beta 102.896545
_cell_angle_gamma 90.000000
_cell_volume 3014.971372
_symmetry_space_group_name_H-M "C 2/C"
_symmetry_group_IT_number 15
_symmetry_cell_setting 'monoclinic'
loop_
_space_group_symop_operation_xyz
x,y,z
-x,y,1/2-z
-x,-y,-z
x,-y,1/2+z
1/2+x,1/2+y,z
1/2-x,1/2+y,1/2-z
1/2-x,1/2-y,-z
1/2+x,1/2-y,1/2+z
loop_
_atom_site_type_symbol
_atom_site_label
_atom_site_fract_x
_atom_site_fract_y
_atom_site_fract_z
Si Si1 0.273678 0.344472 0.477554
Si Si2 0.704360 0.053767 0.511659
Si Si3 0.045521 0.558650 0.905516
Si Si4 0.246970 0.825310 0.584158
Si Si5 0.123255 0.938034 0.877575
Si Si6 0.210334 0.917025 0.714239
Si Si7 0.001231 0.738688 0.019522
Si Si8 0.500000 0.002418 0.750000
O O1 0.202599 0.399582 0.412864
O O2 0.358712 0.377208 0.561303
O O3 0.122972 0.304930 0.487423
O O4 0.396401 0.302195 0.441651
O O5 0.581441 0.092128 0.552495
O O6 0.796533 0.110180 0.474569
O O7 0.596304 0.013169 0.441271
O O8 0.811940 0.005620 0.576748
O O9 0.954663 0.550027 0.815096
O O10 0.235420 0.845874 0.673924
O O11 0.420841 0.799391 0.582492
O O12 0.130093 0.765239 0.554727
O O13 0.207945 0.913993 0.807777
O O14 0.944209 0.950749 0.837498
O O15 0.354838 0.960274 0.705035
#
# Coordination Sequence:
#
# PCOD8134325 Si02
#       8
#     8   8   8   8   8   8   8   4
#     4  10  20  40  63  85 118 160 207 248 291 359
#     4  10  19  35  60  88 120 150 194 249 302 356
#     4  10  20  34  60  90 115 154 191 248 307 355
#     4  11  21  38  59  91 121 153 205 252 294 350
#     4  10  22  39  60  90 124 153 197 250 319 356
#     4  11  23  36  57  94 122 157 189 253 311 361
#     4  10  22  36  62  86 114 156 207 248 286 345
#     4  12  22  36  60  90 124 150 196 244 316 372
#
# _framework density 19.900687000000001
#
# number of rings (size 3 to 8) (size 9 to 14) (size 15 to 20)
#    0.000    1.600    5.333    0.000    1.867    1.600 
#    0.000    0.000    5.867    1.600    0.000    0.000 
#    0.000    0.000    0.000    0.000    0.000    0.000 
#
# Total GULP energy -371683.092435 kJ/mol
# GULP energy per Si atom -12389.436415 kJ/mol
# Density = 1.985539 g / cm^3
# Si number density = 19.900687 Si / 1000 Ang^3
#
#
#
# Elastic Constant Matrix: (Units=GPa)
#
#
# Indices 1 2 3 4 5 6 
#
# 1 94.4479 23.1146 24.7683 0.0000 1.7994 0.0000
# 2 23.1146 63.1493 29.0886 0.0000 -3.1265 0.0000
# 3 24.7683 29.0886 83.6975 0.0000 0.6926 0.0000
# 4 0.0000 0.0000 0.0000 23.1818 0.0000 2.7105
# 5 1.7994 -3.1265 0.6926 0.0000 21.2330 0.0000
# 6 0.0000 0.0000 0.0000 2.7105 0.0000 38.3851
#
#
#
# Elastic Compliance Matrix: (Units=1/GPa)
#
#
# Indices 1 2 3 4 5 6 
#
# 1 0.012070 -0.003393 -0.002381 0.000000 -0.001445 0.000000
# 2 -0.003393 0.019999 -0.005975 0.000000 0.003427 0.000000
# 3 -0.002381 -0.005975 0.014738 0.000000 -0.001159 0.000000
# 4 0.000000 0.000000 0.000000 0.043496 0.000000 -0.003071
# 5 -0.001445 0.003427 -0.001159 0.000000 0.047762 0.000000
# 6 0.000000 0.000000 0.000000 -0.003071 0.000000 0.026269
#
#
# Mechanical properties :
#
#
# Convention : Reuss Voigt Hill
#
# Bulk Modulus (GPa) = 42.89878 43.91529 43.40704
# Shear Modulus (GPa) = 25.56213 27.51486 26.53849
#
# Velocity S-wave (km/s) = 3.58786 3.72238 3.65574
# Velocity P-wave (km/s) = 6.22630 6.37102 6.29908
#
# Compressibility (1/GPa) = 0.02331069
#
# Stress axis : x y z
#
# Youngs Moduli (GPa) = 82.84958 50.00156 67.84966
#
# Poissons Ratio (x) = 0.16965 0.16153
# Poissons Ratio (y) = 0.28110 0.40540
# Poissons Ratio (z) = 0.19724 0.29876
#
# Static dielectric constant tensor:
#      x y z
#    x 3.895870 0.000000 -0.049450 
#    y 0.000000 3.646770 0.000000 
#    z -0.049450 0.000000 3.475660 
# 
# 
# High freq. dielectric constant tensor:
#      x y z
#    x 1.794540 0.000000 0.002300 
#    y 0.000000 1.764090 0.000000 
#    z 0.002300 0.000000 1.751310 
# 
# From -- ./inp_files/193026.got.cif
#   From: 2010.06.25/outbox.cif.g09.slc.cpg/sg15_97_cif.got.tgz:193026.got - 2010.06.28 07:06:18.
