data_PCOD8134708
_publ_section_title
;
Structure prediction by ZEFSAII (Michael W. Deem and Ramdas Pophale) SiO2 
 PCOD8134708
Probable space group: C 2/C
;
_chemical_formula_sum "Si O2"
_cell_formula_units_Z 64
_cell_length_a 23.141187
_cell_length_b 9.226812
_cell_length_c 28.730105
_cell_angle_alpha 90.000000
_cell_angle_beta 148.139666
_cell_angle_gamma 90.000000
_cell_volume 3238.063966
_symmetry_space_group_name_H-M "C 2/C"
_symmetry_group_IT_number 15
_symmetry_cell_setting 'monoclinic'
loop_
_space_group_symop_operation_xyz
x,y,z
-x,y,1/2-z
-x,-y,-z
x,-y,1/2+z
1/2+x,1/2+y,z
1/2-x,1/2+y,1/2-z
1/2-x,1/2-y,-z
1/2+x,1/2-y,1/2+z
loop_
_atom_site_type_symbol
_atom_site_label
_atom_site_fract_x
_atom_site_fract_y
_atom_site_fract_z
Si Si1 0.493759 0.777431 0.564331
Si Si2 0.311933 0.296724 0.587949
Si Si3 0.615608 0.509787 0.180710
Si Si4 0.499250 0.760537 0.153620
Si Si5 0.173200 0.412459 0.628816
Si Si6 0.613770 0.583755 0.078219
Si Si7 0.136636 0.477741 0.500427
Si Si8 0.218134 0.638713 0.838303
O O1 0.552927 0.641888 0.629529
O O2 0.581150 0.893849 0.605117
O O3 0.412411 0.732663 0.466252
O O4 0.417649 0.866492 0.549710
O O5 0.250000 0.250000 0.500000
O O6 0.438944 0.292612 0.660078
O O7 0.264699 0.455238 0.572684
O O8 0.286239 0.182315 0.610885
O O9 0.538262 0.610526 0.158380
O O10 0.730297 0.482291 0.285971
O O11 0.645924 0.598217 0.154293
O O12 0.595262 0.871063 0.234225
O O13 0.425048 0.843133 0.065564
O O14 0.123480 0.473196 0.547194
O O15 0.219297 0.252365 0.651312
O O16 0.714365 0.509753 0.119391
O O17 0.500000 0.500000 0.000000
#
# Coordination Sequence:
#
# PCOD8134708 Si02
#       8
#     8   8   8   8   8   8   8   8
#     4  11  22  35  55  85 126 159 192 244 309 369
#     4   9  20  36  63  84 113 152 205 255 295 345
#     4  10  22  35  60  86 120 158 203 242 310 362
#     4  10  21  38  63  88 114 158 208 259 289 363
#     4  10  20  35  55  85 120 159 198 243 291 365
#     4  10  20  35  56  83 124 159 193 243 299 377
#     4  10  22  37  56  85 120 155 202 250 305 353
#     4  10  19  36  60  91 111 154 211 246 293 351
#
# _framework density 19.764897000000001
#
# number of rings (size 3 to 8) (size 9 to 14) (size 15 to 20)
#    0.000    2.000    2.500    1.500   10.500    1.000 
#    0.000    0.625    0.000    0.000    0.000    0.000 
#    0.000    0.000    0.000    0.000    0.000    0.000 
#
# Total GULP energy -396489.312433 kJ/mol
# GULP energy per Si atom -12390.291014 kJ/mol
# Density = 1.971991 g / cm^3
# Si number density = 19.764897 Si / 1000 Ang^3
#
#
#
# Elastic Constant Matrix: (Units=GPa)
#
#
# Indices 1 2 3 4 5 6 
#
# 1 120.8207 40.5717 39.8428 -0.0001 14.6192 0.0000
# 2 40.5717 77.0534 33.7962 -0.0006 17.3577 -0.0006
# 3 39.8428 33.7962 102.6752 -0.0011 3.0333 0.0000
# 4 -0.0001 -0.0006 -0.0011 29.2048 -0.0001 8.2193
# 5 14.6192 17.3577 3.0333 -0.0001 33.9835 0.0000
# 6 0.0000 -0.0006 0.0000 8.2193 0.0000 26.4489
#
#
#
# Elastic Compliance Matrix: (Units=1/GPa)
#
#
# Indices 1 2 3 4 5 6 
#
# 1 0.010816 -0.003908 -0.002840 0.000000 -0.002403 0.000000
# 2 -0.003908 0.018644 -0.004400 0.000000 -0.007449 0.000000
# 3 -0.002840 -0.004400 0.012219 0.000000 0.002378 0.000000
# 4 0.000000 0.000000 0.000000 0.037523 0.000000 -0.011661
# 5 -0.002403 -0.007449 0.002378 0.000000 0.034052 0.000000
# 6 0.000000 0.000000 0.000000 -0.011661 0.000000 0.041432
#
#
# Mechanical properties :
#
#
# Convention : Reuss Voigt Hill
#
# Bulk Modulus (GPa) = 51.59092 58.77452 55.18272
# Shear Modulus (GPa) = 27.25622 30.35002 28.80312
#
# Velocity S-wave (km/s) = 3.71755 3.92286 3.82158
# Velocity P-wave (km/s) = 6.67726 7.09365 6.88860
#
# Compressibility (1/GPa) = 0.01938326
#
# Stress axis : x y z
#
# Youngs Moduli (GPa) = 92.45193 53.63737 81.83657
#
# Poissons Ratio (x) = 0.20963 0.23240
# Poissons Ratio (y) = 0.36133 0.36008
# Poissons Ratio (z) = 0.26255 0.23601
#
# Static dielectric constant tensor:
#      x y z
#    x 4.042670 0.000000 0.142330 
#    y 0.000000 3.457160 0.000000 
#    z 0.142330 0.000000 4.007770 
# 
# 
# High freq. dielectric constant tensor:
#      x y z
#    x 1.764780 0.000000 0.002780 
#    y 0.000000 1.736880 0.000000 
#    z 0.002780 0.000000 1.788400 
# 
# From -- ./inp_files/318642.got.cif
#   From: 2010.06.25/outbox.cif.g09.slc.cpg/sg15_160_cif.got.tgz:318642.got - 2010.06.28 07:06:18.
