data_PCOD8134303
_publ_section_title
;
Structure prediction by ZEFSAII (Michael W. Deem and Ramdas Pophale) SiO2 
 PCOD8134303
Probable space group: C 2/C
;
_chemical_formula_sum "Si O2"
_cell_formula_units_Z 44
_cell_length_a 9.042743
_cell_length_b 27.715316
_cell_length_c 8.781264
_cell_angle_alpha 90.000000
_cell_angle_beta 70.939688
_cell_angle_gamma 90.000000
_cell_volume 2080.125036
_symmetry_space_group_name_H-M "C 2/C"
_symmetry_group_IT_number 15
_symmetry_cell_setting 'monoclinic'
loop_
_space_group_symop_operation_xyz
x,y,z
-x,y,1/2-z
-x,-y,-z
x,-y,1/2+z
1/2+x,1/2+y,z
1/2-x,1/2+y,1/2-z
1/2-x,1/2-y,-z
1/2+x,1/2-y,1/2+z
loop_
_atom_site_type_symbol
_atom_site_label
_atom_site_fract_x
_atom_site_fract_y
_atom_site_fract_z
Si Si1 0.360461 0.156073 0.693645
Si Si2 0.312525 0.560281 0.822215
Si Si3 0.344125 0.475697 0.617322
Si Si4 0.543307 0.777670 0.913781
Si Si5 0.339760 0.310512 0.975052
Si Si6 0.000000 0.894865 0.750000
O O1 0.500000 0.135662 0.750000
O O2 0.253925 0.112070 0.684599
O O3 0.419117 0.184162 0.523960
O O4 0.256447 0.190007 0.835265
O O5 0.500000 0.563001 0.750000
O O6 0.248634 0.518470 0.731490
O O7 0.247330 0.545037 0.009236
O O8 0.500000 0.500000 0.500000
O O9 0.372729 0.430305 0.719085
O O10 0.500000 0.768943 0.750000
O O11 0.722514 0.796795 0.875128
O O12 0.528955 0.729872 0.027653
O O13 0.421503 0.361195 0.906066
#
# Coordination Sequence:
#
# PCOD8134303 Si02
#       6
#     8   8   8   8   8   4
#     4  10  23  44  66  90 131 169 211 259 322 383
#     4  10  20  37  64  93 125 161 210 262 318 368
#     4  10  19  35  59  94 127 158 206 267 310 366
#     4  10  24  44  63  92 128 168 214 262 317 387
#     4  10  24  40  65  91 130 170 208 265 318 371
#     4  12  22  36  68  98 128 164 216 258 316 372
#
# _framework density 21.152573
#
# number of rings (size 3 to 8) (size 9 to 14) (size 15 to 20)
#    0.000    1.818    2.727    2.182    8.909    2.909 
#    0.000    0.909    0.000    0.000    0.000    0.000 
#    0.000    0.000    0.000    0.000    0.000    0.000 
#
# Total GULP energy -272578.931220 kJ/mol
# GULP energy per Si atom -12389.951419 kJ/mol
# Density = 2.110443 g / cm^3
# Si number density = 21.152573 Si / 1000 Ang^3
#
#
#
# Elastic Constant Matrix: (Units=GPa)
#
#
# Indices 1 2 3 4 5 6 
#
# 1 48.8660 32.3764 36.4439 0.0000 11.0217 0.0000
# 2 32.3764 133.9990 42.3808 0.0000 5.9027 0.0000
# 3 36.4439 42.3808 114.3407 0.0000 18.4672 0.0000
# 4 0.0000 0.0000 0.0000 32.7911 0.0000 15.9995
# 5 11.0217 5.9027 18.4672 0.0000 30.0781 0.0000
# 6 0.0000 0.0000 0.0000 15.9995 0.0000 -26.9839
#
#
#
# Elastic Compliance Matrix: (Units=1/GPa)
#
#
# Indices 1 2 3 4 5 6 
#
# 1 0.030112 -0.004850 -0.006851 0.000000 -0.005876 0.000000
# 2 -0.004850 0.009237 -0.002078 0.000000 0.001240 0.000000
# 3 -0.006851 -0.002078 0.012464 0.000000 -0.004735 0.000000
# 4 0.000000 0.000000 0.000000 0.023653 0.000000 0.014025
# 5 -0.005876 0.001240 -0.004735 0.000000 0.038063 0.000000
# 6 0.000000 0.000000 0.000000 0.014025 0.000000 -0.028744
#
#
# Mechanical properties :
#
#
# Convention : Reuss Voigt Hill
#
# Bulk Modulus (GPa) = 41.22800 57.73420 49.48110
# Shear Modulus (GPa) = 41.51764 19.57737 30.54751
#
# Velocity S-wave (km/s) = 4.43512 3.04556 3.80432
# Velocity P-wave (km/s) = 6.76463 6.30243 6.53761
#
# Compressibility (1/GPa) = 0.02425536
#
# Stress axis : x y z
#
# Youngs Moduli (GPa) = 33.20904 108.25716 80.22830
#
# Poissons Ratio (x) = 0.52505 0.54964
# Poissons Ratio (y) = 0.16106 0.16674
# Poissons Ratio (z) = 0.22751 0.22499
#
# Static dielectric constant tensor:
#      x y z
#    x 3.627750 0.000000 0.292410 
#    y 0.000000 3.985370 0.000000 
#    z 0.292410 0.000000 4.301610 
# 
# 
# High freq. dielectric constant tensor:
#      x y z
#    x 1.787420 0.000000 0.015540 
#    y 0.000000 1.847580 0.000000 
#    z 0.015540 0.000000 1.838070 
# 
# From -- ./inp_files/25549.got.cif
#   From: 2010.06.25/outbox.cif.g09.slc.cpg/sg15_13_cif.got.tgz:25549.got - 2010.06.28 07:06:18.
