data_PCOD8134837
_publ_section_title
;
Structure prediction by ZEFSAII (Michael W. Deem and Ramdas Pophale) SiO2 
 PCOD8134837
Probable space group: C 2/C
;
_chemical_formula_sum "Si O2"
_cell_formula_units_Z 56
_cell_length_a 8.904441
_cell_length_b 21.847620
_cell_length_c 30.292574
_cell_angle_alpha 90.000000
_cell_angle_beta 152.298480
_cell_angle_gamma 90.000000
_cell_volume 2739.519018
_symmetry_space_group_name_H-M "C 2/C"
_symmetry_group_IT_number 15
_symmetry_cell_setting 'monoclinic'
loop_
_space_group_symop_operation_xyz
x,y,z
-x,y,1/2-z
-x,-y,-z
x,-y,1/2+z
1/2+x,1/2+y,z
1/2-x,1/2+y,1/2-z
1/2-x,1/2-y,-z
1/2+x,1/2-y,1/2+z
loop_
_atom_site_type_symbol
_atom_site_label
_atom_site_fract_x
_atom_site_fract_y
_atom_site_fract_z
Si Si1 0.450039 0.410648 0.980160
Si Si2 0.133644 0.793358 0.064365
Si Si3 0.215735 0.674828 0.539219
Si Si4 0.772851 0.066171 0.090272
Si Si5 0.768764 0.261387 0.230361
Si Si6 0.771783 0.502151 0.007480
Si Si7 0.094324 0.367157 0.723470
O O1 0.376020 0.434354 0.011024
O O2 0.139986 0.410634 0.866609
O O3 0.597568 0.342844 0.016442
O O4 0.739220 0.453389 0.037990
O O5 0.505521 0.794492 0.175467
O O6 0.870840 0.816548 0.031511
O O7 0.060837 0.726080 0.027312
O O8 0.499350 0.688101 0.648255
O O9 0.039098 0.609973 0.501865
O O10 0.049969 0.103976 0.186436
O O11 0.642782 0.015595 0.091134
O O12 0.900303 0.028698 0.080533
O O13 0.596447 0.200454 0.203265
O O14 0.000000 0.241742 0.250000
O O15 0.000000 0.363393 0.750000
#
# Coordination Sequence:
#
# PCOD8134837 Si02
#       7
#     8   8   8   8   8   8   8
#     4  11  22  43  65  94 129 168 212 264 311 385
#     4  10  19  36  63  95 127 162 204 263 314 370
#     4  10  19  36  63  95 127 162 204 263 314 370
#     4  11  22  43  65  94 129 168 212 264 311 385
#     4  10  22  38  63  98 126 168 215 249 322 390
#     4  10  24  42  64  86 124 176 216 250 316 370
#     4  12  24  40  63 100 126 160 217 267 314 382
#
# _framework density 20.441545000000001
#
# number of rings (size 3 to 8) (size 9 to 14) (size 15 to 20)
#    0.000    1.429    5.714    0.000    2.000    0.000 
#    2.571   10.714    0.000    0.000    0.000    0.000 
#    0.000    0.000    0.000    0.000    0.000    0.000 
#
# Total GULP energy -346944.553451 kJ/mol
# GULP energy per Si atom -12390.876909 kJ/mol
# Density = 2.039502 g / cm^3
# Si number density = 20.441545 Si / 1000 Ang^3
#
#
#
# Elastic Constant Matrix: (Units=GPa)
#
#
# Indices 1 2 3 4 5 6 
#
# 1 74.6590 28.1103 19.8585 -0.0160 -0.8143 0.0036
# 2 28.1103 88.5392 40.1886 -0.0042 4.1619 0.0041
# 3 19.8585 40.1886 115.0023 -0.0412 6.7969 -0.0154
# 4 -0.0160 -0.0042 -0.0412 18.2543 -0.0168 -1.4870
# 5 -0.8143 4.1619 6.7969 -0.0168 18.6503 -0.0066
# 6 0.0036 0.0041 -0.0154 -1.4870 -0.0066 28.6526
#
#
#
# Elastic Compliance Matrix: (Units=1/GPa)
#
#
# Indices 1 2 3 4 5 6 
#
# 1 0.015415 -0.004431 -0.001238 0.000012 0.002113 -0.000001
# 2 -0.004431 0.014729 -0.004268 -0.000012 -0.001925 -0.000005
# 3 -0.001238 -0.004268 0.010576 0.000020 -0.002956 0.000007
# 4 0.000012 -0.000012 0.000020 0.055014 0.000047 0.002855
# 5 0.002113 -0.001925 -0.002956 0.000047 0.055218 0.000014
# 6 -0.000001 -0.000005 0.000007 0.002855 0.000014 0.035049
#
#
# Mechanical properties :
#
#
# Convention : Reuss Voigt Hill
#
# Bulk Modulus (GPa) = 47.97508 50.50170 49.23839
# Shear Modulus (GPa) = 23.49353 25.78099 24.63726
#
# Velocity S-wave (km/s) = 3.39381 3.55520 3.47544
# Velocity P-wave (km/s) = 6.23520 6.45071 6.34387
#
# Compressibility (1/GPa) = 0.02084415
#
# Stress axis : x y z
#
# Youngs Moduli (GPa) = 64.87130 67.89208 94.55755
#
# Poissons Ratio (x) = 0.30086 0.11708
# Poissons Ratio (y) = 0.28748 0.40360
# Poissons Ratio (z) = 0.08032 0.28978
#
# Static dielectric constant tensor:
#      x y z
#    x 3.697560 -0.000010 -0.001010 
#    y -0.000010 3.822770 -0.000020 
#    z -0.001010 -0.000020 3.629640 
# 
# 
# High freq. dielectric constant tensor:
#      x y z
#    x 1.791150 0.000000 0.001450 
#    y 0.000000 1.807860 -0.000010 
#    z 0.001450 -0.000010 1.780190 
# 
# From -- ./inp_files/309015.got.cif
#   From: 2010.06.25/outbox.cif.g09.slc.cpg/sg15_155_cif.got.tgz:309015.got - 2010.06.28 07:06:18.
