data_PCOD8134714
_publ_section_title
;
Structure prediction by ZEFSAII (Michael W. Deem and Ramdas Pophale) SiO2 
 PCOD8134714
Probable space group: C 2/C
;
_chemical_formula_sum "Si O2"
_cell_formula_units_Z 48
_cell_length_a 17.587069
_cell_length_b 17.752164
_cell_length_c 24.432457
_cell_angle_alpha 90.000000
_cell_angle_beta 160.566743
_cell_angle_gamma 90.000000
_cell_volume 2537.908100
_symmetry_space_group_name_H-M "C 2/C"
_symmetry_group_IT_number 15
_symmetry_cell_setting 'monoclinic'
loop_
_space_group_symop_operation_xyz
x,y,z
-x,y,1/2-z
-x,-y,-z
x,-y,1/2+z
1/2+x,1/2+y,z
1/2-x,1/2+y,1/2-z
1/2-x,1/2-y,-z
1/2+x,1/2-y,1/2+z
loop_
_atom_site_type_symbol
_atom_site_label
_atom_site_fract_x
_atom_site_fract_y
_atom_site_fract_z
Si Si1 0.408225 0.921052 0.459640
Si Si2 0.126954 0.927884 0.068684
Si Si3 0.500000 0.923127 0.250000
Si Si4 0.392033 0.834745 0.338237
Si Si5 0.000000 0.987052 0.250000
Si Si6 0.839559 0.164525 0.288527
Si Si7 0.200311 0.122185 0.451234
O O1 0.352822 0.865683 0.372190
O O2 0.181467 0.933786 0.342098
O O3 0.603394 0.881394 0.628285
O O4 0.500000 0.000000 0.500000
O O5 0.312099 0.969933 0.155057
O O6 0.242700 0.887434 0.197988
O O7 0.984523 0.868204 0.937196
O O8 0.000000 0.000000 0.000000
O O9 0.625886 0.871683 0.380316
O O10 0.290683 0.751309 0.267637
O O11 0.664169 0.835440 0.506168
O O12 0.135778 0.038575 0.386219
O O13 0.966869 0.159818 0.315405
#
# Coordination Sequence:
#
# PCOD8134714 Si02
#       7
#     8   8   4   8   4   8   8
#     4  12  23  41  62  90 122 165 211 252 301 367
#     4  10  21  36  56  85 114 154 192 240 289 353
#     4   8  20  32  53  81 118 140 186 232 298 338
#     4  11  22  38  61  91 126 157 197 249 312 364
#     4  12  24  38  63  91 122 160 212 258 290 366
#     4  11  22  38  61  91 126 157 197 249 312 364
#     4  10  19  36  60  92 123 153 191 253 312 358
#
# _framework density 18.913214
#
# number of rings (size 3 to 8) (size 9 to 14) (size 15 to 20)
#    0.000    1.333    3.333    2.500    4.667    0.000 
#    0.000    5.833    0.000    2.000    0.000    0.000 
#    0.000    0.000    0.000    0.000    0.000    0.000 
#
# Total GULP energy -297348.534362 kJ/mol
# GULP energy per Si atom -12389.522265 kJ/mol
# Density = 1.887017 g / cm^3
# Si number density = 18.913214 Si / 1000 Ang^3
#
#
#
# Elastic Constant Matrix: (Units=GPa)
#
#
# Indices 1 2 3 4 5 6 
#
# 1 97.7561 31.4829 30.1607 -0.1039 15.4725 -0.2143
# 2 31.4829 91.6987 11.2274 -0.1964 19.2055 -0.3994
# 3 30.1607 11.2274 75.6096 -0.3499 3.8729 -0.6134
# 4 -0.1039 -0.1964 -0.3499 28.2285 -0.0198 -2.8828
# 5 15.4725 19.2055 3.8729 -0.0198 38.5026 0.1081
# 6 -0.2143 -0.3994 -0.6134 -2.8828 0.1081 7.5127
#
#
#
# Elastic Compliance Matrix: (Units=1/GPa)
#
#
# Indices 1 2 3 4 5 6 
#
# 1 0.013227 -0.003305 -0.004623 -0.000049 -0.003201 -0.000149
# 2 -0.003305 0.013180 -0.000365 0.000144 -0.005211 0.000707
# 3 -0.004623 -0.000365 0.015109 0.000289 0.000517 0.001186
# 4 -0.000049 0.000144 0.000289 0.036878 -0.000102 0.014182
# 5 -0.003201 -0.005211 0.000517 -0.000102 0.029808 -0.000794
# 6 -0.000149 0.000707 0.001186 0.014182 -0.000794 0.138691
#
#
# Mechanical properties :
#
#
# Convention : Reuss Voigt Hill
#
# Bulk Modulus (GPa) = 40.11545 45.64516 42.88031
# Shear Modulus (GPa) = 18.39669 27.66164 23.02917
#
# Velocity S-wave (km/s) = 3.12218 3.82849 3.49323
# Velocity P-wave (km/s) = 5.85266 6.61283 6.24432
#
# Compressibility (1/GPa) = 0.02492805
#
# Stress axis : x y z
#
# Youngs Moduli (GPa) = 75.60522 75.87462 66.18763
#
# Poissons Ratio (x) = 0.25080 0.30597
# Poissons Ratio (y) = 0.24991 0.02417
# Poissons Ratio (z) = 0.34950 0.02771
#
# Static dielectric constant tensor:
#      x y z
#    x 3.887150 0.001510 0.055250 
#    y 0.001510 3.182390 -0.000750 
#    z 0.055250 -0.000750 3.772440 
# 
# 
# High freq. dielectric constant tensor:
#      x y z
#    x 1.741130 0.000000 -0.008030 
#    y 0.000000 1.708960 -0.000040 
#    z -0.008030 -0.000040 1.749880 
# 
# From -- ./inp_files/48740.got.cif
#   From: 2010.06.25/outbox.cif.g09.slc.cpg/sg15_25_cif.got.tgz:48740.got - 2010.06.28 07:06:18.
