data_PCOD8134947
_publ_section_title
;
Structure prediction by ZEFSAII (Michael W. Deem and Ramdas Pophale) SiO2 
 PCOD8134947
Probable space group: C 2/C
;
_chemical_formula_sum "Si O2"
_cell_formula_units_Z 60
_cell_length_a 25.800620
_cell_length_b 17.201563
_cell_length_c 9.042138
_cell_angle_alpha 90.000000
_cell_angle_beta 125.642888
_cell_angle_gamma 90.000000
_cell_volume 3261.223993
_symmetry_space_group_name_H-M "C 2/C"
_symmetry_group_IT_number 15
_symmetry_cell_setting 'monoclinic'
loop_
_space_group_symop_operation_xyz
x,y,z
-x,y,1/2-z
-x,-y,-z
x,-y,1/2+z
1/2+x,1/2+y,z
1/2-x,1/2+y,1/2-z
1/2-x,1/2-y,-z
1/2+x,1/2-y,1/2+z
loop_
_atom_site_type_symbol
_atom_site_label
_atom_site_fract_x
_atom_site_fract_y
_atom_site_fract_z
Si Si1 0.304506 0.904134 0.530530
Si Si2 0.134776 0.960452 0.048570
Si Si3 0.000000 0.818385 0.250000
Si Si4 0.445705 0.460813 0.318179
Si Si5 0.256602 0.708478 0.167738
Si Si6 0.320679 0.687314 0.765841
Si Si7 0.627900 0.756654 0.940621
Si Si8 0.265238 0.043456 0.275474
O O1 0.240556 0.855407 0.402770
O O2 0.363580 0.848356 0.582773
O O3 0.307225 0.931037 0.704981
O O4 0.306406 0.979861 0.430541
O O5 0.120202 0.964846 0.200095
O O6 0.146435 0.867454 0.052887
O O7 0.196937 0.009723 0.109278
O O8 0.071885 0.991428 0.859654
O O9 0.028454 0.874258 0.170077
O O10 0.058060 0.761424 0.392800
O O11 0.500000 0.500000 0.500000
O O12 0.200396 0.735159 0.184636
O O13 0.324260 0.728828 0.352473
O O14 0.248852 0.615750 0.138137
O O15 0.250000 0.750000 0.000000
O O16 0.364662 0.708801 0.700031
#
# Coordination Sequence:
#
# PCOD8134947 Si02
#       8
#     8   8   4   8   8   8   8   8
#     4  10  21  35  58  87 116 147 192 245 306 362
#     4  11  22  34  56  82 121 153 194 236 294 362
#     4  12  24  38  64  78 112 176 210 236 284 342
#     4  12  23  36  51  83 118 160 202 237 274 350
#     4  11  23  34  58  93 124 147 194 251 309 364
#     4  10  19  37  58  81 117 160 185 246 302 353
#     4  11  21  42  58  82 119 159 209 241 292 362
#     4  11  21  35  58  88 117 152 185 242 320 361
#
# _framework density 18.398001000000001
#
# number of rings (size 3 to 8) (size 9 to 14) (size 15 to 20)
#    0.000    1.067    5.333    3.200    7.467    0.000 
#    0.000    0.000    0.000    0.800    0.000    0.000 
#    0.000    0.000    0.000    0.000    0.000    0.000 
#
# Total GULP energy -371811.796746 kJ/mol
# GULP energy per Si atom -12393.726558 kJ/mol
# Density = 1.835613 g / cm^3
# Si number density = 18.398001 Si / 1000 Ang^3
#
#
#
# Elastic Constant Matrix: (Units=GPa)
#
#
# Indices 1 2 3 4 5 6 
#
# 1 73.5407 36.0396 40.2560 0.0000 7.1534 0.0000
# 2 36.0396 137.8557 57.1923 0.0000 6.5748 0.0000
# 3 40.2560 57.1923 87.4938 0.0000 -0.4091 0.0000
# 4 0.0000 0.0000 0.0000 22.6988 0.0000 -0.7577
# 5 7.1534 6.5748 -0.4091 0.0000 22.9733 0.0000
# 6 0.0000 0.0000 0.0000 -0.7577 0.0000 32.7617
#
#
#
# Elastic Compliance Matrix: (Units=1/GPa)
#
#
# Indices 1 2 3 4 5 6 
#
# 1 0.019196 -0.001470 -0.007898 0.000000 -0.005697 0.000000
# 2 -0.001470 0.010272 -0.006050 0.000000 -0.002590 0.000000
# 3 -0.007898 -0.006050 0.019039 0.000000 0.004530 0.000000
# 4 0.000000 0.000000 0.000000 0.044089 0.000000 0.001020
# 5 -0.005697 -0.002590 0.004530 0.000000 0.046125 0.000000
# 6 0.000000 0.000000 0.000000 0.001020 0.000000 0.030547
#
#
# Mechanical properties :
#
#
# Convention : Reuss Voigt Hill
#
# Bulk Modulus (GPa) = 56.59036 62.87398 59.73217
# Shear Modulus (GPa) = 24.27264 26.71359 25.49311
#
# Velocity S-wave (km/s) = 3.63617 3.81462 3.72646
# Velocity P-wave (km/s) = 6.96094 7.32464 7.14511
#
# Compressibility (1/GPa) = 0.01767085
#
# Stress axis : x y z
#
# Youngs Moduli (GPa) = 52.09513 97.35372 52.52360
#
# Poissons Ratio (x) = 0.14312 0.41481
# Poissons Ratio (y) = 0.07659 0.31777
# Poissons Ratio (z) = 0.41143 0.58900
#
# Static dielectric constant tensor:
#      x y z
#    x 3.678130 0.000000 -0.151260 
#    y 0.000000 3.748850 0.000000 
#    z -0.151260 0.000000 3.204660 
# 
# 
# High freq. dielectric constant tensor:
#      x y z
#    x 1.703880 0.000000 -0.019580 
#    y 0.000000 1.721390 0.000000 
#    z -0.019580 0.000000 1.690280 
# 
# From -- ./inp_files/67034.got.cif
#   From: 2010.06.25/outbox.cif.g09.slc.cpg/sg15_34_cif.got.tgz:67034.got - 2010.06.28 07:06:18.
