data_PCOD8134633
_publ_section_title
;
Structure prediction by ZEFSAII (Michael W. Deem and Ramdas Pophale) SiO2 
 PCOD8134633
Probable space group: C 2/C
;
_chemical_formula_sum "Si O2"
_cell_formula_units_Z 48
_cell_length_a 28.219574
_cell_length_b 18.739344
_cell_length_c 8.464393
_cell_angle_alpha 90.000000
_cell_angle_beta 33.761733
_cell_angle_gamma 90.000000
_cell_volume 2487.555021
_symmetry_space_group_name_H-M "C 2/C"
_symmetry_group_IT_number 15
_symmetry_cell_setting 'monoclinic'
loop_
_space_group_symop_operation_xyz
x,y,z
-x,y,1/2-z
-x,-y,-z
x,-y,1/2+z
1/2+x,1/2+y,z
1/2-x,1/2+y,1/2-z
1/2-x,1/2-y,-z
1/2+x,1/2-y,1/2+z
loop_
_atom_site_type_symbol
_atom_site_label
_atom_site_fract_x
_atom_site_fract_y
_atom_site_fract_z
Si Si1 0.500000 0.793177 0.750000
Si Si2 0.917798 0.908961 0.396681
Si Si3 0.917914 0.408952 0.771024
Si Si4 0.000000 0.526660 0.750000
Si Si5 0.855554 0.968809 0.270489
Si Si6 0.278876 0.592918 0.686880
Si Si7 0.165609 0.795259 0.703607
O O1 0.469994 0.841083 0.687098
O O2 0.579357 0.750311 0.455170
O O3 0.919370 0.921963 0.204189
O O4 0.837462 0.857183 0.653389
O O5 0.000000 0.870594 0.250000
O O6 0.913961 0.984487 0.495361
O O7 0.935253 0.478678 0.828488
O O8 0.943953 0.423296 0.518401
O O9 0.819688 0.389047 0.055963
O O10 0.800409 0.916158 0.312832
O O11 0.796931 0.018742 0.544092
O O12 0.330106 0.661216 0.474597
O O13 0.250000 0.750000 0.500000
#
# Coordination Sequence:
#
# PCOD8134633 Si02
#       7
#     4   8   8   4   8   8   8
#     4  11  22  40  62  82 114 159 206 232 292 349
#     4  10  19  36  61  83 117 147 189 243 290 351
#     4  10  19  36  59  85 118 154 188 246 286 353
#     4   9  20  34  56  90 114 147 196 238 300 335
#     4   9  20  34  57  94 111 148 189 241 300 347
#     4  10  19  36  60  85 122 150 191 243 292 353
#     4  11  22  40  60  82 114 162 200 237 288 352
#
# _framework density 19.296056
#
# number of rings (size 3 to 8) (size 9 to 14) (size 15 to 20)
#    0.000    2.000    2.500    1.500    0.000    0.000 
#    6.000    2.500    0.000    0.000    0.000    0.000 
#    0.000    0.000    0.000    0.000    0.000    0.000 
#
# Total GULP energy -297446.374379 kJ/mol
# GULP energy per Si atom -12393.598932 kJ/mol
# Density = 1.925214 g / cm^3
# Si number density = 19.296056 Si / 1000 Ang^3
#
#
#
# Elastic Constant Matrix: (Units=GPa)
#
#
# Indices 1 2 3 4 5 6 
#
# 1 132.4888 53.9231 56.8288 0.0000 9.4287 0.0000
# 2 53.9231 95.8107 51.2179 0.0000 1.5495 0.0000
# 3 56.8288 51.2179 113.5152 0.0000 -4.4376 0.0000
# 4 0.0000 0.0000 0.0000 31.5360 0.0000 -8.2986
# 5 9.4287 1.5495 -4.4376 0.0000 35.4345 0.0000
# 6 0.0000 0.0000 0.0000 -8.2986 0.0000 15.6780
#
#
#
# Elastic Compliance Matrix: (Units=1/GPa)
#
#
# Indices 1 2 3 4 5 6 
#
# 1 0.011107 -0.004162 -0.003810 0.000000 -0.003251 0.000000
# 2 -0.004162 0.015383 -0.004864 0.000000 -0.000174 0.000000
# 3 -0.003810 -0.004864 0.013023 0.000000 0.002857 0.000000
# 4 0.000000 0.000000 0.000000 0.036841 0.000000 0.019501
# 5 -0.003251 -0.000174 0.002857 0.000000 0.029451 0.000000
# 6 0.000000 0.000000 0.000000 0.019501 0.000000 0.074106
#
#
# Mechanical properties :
#
#
# Convention : Reuss Voigt Hill
#
# Bulk Modulus (GPa) = 72.24639 73.97269 73.10954
# Shear Modulus (GPa) = 23.78734 28.51937 26.15335
#
# Velocity S-wave (km/s) = 3.51487 3.84863 3.68553
# Velocity P-wave (km/s) = 7.34811 7.62681 7.48876
#
# Compressibility (1/GPa) = 0.01384152
#
# Stress axis : x y z
#
# Youngs Moduli (GPa) = 90.03144 65.00866 76.78808
#
# Poissons Ratio (x) = 0.27057 0.29254
# Poissons Ratio (y) = 0.37472 0.37348
# Poissons Ratio (z) = 0.34299 0.31619
#
# Static dielectric constant tensor:
#      x y z
#    x 3.600670 0.000000 0.018390 
#    y 0.000000 3.567750 0.000000 
#    z 0.018390 0.000000 3.541670 
# 
# 
# High freq. dielectric constant tensor:
#      x y z
#    x 1.743460 0.000000 -0.000710 
#    y 0.000000 1.744670 0.000000 
#    z -0.000710 0.000000 1.754190 
# 
# From -- ./inp_files/48752.got.cif
#   From: 2010.06.25/outbox.cif.g09.slc.cpg/sg15_25_cif.got.tgz:48752.got - 2010.06.28 07:06:18.
