data_PCOD8134344
_publ_section_title
;
Structure prediction by ZEFSAII (Michael W. Deem and Ramdas Pophale) SiO2 
 PCOD8134344
Probable space group: C 2/C
;
_chemical_formula_sum "Si O2"
_cell_formula_units_Z 48
_cell_length_a 13.564002
_cell_length_b 22.092511
_cell_length_c 21.420056
_cell_angle_alpha 90.000000
_cell_angle_beta 22.794839
_cell_angle_gamma 90.000000
_cell_volume 2486.850216
_symmetry_space_group_name_H-M "C 2/C"
_symmetry_group_IT_number 15
_symmetry_cell_setting 'monoclinic'
loop_
_space_group_symop_operation_xyz
x,y,z
-x,y,1/2-z
-x,-y,-z
x,-y,1/2+z
1/2+x,1/2+y,z
1/2-x,1/2+y,1/2-z
1/2-x,1/2-y,-z
1/2+x,1/2-y,1/2+z
loop_
_atom_site_type_symbol
_atom_site_label
_atom_site_fract_x
_atom_site_fract_y
_atom_site_fract_z
Si Si1 0.379661 0.611428 0.382762
Si Si2 0.156637 0.166287 0.334789
Si Si3 0.888991 0.393021 0.882759
Si Si4 0.880860 0.126091 0.617958
Si Si5 0.527719 0.213967 0.594770
Si Si6 0.515423 0.028443 0.667125
O O1 0.500000 0.582564 0.250000
O O2 0.577791 0.646588 0.311260
O O3 0.263007 0.559903 0.494136
O O4 0.167598 0.658160 0.479069
O O5 0.460205 0.155016 0.162468
O O6 0.107384 0.238375 0.372687
O O7 0.005589 0.129407 0.476428
O O8 0.956345 0.459228 0.871037
O O9 0.000000 0.388591 0.750000
O O10 0.590587 0.375513 0.051420
O O11 0.688667 0.183239 0.734919
O O12 0.738112 0.061659 0.709895
O O13 0.750000 0.250000 0.500000
O O14 0.500000 0.034931 0.750000
#
# Coordination Sequence:
#
# PCOD8134344 Si02
#       6
#     8   8   8   8   8   8
#     4  10  21  35  56  85 112 146 188 236 284 337
#     4  10  20  35  56  82 116 147 184 236 290 329
#     4   9  21  34  58  87 111 148 188 234 286 336
#     4  10  20  36  57  88 112 142 196 236 279 339
#     4   9  21  33  57  80 108 147 188 233 284 327
#     4  10  19  35  61  85 112 148 188 241 281 324
#
# _framework density 19.301524000000001
#
# number of rings (size 3 to 8) (size 9 to 14) (size 15 to 20)
#    0.000    2.333    1.667    0.000    7.000    2.667 
#    0.000    0.833    0.000    0.000    0.000    0.000 
#    0.000    0.000    0.000    0.000    0.000    0.000 
#
# Total GULP energy -297313.168146 kJ/mol
# GULP energy per Si atom -12388.048673 kJ/mol
# Density = 1.925759 g / cm^3
# Si number density = 19.301524 Si / 1000 Ang^3
#
#
#
# Elastic Constant Matrix: (Units=GPa)
#
#
# Indices 1 2 3 4 5 6 
#
# 1 63.7577 41.6751 43.2500 -0.2018 -13.1044 -0.0324
# 2 41.6751 99.9599 37.2215 -0.8916 -19.7738 0.1767
# 3 43.2500 37.2215 97.2456 -1.5937 -15.2500 0.1650
# 4 -0.2018 -0.8916 -1.5937 22.8404 0.1354 -4.0921
# 5 -13.1044 -19.7738 -15.2500 0.1354 41.4681 -0.0433
# 6 -0.0324 0.1767 0.1650 -4.0921 -0.0433 26.4431
#
#
#
# Elastic Compliance Matrix: (Units=1/GPa)
#
#
# Indices 1 2 3 4 5 6 
#
# 1 0.027020 -0.007655 -0.008842 -0.000680 0.001639 0.000037
# 2 -0.007655 0.014554 -0.001540 0.000363 0.003953 -0.000034
# 3 -0.008842 -0.001540 0.015139 0.000915 0.002036 0.000050
# 4 -0.000680 0.000363 0.000915 0.045102 0.000155 0.006971
# 5 0.001639 0.003953 0.002036 0.000155 0.027266 0.000031
# 6 0.000037 -0.000034 0.000050 0.006971 0.000031 0.038896
#
#
# Mechanical properties :
#
#
# Convention : Reuss Voigt Hill
#
# Bulk Modulus (GPa) = 48.44790 56.13958 52.29374
# Shear Modulus (GPa) = 23.70430 27.40474 25.55452
#
# Velocity S-wave (km/s) = 3.50823 3.77214 3.64258
# Velocity P-wave (km/s) = 6.44712 6.93691 6.69650
#
# Compressibility (1/GPa) = 0.02064073
#
# Stress axis : x y z
#
# Youngs Moduli (GPa) = 37.00901 68.70777 66.05340
#
# Poissons Ratio (x) = 0.52595 0.58401
# Poissons Ratio (y) = 0.28330 0.10174
# Poissons Ratio (z) = 0.32722 0.10583
#
# Static dielectric constant tensor:
#      x y z
#    x 3.382070 0.000360 -0.435280 
#    y 0.000360 3.841450 0.001530 
#    z -0.435280 0.001530 3.747090 
# 
# 
# High freq. dielectric constant tensor:
#      x y z
#    x 1.716030 -0.000020 -0.020610 
#    y -0.000020 1.751490 0.000150 
#    z -0.020610 0.000150 1.747720 
# 
# From -- ./inp_files/90970.got.cif
#   From: 2010.06.25/outbox.cif.g09.slc.cpg/sg15_46_cif.got.tgz:90970.got - 2010.06.28 07:06:18.
