data_PCOD8134449
_publ_section_title
;
Structure prediction by ZEFSAII (Michael W. Deem and Ramdas Pophale) SiO2 
 PCOD8134449
Probable space group: C 2/C
;
_chemical_formula_sum "Si O2"
_cell_formula_units_Z 48
_cell_length_a 9.608108
_cell_length_b 17.084636
_cell_length_c 14.886393
_cell_angle_alpha 90.000000
_cell_angle_beta 68.939655
_cell_angle_gamma 90.000000
_cell_volume 2280.389148
_symmetry_space_group_name_H-M "C 2/C"
_symmetry_group_IT_number 15
_symmetry_cell_setting 'monoclinic'
loop_
_space_group_symop_operation_xyz
x,y,z
-x,y,1/2-z
-x,-y,-z
x,-y,1/2+z
1/2+x,1/2+y,z
1/2-x,1/2+y,1/2-z
1/2-x,1/2-y,-z
1/2+x,1/2-y,1/2+z
loop_
_atom_site_type_symbol
_atom_site_label
_atom_site_fract_x
_atom_site_fract_y
_atom_site_fract_z
Si Si1 0.326982 0.403907 0.567886
Si Si2 0.168999 0.118469 0.238004
Si Si3 0.824531 0.939730 0.272505
Si Si4 0.909768 0.417990 0.023165
Si Si5 0.372396 0.417197 0.072216
Si Si6 0.803288 0.669771 0.031102
O O1 0.307710 0.353309 0.664031
O O2 0.169378 0.405896 0.554488
O O3 0.466509 0.373212 0.475079
O O4 0.388160 0.489597 0.580975
O O5 0.262983 0.169759 0.145822
O O6 0.000000 0.128213 0.250000
O O7 0.225469 0.029864 0.218113
O O8 0.718588 0.905380 0.373414
O O9 0.795038 0.892939 0.185118
O O10 0.000000 0.931336 0.250000
O O11 0.000000 0.500000 0.000000
O O12 0.020406 0.345392 0.015648
O O13 0.274292 0.400105 0.006953
O O14 0.750000 0.750000 0.000000
#
# Coordination Sequence:
#
# PCOD8134449 Si02
#       6
#     8   8   8   8   8   8
#     4  10  19  35  70  96 125 165 232 293 330 393
#     4  10  19  37  67  94 124 176 223 275 344 415
#     4  10  19  35  67  98 128 162 220 289 347 389
#     4  12  22  40  64 102 137 169 231 298 338 399
#     4  10  19  37  63  96 126 171 220 280 344 393
#     4  12  26  44  61  92 143 185 222 274 357 431
#
# _framework density 21.049039
#
# number of rings (size 3 to 8) (size 9 to 14) (size 15 to 20)
#    0.000    1.333    6.667    0.000    0.000    1.333 
#    3.000    0.833    3.667    0.000    0.000    0.000 
#    0.000    0.000    0.000    0.000    0.000    0.000 
#
# Total GULP energy -297386.360317 kJ/mol
# GULP energy per Si atom -12391.098347 kJ/mol
# Density = 2.100113 g / cm^3
# Si number density = 21.049039 Si / 1000 Ang^3
#
#
#
# Elastic Constant Matrix: (Units=GPa)
#
#
# Indices 1 2 3 4 5 6 
#
# 1 136.6403 24.5344 64.4393 0.0000 3.9800 0.0000
# 2 24.5344 45.0636 39.9327 0.0000 -5.6030 0.0000
# 3 64.4393 39.9327 196.7327 0.0000 2.1965 0.0000
# 4 0.0000 0.0000 0.0000 18.3365 0.0000 5.0187
# 5 3.9800 -5.6030 2.1965 0.0000 40.3033 0.0000
# 6 0.0000 0.0000 0.0000 5.0187 0.0000 24.4397
#
#
#
# Elastic Compliance Matrix: (Units=1/GPa)
#
#
# Indices 1 2 3 4 5 6 
#
# 1 0.008984 -0.002977 -0.002325 0.000000 -0.001174 0.000000
# 2 -0.002977 0.028726 -0.004907 0.000000 0.004555 0.000000
# 3 -0.002325 -0.004907 0.006850 0.000000 -0.000826 0.000000
# 4 0.000000 0.000000 0.000000 0.057784 0.000000 -0.011866
# 5 -0.001174 0.004555 -0.000826 0.000000 0.025606 0.000000
# 6 0.000000 0.000000 0.000000 -0.011866 0.000000 0.043354
#
#
# Mechanical properties :
#
#
# Convention : Reuss Voigt Hill
#
# Bulk Modulus (GPa) = 41.42103 70.69439 56.05771
# Shear Modulus (GPa) = 25.02913 33.25123 29.14018
#
# Velocity S-wave (km/s) = 3.45205 3.97886 3.72478
# Velocity P-wave (km/s) = 5.96741 7.40047 6.72223
#
# Compressibility (1/GPa) = 0.02414233
#
# Stress axis : x y z
#
# Youngs Moduli (GPa) = 111.31194 34.81201 145.98848
#
# Poissons Ratio (x) = 0.10362 0.33947
# Poissons Ratio (y) = 0.33133 0.71631
# Poissons Ratio (z) = 0.25884 0.17081
#
# Static dielectric constant tensor:
#      x y z
#    x 3.752230 0.000000 0.028690 
#    y 0.000000 3.227450 0.000000 
#    z 0.028690 0.000000 4.358070 
# 
# 
# High freq. dielectric constant tensor:
#      x y z
#    x 1.824690 0.000000 0.003180 
#    y 0.000000 1.758660 0.000000 
#    z 0.003180 0.000000 1.849850 
# 
# From -- ./inp_files/135902.got.cif
#   From: 2010.06.25/outbox.cif.g09.slc.cpg/sg15_68_cif.got.tgz:135902.got - 2010.06.28 07:06:18.
