data_PCOD8134439
_publ_section_title
;
Structure prediction by ZEFSAII (Michael W. Deem and Ramdas Pophale) SiO2 
 PCOD8134439
Probable space group: C 2/C
;
_chemical_formula_sum "Si O2"
_cell_formula_units_Z 60
_cell_length_a 11.970771
_cell_length_b 24.545811
_cell_length_c 20.496360
_cell_angle_alpha 90.000000
_cell_angle_beta 150.626229
_cell_angle_gamma 90.000000
_cell_volume 2954.061809
_symmetry_space_group_name_H-M "C 2/C"
_symmetry_group_IT_number 15
_symmetry_cell_setting 'monoclinic'
loop_
_space_group_symop_operation_xyz
x,y,z
-x,y,1/2-z
-x,-y,-z
x,-y,1/2+z
1/2+x,1/2+y,z
1/2-x,1/2+y,1/2-z
1/2-x,1/2-y,-z
1/2+x,1/2-y,1/2+z
loop_
_atom_site_type_symbol
_atom_site_label
_atom_site_fract_x
_atom_site_fract_y
_atom_site_fract_z
Si Si1 0.149855 0.919725 0.919578
Si Si2 0.750731 0.735531 0.903580
Si Si3 0.380934 0.090979 0.332594
Si Si4 0.641677 0.414795 0.210956
Si Si5 0.239659 0.661038 0.466859
Si Si6 0.006266 0.518785 0.678584
Si Si7 0.505614 0.145662 0.974842
Si Si8 0.000000 0.003735 0.750000
O O1 0.268776 0.863774 0.954413
O O2 0.892182 0.906103 0.808295
O O3 0.278981 0.946462 0.046798
O O4 0.180657 0.962438 0.875340
O O5 0.500000 0.723945 0.750000
O O6 0.792642 0.800954 0.930819
O O7 0.758650 0.703779 0.974676
O O8 0.957174 0.709538 0.965285
O O9 0.488294 0.133456 0.334691
O O10 0.483785 0.108178 0.454981
O O11 0.470647 0.031363 0.359488
O O12 0.601271 0.461585 0.243376
O O13 0.776519 0.441833 0.219680
O O14 0.786466 0.369587 0.321034
O O15 0.416848 0.388272 0.066205
O O16 0.000000 0.498598 0.750000
#
# Coordination Sequence:
#
# PCOD8134439 Si02
#       8
#     8   8   8   8   8   8   8   4
#     4  11  21  37  60  94 126 161 210 261 309 370
#     4  10  19  38  61  89 116 152 199 271 317 375
#     4  11  21  38  58  93 125 165 204 262 302 364
#     4  11  20  36  62  91 124 165 206 258 310 377
#     4  10  22  36  59  92 119 154 211 252 321 360
#     4  11  25  40  56  83 136 186 208 230 297 393
#     4  10  19  35  65  91 120 152 204 271 332 346
#     4  12  18  34  60  96 126 152 206 262 314 348
#
# _framework density 20.311015999999999
#
# number of rings (size 3 to 8) (size 9 to 14) (size 15 to 20)
#    0.000    1.333    4.000    3.200    0.000    3.200 
#    2.400    0.000    0.000    5.600    0.000    0.000 
#    0.000    0.000    0.000    0.000    0.000    0.000 
#
# Total GULP energy -371675.672443 kJ/mol
# GULP energy per Si atom -12389.189081 kJ/mol
# Density = 2.026479 g / cm^3
# Si number density = 20.311016 Si / 1000 Ang^3
#
#
#
# Elastic Constant Matrix: (Units=GPa)
#
#
# Indices 1 2 3 4 5 6 
#
# 1 78.3900 54.4775 55.6903 0.0023 16.4947 0.1147
# 2 54.4775 115.6851 56.1927 -0.0161 20.6675 0.2693
# 3 55.6903 56.1927 87.2126 -0.0138 28.0902 -0.5118
# 4 0.0023 -0.0161 -0.0138 19.5089 0.0063 6.2968
# 5 16.4947 20.6675 28.0902 0.0063 28.7547 0.1862
# 6 0.1147 0.2693 -0.5118 6.2968 0.1862 -149.4577
#
#
#
# Elastic Compliance Matrix: (Units=1/GPa)
#
#
# Indices 1 2 3 4 5 6 
#
# 1 0.026133 -0.006202 -0.013567 -0.000037 0.002720 0.000057
# 2 -0.006202 0.014107 -0.004390 -0.000001 -0.002293 0.000033
# 3 -0.013567 -0.004390 0.028356 0.000067 -0.016762 -0.000134
# 4 -0.000037 -0.000001 0.000067 0.050571 -0.000068 0.002130
# 5 0.002720 -0.002293 -0.016762 -0.000068 0.051239 0.000116
# 6 0.000057 0.000033 -0.000134 0.002130 0.000116 -0.006600
#
#
# Mechanical properties :
#
#
# Convention : Reuss Voigt Hill
#
# Bulk Modulus (GPa) = 49.31567 68.22316 58.76942
# Shear Modulus (GPa) = 22.84321 -12.57699 5.13311
#
# Velocity S-wave (km/s) = 3.35725 -2.49111 1.59146
# Velocity P-wave (km/s) = 6.27385 5.03865 5.68986
#
# Compressibility (1/GPa) = 0.02027753
#
# Stress axis : x y z
#
# Youngs Moduli (GPa) = 38.26587 70.88708 35.26572
#
# Poissons Ratio (x) = 0.43968 0.47844
# Poissons Ratio (y) = 0.23734 0.15481
# Poissons Ratio (z) = 0.51915 0.31119
#
# Static dielectric constant tensor:
#      x y z
#    x 3.580950 -0.000030 0.131680 
#    y -0.000030 4.037400 -0.000100 
#    z 0.131680 -0.000100 3.743160 
# 
# 
# High freq. dielectric constant tensor:
#      x y z
#    x 1.771420 0.000000 0.004910 
#    y 0.000000 1.786930 -0.000010 
#    z 0.004910 -0.000010 1.794460 
# 
# From -- ./inp_files/92082.got.cif
#   From: 2010.06.25/outbox.cif.g09.slc.cpg/sg15_47_cif.got.tgz:92082.got - 2010.06.28 07:06:18.
