data_PCOD8134063
_publ_section_title
;
Structure prediction by ZEFSAII (Michael W. Deem and Ramdas Pophale) SiO2 
 PCOD8134063
Probable space group: C 2/C
;
_chemical_formula_sum "Si O2"
_cell_formula_units_Z 56
_cell_length_a 8.583882
_cell_length_b 23.404275
_cell_length_c 17.333755
_cell_angle_alpha 90.000000
_cell_angle_beta 53.297790
_cell_angle_gamma 90.000000
_cell_volume 2791.977782
_symmetry_space_group_name_H-M "C 2/C"
_symmetry_group_IT_number 15
_symmetry_cell_setting 'monoclinic'
loop_
_space_group_symop_operation_xyz
x,y,z
-x,y,1/2-z
-x,-y,-z
x,-y,1/2+z
1/2+x,1/2+y,z
1/2-x,1/2+y,1/2-z
1/2-x,1/2-y,-z
1/2+x,1/2-y,1/2+z
loop_
_atom_site_type_symbol
_atom_site_label
_atom_site_fract_x
_atom_site_fract_y
_atom_site_fract_z
Si Si1 0.875775 0.361493 0.862851
Si Si2 0.481880 0.715729 0.001123
Si Si3 0.202971 0.881303 0.503661
Si Si4 0.488750 0.662171 0.838542
Si Si5 0.552180 0.847599 0.493834
Si Si6 0.107663 0.036954 0.404194
Si Si7 0.228639 0.574359 0.683864
O O1 0.730095 0.308512 0.916746
O O2 0.769286 0.422368 0.894341
O O3 0.000000 0.351283 0.750000
O O4 0.010972 0.360316 0.899221
O O5 0.634447 0.684504 0.013328
O O6 0.529787 0.707023 0.895483
O O7 0.481600 0.782105 0.019819
O O8 0.411785 0.885455 0.481720
O O9 0.195216 0.908555 0.422068
O O10 0.044916 0.921115 0.596036
O O11 0.500000 0.691266 0.750000
O O12 0.656129 0.613379 0.788796
O O13 0.275639 0.634159 0.914295
O O14 0.217311 0.992148 0.314920
O O15 0.000000 0.000000 0.500000
O O16 0.000000 0.585578 0.750000
#
# Coordination Sequence:
#
# PCOD8134063 Si02
#       7
#     8   8   8   8   8   8   8
#     4  10  20  35  54  78 107 143 183 224 270 323
#     4   9  20  35  54  77 109 147 179 216 270 324
#     4   9  19  35  54  77 107 139 177 222 265 314
#     4  10  20  34  54  83 109 135 180 227 264 318
#     4  11  20  34  55  80 108 143 181 223 267 317
#     4   9  18  36  56  74 104 143 178 218 274 329
#     4  10  19  35  55  77 104 138 173 216 272 323
#
# _framework density 20.057466999999999
#
# number of rings (size 3 to 8) (size 9 to 14) (size 15 to 20)
#    0.000    2.286    0.000    6.000    0.000    2.286 
#    0.000   12.143    0.000    5.143    0.000    0.000 
#    0.000    0.000    0.000    0.000    0.000    0.000 
#
# Total GULP energy -346959.470638 kJ/mol
# GULP energy per Si atom -12391.409666 kJ/mol
# Density = 2.001181 g / cm^3
# Si number density = 20.057467 Si / 1000 Ang^3
#
#
#
# Elastic Constant Matrix: (Units=GPa)
#
#
# Indices 1 2 3 4 5 6 
#
# 1 102.4736 19.5393 15.5882 0.0000 -16.8055 0.0000
# 2 19.5393 93.0312 13.1952 0.0000 -14.8071 0.0000
# 3 15.5882 13.1952 80.0539 0.0000 0.1959 0.0000
# 4 0.0000 0.0000 0.0000 14.0508 0.0000 -3.4735
# 5 -16.8055 -14.8071 0.1959 0.0000 28.9506 0.0000
# 6 0.0000 0.0000 0.0000 -3.4735 0.0000 10.6669
#
#
#
# Elastic Compliance Matrix: (Units=1/GPa)
#
#
# Indices 1 2 3 4 5 6 
#
# 1 0.011261 -0.001128 -0.002021 0.000000 0.005974 0.000000
# 2 -0.001128 0.012125 -0.001793 0.000000 0.005559 0.000000
# 3 -0.002021 -0.001793 0.013186 0.000000 -0.002179 0.000000
# 4 0.000000 0.000000 0.000000 0.077401 0.000000 0.025204
# 5 0.005974 0.005559 -0.002179 0.000000 0.040867 0.000000
# 6 0.000000 0.000000 0.000000 0.025204 0.000000 0.101956
#
#
# Mechanical properties :
#
#
# Convention : Reuss Voigt Hill
#
# Bulk Modulus (GPa) = 37.46936 41.35601 39.41269
# Shear Modulus (GPa) = 18.14388 25.88271 22.01329
#
# Velocity S-wave (km/s) = 3.01091 3.59615 3.31646
# Velocity P-wave (km/s) = 5.55059 6.15683 5.86155
#
# Compressibility (1/GPa) = 0.02668847
#
# Stress axis : x y z
#
# Youngs Moduli (GPa) = 88.80359 82.47461 75.83792
#
# Poissons Ratio (x) = 0.09300 0.15330
# Poissons Ratio (y) = 0.10013 0.13595
# Poissons Ratio (z) = 0.17951 0.14784
#
# Static dielectric constant tensor:
#      x y z
#    x 3.967210 0.000000 -0.324380 
#    y 0.000000 3.795170 0.000000 
#    z -0.324380 0.000000 3.784170 
# 
# 
# High freq. dielectric constant tensor:
#      x y z
#    x 1.776210 0.000000 -0.013960 
#    y 0.000000 1.780380 0.000000 
#    z -0.013960 0.000000 1.763420 
# 
# From -- ./inp_files/193223.got.cif
#   From: 2010.06.25/outbox.cif.g09.slc.cpg/sg15_97_cif.got.tgz:193223.got - 2010.06.28 07:06:18.
