data_PCOD8134819
_publ_section_title
;
Structure prediction by ZEFSAII (Michael W. Deem and Ramdas Pophale) SiO2 
 PCOD8134819
Probable space group: C 2/C
;
_chemical_formula_sum "Si O2"
_cell_formula_units_Z 60
_cell_length_a 10.934200
_cell_length_b 23.240158
_cell_length_c 17.312454
_cell_angle_alpha 90.000000
_cell_angle_beta 39.815392
_cell_angle_gamma 90.000000
_cell_volume 2816.949899
_symmetry_space_group_name_H-M "C 2/C"
_symmetry_group_IT_number 15
_symmetry_cell_setting 'monoclinic'
loop_
_space_group_symop_operation_xyz
x,y,z
-x,y,1/2-z
-x,-y,-z
x,-y,1/2+z
1/2+x,1/2+y,z
1/2-x,1/2+y,1/2-z
1/2-x,1/2-y,-z
1/2+x,1/2-y,1/2+z
loop_
_atom_site_type_symbol
_atom_site_label
_atom_site_fract_x
_atom_site_fract_y
_atom_site_fract_z
Si Si1 0.295089 0.515361 0.374566
Si Si2 0.873386 0.329937 0.944896
Si Si3 0.516012 0.950842 0.882379
Si Si4 0.465279 0.289640 0.119564
Si Si5 0.899935 0.780815 0.981095
Si Si6 0.000000 0.535426 0.750000
Si Si7 0.371877 0.824159 0.127448
Si Si8 0.774570 0.607358 0.970242
O O1 0.500000 0.489621 0.250000
O O2 0.200803 0.545750 0.346294
O O3 0.324870 0.564308 0.423291
O O4 0.167017 0.465479 0.474775
O O5 0.990122 0.272732 0.863644
O O6 0.980702 0.387490 0.862785
O O7 0.662739 0.324381 0.009911
O O8 0.861747 0.337112 0.042587
O O9 0.559171 0.996023 0.793462
O O10 0.350213 0.277949 0.096105
O O11 0.337079 0.331797 0.234579
O O12 0.897701 0.847603 0.959278
O O13 0.750000 0.750000 0.000000
O O14 0.092834 0.744555 0.874782
O O15 0.827013 0.576148 0.863720
O O16 0.530465 0.864887 0.089877
#
# Coordination Sequence:
#
# PCOD8134819 Si02
#       8
#     8   8   8   8   8   4   8   8
#     4  10  22  41  66  89 118 162 212 261 312 379
#     4  10  21  40  58  87 127 159 208 255 306 380
#     4  10  22  45  62  91 124 158 216 262 316 378
#     4  10  21  36  59  90 122 164 205 248 312 379
#     4   9  20  36  55  90 126 155 203 250 305 372
#     4  10  22  40  66  84 122 168 200 268 322 356
#     4  10  19  36  63  90 121 163 201 251 314 374
#     4  10  19  39  62  89 124 157 204 258 315 376
#
# _framework density 21.299633
#
# number of rings (size 3 to 8) (size 9 to 14) (size 15 to 20)
#    0.000    2.133    1.333    1.200    0.000    3.733 
#   12.000    1.333    0.000    0.000    0.000    0.000 
#    0.000    0.000    0.000    0.000    0.000    0.000 
#
# Total GULP energy -371741.157097 kJ/mol
# GULP energy per Si atom -12391.371903 kJ/mol
# Density = 2.125115 g / cm^3
# Si number density = 21.299633 Si / 1000 Ang^3
#
#
#
# Elastic Constant Matrix: (Units=GPa)
#
#
# Indices 1 2 3 4 5 6 
#
# 1 69.3834 16.4009 26.4523 -0.0034 2.3237 0.0005
# 2 16.4009 77.2182 -5.2905 -0.0018 -1.3526 0.0019
# 3 26.4523 -5.2905 69.3224 -0.0148 1.1478 0.0043
# 4 -0.0034 -0.0018 -0.0148 21.5673 0.0071 -1.5937
# 5 2.3237 -1.3526 1.1478 0.0071 27.4879 -0.0011
# 6 0.0005 0.0019 0.0043 -1.5937 -0.0011 22.2960
#
#
#
# Elastic Compliance Matrix: (Units=1/GPa)
#
#
# Indices 1 2 3 4 5 6 
#
# 1 0.018282 -0.004408 -0.007288 -0.000002 -0.001458 0.000001
# 2 -0.004408 0.014091 0.002742 0.000002 0.000952 -0.000001
# 3 -0.007288 0.002742 0.017415 0.000011 0.000024 -0.000003
# 4 -0.000002 0.000002 0.000011 0.046613 -0.000012 0.003332
# 5 -0.001458 0.000952 0.000024 -0.000012 0.036549 0.000001
# 6 0.000001 -0.000001 -0.000003 0.003332 0.000001 0.045089
#
#
# Mechanical properties :
#
#
# Convention : Reuss Voigt Hill
#
# Bulk Modulus (GPa) = 31.36857 32.33882 31.85370
# Shear Modulus (GPa) = 24.20427 26.16100 25.18264
#
# Velocity S-wave (km/s) = 3.37467 3.50842 3.44219
# Velocity P-wave (km/s) = 5.47209 5.62386 5.54849
#
# Compressibility (1/GPa) = 0.03187904
#
# Stress axis : x y z
#
# Youngs Moduli (GPa) = 54.69818 70.96696 57.42066
#
# Poissons Ratio (x) = 0.31282 0.41851
# Poissons Ratio (y) = 0.24111 -0.15743
# Poissons Ratio (z) = 0.39866 -0.19457
#
# Static dielectric constant tensor:
#      x y z
#    x 3.925130 0.000000 0.085020 
#    y 0.000000 4.201960 0.000000 
#    z 0.085020 0.000000 3.655210 
# 
# 
# High freq. dielectric constant tensor:
#      x y z
#    x 1.835550 0.000000 0.010870 
#    y 0.000000 1.841110 0.000000 
#    z 0.010870 0.000000 1.811700 
# 
# From -- ./inp_files/90881.got.cif
#   From: 2010.06.25/outbox.cif.g09.slc.cpg/sg15_46_cif.got.tgz:90881.got - 2010.06.28 07:06:18.
