data_PCOD8134024
_publ_section_title
;
Structure prediction by ZEFSAII (Michael W. Deem and Ramdas Pophale) SiO2 
 PCOD8134024
Probable space group: C 2/C
;
_chemical_formula_sum "Si O2"
_cell_formula_units_Z 60
_cell_length_a 11.787948
_cell_length_b 8.505344
_cell_length_c 32.709213
_cell_angle_alpha 90.000000
_cell_angle_beta 68.449786
_cell_angle_gamma 90.000000
_cell_volume 3050.197569
_symmetry_space_group_name_H-M "C 2/C"
_symmetry_group_IT_number 15
_symmetry_cell_setting 'monoclinic'
loop_
_space_group_symop_operation_xyz
x,y,z
-x,y,1/2-z
-x,-y,-z
x,-y,1/2+z
1/2+x,1/2+y,z
1/2-x,1/2+y,1/2-z
1/2-x,1/2-y,-z
1/2+x,1/2-y,1/2+z
loop_
_atom_site_type_symbol
_atom_site_label
_atom_site_fract_x
_atom_site_fract_y
_atom_site_fract_z
Si Si1 0.347827 0.870376 0.548540
Si Si2 0.500000 0.301862 0.750000
Si Si3 0.278191 0.477554 0.363872
Si Si4 0.269877 0.459460 0.086973
Si Si5 0.914180 0.215914 0.109163
Si Si6 0.230885 0.303413 0.176116
Si Si7 0.950413 0.999075 0.679997
Si Si8 0.918865 0.464160 0.452145
O O1 0.244185 0.968173 0.586311
O O2 0.330222 0.684871 0.554836
O O3 0.340907 0.921714 0.502507
O O4 0.479082 0.908059 0.551056
O O5 0.395633 0.188272 0.782219
O O6 0.434032 0.413426 0.725500
O O7 0.194296 0.331691 0.363357
O O8 0.242653 0.622070 0.338599
O O9 0.416774 0.418804 0.339320
O O10 0.371113 0.590821 0.081119
O O11 0.212312 0.405807 0.137733
O O12 0.167532 0.536900 0.071385
O O13 0.956747 0.134369 0.144802
O O14 0.026530 0.303893 0.073467
O O15 0.343476 0.373404 0.187552
#
# Coordination Sequence:
#
# PCOD8134024 Si02
#       8
#     8   4   8   8   8   8   8   8
#     4   9  19  34  53  78 109 146 183 224 271 309
#     4  10  20  36  58  82 108 132 166 218 268 316
#     4   9  19  37  55  75 107 144 178 216 264 314
#     4  10  20  35  54  79 106 141 183 218 264 320
#     4  10  21  34  55  81 104 142 185 217 262 319
#     4   9  20  38  58  79 106 139 171 213 267 318
#     4  10  21  38  57  80 108 137 174 216 263 320
#     4  10  19  35  53  76 112 145 181 228 268 308
#
# _framework density 19.670857000000002
#
# number of rings (size 3 to 8) (size 9 to 14) (size 15 to 20)
#    0.000    2.400    0.000    2.800    0.000    6.933 
#    0.000   12.667    0.000    1.600    0.000    0.000 
#    0.000    0.000    0.000    0.000    0.000    0.000 
#
# Total GULP energy -372019.602348 kJ/mol
# GULP energy per Si atom -12400.653412 kJ/mol
# Density = 1.962609 g / cm^3
# Si number density = 19.670857 Si / 1000 Ang^3
#
#
#
# Elastic Constant Matrix: (Units=GPa)
#
#
# Indices 1 2 3 4 5 6 
#
# 1 78.9326 11.7034 37.5980 0.0000 11.4135 0.0000
# 2 11.7034 36.7388 2.6596 0.0000 -2.0053 0.0000
# 3 37.5980 2.6596 90.5729 0.0000 -1.9451 0.0000
# 4 0.0000 0.0000 0.0000 18.0077 0.0000 0.4357
# 5 11.4135 -2.0053 -1.9451 0.0000 39.7238 0.0000
# 6 0.0000 0.0000 0.0000 0.4357 0.0000 23.2724
#
#
#
# Elastic Compliance Matrix: (Units=1/GPa)
#
#
# Indices 1 2 3 4 5 6 
#
# 1 0.017815 -0.005457 -0.007359 0.000000 -0.005755 0.000000
# 2 -0.005457 0.029020 0.001480 0.000000 0.003105 0.000000
# 3 -0.007359 0.001480 0.014114 0.000000 0.002880 0.000000
# 4 0.000000 0.000000 0.000000 0.055557 0.000000 -0.001040
# 5 -0.005755 0.003105 0.002880 0.000000 0.027125 0.000000
# 6 0.000000 0.000000 0.000000 -0.001040 0.000000 0.042989
#
#
# Mechanical properties :
#
#
# Convention : Reuss Voigt Hill
#
# Bulk Modulus (GPa) = 26.12484 34.46292 30.29388
# Shear Modulus (GPa) = 22.51740 26.48634 24.50187
#
# Velocity S-wave (km/s) = 3.38702 3.67342 3.53312
# Velocity P-wave (km/s) = 5.34843 5.96237 5.66372
#
# Compressibility (1/GPa) = 0.03827775
#
# Stress axis : x y z
#
# Youngs Moduli (GPa) = 56.13132 34.45923 70.85193
#
# Poissons Ratio (x) = 0.18803 0.52138
# Poissons Ratio (y) = 0.30629 -0.10484
# Poissons Ratio (z) = 0.41306 -0.05099
#
# Static dielectric constant tensor:
#      x y z
#    x 3.615250 0.000000 -0.000370 
#    y 0.000000 3.485990 0.000000 
#    z -0.000370 0.000000 3.702880 
# 
# 
# High freq. dielectric constant tensor:
#      x y z
#    x 1.769700 0.000000 0.001230 
#    y 0.000000 1.752480 0.000000 
#    z 0.001230 0.000000 1.770630 
# 
# From -- ./inp_files/309968.got.cif
#   From: 2010.06.25/outbox.cif.g09.slc.cpg/sg15_155_cif.got.tgz:309968.got - 2010.06.28 07:06:18.
