data_PCOD8134290
_publ_section_title
;
Structure prediction by ZEFSAII (Michael W. Deem and Ramdas Pophale) SiO2 
 PCOD8134290
Probable space group: C 2/C
;
_chemical_formula_sum "Si O2"
_cell_formula_units_Z 48
_cell_length_a 17.559999
_cell_length_b 8.191894
_cell_length_c 18.334084
_cell_angle_alpha 90.000000
_cell_angle_beta 47.007331
_cell_angle_gamma 90.000000
_cell_volume 1929.066961
_symmetry_space_group_name_H-M "C 2/C"
_symmetry_group_IT_number 15
_symmetry_cell_setting 'monoclinic'
loop_
_space_group_symop_operation_xyz
x,y,z
-x,y,1/2-z
-x,-y,-z
x,-y,1/2+z
1/2+x,1/2+y,z
1/2-x,1/2+y,1/2-z
1/2-x,1/2-y,-z
1/2+x,1/2-y,1/2+z
loop_
_atom_site_type_symbol
_atom_site_label
_atom_site_fract_x
_atom_site_fract_y
_atom_site_fract_z
Si Si1 0.575848 0.313139 0.857490
Si Si2 0.974834 0.510222 0.433486
Si Si3 0.097844 0.630849 0.229785
Si Si4 0.186042 0.758516 0.938895
Si Si5 0.683197 0.776787 0.147598
Si Si6 0.127815 0.924863 0.546423
O O1 0.622277 0.312806 0.907989
O O2 0.669414 0.300423 0.737760
O O3 0.493283 0.458700 0.899206
O O4 0.489221 0.171510 0.893643
O O5 0.063058 0.620856 0.336871
O O6 0.000000 0.500000 0.500000
O O7 0.858765 0.587296 0.500143
O O8 0.193187 0.758417 0.161899
O O9 0.126368 0.452514 0.178274
O O10 0.000000 0.702787 0.250000
O O11 0.175975 0.893033 0.009225
O O12 0.635101 0.645191 0.123322
O O13 0.805923 0.805883 0.051703
#
# Coordination Sequence:
#
# PCOD8134290 Si02
#       6
#     8   8   8   8   8   8
#     4  10  19  36  60  86 121 163 205 245 301 376
#     4   9  20  39  61  85 119 164 201 239 306 375
#     4  10  20  38  61  85 119 163 210 252 297 365
#     4  10  22  37  57  90 122 153 202 262 311 355
#     4   9  19  35  61  88 116 163 208 244 301 369
#     4  10  19  35  59  89 119 152 202 260 306 350
#
# _framework density 24.882496
#
# number of rings (size 3 to 8) (size 9 to 14) (size 15 to 20)
#    0.000    2.333    0.000    3.000    0.000    3.333 
#    0.000    6.667    0.000    0.000    0.000    0.000 
#    0.000    0.000    0.000    0.000    0.000    0.000 
#
# Total GULP energy -297365.004142 kJ/mol
# GULP energy per Si atom -12390.208506 kJ/mol
# Density = 2.482586 g / cm^3
# Si number density = 24.882496 Si / 1000 Ang^3
#
#
#
# Elastic Constant Matrix: (Units=GPa)
#
#
# Indices 1 2 3 4 5 6 
#
# 1 85.7330 15.9580 36.4164 0.0000 -13.1043 0.0002
# 2 15.9580 45.8651 26.3340 0.0000 2.8981 0.0003
# 3 36.4164 26.3340 149.6270 0.0000 -2.5524 0.0001
# 4 0.0000 0.0000 0.0000 29.3253 0.0000 -5.6166
# 5 -13.1043 2.8981 -2.5524 0.0000 49.2819 0.0000
# 6 0.0002 0.0003 0.0001 -5.6166 0.0000 28.3037
#
#
#
# Elastic Compliance Matrix: (Units=1/GPa)
#
#
# Indices 1 2 3 4 5 6 
#
# 1 0.014071 -0.003568 -0.002732 0.000000 0.003810 0.000000
# 2 -0.003568 0.025293 -0.003628 0.000000 -0.002624 0.000000
# 3 -0.002732 -0.003628 0.007985 0.000000 -0.000099 0.000000
# 4 0.000000 0.000000 0.000000 0.035447 0.000000 0.007034
# 5 0.003810 -0.002624 -0.000099 0.000000 0.021454 0.000000
# 6 0.000000 0.000000 0.000000 0.007034 0.000000 0.036727
#
#
# Mechanical properties :
#
#
# Convention : Reuss Voigt Hill
#
# Bulk Modulus (GPa) = 36.37168 48.73798 42.55483
# Shear Modulus (GPa) = 29.41226 34.88330 32.14778
#
# Velocity S-wave (km/s) = 3.44182 3.74829 3.59832
# Velocity P-wave (km/s) = 5.51760 6.19376 5.86543
#
# Compressibility (1/GPa) = 0.02749392
#
# Stress axis : x y z
#
# Youngs Moduli (GPa) = 71.06862 39.53608 125.23608
#
# Poissons Ratio (x) = 0.14107 0.34210
# Poissons Ratio (y) = 0.25358 0.45435
# Poissons Ratio (z) = 0.19413 0.14343
#
# Static dielectric constant tensor:
#      x y z
#    x 3.535590 0.000000 0.021350 
#    y 0.000000 4.923410 0.000000 
#    z 0.021350 0.000000 5.041520 
# 
# 
# High freq. dielectric constant tensor:
#      x y z
#    x 1.971890 0.000000 -0.002080 
#    y 0.000000 1.964240 0.000000 
#    z -0.002080 0.000000 2.017190 
# 
# From -- ./inp_files/251785.got.cif
#   From: 2010.06.25/outbox.cif.g09.slc.cpg/sg15_126_cif.got.tgz:251785.got - 2010.06.28 07:06:18.
