data_PCOD8134197
_publ_section_title
;
Structure prediction by ZEFSAII (Michael W. Deem and Ramdas Pophale) SiO2 
 PCOD8134197
Probable space group: C 2/C
;
_chemical_formula_sum "Si O2"
_cell_formula_units_Z 56
_cell_length_a 5.031666
_cell_length_b 33.353975
_cell_length_c 17.814632
_cell_angle_alpha 90.000000
_cell_angle_beta 69.001617
_cell_angle_gamma 90.000000
_cell_volume 2791.211218
_symmetry_space_group_name_H-M "C 2/C"
_symmetry_group_IT_number 15
_symmetry_cell_setting 'monoclinic'
loop_
_space_group_symop_operation_xyz
x,y,z
-x,y,1/2-z
-x,-y,-z
x,-y,1/2+z
1/2+x,1/2+y,z
1/2-x,1/2+y,1/2-z
1/2-x,1/2-y,-z
1/2+x,1/2-y,1/2+z
loop_
_atom_site_type_symbol
_atom_site_label
_atom_site_fract_x
_atom_site_fract_y
_atom_site_fract_z
Si Si1 0.810160 0.145833 0.695316
Si Si2 0.103059 0.454780 0.992491
Si Si3 0.405346 0.276458 0.586753
Si Si4 0.785095 0.090985 0.333622
Si Si5 0.121573 0.774234 0.403149
Si Si6 0.048114 0.909302 0.044216
Si Si7 0.780375 0.136083 0.116775
O O1 0.500000 0.132066 0.750000
O O2 0.790178 0.188023 0.654957
O O3 0.000000 0.149601 0.750000
O O4 0.911492 0.110810 0.630157
O O5 0.353046 0.444293 0.026416
O O6 0.836538 0.428644 0.045045
O O7 0.204024 0.444816 0.897779
O O8 0.000000 0.500000 0.000000
O O9 0.628912 0.259427 0.625541
O O10 0.580191 0.287305 0.493736
O O11 0.240873 0.316321 0.630217
O O12 0.173484 0.242172 0.598653
O O13 0.501830 0.111912 0.328499
O O14 0.000000 0.072503 0.250000
O O15 0.952990 0.125989 0.358447
O O16 0.134382 0.874925 0.976656
#
# Coordination Sequence:
#
# PCOD8134197 Si02
#       7
#     8   8   8   8   8   8   8
#     4  12  24  40  59  84 125 166 202 254 303 344
#     4  10  21  39  66  91 118 153 194 242 288 356
#     4  10  19  35  58  81 108 148 205 256 289 346
#     4  10  21  36  57  87 120 151 186 237 304 353
#     4  10  21  35  55  82 112 151 204 250 299 344
#     4  10  21  39  61  88 116 153 205 236 287 364
#     4  10  19  36  60  83 113 152 198 243 284 356
#
# _framework density 20.062973
#
# number of rings (size 3 to 8) (size 9 to 14) (size 15 to 20)
#    0.000    1.714    1.429    3.429    0.000    0.000 
#    0.000    9.286    0.000    1.714    0.000    0.000 
#    0.000    0.000    0.000    0.000    0.000    0.000 
#
# Total GULP energy -347188.636740 kJ/mol
# GULP energy per Si atom -12399.594169 kJ/mol
# Density = 2.001731 g / cm^3
# Si number density = 20.062973 Si / 1000 Ang^3
#
#
#
# Elastic Constant Matrix: (Units=GPa)
#
#
# Indices 1 2 3 4 5 6 
#
# 1 100.0481 12.8399 32.1414 0.0000 -9.1676 0.0000
# 2 12.8399 90.7700 49.0343 0.0000 -3.6588 0.0000
# 3 32.1414 49.0343 112.1188 0.0000 -18.2550 0.0000
# 4 0.0000 0.0000 0.0000 26.1773 0.0000 -1.4803
# 5 -9.1676 -3.6588 -18.2550 0.0000 31.8794 0.0000
# 6 0.0000 0.0000 0.0000 -1.4803 0.0000 16.3001
#
#
#
# Elastic Compliance Matrix: (Units=1/GPa)
#
#
# Indices 1 2 3 4 5 6 
#
# 1 0.011075 0.000101 -0.002976 0.000000 0.001492 0.000000
# 2 0.000101 0.014562 -0.006750 0.000000 -0.002165 0.000000
# 3 -0.002976 -0.006750 0.013740 0.000000 0.006237 0.000000
# 4 0.000000 0.000000 0.000000 0.038398 0.000000 0.003487
# 5 0.001492 -0.002165 0.006237 0.000000 0.035120 0.000000
# 6 0.000000 0.000000 0.000000 0.003487 0.000000 0.061666
#
#
# Mechanical properties :
#
#
# Convention : Reuss Voigt Hill
#
# Bulk Modulus (GPa) = 49.68498 54.55202 52.11850
# Shear Modulus (GPa) = 24.93517 28.79945 26.86731
#
# Velocity S-wave (km/s) = 3.52923 3.79285 3.66341
# Velocity P-wave (km/s) = 6.43627 6.81398 6.62782
#
# Compressibility (1/GPa) = 0.02012681
#
# Stress axis : x y z
#
# Youngs Moduli (GPa) = 90.29283 68.67375 72.78077
#
# Poissons Ratio (x) = -0.00696 0.21662
# Poissons Ratio (y) = -0.00915 0.49126
# Poissons Ratio (z) = 0.26874 0.46354
#
# Static dielectric constant tensor:
#      x y z
#    x 3.875200 0.000000 0.005420 
#    y 0.000000 3.493940 0.000000 
#    z 0.005420 0.000000 3.773150 
# 
# 
# High freq. dielectric constant tensor:
#      x y z
#    x 1.803280 0.000000 -0.007810 
#    y 0.000000 1.766770 0.000000 
#    z -0.007810 0.000000 1.773690 
# 
# From -- ./inp_files/186666.got.cif
#   From: 2010.06.25/outbox.cif.g09.slc.cpg/sg15_94_cif.got.tgz:186666.got - 2010.06.28 07:06:18.
