data_PCOD8134662
_publ_section_title
;
Structure prediction by ZEFSAII (Michael W. Deem and Ramdas Pophale) SiO2 
 PCOD8134662
Probable space group: C 2/C
;
_chemical_formula_sum "Si O2"
_cell_formula_units_Z 52
_cell_length_a 15.815937
_cell_length_b 18.705206
_cell_length_c 16.162212
_cell_angle_alpha 90.000000
_cell_angle_beta 149.407238
_cell_angle_gamma 90.000000
_cell_volume 2433.428316
_symmetry_space_group_name_H-M "C 2/C"
_symmetry_group_IT_number 15
_symmetry_cell_setting 'monoclinic'
loop_
_space_group_symop_operation_xyz
x,y,z
-x,y,1/2-z
-x,-y,-z
x,-y,1/2+z
1/2+x,1/2+y,z
1/2-x,1/2+y,1/2-z
1/2-x,1/2-y,-z
1/2+x,1/2-y,1/2+z
loop_
_atom_site_type_symbol
_atom_site_label
_atom_site_fract_x
_atom_site_fract_y
_atom_site_fract_z
Si Si1 0.245257 0.867143 0.287592
Si Si2 0.939482 0.698530 0.514069
Si Si3 0.320932 0.786532 0.730570
Si Si4 0.657540 0.390204 0.835058
Si Si5 0.305204 0.549708 0.597297
Si Si6 0.000000 0.376229 0.750000
Si Si7 0.035105 0.150154 0.066688
O O1 0.414059 0.857560 0.378754
O O2 0.200694 0.797456 0.307304
O O3 0.255765 0.931041 0.361809
O O4 0.120272 0.886824 0.108029
O O5 0.850887 0.710909 0.352884
O O6 0.812926 0.664213 0.473859
O O7 0.997402 0.777720 0.589642
O O8 0.461026 0.823720 0.793764
O O9 0.147319 0.829747 0.579994
O O10 0.500000 0.356822 0.750000
O O11 0.704980 0.464472 0.918963
O O12 0.614250 0.403632 0.700871
O O13 0.500000 0.575055 0.750000
O O14 0.167920 0.579872 0.415333
#
# Coordination Sequence:
#
# PCOD8134662 Si02
#       7
#     8   8   8   8   8   4   8
#     4  10  19  36  59  94 120 163 205 251 307 371
#     4   9  18  39  61  89 119 153 207 261 308 368
#     4   9  19  34  60  91 126 160 206 253 300 360
#     4  10  23  43  59  85 125 161 205 266 315 374
#     4  11  25  41  58  91 136 169 210 254 302 372
#     4  12  22  40  64  92 130 182 206 244 302 374
#     4   9  19  38  63  87 122 154 200 270 316 354
#
# _framework density 21.369029000000001
#
# number of rings (size 3 to 8) (size 9 to 14) (size 15 to 20)
#    0.000    2.154    1.538    1.846    1.077    2.462 
#    5.538    0.000    0.000    0.000    0.000    0.000 
#    0.000    0.000    0.000    0.000    0.000    0.000 
#
# Total GULP energy -322104.489656 kJ/mol
# GULP energy per Si atom -12388.634218 kJ/mol
# Density = 2.132039 g / cm^3
# Si number density = 21.369029 Si / 1000 Ang^3
#
#
#
# Elastic Constant Matrix: (Units=GPa)
#
#
# Indices 1 2 3 4 5 6 
#
# 1 74.4927 28.0582 12.2992 0.0025 16.9013 -0.0003
# 2 28.0582 50.2735 11.6444 0.0000 9.1124 -0.0019
# 3 12.2992 11.6444 88.7758 0.0048 18.5327 -0.0022
# 4 0.0025 0.0000 0.0048 20.3139 0.0034 -3.2102
# 5 16.9013 9.1124 18.5327 0.0034 30.6752 -0.0009
# 6 -0.0003 -0.0019 -0.0022 -3.2102 -0.0009 18.9921
#
#
#
# Elastic Compliance Matrix: (Units=1/GPa)
#
#
# Indices 1 2 3 4 5 6 
#
# 1 0.018514 -0.008994 0.000213 -0.000001 -0.007658 -0.000001
# 2 -0.008994 0.025610 -0.001784 0.000002 -0.001574 0.000002
# 3 0.000213 -0.001784 0.013026 -0.000002 -0.007457 0.000001
# 4 -0.000001 0.000002 -0.000002 0.050578 -0.000004 0.008549
# 5 -0.007658 -0.001574 -0.007457 -0.000004 0.041792 0.000000
# 6 -0.000001 0.000002 0.000001 0.008549 0.000000 0.054099
#
#
# Mechanical properties :
#
#
# Convention : Reuss Voigt Hill
#
# Bulk Modulus (GPa) = 27.76350 35.28284 31.52317
# Shear Modulus (GPa) = 21.11889 24.76558 22.94224
#
# Velocity S-wave (km/s) = 3.14713 3.40802 3.28017
# Velocity P-wave (km/s) = 5.12118 5.65979 5.39721
#
# Compressibility (1/GPa) = 0.03601852
#
# Stress axis : x y z
#
# Youngs Moduli (GPa) = 54.01278 39.04778 76.77229
#
# Poissons Ratio (x) = 0.35121 -0.01638
# Poissons Ratio (y) = 0.48581 0.13700
# Poissons Ratio (z) = -0.01153 0.06968
#
# Static dielectric constant tensor:
#      x y z
#    x 3.764580 0.000000 0.471730 
#    y 0.000000 3.727770 0.000000 
#    z 0.471730 0.000000 4.187080 
# 
# 
# High freq. dielectric constant tensor:
#      x y z
#    x 1.823740 0.000000 0.021270 
#    y 0.000000 1.811870 0.000000 
#    z 0.021270 0.000000 1.848210 
# 
# From -- ./inp_files/40786.got.cif
#   From: 2010.06.25/outbox.cif.g09.slc.cpg/sg15_21_cif.got.tgz:40786.got - 2010.06.28 07:06:18.
