data_PCOD8134417
_publ_section_title
;
Structure prediction by ZEFSAII (Michael W. Deem and Ramdas Pophale) SiO2 
 PCOD8134417
Probable space group: C 2/C
;
_chemical_formula_sum "Si O2"
_cell_formula_units_Z 56
_cell_length_a 12.871952
_cell_length_b 15.819166
_cell_length_c 17.562066
_cell_angle_alpha 90.000000
_cell_angle_beta 127.056726
_cell_angle_gamma 90.000000
_cell_volume 2853.828512
_symmetry_space_group_name_H-M "C 2/C"
_symmetry_group_IT_number 15
_symmetry_cell_setting 'monoclinic'
loop_
_space_group_symop_operation_xyz
x,y,z
-x,y,1/2-z
-x,-y,-z
x,-y,1/2+z
1/2+x,1/2+y,z
1/2-x,1/2+y,1/2-z
1/2-x,1/2-y,-z
1/2+x,1/2-y,1/2+z
loop_
_atom_site_type_symbol
_atom_site_label
_atom_site_fract_x
_atom_site_fract_y
_atom_site_fract_z
Si Si1 0.801513 0.870673 0.993755
Si Si2 0.144070 0.234543 0.843921
Si Si3 0.255815 0.437912 0.489477
Si Si4 0.856739 0.144230 0.170080
Si Si5 0.555571 0.202970 0.890481
Si Si6 0.565487 0.325740 0.029325
Si Si7 0.731646 0.232343 0.760841
O O1 0.841803 0.849839 0.098737
O O2 0.924199 0.856371 0.993173
O O3 0.680902 0.813037 0.914141
O O4 0.745051 0.964763 0.963193
O O5 0.240312 0.230212 0.815568
O O6 0.000000 0.247416 0.750000
O O7 0.281026 0.428555 0.591427
O O8 0.122734 0.388324 0.412519
O O9 0.378997 0.398964 0.499905
O O10 0.859515 0.230719 0.121113
O O11 0.781396 0.170265 0.214564
O O12 0.000000 0.109082 0.250000
O O13 0.411508 0.190853 0.791893
O O14 0.552663 0.237862 0.976390
O O15 0.657230 0.316453 0.143711
#
# Coordination Sequence:
#
# PCOD8134417 Si02
#       7
#     8   8   8   8   8   8   8
#     4  11  25  42  62  86 124 164 210 255 303 371
#     4  11  24  44  64  79 114 172 218 247 296 374
#     4  11  21  38  60  95 129 155 191 265 326 356
#     4   9  18  33  60  92 121 153 197 248 309 372
#     4  10  19  35  63  93 124 159 196 244 314 376
#     4  11  19  38  65  90 125 162 197 248 309 377
#     4  11  19  36  66  89 113 162 212 247 295 375
#
# _framework density 19.622762000000002
#
# number of rings (size 3 to 8) (size 9 to 14) (size 15 to 20)
#    0.000    1.429    5.714    1.286    0.000    0.571 
#    2.571    0.714    0.000    0.000    0.000    0.000 
#    0.000    0.000    0.000    0.000    0.000    0.000 
#
# Total GULP energy -347171.421882 kJ/mol
# GULP energy per Si atom -12398.979353 kJ/mol
# Density = 1.957810 g / cm^3
# Si number density = 19.622762 Si / 1000 Ang^3
#
#
#
# Elastic Constant Matrix: (Units=GPa)
#
#
# Indices 1 2 3 4 5 6 
#
# 1 71.0398 22.0832 12.5236 0.0000 -11.2405 0.0000
# 2 22.0832 97.7467 26.1615 0.0000 6.1857 0.0000
# 3 12.5236 26.1615 98.4234 0.0000 8.4341 0.0000
# 4 0.0000 0.0000 0.0000 19.7562 0.0000 1.3889
# 5 -11.2405 6.1857 8.4341 0.0000 36.5097 0.0000
# 6 0.0000 0.0000 0.0000 1.3889 0.0000 21.9943
#
#
#
# Elastic Compliance Matrix: (Units=1/GPa)
#
#
# Indices 1 2 3 4 5 6 
#
# 1 0.016466 -0.003665 -0.001641 0.000000 0.006069 0.000000
# 2 -0.003665 0.011883 -0.002472 0.000000 -0.002571 0.000000
# 3 -0.001641 -0.002472 0.011256 0.000000 -0.002687 0.000000
# 4 0.000000 0.000000 0.000000 0.050843 0.000000 -0.003211
# 5 0.006069 -0.002571 -0.002687 0.000000 0.030315 0.000000
# 6 0.000000 0.000000 0.000000 -0.003211 0.000000 0.045669
#
#
# Mechanical properties :
#
#
# Convention : Reuss Voigt Hill
#
# Bulk Modulus (GPa) = 41.58183 43.19405 42.38794
# Shear Modulus (GPa) = 26.31538 29.41482 27.86510
#
# Velocity S-wave (km/s) = 3.66603 3.87591 3.77243
# Velocity P-wave (km/s) = 6.25750 6.48770 6.37364
#
# Compressibility (1/GPa) = 0.02404896
#
# Stress axis : x y z
#
# Youngs Moduli (GPa) = 60.73304 84.15551 88.83926
#
# Poissons Ratio (x) = 0.30841 0.14579
# Poissons Ratio (y) = 0.22257 0.21960
# Poissons Ratio (z) = 0.09967 0.20803
#
# Static dielectric constant tensor:
#      x y z
#    x 3.740850 0.000000 -0.166340 
#    y 0.000000 3.156290 0.000000 
#    z -0.166340 0.000000 3.836590 
# 
# 
# High freq. dielectric constant tensor:
#      x y z
#    x 1.765410 0.000000 -0.001200 
#    y 0.000000 1.715830 0.000000 
#    z -0.001200 0.000000 1.787240 
# 
# From -- ./inp_files/205477.got.cif
#   From: 2010.06.25/outbox.cif.g09.slc.cpg/sg15_103_cif.got.tgz:205477.got - 2010.06.28 07:06:18.
