data_PCOD8134500
_publ_section_title
;
Structure prediction by ZEFSAII (Michael W. Deem and Ramdas Pophale) SiO2 
 PCOD8134500
Probable space group: C 2/C
;
_chemical_formula_sum "Si O2"
_cell_formula_units_Z 60
_cell_length_a 22.302130
_cell_length_b 8.607032
_cell_length_c 18.540738
_cell_angle_alpha 90.000000
_cell_angle_beta 116.939697
_cell_angle_gamma 90.000000
_cell_volume 3172.782176
_symmetry_space_group_name_H-M "C 2/C"
_symmetry_group_IT_number 15
_symmetry_cell_setting 'monoclinic'
loop_
_space_group_symop_operation_xyz
x,y,z
-x,y,1/2-z
-x,-y,-z
x,-y,1/2+z
1/2+x,1/2+y,z
1/2-x,1/2+y,1/2-z
1/2-x,1/2-y,-z
1/2+x,1/2-y,1/2+z
loop_
_atom_site_type_symbol
_atom_site_label
_atom_site_fract_x
_atom_site_fract_y
_atom_site_fract_z
Si Si1 0.196328 0.687275 0.678342
Si Si2 0.744444 0.332922 0.920855
Si Si3 0.569902 0.309508 0.206973
Si Si4 0.818294 0.682318 0.321738
Si Si5 0.196651 0.335397 0.019380
Si Si6 0.066825 0.660069 0.353139
Si Si7 0.000000 0.380321 0.250000
Si Si8 0.113878 0.841001 0.756372
O O1 0.186040 0.503846 0.685682
O O2 0.272769 0.733842 0.736862
O O3 0.182624 0.743020 0.589034
O O4 0.146842 0.787468 0.700106
O O5 0.793528 0.256905 0.886974
O O6 0.769298 0.503766 0.945673
O O7 0.667832 0.335128 0.850797
O O8 0.750000 0.250000 0.000000
O O9 0.606878 0.242298 0.155767
O O10 0.595030 0.212062 0.290428
O O11 0.489991 0.283339 0.152185
O O12 0.583954 0.489191 0.228327
O O13 0.250000 0.250000 0.000000
O O14 0.125563 0.348819 0.942253
O O15 0.034904 0.488324 0.329584
O O16 0.053939 0.274569 0.240189
#
# Coordination Sequence:
#
# PCOD8134500 Si02
#       8
#     8   8   8   8   8   8   4   8
#     4  10  21  35  56  83 110 145 187 229 275 330
#     4  10  22  36  55  84 114 141 181 230 278 327
#     4  10  20  37  58  81 110 148 186 228 273 330
#     4  10  19  36  56  81 112 147 185 227 275 331
#     4  11  22  37  57  83 113 143 180 230 282 326
#     4  10  21  37  58  83 111 146 186 227 276 331
#     4  10  20  36  60  82 110 150 188 226 272 330
#     4  11  21  37  58  83 111 147 189 228 272 330
#
# _framework density 18.910848999999999
#
# number of rings (size 3 to 8) (size 9 to 14) (size 15 to 20)
#    0.000    1.867    0.000    7.200    0.000    4.267 
#    0.000    8.000    0.000    0.000    0.000    0.000 
#    0.000    0.000    0.000    0.000    0.000    0.000 
#
# Total GULP energy -371934.018872 kJ/mol
# GULP energy per Si atom -12397.800629 kJ/mol
# Density = 1.886781 g / cm^3
# Si number density = 18.910849 Si / 1000 Ang^3
#
#
#
# Elastic Constant Matrix: (Units=GPa)
#
#
# Indices 1 2 3 4 5 6 
#
# 1 125.3761 49.8796 61.1050 0.0000 -1.2203 0.0000
# 2 49.8796 101.2502 44.7722 0.0000 2.4879 0.0000
# 3 61.1050 44.7722 138.7591 0.0000 -2.3224 0.0000
# 4 0.0000 0.0000 0.0000 24.2856 0.0000 1.9396
# 5 -1.2203 2.4879 -2.3224 0.0000 20.9752 0.0000
# 6 0.0000 0.0000 0.0000 1.9396 0.0000 49.4543
#
#
#
# Elastic Compliance Matrix: (Units=1/GPa)
#
#
# Indices 1 2 3 4 5 6 
#
# 1 0.011376 -0.003980 -0.003713 0.000000 0.000723 0.000000
# 2 -0.003980 0.012980 -0.002469 0.000000 -0.002045 0.000000
# 3 -0.003713 -0.002469 0.009658 0.000000 0.001146 0.000000
# 4 0.000000 0.000000 0.000000 0.041306 0.000000 -0.001620
# 5 0.000723 -0.002045 0.001146 0.000000 0.048087 0.000000
# 6 0.000000 0.000000 0.000000 -0.001620 0.000000 0.020284
#
#
# Mechanical properties :
#
#
# Convention : Reuss Voigt Hill
#
# Bulk Modulus (GPa) = 73.05797 75.21099 74.13448
# Shear Modulus (GPa) = 29.65957 32.91825 31.28891
#
# Velocity S-wave (km/s) = 3.96459 4.17670 4.07203
# Velocity P-wave (km/s) = 7.72489 7.94465 7.83554
#
# Compressibility (1/GPa) = 0.01368776
#
# Stress axis : x y z
#
# Youngs Moduli (GPa) = 87.90203 77.04455 103.54102
#
# Poissons Ratio (x) = 0.30664 0.38449
# Poissons Ratio (y) = 0.34986 0.25569
# Poissons Ratio (z) = 0.32642 0.19026
#
# Static dielectric constant tensor:
#      x y z
#    x 4.051330 0.000000 -0.100610 
#    y 0.000000 3.466840 0.000000 
#    z -0.100610 0.000000 3.207220 
# 
# 
# High freq. dielectric constant tensor:
#      x y z
#    x 1.751210 0.000000 -0.006170 
#    y 0.000000 1.742250 0.000000 
#    z -0.006170 0.000000 1.721590 
# 
# From -- ./inp_files/218625.got.cif
#   From: 2010.06.25/outbox.cif.g09.slc.cpg/sg15_110_cif.got.tgz:218625.got - 2010.06.28 07:06:18.
