data_PCOD8134473
_publ_section_title
;
Structure prediction by ZEFSAII (Michael W. Deem and Ramdas Pophale) SiO2 
 PCOD8134473
Probable space group: C 2/C
;
_chemical_formula_sum "Si O2"
_cell_formula_units_Z 32
_cell_length_a 15.245840
_cell_length_b 13.680004
_cell_length_c 9.096381
_cell_angle_alpha 90.000000
_cell_angle_beta 120.430498
_cell_angle_gamma 90.000000
_cell_volume 1635.823719
_symmetry_space_group_name_H-M "C 2/C"
_symmetry_group_IT_number 15
_symmetry_cell_setting 'monoclinic'
loop_
_space_group_symop_operation_xyz
x,y,z
-x,y,1/2-z
-x,-y,-z
x,-y,1/2+z
1/2+x,1/2+y,z
1/2-x,1/2+y,1/2-z
1/2-x,1/2-y,-z
1/2+x,1/2-y,1/2+z
loop_
_atom_site_type_symbol
_atom_site_label
_atom_site_fract_x
_atom_site_fract_y
_atom_site_fract_z
Si Si1 0.115612 0.136016 0.994367
Si Si2 0.298073 0.114435 0.337744
Si Si3 0.606381 0.698971 0.666791
Si Si4 0.231974 0.950176 0.093932
O O1 0.194928 0.167948 0.188935
O O2 0.137363 0.021894 0.969453
O O3 0.129802 0.200856 0.860455
O O4 0.002317 0.150169 0.960243
O O5 0.391241 0.188846 0.388572
O O6 0.289137 0.092104 0.501666
O O7 0.313056 0.013129 0.259930
O O8 0.692791 0.639402 0.656249
#
# Coordination Sequence:
#
# PCOD8134473 Si02
#       4
#     8   8   8   8
#     4   9  20  34  56  81 112 140 185 227 277 317
#     4  10  21  34  58  83 114 146 183 230 276 329
#     4  11  19  35  58  85 111 146 185 230 279 324
#     4  10  19  36  54  86 113 142 186 230 275 324
#
# _framework density 19.562009
#
# number of rings (size 3 to 8) (size 9 to 14) (size 15 to 20)
#    1.500    0.500    2.500    2.250    0.000    1.000 
#    0.000    0.000    0.000   13.500    0.000    0.000 
#    0.000    0.000    0.000    0.000    0.000    0.000 
#
# Total GULP energy -198276.451922 kJ/mol
# GULP energy per Si atom -12392.278245 kJ/mol
# Density = 1.951749 g / cm^3
# Si number density = 19.562009 Si / 1000 Ang^3
#
#
#
# Elastic Constant Matrix: (Units=GPa)
#
#
# Indices 1 2 3 4 5 6 
#
# 1 53.0537 44.6009 19.4673 0.0000 -27.4258 0.0000
# 2 44.6009 88.7131 8.3914 0.0000 -21.8780 0.0000
# 3 19.4673 8.3914 37.0727 0.0000 -19.8277 0.0000
# 4 0.0000 0.0000 0.0000 15.9780 0.0000 -7.2709
# 5 -27.4258 -21.8780 -19.8277 0.0000 30.3310 0.0000
# 6 0.0000 0.0000 0.0000 -7.2709 0.0000 41.7049
#
#
#
# Elastic Compliance Matrix: (Units=1/GPa)
#
#
# Indices 1 2 3 4 5 6 
#
# 1 0.051878 -0.018285 -0.007793 0.000000 0.028625 0.000000
# 2 -0.018285 0.020434 0.006176 0.000000 0.002243 0.000000
# 3 -0.007793 0.006176 0.043486 0.000000 0.025835 0.000000
# 4 0.000000 0.000000 0.000000 0.067979 0.000000 0.011852
# 5 0.028625 0.002243 0.025835 0.000000 0.077359 0.000000
# 6 0.000000 0.000000 0.000000 0.011852 0.000000 0.026044
#
#
# Mechanical properties :
#
#
# Convention : Reuss Voigt Hill
#
# Bulk Modulus (GPa) = 13.15904 35.97319 24.56611
# Shear Modulus (GPa) = 14.19178 24.69479 19.44329
#
# Velocity S-wave (km/s) = 2.69639 3.55686 3.15609
# Velocity P-wave (km/s) = 4.05407 5.94118 5.08591
#
# Compressibility (1/GPa) = 0.07599337
#
# Stress axis : x y z
#
# Youngs Moduli (GPa) = 19.27606 48.93752 22.99591
#
# Poissons Ratio (x) = 0.89484 0.17921
# Poissons Ratio (y) = 0.35247 -0.14202
# Poissons Ratio (z) = 0.15022 -0.30224
#
# Static dielectric constant tensor:
#      x y z
#    x 3.257750 0.000000 -0.150920 
#    y 0.000000 3.482830 0.000000 
#    z -0.150920 0.000000 3.310360 
# 
# 
# High freq. dielectric constant tensor:
#      x y z
#    x 1.737660 0.000000 -0.026950 
#    y 0.000000 1.757870 0.000000 
#    z -0.026950 0.000000 1.744990 
# 
# From -- ./inp_files/36734.got.cif
#   From: 2010.06.25/outbox.cif.g09.slc.cpg/sg15_19_cif.got.tgz:36734.got - 2010.06.28 07:06:18.
