data_PCOD8134551
_publ_section_title
;
Structure prediction by ZEFSAII (Michael W. Deem and Ramdas Pophale) SiO2 
 PCOD8134551
Probable space group: C 2/C
;
_chemical_formula_sum "Si O2"
_cell_formula_units_Z 64
_cell_length_a 20.177425
_cell_length_b 21.141296
_cell_length_c 11.990884
_cell_angle_alpha 90.000000
_cell_angle_beta 140.556493
_cell_angle_gamma 90.000000
_cell_volume 3249.668746
_symmetry_space_group_name_H-M "C 2/C"
_symmetry_group_IT_number 15
_symmetry_cell_setting 'monoclinic'
loop_
_space_group_symop_operation_xyz
x,y,z
-x,y,1/2-z
-x,-y,-z
x,-y,1/2+z
1/2+x,1/2+y,z
1/2-x,1/2+y,1/2-z
1/2-x,1/2-y,-z
1/2+x,1/2-y,1/2+z
loop_
_atom_site_type_symbol
_atom_site_label
_atom_site_fract_x
_atom_site_fract_y
_atom_site_fract_z
Si Si1 0.360769 0.196681 0.280351
Si Si2 0.277057 0.576617 0.735478
Si Si3 0.355697 0.350199 0.965922
Si Si4 0.084785 0.834444 0.212466
Si Si5 0.029705 0.617198 0.914011
Si Si6 0.245188 0.561942 0.158492
Si Si7 0.387387 0.079962 0.151437
Si Si8 0.319171 0.054470 0.657771
O O1 0.240715 0.198152 0.165786
O O2 0.372929 0.263685 0.238318
O O3 0.437251 0.183708 0.484928
O O4 0.388604 0.139460 0.234299
O O5 0.376905 0.621719 0.840579
O O6 0.291254 0.507508 0.702605
O O7 0.178367 0.604587 0.540534
O O8 0.260254 0.567274 0.845101
O O9 0.326438 0.408524 0.849698
O O10 0.461025 0.323356 0.049680
O O11 0.375262 0.368149 0.121477
O O12 0.000000 0.634104 0.750000
O O13 0.928810 0.585230 0.838532
O O14 0.126359 0.567198 0.051899
O O15 0.234948 0.589730 0.019055
O O16 0.500000 0.060755 0.250000
O O17 0.338825 0.019433 0.153318
#
# Coordination Sequence:
#
# PCOD8134551 Si02
#       8
#     8   8   8   8   8   8   8   8
#     4  11  22  38  61  88 122 160 202 246 302 356
#     4  11  22  35  57  88 122 156 200 250 303 353
#     4  10  22  43  61  81 119 153 204 253 296 352
#     4  11  25  40  62  90 114 160 205 256 295 358
#     4   9  18  35  58  88 122 165 195 239 302 362
#     4   9  20  36  62  83 117 161 198 241 308 352
#     4  11  22  33  59  96 126 163 197 245 305 361
#     4  10  19  36  57  94 130 153 196 250 301 366
#
# _framework density 19.694315
#
# number of rings (size 3 to 8) (size 9 to 14) (size 15 to 20)
#    0.000    1.750    1.250    4.500    3.500    3.000 
#    0.000    1.875    0.000    4.500    0.000    0.000 
#    0.000    0.000    0.000    0.000    0.000    0.000 
#
# Total GULP energy -396442.389539 kJ/mol
# GULP energy per Si atom -12388.824673 kJ/mol
# Density = 1.964949 g / cm^3
# Si number density = 19.694315 Si / 1000 Ang^3
#
#
#
# Elastic Constant Matrix: (Units=GPa)
#
#
# Indices 1 2 3 4 5 6 
#
# 1 128.6560 51.8531 42.9622 0.0000 -1.3692 0.0000
# 2 51.8531 88.3600 47.0829 0.0000 -1.9741 0.0000
# 3 42.9622 47.0829 100.1025 0.0000 -1.8397 0.0000
# 4 0.0000 0.0000 0.0000 18.4391 0.0000 0.0864
# 5 -1.3692 -1.9741 -1.8397 0.0000 27.0251 0.0000
# 6 0.0000 0.0000 0.0000 0.0864 0.0000 20.6572
#
#
#
# Elastic Compliance Matrix: (Units=1/GPa)
#
#
# Indices 1 2 3 4 5 6 
#
# 1 0.010516 -0.005026 -0.002149 0.000000 0.000019 0.000000
# 2 -0.005026 0.017515 -0.006070 0.000000 0.000612 0.000000
# 3 -0.002149 -0.006070 0.013774 0.000000 0.000385 0.000000
# 4 0.000000 0.000000 0.000000 0.054234 0.000000 -0.000227
# 5 0.000019 0.000612 0.000385 0.000000 0.037074 0.000000
# 6 0.000000 0.000000 0.000000 -0.000227 0.000000 0.048410
#
#
# Mechanical properties :
#
#
# Convention : Reuss Voigt Hill
#
# Bulk Modulus (GPa) = 65.29281 66.76833 66.03057
# Shear Modulus (GPa) = 23.46127 24.90565 24.18346
#
# Velocity S-wave (km/s) = 3.45522 3.55999 3.50800
# Velocity P-wave (km/s) = 7.01022 7.13260 7.07168
#
# Compressibility (1/GPa) = 0.01531562
#
# Stress axis : x y z
#
# Youngs Moduli (GPa) = 95.09273 57.09542 72.59992
#
# Poissons Ratio (x) = 0.28694 0.15603
# Poissons Ratio (y) = 0.47790 0.44066
# Poissons Ratio (z) = 0.20437 0.34656
#
# Static dielectric constant tensor:
#      x y z
#    x 3.653820 0.000000 -0.084170 
#    y 0.000000 3.272570 0.000000 
#    z -0.084170 0.000000 3.923540 
# 
# 
# High freq. dielectric constant tensor:
#      x y z
#    x 1.765750 0.000000 -0.008850 
#    y 0.000000 1.735830 0.000000 
#    z -0.008850 0.000000 1.773840 
# 
# From -- ./inp_files/114271.got.cif
#   From: 2010.06.25/outbox.cif.g09.slc.cpg/sg15_58_cif.got.tgz:114271.got - 2010.06.28 07:06:18.
