data_PCOD8134607
_publ_section_title
;
Structure prediction by ZEFSAII (Michael W. Deem and Ramdas Pophale) SiO2 
 PCOD8134607
Probable space group: C 2/C
;
_chemical_formula_sum "Si O2"
_cell_formula_units_Z 48
_cell_length_a 8.948829
_cell_length_b 24.952229
_cell_length_c 15.402584
_cell_angle_alpha 90.000000
_cell_angle_beta 138.735752
_cell_angle_gamma 90.000000
_cell_volume 2268.326226
_symmetry_space_group_name_H-M "C 2/C"
_symmetry_group_IT_number 15
_symmetry_cell_setting 'monoclinic'
loop_
_space_group_symop_operation_xyz
x,y,z
-x,y,1/2-z
-x,-y,-z
x,-y,1/2+z
1/2+x,1/2+y,z
1/2-x,1/2+y,1/2-z
1/2-x,1/2-y,-z
1/2+x,1/2-y,1/2+z
loop_
_atom_site_type_symbol
_atom_site_label
_atom_site_fract_x
_atom_site_fract_y
_atom_site_fract_z
Si Si1 0.864026 0.628649 0.336538
Si Si2 0.613041 0.509041 0.639962
Si Si3 0.000000 0.946920 0.750000
Si Si4 0.008374 0.307369 0.449589
Si Si5 0.022605 0.185374 0.443319
Si Si6 0.729368 0.872950 0.298236
Si Si7 0.500000 0.065261 0.250000
O O1 0.729500 0.587610 0.340727
O O2 0.677153 0.653239 0.189945
O O3 0.994774 0.671029 0.453328
O O4 0.060626 0.603109 0.359849
O O5 0.500000 0.500000 0.500000
O O6 0.456981 0.485140 0.648127
O O7 0.668213 0.570336 0.685751
O O8 0.828977 0.472148 0.725650
O O9 0.824374 0.338249 0.310720
O O10 0.936897 0.245528 0.422078
O O11 0.262164 0.314258 0.525750
O O12 0.088999 0.158171 0.563393
O O13 0.500000 0.883843 0.250000
#
# Coordination Sequence:
#
# PCOD8134607 Si02
#       7
#     8   8   4   8   8   8   4
#     4  11  20  39  61  87 120 160 204 252 304 370
#     4  11  23  40  61  86 124 165 201 253 308 367
#     4  10  22  36  60  84 112 158 206 242 300 364
#     4  10  20  33  60  90 117 150 203 255 296 362
#     4  10  19  36  58  88 120 155 194 249 314 356
#     4  10  20  34  55  87 121 150 192 248 301 357
#     4  10  24  38  58  86 118 162 206 244 306 368
#
# _framework density 21.160978
#
# number of rings (size 3 to 8) (size 9 to 14) (size 15 to 20)
#    0.000    1.667    2.500    3.000    2.333    4.000 
#    0.000    4.167    0.000    2.000    0.000    0.000 
#    0.000    0.000    0.000    0.000    0.000    0.000 
#
# Total GULP energy -297431.075781 kJ/mol
# GULP energy per Si atom -12392.961491 kJ/mol
# Density = 2.111281 g / cm^3
# Si number density = 21.160978 Si / 1000 Ang^3
#
#
#
# Elastic Constant Matrix: (Units=GPa)
#
#
# Indices 1 2 3 4 5 6 
#
# 1 75.9575 49.2617 20.9178 0.0000 -26.3507 0.0000
# 2 49.2617 168.3464 60.6092 0.0000 -21.6111 0.0000
# 3 20.9178 60.6092 129.4745 0.0000 -33.6790 0.0000
# 4 0.0000 0.0000 0.0000 32.1544 0.0000 -18.1223
# 5 -26.3507 -21.6111 -33.6790 0.0000 28.0402 0.0000
# 6 0.0000 0.0000 0.0000 -18.1223 0.0000 54.5802
#
#
#
# Elastic Compliance Matrix: (Units=1/GPa)
#
#
# Indices 1 2 3 4 5 6 
#
# 1 0.023833 -0.005713 0.005097 0.000000 0.024116 0.000000
# 2 -0.005713 0.008605 -0.004038 0.000000 -0.003587 0.000000
# 3 0.005097 -0.004038 0.013420 0.000000 0.017796 0.000000
# 4 0.000000 0.000000 0.000000 0.038260 0.000000 0.012703
# 5 0.024116 -0.003587 0.017796 0.000000 0.076935 0.000000
# 6 0.000000 0.000000 0.000000 0.012703 0.000000 0.022540
#
#
# Mechanical properties :
#
#
# Convention : Reuss Voigt Hill
#
# Bulk Modulus (GPa) = 27.36086 70.59510 48.97798
# Shear Modulus (GPa) = 24.38022 39.15431 31.76726
#
# Velocity S-wave (km/s) = 3.39799 4.30619 3.87876
# Velocity P-wave (km/s) = 5.32476 7.62612 6.57688
#
# Compressibility (1/GPa) = 0.03654856
#
# Stress axis : x y z
#
# Youngs Moduli (GPa) = 41.95865 116.20610 74.51835
#
# Poissons Ratio (x) = 0.66392 -0.37983
# Poissons Ratio (y) = 0.23972 0.30094
# Poissons Ratio (z) = -0.21387 0.46929
#
# Static dielectric constant tensor:
#      x y z
#    x 3.889120 0.000000 -0.321510 
#    y 0.000000 3.986670 0.000000 
#    z -0.321510 0.000000 3.634420 
# 
# 
# High freq. dielectric constant tensor:
#      x y z
#    x 1.813510 0.000000 -0.023990 
#    y 0.000000 1.849650 0.000000 
#    z -0.023990 0.000000 1.818590 
# 
# From -- ./inp_files/139085.got.cif
#   From: 2010.06.25/outbox.cif.g09.slc.cpg/sg15_70_cif.got.tgz:139085.got - 2010.06.28 07:06:18.
