data_PCOD8134042
_publ_section_title
;
Structure prediction by ZEFSAII (Michael W. Deem and Ramdas Pophale) SiO2 
 PCOD8134042
Probable space group: C 2/C
;
_chemical_formula_sum "Si O2"
_cell_formula_units_Z 40
_cell_length_a 9.013830
_cell_length_b 22.294294
_cell_length_c 13.203365
_cell_angle_alpha 90.000000
_cell_angle_beta 131.866550
_cell_angle_gamma 90.000000
_cell_volume 1975.922166
_symmetry_space_group_name_H-M "C 2/C"
_symmetry_group_IT_number 15
_symmetry_cell_setting 'monoclinic'
loop_
_space_group_symop_operation_xyz
x,y,z
-x,y,1/2-z
-x,-y,-z
x,-y,1/2+z
1/2+x,1/2+y,z
1/2-x,1/2+y,1/2-z
1/2-x,1/2-y,-z
1/2+x,1/2-y,1/2+z
loop_
_atom_site_type_symbol
_atom_site_label
_atom_site_fract_x
_atom_site_fract_y
_atom_site_fract_z
Si Si1 0.671369 0.557548 0.164259
Si Si2 0.686794 0.689300 0.106822
Si Si3 0.237538 0.003661 0.491125
Si Si4 0.522948 0.209530 0.093148
Si Si5 0.989992 0.416803 0.981043
O O1 0.614080 0.620898 0.084793
O O2 0.747806 0.511856 0.113892
O O3 0.848934 0.565766 0.322744
O O4 0.481235 0.529369 0.135115
O O5 0.765661 0.712609 0.252299
O O6 0.857242 0.696037 0.101329
O O7 0.503697 0.730025 0.984198
O O8 0.401661 0.055261 0.543525
O O9 0.293179 0.945762 0.445929
O O10 0.505950 0.154715 0.005664
#
# Coordination Sequence:
#
# PCOD8134042 Si02
#       5
#     8   8   8   8   8
#     4  10  19  35  54  77 108 143 176 220 274 323
#     4   9  17  32  54  76 105 141 179 222 269 320
#     4  10  20  32  54  78 102 140 182 214 260 330
#     4   9  17  32  54  76 105 141 179 222 269 320
#     4  10  19  35  54  77 108 143 176 220 274 323
#
# _framework density 20.243713
#
# number of rings (size 3 to 8) (size 9 to 14) (size 15 to 20)
#    0.000    2.400    2.000    1.200    0.000    0.000 
#    0.000   13.000    0.000    0.000    0.000    0.000 
#    0.000    0.000    0.000    0.000    0.000    0.000 
#
# Total GULP energy -247883.425481 kJ/mol
# GULP energy per Si atom -12394.171274 kJ/mol
# Density = 2.019764 g / cm^3
# Si number density = 20.243713 Si / 1000 Ang^3
#
#
#
# Elastic Constant Matrix: (Units=GPa)
#
#
# Indices 1 2 3 4 5 6 
#
# 1 87.0850 34.8036 14.8340 0.0000 1.3355 0.0000
# 2 34.8036 123.9935 52.1072 0.0000 -11.7751 0.0000
# 3 14.8340 52.1072 49.0983 0.0000 -2.8781 0.0000
# 4 0.0000 0.0000 0.0000 33.0874 0.0000 0.8853
# 5 1.3355 -11.7751 -2.8781 0.0000 16.0420 0.0000
# 6 0.0000 0.0000 0.0000 0.8853 0.0000 19.6718
#
#
#
# Elastic Compliance Matrix: (Units=1/GPa)
#
#
# Indices 1 2 3 4 5 6 
#
# 1 0.013181 -0.004182 0.000213 0.000000 -0.004128 0.000000
# 2 -0.004182 0.016975 -0.016172 0.000000 0.009907 0.000000
# 3 0.000213 -0.016172 0.037159 0.000000 -0.005221 0.000000
# 4 0.000000 0.000000 0.000000 0.030259 0.000000 -0.001362
# 5 -0.004128 0.009907 -0.005221 0.000000 0.069015 0.000000
# 6 0.000000 0.000000 0.000000 -0.001362 0.000000 0.050895
#
#
# Mechanical properties :
#
#
# Convention : Reuss Voigt Hill
#
# Bulk Modulus (GPa) = 36.98712 51.51849 44.25281
# Shear Modulus (GPa) = 18.74217 24.32238 21.53228
#
# Velocity S-wave (km/s) = 3.04604 3.47000 3.26491
# Velocity P-wave (km/s) = 5.53911 6.44662 6.01002
#
# Compressibility (1/GPa) = 0.02703644
#
# Stress axis : x y z
#
# Youngs Moduli (GPa) = 75.86596 58.90850 26.91103
#
# Poissons Ratio (x) = 0.24633 -0.00574
# Poissons Ratio (y) = 0.31723 0.43520
# Poissons Ratio (z) = -0.01619 0.95265
#
# Static dielectric constant tensor:
#      x y z
#    x 3.682400 0.000000 0.042400 
#    y 0.000000 3.953030 0.000000 
#    z 0.042400 0.000000 3.556430 
# 
# 
# High freq. dielectric constant tensor:
#      x y z
#    x 1.775380 0.000000 -0.003430 
#    y 0.000000 1.790710 0.000000 
#    z -0.003430 0.000000 1.766370 
# 
# From -- ./inp_files/76693.got.cif
#   From: 2010.06.25/outbox.cif.g09.slc.cpg/sg15_39_cif.got.tgz:76693.got - 2010.06.28 07:06:18.
