data_PCOD8134995
_publ_section_title
;
Structure prediction by ZEFSAII (Michael W. Deem and Ramdas Pophale) SiO2 
 PCOD8134995
Probable space group: C 2/C
;
_chemical_formula_sum "Si O2"
_cell_formula_units_Z 28
_cell_length_a 9.317208
_cell_length_b 16.963505
_cell_length_c 16.972148
_cell_angle_alpha 90.000000
_cell_angle_beta 144.339618
_cell_angle_gamma 90.000000
_cell_volume 1563.837090
_symmetry_space_group_name_H-M "C 2/C"
_symmetry_group_IT_number 15
_symmetry_cell_setting 'monoclinic'
loop_
_space_group_symop_operation_xyz
x,y,z
-x,y,1/2-z
-x,-y,-z
x,-y,1/2+z
1/2+x,1/2+y,z
1/2-x,1/2+y,1/2-z
1/2-x,1/2-y,-z
1/2+x,1/2-y,1/2+z
loop_
_atom_site_type_symbol
_atom_site_label
_atom_site_fract_x
_atom_site_fract_y
_atom_site_fract_z
Si Si1 0.402833 0.805755 0.624729
Si Si2 0.976436 0.907500 0.497168
Si Si3 0.422905 0.665536 0.297551
Si Si4 0.500000 0.182545 0.750000
O O1 0.500000 0.764632 0.750000
O O2 0.250000 0.750000 0.500000
O O3 0.628706 0.840230 0.675767
O O4 0.227115 0.876766 0.571185
O O5 0.737682 0.873137 0.346649
O O6 0.943269 0.879773 0.572457
O O7 0.000000 0.000000 0.500000
O O8 0.500000 0.622752 0.250000
O O9 0.504879 0.758571 0.328704
#
# Coordination Sequence:
#
# PCOD8134995 Si02
#       4
#     8   8   8   4
#     4  10  19  37  59  88 117 155 201 245 288 359
#     4  11  23  37  61  90 120 151 193 251 303 341
#     4   9  20  38  62  81 116 156 204 229 292 358
#     4  10  20  36  64  80 118 158 198 224 298 352
#
# _framework density 17.904679000000002
#
# number of rings (size 3 to 8) (size 9 to 14) (size 15 to 20)
#    0.857    1.143    2.857    0.857    6.000    0.000 
#    0.000    2.857    0.000    0.000    0.000    0.000 
#    0.000    0.000    0.000    0.000    0.000    0.000 
#
# Total GULP energy -173458.533963 kJ/mol
# GULP energy per Si atom -12389.895283 kJ/mol
# Density = 1.786393 g / cm^3
# Si number density = 17.904679 Si / 1000 Ang^3
#
#
#
# Elastic Constant Matrix: (Units=GPa)
#
#
# Indices 1 2 3 4 5 6 
#
# 1 133.3825 36.0352 40.1647 0.0003 -3.3993 0.0001
# 2 36.0352 129.3738 50.6912 0.0000 -13.2749 -0.0001
# 3 40.1647 50.6912 99.0098 0.0008 -7.7658 0.0003
# 4 0.0003 0.0000 0.0008 22.0029 0.0005 3.2040
# 5 -3.3993 -13.2749 -7.7658 0.0005 31.1544 0.0001
# 6 0.0001 -0.0001 0.0003 3.2040 0.0001 21.9399
#
#
#
# Elastic Compliance Matrix: (Units=1/GPa)
#
#
# Indices 1 2 3 4 5 6 
#
# 1 0.008716 -0.001334 -0.002879 0.000000 -0.000335 0.000000
# 2 -0.001334 0.010146 -0.004412 0.000000 0.003078 0.000000
# 3 -0.002879 -0.004412 0.013621 0.000000 0.001201 0.000000
# 4 0.000000 0.000000 0.000000 0.046436 -0.000001 -0.006781
# 5 -0.000335 0.003078 0.001201 -0.000001 0.033673 0.000000
# 6 0.000000 0.000000 0.000000 -0.006781 0.000000 0.046569
#
#
# Mechanical properties :
#
#
# Convention : Reuss Voigt Hill
#
# Bulk Modulus (GPa) = 65.64788 68.39423 67.02105
# Shear Modulus (GPa) = 27.55008 30.67778 29.11393
#
# Velocity S-wave (km/s) = 3.92689 4.14381 4.03681
# Velocity P-wave (km/s) = 7.57004 7.82156 7.69683
#
# Compressibility (1/GPa) = 0.01523278
#
# Stress axis : x y z
#
# Youngs Moduli (GPa) = 114.73067 98.56560 73.41659
#
# Poissons Ratio (x) = 0.13149 0.21137
# Poissons Ratio (y) = 0.15306 0.32390
# Poissons Ratio (z) = 0.33032 0.43485
#
# Static dielectric constant tensor:
#      x y z
#    x 3.329720 0.000000 0.032080 
#    y 0.000000 2.975830 0.000000 
#    z 0.032080 0.000000 3.446360 
# 
# 
# High freq. dielectric constant tensor:
#      x y z
#    x 1.708760 0.000000 0.012660 
#    y 0.000000 1.658210 0.000000 
#    z 0.012660 0.000000 1.695830 
# 
# From -- ./inp_files/21676.got.cif
#   From: 2010.06.25/outbox.cif.g09.slc.cpg/sg15_11_cif.got.tgz:21676.got - 2010.06.28 07:06:18.
