data_PCOD8134395
_publ_section_title
;
Structure prediction by ZEFSAII (Michael W. Deem and Ramdas Pophale) SiO2 
 PCOD8134395
Probable space group: C 2/C
;
_chemical_formula_sum "Si O2"
_cell_formula_units_Z 32
_cell_length_a 14.703877
_cell_length_b 12.239882
_cell_length_c 21.552194
_cell_angle_alpha 90.000000
_cell_angle_beta 158.479560
_cell_angle_gamma 90.000000
_cell_volume 1422.882788
_symmetry_space_group_name_H-M "C 2/C"
_symmetry_group_IT_number 15
_symmetry_cell_setting 'monoclinic'
loop_
_space_group_symop_operation_xyz
x,y,z
-x,y,1/2-z
-x,-y,-z
x,-y,1/2+z
1/2+x,1/2+y,z
1/2-x,1/2+y,1/2-z
1/2-x,1/2-y,-z
1/2+x,1/2-y,1/2+z
loop_
_atom_site_type_symbol
_atom_site_label
_atom_site_fract_x
_atom_site_fract_y
_atom_site_fract_z
Si Si1 0.038176 0.020676 0.345311
Si Si2 0.818866 0.306880 0.822213
Si Si3 0.851979 0.214593 0.714137
Si Si4 0.947926 0.659674 0.644692
O O1 0.852128 0.090009 0.270124
O O2 0.000000 0.056183 0.250000
O O3 0.326196 0.044714 0.546434
O O4 0.996580 0.892886 0.329500
O O5 0.849301 0.303085 0.767210
O O6 0.700914 0.190703 0.769460
O O7 0.079380 0.322917 0.021172
O O8 0.000000 0.266766 0.750000
O O9 0.750000 0.750000 0.500000
O O10 0.000000 0.659584 0.750000
#
# Coordination Sequence:
#
# PCOD8134395 Si02
#       4
#     8   8   8   8
#     4  10  21  40  65  95 125 163 212 263 314 375
#     4  11  20  39  65  90 123 169 211 255 313 378
#     4  11  24  40  60  91 129 169 208 257 315 376
#     4  10  19  35  62  96 125 157 207 265 311 363
#
# _framework density 22.489556
#
# number of rings (size 3 to 8) (size 9 to 14) (size 15 to 20)
#    0.000    1.500    0.000    9.000    0.000    2.000 
#    0.000   11.250    0.000    1.500    0.000    0.000 
#    0.000    0.000    0.000    0.000    0.000    0.000 
#
# Total GULP energy -198410.645377 kJ/mol
# GULP energy per Si atom -12400.665336 kJ/mol
# Density = 2.243837 g / cm^3
# Si number density = 22.489556 Si / 1000 Ang^3
#
#
#
# Elastic Constant Matrix: (Units=GPa)
#
#
# Indices 1 2 3 4 5 6 
#
# 1 160.0368 47.9460 20.4565 0.0164 -17.6881 -0.0040
# 2 47.9460 40.1364 0.9263 -0.0164 -6.1674 0.0057
# 3 20.4565 0.9263 75.2910 -0.0167 -12.0238 0.0295
# 4 0.0164 -0.0164 -0.0167 35.7795 0.0139 -3.9859
# 5 -17.6881 -6.1674 -12.0238 0.0139 47.6244 -0.0040
# 6 -0.0040 0.0057 0.0295 -3.9859 -0.0040 27.0712
#
#
#
# Elastic Compliance Matrix: (Units=1/GPa)
#
#
# Indices 1 2 3 4 5 6 
#
# 1 0.010351 -0.012052 -0.002396 -0.000011 0.001679 0.000005
# 2 -0.012052 0.039457 0.003012 0.000023 0.001394 -0.000010
# 3 -0.002396 0.003012 0.014396 0.000006 0.003135 -0.000015
# 4 -0.000011 0.000023 0.000006 0.028415 -0.000008 0.004184
# 5 0.001679 0.001394 0.003135 -0.000008 0.022593 -0.000001
# 6 0.000005 -0.000010 -0.000015 0.004184 -0.000001 0.037556
#
#
# Mechanical properties :
#
#
# Convention : Reuss Voigt Hill
#
# Bulk Modulus (GPa) = 24.19454 46.01354 35.10404
# Shear Modulus (GPa) = 26.39671 35.83739 31.11705
#
# Velocity S-wave (km/s) = 3.42969 3.99621 3.72374
# Velocity P-wave (km/s) = 5.14443 6.46509 5.84220
#
# Compressibility (1/GPa) = 0.04133163
#
# Stress axis : x y z
#
# Youngs Moduli (GPa) = 96.60856 25.34426 69.46199
#
# Poissons Ratio (x) = 0.30545 0.16643
# Poissons Ratio (y) = 1.16431 -0.20920
# Poissons Ratio (z) = 0.23147 -0.07633
#
# Static dielectric constant tensor:
#      x y z
#    x 4.349140 0.000140 0.225650 
#    y 0.000140 3.960040 0.000020 
#    z 0.225650 0.000020 4.550070 
# 
# 
# High freq. dielectric constant tensor:
#      x y z
#    x 1.897390 0.000000 0.002560 
#    y 0.000000 1.858350 -0.000010 
#    z 0.002560 -0.000010 1.897650 
# 
# From -- ./inp_files/37126.got.cif
#   From: 2010.06.25/outbox.cif.g09.slc.cpg/sg15_19_cif.got.tgz:37126.got - 2010.06.28 07:06:18.
