data_PCOD8134162
_publ_section_title
;
Structure prediction by ZEFSAII (Michael W. Deem and Ramdas Pophale) SiO2 
 PCOD8134162
Probable space group: C 2/C
;
_chemical_formula_sum "Si O2"
_cell_formula_units_Z 64
_cell_length_a 17.463932
_cell_length_b 18.010528
_cell_length_c 19.712500
_cell_angle_alpha 90.000000
_cell_angle_beta 149.580785
_cell_angle_gamma 90.000000
_cell_volume 3139.336232
_symmetry_space_group_name_H-M "C 2/C"
_symmetry_group_IT_number 15
_symmetry_cell_setting 'monoclinic'
loop_
_space_group_symop_operation_xyz
x,y,z
-x,y,1/2-z
-x,-y,-z
x,-y,1/2+z
1/2+x,1/2+y,z
1/2-x,1/2+y,1/2-z
1/2-x,1/2-y,-z
1/2+x,1/2-y,1/2+z
loop_
_atom_site_type_symbol
_atom_site_label
_atom_site_fract_x
_atom_site_fract_y
_atom_site_fract_z
Si Si1 0.897818 0.217525 0.846418
Si Si2 0.649602 0.441393 0.232831
Si Si3 0.954526 0.280895 0.412848
Si Si4 0.830995 0.544460 0.011279
Si Si5 0.905072 0.294456 0.611770
Si Si6 0.552407 0.952251 0.102212
Si Si7 0.909613 0.211582 0.111683
Si Si8 0.919826 0.954034 0.616874
O O1 0.937796 0.134812 0.850941
O O2 0.719735 0.231861 0.700289
O O3 0.998491 0.273620 0.880326
O O4 0.941079 0.232325 0.957499
O O5 0.741256 0.434573 0.373792
O O6 0.764339 0.456419 0.257385
O O7 0.528866 0.507549 0.144732
O O8 0.984826 0.254434 0.360147
O O9 0.000927 0.367570 0.449978
O O10 0.730548 0.501852 0.989617
O O11 0.879848 0.618238 0.086820
O O12 0.975294 0.490132 0.108727
O O13 0.750000 0.250000 0.500000
O O14 0.000000 0.273941 0.750000
O O15 0.500000 0.000000 0.000000
O O16 0.880685 0.128389 0.061778
O O17 0.000000 0.210641 0.250000
O O18 0.750000 0.250000 0.000000
O O19 0.000000 0.949750 0.750000
#
# Coordination Sequence:
#
# PCOD8134162 Si02
#       8
#     8   8   8   8   8   8   8   8
#     4  11  22  39  59  88 121 155 198 245 296 353
#     4   9  18  34  57  83 113 153 196 242 289 346
#     4  11  23  39  63  90 119 156 196 244 299 355
#     4  10  19  35  57  83 112 152 201 245 286 347
#     4  12  24  39  60  89 123 161 200 247 301 358
#     4   9  18  34  57  83 112 151 196 237 286 353
#     4  11  23  41  64  91 120 157 201 249 300 359
#     4   9  19  35  58  83 114 157 201 237 290 361
#
# _framework density 20.386475999999998
#
# number of rings (size 3 to 8) (size 9 to 14) (size 15 to 20)
#    0.000    1.750    0.000    6.000    0.000    6.000 
#    0.000    5.625    0.000    1.500    0.000    0.000 
#    0.000    0.000    0.000    0.000    0.000    0.000 
#
# Total GULP energy -396786.091805 kJ/mol
# GULP energy per Si atom -12399.565369 kJ/mol
# Density = 2.034008 g / cm^3
# Si number density = 20.386476 Si / 1000 Ang^3
#
#
#
# Elastic Constant Matrix: (Units=GPa)
#
#
# Indices 1 2 3 4 5 6 
#
# 1 92.8046 55.8335 30.1845 0.0115 18.4648 0.0058
# 2 55.8335 166.0209 49.0062 0.0082 19.1073 0.0058
# 3 30.1845 49.0062 80.7459 0.0210 10.1173 0.0120
# 4 0.0115 0.0082 0.0210 32.8257 0.0132 3.7690
# 5 18.4648 19.1073 10.1173 0.0132 35.6408 0.0073
# 6 0.0058 0.0058 0.0120 3.7690 0.0073 39.6258
#
#
#
# Elastic Compliance Matrix: (Units=1/GPa)
#
#
# Indices 1 2 3 4 5 6 
#
# 1 0.014822 -0.003607 -0.002729 -0.000001 -0.004971 0.000000
# 2 -0.003607 0.008489 -0.003596 0.000002 -0.001662 0.000000
# 3 -0.002729 -0.003596 0.015728 -0.000007 -0.001123 -0.000003
# 4 -0.000001 0.000002 -0.000007 0.030800 -0.000010 -0.002930
# 5 -0.004971 -0.001662 -0.001123 -0.000010 0.031842 -0.000004
# 6 0.000000 0.000000 -0.000003 -0.002930 -0.000004 0.025515
#
#
# Mechanical properties :
#
#
# Convention : Reuss Voigt Hill
#
# Bulk Modulus (GPa) = 52.14935 67.73554 59.94245
# Shear Modulus (GPa) = 32.58378 35.25495 33.91936
#
# Velocity S-wave (km/s) = 4.00222 4.16303 4.08342
# Velocity P-wave (km/s) = 6.85514 7.51037 7.19022
#
# Compressibility (1/GPa) = 0.01917569
#
# Stress axis : x y z
#
# Youngs Moduli (GPa) = 67.46755 117.79964 63.58284
#
# Poissons Ratio (x) = 0.42492 0.17350
# Poissons Ratio (y) = 0.24337 0.22861
# Poissons Ratio (z) = 0.18410 0.42355
#
# Static dielectric constant tensor:
#      x y z
#    x 4.072100 -0.000010 0.431070 
#    y -0.000010 4.005640 -0.000030 
#    z 0.431070 -0.000030 3.496940 
# 
# 
# High freq. dielectric constant tensor:
#      x y z
#    x 1.803890 0.000000 0.024240 
#    y 0.000000 1.811230 0.000000 
#    z 0.024240 0.000000 1.774570 
# 
# From -- ./inp_files/249645.got.cif
#   From: 2010.06.25/outbox.cif.g09.slc.cpg/sg15_125_cif.got.tgz:249645.got - 2010.06.28 07:06:18.
