data_PCOD8134253
_publ_section_title
;
Structure prediction by ZEFSAII (Michael W. Deem and Ramdas Pophale) SiO2 
 PCOD8134253
Probable space group: C 2/C
;
_chemical_formula_sum "Si O2"
_cell_formula_units_Z 60
_cell_length_a 11.469550
_cell_length_b 15.143423
_cell_length_c 24.607770
_cell_angle_alpha 90.000000
_cell_angle_beta 131.773144
_cell_angle_gamma 90.000000
_cell_volume 3187.559351
_symmetry_space_group_name_H-M "C 2/C"
_symmetry_group_IT_number 15
_symmetry_cell_setting 'monoclinic'
loop_
_space_group_symop_operation_xyz
x,y,z
-x,y,1/2-z
-x,-y,-z
x,-y,1/2+z
1/2+x,1/2+y,z
1/2-x,1/2+y,1/2-z
1/2-x,1/2-y,-z
1/2+x,1/2-y,1/2+z
loop_
_atom_site_type_symbol
_atom_site_label
_atom_site_fract_x
_atom_site_fract_y
_atom_site_fract_z
Si Si1 0.348252 0.027443 0.638788
Si Si2 0.000000 0.880701 0.750000
Si Si3 0.942295 0.210589 0.670454
Si Si4 0.763161 0.226685 0.245995
Si Si5 0.200098 0.841830 0.624264
Si Si6 0.180253 0.421771 0.252544
Si Si7 0.915060 0.940248 0.517162
Si Si8 0.978872 0.015991 0.653077
O O1 0.321678 0.090113 0.682725
O O2 0.533253 0.022548 0.683983
O O3 0.261073 0.072307 0.559829
O O4 0.289540 0.930418 0.635115
O O5 0.855923 0.820191 0.725859
O O6 0.073378 0.942449 0.819808
O O7 0.778517 0.262580 0.614876
O O8 0.000000 0.213336 0.750000
O O9 0.077162 0.258179 0.675663
O O10 0.903119 0.111190 0.641018
O O11 0.786911 0.168348 0.307043
O O12 0.829742 0.325005 0.277172
O O13 0.015215 0.849236 0.552237
O O14 0.333994 0.475649 0.283682
O O15 0.000000 0.000000 0.500000
O O16 0.915711 0.988400 0.574991
#
# Coordination Sequence:
#
# PCOD8134253 Si02
#       8
#     8   4   8   8   8   8   8   8
#     4  10  20  34  62  83 109 148 200 234 276 334
#     4  12  20  32  54  88 116 148 186 228 298 338
#     4   9  20  34  54  88 114 142 191 244 279 331
#     4  10  21  33  54  85 118 141 186 240 283 335
#     4  10  19  35  59  83 111 146 189 237 278 337
#     4  10  20  35  57  82 112 146 192 239 277 332
#     4  10  19  37  59  86 114 153 194 236 282 347
#     4  11  20  35  58  84 116 153 186 238 292 340
#
# _framework density 18.823180000000001
#
# number of rings (size 3 to 8) (size 9 to 14) (size 15 to 20)
#    0.000    1.867    4.667    0.800    7.467    0.000 
#    0.000    3.333    0.000    0.800    0.000    0.000 
#    0.000    0.000    0.000    0.000    0.000    0.000 
#
# Total GULP energy -371824.762527 kJ/mol
# GULP energy per Si atom -12394.158751 kJ/mol
# Density = 1.878034 g / cm^3
# Si number density = 18.823180 Si / 1000 Ang^3
#
#
#
# Elastic Constant Matrix: (Units=GPa)
#
#
# Indices 1 2 3 4 5 6 
#
# 1 94.1637 45.3479 34.7564 0.0000 3.4409 0.0000
# 2 45.3479 80.8459 39.3140 0.0000 8.1910 0.0000
# 3 34.7564 39.3140 106.6458 0.0000 9.4563 0.0000
# 4 0.0000 0.0000 0.0000 13.4374 0.0000 1.9469
# 5 3.4409 8.1910 9.4563 0.0000 26.1744 0.0000
# 6 0.0000 0.0000 0.0000 1.9469 0.0000 40.7067
#
#
#
# Elastic Compliance Matrix: (Units=1/GPa)
#
#
# Indices 1 2 3 4 5 6 
#
# 1 0.014985 -0.007431 -0.002248 0.000000 0.001168 0.000000
# 2 -0.007431 0.018957 -0.004264 0.000000 -0.003415 0.000000
# 3 -0.002248 -0.004264 0.011919 0.000000 -0.002676 0.000000
# 4 0.000000 0.000000 0.000000 0.074938 0.000000 -0.003584
# 5 0.001168 -0.003415 -0.002676 0.000000 0.040087 0.000000
# 6 0.000000 0.000000 0.000000 -0.003584 0.000000 0.024737
#
#
# Mechanical properties :
#
#
# Convention : Reuss Voigt Hill
#
# Bulk Modulus (GPa) = 55.63075 57.83245 56.73160
# Shear Modulus (GPa) = 22.77902 26.87951 24.82926
#
# Velocity S-wave (km/s) = 3.48251 3.78299 3.63585
# Velocity P-wave (km/s) = 6.76676 7.06202 6.91596
#
# Compressibility (1/GPa) = 0.01797567
#
# Stress axis : x y z
#
# Youngs Moduli (GPa) = 66.73154 52.75229 83.90280
#
# Poissons Ratio (x) = 0.39198 0.18862
# Poissons Ratio (y) = 0.49586 0.35773
# Poissons Ratio (z) = 0.15002 0.22492
#
# Static dielectric constant tensor:
#      x y z
#    x 3.763110 0.000000 0.184640 
#    y 0.000000 3.590720 0.000000 
#    z 0.184640 0.000000 3.457340 
# 
# 
# High freq. dielectric constant tensor:
#      x y z
#    x 1.734220 0.000000 0.001900 
#    y 0.000000 1.731200 0.000000 
#    z 0.001900 0.000000 1.698260 
# 
# From -- ./inp_files/292718.got.cif
#   From: 2010.06.25/outbox.cif.g09.slc.cpg/sg15_147_cif.got.tgz:292718.got - 2010.06.28 07:06:18.
