data_PCOD8134136
_publ_section_title
;
Structure prediction by ZEFSAII (Michael W. Deem and Ramdas Pophale) SiO2 
 PCOD8134136
Probable space group: C 2/C
;
_chemical_formula_sum "Si O2"
_cell_formula_units_Z 60
_cell_length_a 18.911063
_cell_length_b 34.170905
_cell_length_c 4.944120
_cell_angle_alpha 90.000000
_cell_angle_beta 68.738517
_cell_angle_gamma 90.000000
_cell_volume 2977.468304
_symmetry_space_group_name_H-M "C 2/C"
_symmetry_group_IT_number 15
_symmetry_cell_setting 'monoclinic'
loop_
_space_group_symop_operation_xyz
x,y,z
-x,y,1/2-z
-x,-y,-z
x,-y,1/2+z
1/2+x,1/2+y,z
1/2-x,1/2+y,1/2-z
1/2-x,1/2-y,-z
1/2+x,1/2-y,1/2+z
loop_
_atom_site_type_symbol
_atom_site_label
_atom_site_fract_x
_atom_site_fract_y
_atom_site_fract_z
Si Si1 0.783831 0.633303 0.632874
Si Si2 0.087496 0.257441 0.135632
Si Si3 0.268792 0.592374 0.275882
Si Si4 0.081365 0.132814 0.469434
Si Si5 0.087830 0.307911 0.638350
Si Si6 0.850626 0.026175 0.427730
Si Si7 0.500000 0.578653 0.250000
Si Si8 0.365893 0.323828 0.130582
O O1 0.781691 0.595728 0.428681
O O2 0.865265 0.653439 0.495097
O O3 0.718387 0.664995 0.647823
O O4 0.771348 0.621405 0.959011
O O5 0.108187 0.272064 0.406964
O O6 0.000000 0.244405 0.250000
O O7 0.106446 0.293545 0.913320
O O8 0.136346 0.220637 0.968393
O O9 0.351449 0.603413 0.042144
O O10 0.278145 0.551114 0.421505
O O11 0.003399 0.107698 0.512543
O O12 0.074783 0.167717 0.701438
O O13 0.107165 0.148923 0.145913
O O14 0.000000 0.319922 0.750000
O O15 0.926417 0.052018 0.325503
O O16 0.848900 0.012017 0.739883
#
# Coordination Sequence:
#
# PCOD8134136 Si02
#       8
#     8   8   8   8   8   8   4   8
#     4  10  19  35  57  76 103 136 175 224 268 323
#     4  10  21  35  49  71 108 138 175 228 271 330
#     4   9  19  35  53  77 106 133 174 221 259 308
#     4   9  20  33  48  70  99 137 183 236 265 295
#     4  10  21  36  54  78 105 136 167 219 284 331
#     4  11  22  36  56  79 112 147 180 220 269 319
#     4  10  22  36  50  76 108 148 196 232 264 306
#     4  10  20  34  50  72  98 140 187 222 276 315
#
# _framework density 20.151349
#
# number of rings (size 3 to 8) (size 9 to 14) (size 15 to 20)
#    0.000    2.133    0.000    2.800    0.933    5.867 
#    0.000    0.000    0.000    0.000    0.000    0.000 
#    0.000   10.667    0.000    0.000    0.000    0.000 
#
# Total GULP energy -371669.868032 kJ/mol
# GULP energy per Si atom -12388.995601 kJ/mol
# Density = 2.010548 g / cm^3
# Si number density = 20.151349 Si / 1000 Ang^3
#
#
#
# Elastic Constant Matrix: (Units=GPa)
#
#
# Indices 1 2 3 4 5 6 
#
# 1 55.0662 34.7244 28.1450 0.0000 3.0284 0.0000
# 2 34.7244 62.9460 7.7005 0.0000 -8.2279 0.0000
# 3 28.1450 7.7005 75.3167 0.0000 7.0501 0.0000
# 4 0.0000 0.0000 0.0000 15.4472 0.0000 6.9605
# 5 3.0284 -8.2279 7.0501 0.0000 27.6103 0.0000
# 6 0.0000 0.0000 0.0000 6.9605 0.0000 24.6402
#
#
#
# Elastic Compliance Matrix: (Units=1/GPa)
#
#
# Indices 1 2 3 4 5 6 
#
# 1 0.036675 -0.019815 -0.011013 0.000000 -0.007115 0.000000
# 2 -0.019815 0.027601 0.003698 0.000000 0.009454 0.000000
# 3 -0.011013 0.003698 0.017210 0.000000 -0.002085 0.000000
# 4 0.000000 0.000000 0.000000 0.074179 0.000000 -0.020955
# 5 -0.007115 0.009454 -0.002085 0.000000 0.040349 0.000000
# 6 0.000000 0.000000 0.000000 -0.020955 0.000000 0.046503
#
#
# Mechanical properties :
#
#
# Convention : Reuss Voigt Hill
#
# Bulk Modulus (GPa) = 36.73049 37.16321 36.94685
# Shear Modulus (GPa) = 16.34770 21.72347 19.03559
#
# Velocity S-wave (km/s) = 2.85133 3.28688 3.07682
# Velocity P-wave (km/s) = 5.39509 5.73470 5.56749
#
# Compressibility (1/GPa) = 0.02722533
#
# Stress axis : x y z
#
# Youngs Moduli (GPa) = 27.26617 36.23045 58.10617
#
# Poissons Ratio (x) = 0.71790 0.63994
# Poissons Ratio (y) = 0.54028 -0.21486
# Poissons Ratio (z) = 0.30029 -0.13397
#
# Static dielectric constant tensor:
#      x y z
#    x 3.585230 0.000000 0.304480 
#    y 0.000000 3.526760 0.000000 
#    z 0.304480 0.000000 3.892120 
# 
# 
# High freq. dielectric constant tensor:
#      x y z
#    x 1.753010 0.000000 0.029360 
#    y 0.000000 1.763720 0.000000 
#    z 0.029360 0.000000 1.806960 
# 
# From -- ./inp_files/12149.got.cif
#   From: 2010.06.25/outbox.cif.g09.slc.cpg/sg15_7_cif.got.tgz:12149.got - 2010.06.28 07:06:18.
