data_PCOD8134387
_publ_section_title
;
Structure prediction by ZEFSAII (Michael W. Deem and Ramdas Pophale) SiO2 
 PCOD8134387
Probable space group: C 2/C
;
_chemical_formula_sum "Si O2"
_cell_formula_units_Z 60
_cell_length_a 19.126600
_cell_length_b 17.445138
_cell_length_c 18.892929
_cell_angle_alpha 90.000000
_cell_angle_beta 154.197139
_cell_angle_gamma 90.000000
_cell_volume 2743.950384
_symmetry_space_group_name_H-M "C 2/C"
_symmetry_group_IT_number 15
_symmetry_cell_setting 'monoclinic'
loop_
_space_group_symop_operation_xyz
x,y,z
-x,y,1/2-z
-x,-y,-z
x,-y,1/2+z
1/2+x,1/2+y,z
1/2-x,1/2+y,1/2-z
1/2-x,1/2-y,-z
1/2+x,1/2-y,1/2+z
loop_
_atom_site_type_symbol
_atom_site_label
_atom_site_fract_x
_atom_site_fract_y
_atom_site_fract_z
Si Si1 0.000000 0.856886 0.250000
Si Si2 0.675670 0.172283 0.385356
Si Si3 0.175088 0.493063 0.399745
Si Si4 0.353000 0.861016 0.389533
Si Si5 0.730317 0.548739 0.662091
Si Si6 0.183893 0.712357 0.232828
Si Si7 0.382299 0.415428 0.857616
Si Si8 0.671934 0.527072 0.819047
O O1 0.168149 0.808589 0.419116
O O2 0.027731 0.913217 0.207317
O O3 0.500000 0.205878 0.250000
O O4 0.720461 0.200881 0.348777
O O5 0.659836 0.081571 0.366797
O O6 0.255380 0.445199 0.409071
O O7 0.274781 0.482178 0.562098
O O8 0.000000 0.456684 0.250000
O O9 0.375655 0.908515 0.336452
O O10 0.205906 0.802664 0.241558
O O11 0.505678 0.811752 0.549830
O O12 0.316598 0.921913 0.418845
O O13 0.722791 0.460001 0.678966
O O14 0.569831 0.588740 0.547653
O O15 0.306706 0.668976 0.291075
O O16 0.380489 0.460198 0.781323
#
# Coordination Sequence:
#
# PCOD8134387 Si02
#       8
#     4   8   8   8   8   8   8   8
#     4  10  20  36  64  84 132 160 208 258 320 370
#     4  10  21  39  59  90 125 169 212 255 309 385
#     4  10  19  35  62  92 129 157 205 263 319 376
#     4  11  26  40  61  90 129 165 220 255 315 372
#     4  10  21  38  62  94 121 165 209 264 314 377
#     4  12  24  42  62  87 127 172 214 259 310 379
#     4  10  21  36  64  88 125 161 212 260 313 371
#     4  10  22  37  62  96 120 165 208 263 316 380
#
# _framework density 21.866285000000001
#
# number of rings (size 3 to 8) (size 9 to 14) (size 15 to 20)
#    0.000    1.600    1.333    4.800    7.467    1.067 
#    1.200    3.333    1.467    0.800    1.733    0.000 
#    0.000    0.000    0.000    0.000    0.000    0.000 
#
# Total GULP energy -371856.206468 kJ/mol
# GULP energy per Si atom -12395.206882 kJ/mol
# Density = 2.181652 g / cm^3
# Si number density = 21.866285 Si / 1000 Ang^3
#
#
#
# Elastic Constant Matrix: (Units=GPa)
#
#
# Indices 1 2 3 4 5 6 
#
# 1 103.3769 33.7719 43.6958 0.0301 -15.4522 0.0022
# 2 33.7719 45.3304 30.7072 -0.1131 -7.2928 0.0148
# 3 43.6958 30.7072 96.8906 -0.0624 -13.3080 0.0031
# 4 0.0301 -0.1131 -0.0624 28.5835 -0.0043 2.0409
# 5 -15.4522 -7.2928 -13.3080 -0.0043 31.0179 0.0239
# 6 0.0022 0.0148 0.0031 2.0409 0.0239 20.9534
#
#
#
# Elastic Compliance Matrix: (Units=1/GPa)
#
#
# Indices 1 2 3 4 5 6 
#
# 1 0.014194 -0.007616 -0.003466 -0.000052 0.003793 0.000005
# 2 -0.007616 0.032436 -0.006714 0.000124 0.000951 -0.000034
# 3 -0.003466 -0.006714 0.014407 0.000009 0.002876 -0.000001
# 4 -0.000052 0.000124 0.000009 0.035231 0.000014 -0.003432
# 5 0.003793 0.000951 0.002876 0.000014 0.035587 -0.000044
# 6 0.000005 -0.000034 -0.000001 -0.003432 -0.000044 0.048059
#
#
# Mechanical properties :
#
#
# Convention : Reuss Voigt Hill
#
# Bulk Modulus (GPa) = 39.30341 51.32751 45.31546
# Shear Modulus (GPa) = 22.32257 25.27249 23.79753
#
# Velocity S-wave (km/s) = 3.19857 3.40336 3.30255
# Velocity P-wave (km/s) = 5.62624 6.24244 5.94233
#
# Compressibility (1/GPa) = 0.02544308
#
# Stress axis : x y z
#
# Youngs Moduli (GPa) = 70.45433 30.82966 69.41014
#
# Poissons Ratio (x) = 0.23481 0.24060
# Poissons Ratio (y) = 0.53660 0.46605
# Poissons Ratio (z) = 0.24422 0.20700
#
# Static dielectric constant tensor:
#      x y z
#    x 3.957670 -0.000070 0.086650 
#    y -0.000070 3.701380 0.000000 
#    z 0.086650 0.000000 4.161470 
# 
# 
# High freq. dielectric constant tensor:
#      x y z
#    x 1.852180 0.000000 0.003260 
#    y 0.000000 1.835070 0.000000 
#    z 0.003260 0.000000 1.873800 
# 
# From -- ./inp_files/211754.got.cif
#   From: 2010.06.25/outbox.cif.g09.slc.cpg/sg15_106_cif.got.tgz:211754.got - 2010.06.28 07:06:18.
