data_PCOD8134256
_publ_section_title
;
Structure prediction by ZEFSAII (Michael W. Deem and Ramdas Pophale) SiO2 
 PCOD8134256
Probable space group: C 2/C
;
_chemical_formula_sum "Si O2"
_cell_formula_units_Z 36
_cell_length_a 14.259749
_cell_length_b 17.933227
_cell_length_c 8.842061
_cell_angle_alpha 90.000000
_cell_angle_beta 52.166470
_cell_angle_gamma 90.000000
_cell_volume 1785.824894
_symmetry_space_group_name_H-M "C 2/C"
_symmetry_group_IT_number 15
_symmetry_cell_setting 'monoclinic'
loop_
_space_group_symop_operation_xyz
x,y,z
-x,y,1/2-z
-x,-y,-z
x,-y,1/2+z
1/2+x,1/2+y,z
1/2-x,1/2+y,1/2-z
1/2-x,1/2-y,-z
1/2+x,1/2-y,1/2+z
loop_
_atom_site_type_symbol
_atom_site_label
_atom_site_fract_x
_atom_site_fract_y
_atom_site_fract_z
Si Si1 0.148968 0.959364 0.979856
Si Si2 0.111124 0.908011 0.332677
Si Si3 0.000000 0.482011 0.250000
Si Si4 0.123635 0.751286 0.217322
Si Si5 0.124055 0.592698 0.356274
O O1 0.235161 0.916474 0.779726
O O2 0.151306 0.048687 0.944761
O O3 0.184040 0.943585 0.118870
O O4 0.025578 0.922281 0.061813
O O5 0.138868 0.820308 0.318948
O O6 0.081978 0.534618 0.269820
O O7 0.926862 0.426236 0.429455
O O8 0.095461 0.677240 0.339206
O O9 0.000000 0.767221 0.250000
O O10 0.250000 0.750000 0.000000
#
# Coordination Sequence:
#
# PCOD8134256 Si02
#       5
#     8   8   4   8   8
#     4  10  19  35  59  83 116 151 196 250 284 364
#     4  10  20  36  58  90 113 152 203 239 303 351
#     4  10  24  36  58  86 116 162 202 246 290 366
#     4  12  22  38  62  91 119 161 199 252 299 365
#     4  11  21  39  59  86 121 157 204 245 302 352
#
# _framework density 20.158750999999999
#
# number of rings (size 3 to 8) (size 9 to 14) (size 15 to 20)
#    0.000    1.333    5.556    1.333    0.000    0.000 
#    0.000    4.444    0.000    5.333    0.000    0.000 
#    0.000    0.000    0.000    0.000    0.000    0.000 
#
# Total GULP energy -223002.232390 kJ/mol
# GULP energy per Si atom -12389.012911 kJ/mol
# Density = 2.011287 g / cm^3
# Si number density = 20.158751 Si / 1000 Ang^3
#
#
#
# Elastic Constant Matrix: (Units=GPa)
#
#
# Indices 1 2 3 4 5 6 
#
# 1 24.8581 14.5627 28.2482 0.0000 -0.6931 0.0000
# 2 14.5627 177.1692 60.2371 0.0000 13.0648 0.0000
# 3 28.2482 60.2371 141.1785 0.0000 -5.1045 0.0000
# 4 0.0000 0.0000 0.0000 31.0648 0.0000 13.4740
# 5 -0.6931 13.0648 -5.1045 0.0000 30.9598 0.0000
# 6 0.0000 0.0000 0.0000 13.4740 0.0000 17.5453
#
#
#
# Elastic Compliance Matrix: (Units=1/GPa)
#
#
# Indices 1 2 3 4 5 6 
#
# 1 0.052181 -0.000851 -0.010083 0.000000 -0.000135 0.000000
# 2 -0.000851 0.006962 -0.002925 0.000000 -0.003439 0.000000
# 3 -0.010083 -0.002925 0.010447 0.000000 0.002731 0.000000
# 4 0.000000 0.000000 0.000000 0.048269 0.000000 -0.037068
# 5 -0.000135 -0.003439 0.002731 0.000000 0.034199 0.000000
# 6 0.000000 0.000000 0.000000 -0.037068 0.000000 0.085463
#
#
# Mechanical properties :
#
#
# Convention : Reuss Voigt Hill
#
# Bulk Modulus (GPa) = 23.88133 61.03353 42.45743
# Shear Modulus (GPa) = 17.90865 31.92450 24.91658
#
# Velocity S-wave (km/s) = 2.98381 3.98383 3.51952
# Velocity P-wave (km/s) = 4.87269 7.17659 6.13378
#
# Compressibility (1/GPa) = 0.04187372
#
# Stress axis : x y z
#
# Youngs Moduli (GPa) = 19.16415 143.63105 95.71902
#
# Poissons Ratio (x) = 0.12224 0.96509
# Poissons Ratio (y) = 0.01631 0.27995
# Poissons Ratio (z) = 0.19322 0.42007
#
# Static dielectric constant tensor:
#      x y z
#    x 3.603260 0.000000 -0.087400 
#    y 0.000000 3.840400 0.000000 
#    z -0.087400 0.000000 4.286860 
# 
# 
# High freq. dielectric constant tensor:
#      x y z
#    x 1.765900 0.000000 -0.027140 
#    y 0.000000 1.793560 0.000000 
#    z -0.027140 0.000000 1.794920 
# 
# From -- ./inp_files/38501.got.cif
#   From: 2010.06.25/outbox.cif.g09.slc.cpg/sg15_20_cif.got.tgz:38501.got - 2010.06.28 07:06:18.
