data_PCOD8134114
_publ_section_title
;
Structure prediction by ZEFSAII (Michael W. Deem and Ramdas Pophale) SiO2 
 PCOD8134114
Probable space group: C 2/C
;
_chemical_formula_sum "Si O2"
_cell_formula_units_Z 60
_cell_length_a 18.687601
_cell_length_b 20.226023
_cell_length_c 8.360797
_cell_angle_alpha 90.000000
_cell_angle_beta 108.351545
_cell_angle_gamma 90.000000
_cell_volume 2999.460881
_symmetry_space_group_name_H-M "C 2/C"
_symmetry_group_IT_number 15
_symmetry_cell_setting 'monoclinic'
loop_
_space_group_symop_operation_xyz
x,y,z
-x,y,1/2-z
-x,-y,-z
x,-y,1/2+z
1/2+x,1/2+y,z
1/2-x,1/2+y,1/2-z
1/2-x,1/2-y,-z
1/2+x,1/2-y,1/2+z
loop_
_atom_site_type_symbol
_atom_site_label
_atom_site_fract_x
_atom_site_fract_y
_atom_site_fract_z
Si Si1 0.523370 0.309468 0.589528
Si Si2 0.500000 0.612153 0.750000
Si Si3 0.319781 0.294615 0.681484
Si Si4 0.304563 0.903679 0.956621
Si Si5 0.252170 0.004598 0.161450
Si Si6 0.336774 0.576165 0.665882
Si Si7 0.209213 0.225022 0.814681
Si Si8 0.599732 0.215340 0.030141
O O1 0.500000 0.339068 0.750000
O O2 0.492374 0.347705 0.412088
O O3 0.614049 0.308733 0.641693
O O4 0.488669 0.234184 0.547689
O O5 0.425024 0.567642 0.685796
O O6 0.271094 0.360434 0.619694
O O7 0.267882 0.235052 0.709590
O O8 0.357771 0.270797 0.545964
O O9 0.309619 0.955981 0.815586
O O10 0.380787 0.859103 0.012694
O O11 0.300259 0.945411 0.116264
O O12 0.180909 0.973199 0.202248
O O13 0.217257 0.057167 0.016839
O O14 0.316836 0.650443 0.697281
O O15 0.135200 0.271514 0.731564
O O16 0.250000 0.250000 0.000000
#
# Coordination Sequence:
#
# PCOD8134114 Si02
#       8
#     8   4   8   8   8   8   8   8
#     4  10  22  36  56  90 121 153 184 233 316 359
#     4  12  22  38  58  80 124 150 192 248 286 350
#     4  10  20  34  57  86 112 149 189 239 302 358
#     4  10  19  35  58  82 116 150 197 242 283 345
#     4  10  22  36  53  79 112 155 206 229 276 341
#     4  11  22  37  53  79 111 155 190 241 280 344
#     4  11  19  32  56  84 108 139 187 244 303 341
#     4  10  19  35  56  83 113 150 184 241 305 353
#
# _framework density 20.003595000000001
#
# number of rings (size 3 to 8) (size 9 to 14) (size 15 to 20)
#    0.000    1.600    1.333    6.400    1.867    0.533 
#    0.000    0.000    0.000    0.000    0.000   25.200 
#    0.000    0.000    0.000    0.000    0.000    0.000 
#
# Total GULP energy -371789.211068 kJ/mol
# GULP energy per Si atom -12392.973702 kJ/mol
# Density = 1.995807 g / cm^3
# Si number density = 20.003595 Si / 1000 Ang^3
#
#
#
# Elastic Constant Matrix: (Units=GPa)
#
#
# Indices 1 2 3 4 5 6 
#
# 1 36.2352 11.2428 -1.5045 0.0000 0.7478 0.0000
# 2 11.2428 82.0640 13.2607 0.0000 -11.4384 0.0000
# 3 -1.5045 13.2607 78.5488 0.0000 -7.3050 0.0000
# 4 0.0000 0.0000 0.0000 23.3416 0.0000 -2.2419
# 5 0.7478 -11.4384 -7.3050 0.0000 23.5487 0.0000
# 6 0.0000 0.0000 0.0000 -2.2419 0.0000 25.9645
#
#
#
# Elastic Compliance Matrix: (Units=1/GPa)
#
#
# Indices 1 2 3 4 5 6 
#
# 1 0.029112 -0.004551 0.001065 0.000000 -0.002805 0.000000
# 2 -0.004551 0.013997 -0.001858 0.000000 0.006367 0.000000
# 3 0.001065 -0.001858 0.013363 0.000000 0.003209 0.000000
# 4 0.000000 0.000000 0.000000 0.043200 0.000000 0.003730
# 5 -0.002805 0.006367 0.003209 0.000000 0.046642 0.000000
# 6 0.000000 0.000000 0.000000 0.003730 0.000000 0.038836
#
#
# Mechanical properties :
#
#
# Convention : Reuss Voigt Hill
#
# Bulk Modulus (GPa) = 21.84194 26.98290 24.41242
# Shear Modulus (GPa) = 23.68539 26.16089 24.92314
#
# Velocity S-wave (km/s) = 3.44475 3.62029 3.53361
# Velocity P-wave (km/s) = 5.17343 5.56719 5.37392
#
# Compressibility (1/GPa) = 0.04578347
#
# Stress axis : x y z
#
# Youngs Moduli (GPa) = 34.35040 71.44471 74.83095
#
# Poissons Ratio (x) = 0.32517 -0.07970
# Poissons Ratio (y) = 0.15634 0.13904
# Poissons Ratio (z) = -0.03659 0.13275
#
# Static dielectric constant tensor:
#      x y z
#    x 5.055590 0.000000 0.739710 
#    y 0.000000 3.658870 0.000000 
#    z 0.739710 0.000000 4.349380 
# 
# 
# High freq. dielectric constant tensor:
#      x y z
#    x 1.757090 0.000000 0.000200 
#    y 0.000000 1.761730 0.000000 
#    z 0.000200 0.000000 1.801540 
# 
# From -- ./inp_files/56536.got.cif
#   From: 2010.06.25/outbox.cif.g09.slc.cpg/sg15_29_cif.got.tgz:56536.got - 2010.06.28 07:06:18.
