data_PCOD8134550
_publ_section_title
;
Structure prediction by ZEFSAII (Michael W. Deem and Ramdas Pophale) SiO2 
 PCOD8134550
Probable space group: C 2/C
;
_chemical_formula_sum "Si O2"
_cell_formula_units_Z 60
_cell_length_a 11.529337
_cell_length_b 31.129596
_cell_length_c 10.732355
_cell_angle_alpha 90.000000
_cell_angle_beta 51.302160
_cell_angle_gamma 90.000000
_cell_volume 3006.215753
_symmetry_space_group_name_H-M "C 2/C"
_symmetry_group_IT_number 15
_symmetry_cell_setting 'monoclinic'
loop_
_space_group_symop_operation_xyz
x,y,z
-x,y,1/2-z
-x,-y,-z
x,-y,1/2+z
1/2+x,1/2+y,z
1/2-x,1/2+y,1/2-z
1/2-x,1/2-y,-z
1/2+x,1/2-y,1/2+z
loop_
_atom_site_type_symbol
_atom_site_label
_atom_site_fract_x
_atom_site_fract_y
_atom_site_fract_z
Si Si1 0.957203 0.800337 0.632049
Si Si2 0.643916 0.977292 0.068674
Si Si3 0.935553 0.398089 0.518255
Si Si4 0.838878 0.111299 0.136903
Si Si5 0.036617 0.967220 0.585600
Si Si6 0.257973 0.230620 0.859443
Si Si7 0.000000 0.338391 0.250000
Si Si8 0.355587 0.925775 0.934223
O O1 0.922148 0.843701 0.582005
O O2 0.819672 0.766458 0.721217
O O3 0.000000 0.807821 0.750000
O O4 0.087902 0.783042 0.452677
O O5 0.500000 0.974642 0.250000
O O6 0.684639 0.025552 0.999333
O O7 0.610662 0.947955 0.971290
O O8 0.787265 0.957614 0.043447
O O9 0.810278 0.378282 0.688573
O O10 0.933987 0.369573 0.397486
O O11 0.097750 0.398191 0.475544
O O12 0.788663 0.095763 0.032673
O O13 0.944208 0.076265 0.129806
O O14 0.000000 0.985136 0.750000
O O15 0.000000 0.000000 0.500000
O O16 0.369444 0.190318 0.780403
O O17 0.250000 0.250000 0.000000
O O18 0.500000 0.927661 0.750000
#
# Coordination Sequence:
#
# PCOD8134550 Si02
#       8
#     8   8   8   8   8   8   4   8
#     4  10  20  34  61  89 120 153 204 254 319 377
#     4  11  22  40  61  87 126 170 220 267 316 375
#     4  11  22  36  61  92 123 162 214 267 308 378
#     4  11  22  39  62  89 125 171 213 253 318 385
#     4  12  25  42  62  95 132 174 220 269 327 382
#     4  10  19  36  57  92 121 155 190 258 328 382
#     4  12  22  36  60  98 126 148 208 268 330 370
#     4   9  21  39  58  84 119 170 211 253 309 372
#
# _framework density 19.958646999999999
#
# number of rings (size 3 to 8) (size 9 to 14) (size 15 to 20)
#    0.000    1.333    5.333    2.400    1.867    1.067 
#    0.000    0.000    0.000    0.800    3.467    0.000 
#    0.000    0.000    0.000    0.000    0.000    0.000 
#
# Total GULP energy -371779.306608 kJ/mol
# GULP energy per Si atom -12392.643554 kJ/mol
# Density = 1.991322 g / cm^3
# Si number density = 19.958647 Si / 1000 Ang^3
#
#
#
# Elastic Constant Matrix: (Units=GPa)
#
#
# Indices 1 2 3 4 5 6 
#
# 1 105.4522 38.9159 35.8114 0.0000 -11.1305 0.0000
# 2 38.9159 123.3988 35.3216 0.0000 -2.1392 0.0000
# 3 35.8114 35.3216 67.4882 0.0000 -19.5847 0.0000
# 4 0.0000 0.0000 0.0000 10.4517 0.0000 -2.5668
# 5 -11.1305 -2.1392 -19.5847 0.0000 31.9483 0.0000
# 6 0.0000 0.0000 0.0000 -2.5668 0.0000 24.5921
#
#
#
# Elastic Compliance Matrix: (Units=1/GPa)
#
#
# Indices 1 2 3 4 5 6 
#
# 1 0.012141 -0.002419 -0.004861 0.000000 0.001088 0.000000
# 2 -0.002419 0.010247 -0.005017 0.000000 -0.003232 0.000000
# 3 -0.004861 -0.005017 0.023639 0.000000 0.012462 0.000000
# 4 0.000000 0.000000 0.000000 0.098195 0.000000 0.010249
# 5 0.001088 -0.003232 0.012462 0.000000 0.039102 0.000000
# 6 0.000000 0.000000 0.000000 0.010249 0.000000 0.041733
#
#
# Mechanical properties :
#
#
# Convention : Reuss Voigt Hill
#
# Bulk Modulus (GPa) = 46.65707 57.38188 52.01947
# Shear Modulus (GPa) = 19.47071 25.81776 22.64424
#
# Velocity S-wave (km/s) = 3.12677 3.60052 3.37197
# Velocity P-wave (km/s) = 6.03848 6.78953 6.42499
#
# Compressibility (1/GPa) = 0.02143298
#
# Stress axis : x y z
#
# Youngs Moduli (GPa) = 82.36461 97.59201 42.30302
#
# Poissons Ratio (x) = 0.23605 0.20563
# Poissons Ratio (y) = 0.19921 0.21225
# Poissons Ratio (z) = 0.40036 0.48966
#
# Static dielectric constant tensor:
#      x y z
#    x 3.791710 0.000000 -0.293960 
#    y 0.000000 3.799750 0.000000 
#    z -0.293960 0.000000 3.702490 
# 
# 
# High freq. dielectric constant tensor:
#      x y z
#    x 1.767030 0.000000 -0.026380 
#    y 0.000000 1.777950 0.000000 
#    z -0.026380 0.000000 1.764710 
# 
# From -- ./inp_files/92600.got.cif
#   From: 2010.06.25/outbox.cif.g09.slc.cpg/sg15_47_cif.got.tgz:92600.got - 2010.06.28 07:06:18.
