data_PCOD8134918
_publ_section_title
;
Structure prediction by ZEFSAII (Michael W. Deem and Ramdas Pophale) SiO2 
 PCOD8134918
Probable space group: C 2/C
;
_chemical_formula_sum "Si O2"
_cell_formula_units_Z 52
_cell_length_a 29.463619
_cell_length_b 14.155227
_cell_length_c 8.571789
_cell_angle_alpha 90.000000
_cell_angle_beta 133.313101
_cell_angle_gamma 90.000000
_cell_volume 2601.217065
_symmetry_space_group_name_H-M "C 2/C"
_symmetry_group_IT_number 15
_symmetry_cell_setting 'monoclinic'
loop_
_space_group_symop_operation_xyz
x,y,z
-x,y,1/2-z
-x,-y,-z
x,-y,1/2+z
1/2+x,1/2+y,z
1/2-x,1/2+y,1/2-z
1/2-x,1/2-y,-z
1/2+x,1/2-y,1/2+z
loop_
_atom_site_type_symbol
_atom_site_label
_atom_site_fract_x
_atom_site_fract_y
_atom_site_fract_z
Si Si1 0.116690 0.604823 0.959849
Si Si2 0.197656 0.697063 0.649357
Si Si3 0.300653 0.579829 0.040485
Si Si4 0.000000 0.697633 0.250000
Si Si5 0.589583 0.913485 0.740106
Si Si6 0.261060 0.600568 0.293626
Si Si7 0.889723 0.236368 0.294203
O O1 0.093360 0.524252 0.786704
O O2 0.102089 0.705619 0.846388
O O3 0.077525 0.598009 0.027476
O O4 0.189223 0.589814 0.173614
O O5 0.153910 0.637881 0.433039
O O6 0.213285 0.796020 0.602859
O O7 0.166224 0.712948 0.743989
O O8 0.261003 0.639669 0.822330
O O9 0.265839 0.580421 0.122393
O O10 0.369425 0.627991 0.211404
O O11 0.304940 0.472421 0.991510
O O12 0.967428 0.631789 0.300750
O O13 0.048308 0.765428 0.454135
#
# Coordination Sequence:
#
# PCOD8134918 Si02
#       7
#     8   8   8   4   8   8   8
#     4  12  21  35  57  90 118 155 182 238 283 356
#     4  10  19  37  56  84 117 158 184 234 284 347
#     4  11  20  36  58  86 118 159 183 232 286 349
#     4  10  24  44  58  78 110 162 198 248 270 332
#     4  11  24  35  58  83 118 151 201 226 291 336
#     4  11  21  33  56  87 125 149 182 232 296 341
#     4  10  21  39  60  78 115 154 200 231 287 329
#
# _framework density 19.990642999999999
#
# number of rings (size 3 to 8) (size 9 to 14) (size 15 to 20)
#    0.000    1.231    4.615    3.692    0.000    4.923 
#    0.000    0.000    0.000    8.308    0.000    0.000 
#    0.000    0.000    0.000    0.000    0.000    0.000 
#
# Total GULP energy -322514.102471 kJ/mol
# GULP energy per Si atom -12404.388557 kJ/mol
# Density = 1.994514 g / cm^3
# Si number density = 19.990643 Si / 1000 Ang^3
#
#
#
# Elastic Constant Matrix: (Units=GPa)
#
#
# Indices 1 2 3 4 5 6 
#
# 1 90.5633 29.6964 36.2521 0.0000 -7.0266 0.0000
# 2 29.6964 77.8259 23.7781 0.0000 0.1561 0.0000
# 3 36.2521 23.7781 72.6171 0.0000 4.4179 0.0000
# 4 0.0000 0.0000 0.0000 24.7039 0.0000 1.2896
# 5 -7.0266 0.1561 4.4179 0.0000 31.6781 0.0000
# 6 0.0000 0.0000 0.0000 1.2896 0.0000 20.0667
#
#
#
# Elastic Compliance Matrix: (Units=1/GPa)
#
#
# Indices 1 2 3 4 5 6 
#
# 1 0.015290 -0.003812 -0.006649 0.000000 0.004338 0.000000
# 2 -0.003812 0.015239 -0.003057 0.000000 -0.000494 0.000000
# 3 -0.006649 -0.003057 0.018335 0.000000 -0.004017 0.000000
# 4 0.000000 0.000000 0.000000 0.040616 0.000000 -0.002610
# 5 0.004338 -0.000494 -0.004017 0.000000 0.033092 0.000000
# 6 0.000000 0.000000 0.000000 -0.002610 0.000000 0.050002
#
#
# Mechanical properties :
#
#
# Convention : Reuss Voigt Hill
#
# Bulk Modulus (GPa) = 45.81002 46.71771 46.26386
# Shear Modulus (GPa) = 24.16807 25.37505 24.77156
#
# Velocity S-wave (km/s) = 3.48080 3.56665 3.52399
# Velocity P-wave (km/s) = 6.25460 6.35467 6.30484
#
# Compressibility (1/GPa) = 0.02182929
#
# Stress axis : x y z
#
# Youngs Moduli (GPa) = 65.40274 65.62309 54.53903
#
# Poissons Ratio (x) = 0.25012 0.36262
# Poissons Ratio (y) = 0.24928 0.16672
# Poissons Ratio (z) = 0.43486 0.20060
#
# Static dielectric constant tensor:
#      x y z
#    x 3.515730 0.000000 -0.003610 
#    y 0.000000 3.700100 0.000000 
#    z -0.003610 0.000000 3.562670 
# 
# 
# High freq. dielectric constant tensor:
#      x y z
#    x 1.767860 0.000000 -0.012050 
#    y 0.000000 1.772190 0.000000 
#    z -0.012050 0.000000 1.774380 
# 
# From -- ./inp_files/55290.got.cif
#   From: 2010.06.25/outbox.cif.g09.slc.cpg/sg15_28_cif.got.tgz:55290.got - 2010.06.28 07:06:18.
