data_PCOD8135814
_publ_section_title
;
Structure prediction by ZEFSAII (Michael W. Deem and Ramdas Pophale) SiO2 
 PCOD8135814
Probable space group: C 2/C
;
_chemical_formula_sum "Si O2"
_cell_formula_units_Z 48
_cell_length_a 11.231368
_cell_length_b 15.175412
_cell_length_c 25.082473
_cell_angle_alpha 90.000000
_cell_angle_beta 33.646998
_cell_angle_gamma 90.000000
_cell_volume 2368.709107
_symmetry_space_group_name_H-M "C 2/C"
_symmetry_group_IT_number 15
_symmetry_cell_setting 'monoclinic'
loop_
_space_group_symop_operation_xyz
x,y,z
-x,y,1/2-z
-x,-y,-z
x,-y,1/2+z
1/2+x,1/2+y,z
1/2-x,1/2+y,1/2-z
1/2-x,1/2-y,-z
1/2+x,1/2-y,1/2+z
loop_
_atom_site_type_symbol
_atom_site_label
_atom_site_fract_x
_atom_site_fract_y
_atom_site_fract_z
Si Si1 0.593217 0.688321 0.526166
Si Si2 0.207194 0.756243 0.146462
Si Si3 0.677410 0.266348 0.643490
Si Si4 0.992757 0.085028 0.846814
Si Si5 0.173733 0.440689 0.965597
Si Si6 0.047735 0.356717 0.358434
O O1 0.750000 0.750000 0.500000
O O2 0.684574 0.682462 0.431917
O O3 0.352094 0.723829 0.616952
O O4 0.573981 0.598071 0.566147
O O5 0.376452 0.781314 0.128790
O O6 0.000000 0.709988 0.250000
O O7 0.132812 0.845244 0.143787
O O8 0.500000 0.304302 0.750000
O O9 0.802729 0.343612 0.566841
O O10 0.584939 0.192173 0.638126
O O11 0.247501 0.090559 0.741888
O O12 0.905222 0.986696 0.870130
O O13 0.000000 0.500000 0.000000
O O14 0.100551 0.427566 0.054636
#
# Coordination Sequence:
#
# PCOD8135814 Si02
#       6
#     8   8   8   8   8   8
#     4  10  19  40  62  92 125 169 212 256 325 396
#     4   9  18  34  62  90 125 168 210 263 319 382
#     4  12  25  41  69  96 128 172 222 262 325 403
#     4  10  21  39  62  92 131 167 204 274 330 376
#     4  12  24  40  66 100 128 164 219 278 321 378
#     4  11  22  41  63  94 134 167 214 272 328 380
#
# _framework density 20.264202999999998
#
# number of rings (size 3 to 8) (size 9 to 14) (size 15 to 20)
#    0.000    1.333    5.000    1.500    2.333    0.000 
#    0.000    0.833    0.000    0.000    0.000    0.000 
#    0.000    0.000    0.000    0.000    0.000    0.000 
#
# Total GULP energy -297407.400727 kJ/mol
# GULP energy per Si atom -12391.975030 kJ/mol
# Density = 2.021808 g / cm^3
# Si number density = 20.264203 Si / 1000 Ang^3
#
#
#
# Elastic Constant Matrix: (Units=GPa)
#
#
# Indices 1 2 3 4 5 6 
#
# 1 93.2192 23.8143 34.4490 -0.0009 -13.1229 0.0013
# 2 23.8143 56.4681 22.3803 0.0053 -3.4592 0.0021
# 3 34.4490 22.3803 123.8645 0.0081 8.6225 0.0107
# 4 -0.0009 0.0053 0.0081 30.7927 0.0028 -0.1121
# 5 -13.1229 -3.4592 8.6225 0.0028 38.7959 -0.0008
# 6 0.0013 0.0021 0.0107 -0.1121 -0.0008 19.4532
#
#
#
# Elastic Compliance Matrix: (Units=1/GPa)
#
#
# Indices 1 2 3 4 5 6 
#
# 1 0.013763 -0.004135 -0.003432 0.000002 0.005049 0.000002
# 2 -0.004135 0.020560 -0.002636 -0.000003 0.001021 0.000000
# 3 -0.003432 -0.002636 0.009752 -0.000002 -0.003563 -0.000005
# 4 0.000002 -0.000003 -0.000002 0.032476 -0.000002 0.000187
# 5 0.005049 0.001021 -0.003563 -0.000002 0.028367 0.000003
# 6 0.000002 0.000000 -0.000005 0.000187 0.000003 0.051406
#
#
# Mechanical properties :
#
#
# Convention : Reuss Voigt Hill
#
# Bulk Modulus (GPa) = 42.24824 48.31546 45.28185
# Shear Modulus (GPa) = 27.08269 30.66890 28.87579
#
# Velocity S-wave (km/s) = 3.65976 3.89453 3.77897
# Velocity P-wave (km/s) = 6.22514 6.64211 6.43701
#
# Compressibility (1/GPa) = 0.02366962
#
# Stress axis : x y z
#
# Youngs Moduli (GPa) = 72.65939 48.63795 102.54061
#
# Poissons Ratio (x) = 0.20110 0.35194
# Poissons Ratio (y) = 0.30042 0.27030
# Poissons Ratio (z) = 0.24938 0.12821
#
# Static dielectric constant tensor:
#      x y z
#    x 3.908880 0.000010 0.241760 
#    y 0.000010 3.289860 0.000010 
#    z 0.241760 0.000010 4.231290 
# 
# 
# High freq. dielectric constant tensor:
#      x y z
#    x 1.793100 0.000000 0.002020 
#    y 0.000000 1.741340 0.000000 
#    z 0.002020 0.000000 1.821340 
# 
# From -- ./inp_files/238246.got.cif
#   From: 2010.06.25/outbox.cif.g09.slc.cpg/sg15_120_cif.got.tgz:238246.got - 2010.06.28 07:06:18.
