data_PCOD8135649
_publ_section_title
;
Structure prediction by ZEFSAII (Michael W. Deem and Ramdas Pophale) SiO2 
 PCOD8135649
Probable space group: C 2/C
;
_chemical_formula_sum "Si O2"
_cell_formula_units_Z 56
_cell_length_a 16.434957
_cell_length_b 9.041185
_cell_length_c 24.337988
_cell_angle_alpha 90.000000
_cell_angle_beta 54.307691
_cell_angle_gamma 90.000000
_cell_volume 2937.116588
_symmetry_space_group_name_H-M "C 2/C"
_symmetry_group_IT_number 15
_symmetry_cell_setting 'monoclinic'
loop_
_space_group_symop_operation_xyz
x,y,z
-x,y,1/2-z
-x,-y,-z
x,-y,1/2+z
1/2+x,1/2+y,z
1/2-x,1/2+y,1/2-z
1/2-x,1/2-y,-z
1/2+x,1/2-y,1/2+z
loop_
_atom_site_type_symbol
_atom_site_label
_atom_site_fract_x
_atom_site_fract_y
_atom_site_fract_z
Si Si1 0.451154 0.874861 0.822984
Si Si2 0.563723 0.182007 0.555535
Si Si3 0.717090 0.892400 0.910073
Si Si4 0.052811 0.156025 0.483104
Si Si5 0.585579 0.213262 0.672631
Si Si6 0.253994 0.275240 0.434432
Si Si7 0.537912 0.879712 0.900731
O O1 0.500000 0.806796 0.750000
O O2 0.363479 0.765390 0.872216
O O3 0.540091 0.869593 0.833680
O O4 0.404816 0.036437 0.828137
O O5 0.665290 0.204866 0.479515
O O6 0.470951 0.261948 0.563969
O O7 0.565752 0.248745 0.616022
O O8 0.543267 0.008119 0.556936
O O9 0.813602 0.800869 0.851280
O O10 0.646229 0.911019 0.884346
O O11 0.740600 0.054309 0.923509
O O12 0.173184 0.161850 0.439536
O O13 0.008117 0.233409 0.554708
O O14 0.000000 0.000000 0.500000
O O15 0.500000 0.265655 0.750000
O O16 0.250000 0.250000 0.500000
#
# Coordination Sequence:
#
# PCOD8135649 Si02
#       7
#     8   8   8   8   8   8   8
#     4  10  23  42  60  83 122 164 198 243 304 357
#     4  10  19  39  62  84 121 156 192 241 303 354
#     4  11  21  37  64  89 115 161 201 243 303 352
#     4  11  22  34  58  94 120 146 194 253 298 348
#     4  10  23  40  60  86 120 158 203 242 290 364
#     4  12  22  38  62  91 121 153 200 253 303 353
#     4  10  19  42  59  84 122 157 190 243 301 359
#
# _framework density 19.066317999999999
#
# number of rings (size 3 to 8) (size 9 to 14) (size 15 to 20)
#    0.000    1.429    4.286    2.143    6.000    0.571 
#    2.571    0.000    0.000    0.000    0.000    0.000 
#    0.000    0.000    0.000    0.000    0.000    0.000 
#
# Total GULP energy -346979.912861 kJ/mol
# GULP energy per Si atom -12392.139745 kJ/mol
# Density = 1.902292 g / cm^3
# Si number density = 19.066318 Si / 1000 Ang^3
#
#
#
# Elastic Constant Matrix: (Units=GPa)
#
#
# Indices 1 2 3 4 5 6 
#
# 1 132.7357 43.1039 75.3984 0.0000 0.4104 0.0001
# 2 43.1039 68.4832 31.0997 0.0000 3.8142 0.0003
# 3 75.3984 31.0997 145.1406 0.0000 3.6801 0.0000
# 4 0.0000 0.0000 0.0000 20.4360 0.0000 -7.0573
# 5 0.4104 3.8142 3.6801 0.0000 27.6633 0.0000
# 6 0.0001 0.0003 0.0000 -7.0573 0.0000 30.9212
#
#
#
# Elastic Compliance Matrix: (Units=1/GPa)
#
#
# Indices 1 2 3 4 5 6 
#
# 1 0.012265 -0.005408 -0.005245 0.000000 0.001261 0.000000
# 2 -0.005408 0.018648 -0.001127 0.000000 -0.002341 0.000000
# 3 -0.005245 -0.001127 0.009883 0.000000 -0.001082 0.000000
# 4 0.000000 0.000000 0.000000 0.053120 0.000000 0.012124
# 5 0.001261 -0.002341 -0.001082 0.000000 0.036597 0.000000
# 6 0.000000 0.000000 0.000000 0.012124 0.000000 0.035107
#
#
# Mechanical properties :
#
#
# Convention : Reuss Voigt Hill
#
# Bulk Modulus (GPa) = 58.01509 71.72930 64.87219
# Shear Modulus (GPa) = 25.65057 28.92127 27.28592
#
# Velocity S-wave (km/s) = 3.67186 3.89894 3.78710
# Velocity P-wave (km/s) = 6.96210 7.61391 7.29529
#
# Compressibility (1/GPa) = 0.01723689
#
# Stress axis : x y z
#
# Youngs Moduli (GPa) = 81.53014 53.62401 101.18026
#
# Poissons Ratio (x) = 0.29002 0.53067
# Poissons Ratio (y) = 0.44095 0.11402
# Poissons Ratio (z) = 0.42761 0.06043
#
# Static dielectric constant tensor:
#      x y z
#    x 3.643000 0.000000 0.089590 
#    y 0.000000 2.607640 0.000000 
#    z 0.089590 0.000000 3.413410 
# 
# 
# High freq. dielectric constant tensor:
#      x y z
#    x 1.753740 0.000000 0.008610 
#    y 0.000000 1.735040 0.000000 
#    z 0.008610 0.000000 1.727190 
# 
# From -- ./inp_files/276527.got.cif
#   From: 2010.06.25/outbox.cif.g09.slc.cpg/sg15_139_cif.got.tgz:276527.got - 2010.06.28 07:06:18.
