data_PCOD8135542
_publ_section_title
;
Structure prediction by ZEFSAII (Michael W. Deem and Ramdas Pophale) SiO2 
 PCOD8135542
Probable space group: C 2/C
;
_chemical_formula_sum "Si O2"
_cell_formula_units_Z 56
_cell_length_a 8.513824
_cell_length_b 16.857807
_cell_length_c 25.953251
_cell_angle_alpha 90.000000
_cell_angle_beta 46.541976
_cell_angle_gamma 90.000000
_cell_volume 2703.842764
_symmetry_space_group_name_H-M "C 2/C"
_symmetry_group_IT_number 15
_symmetry_cell_setting 'monoclinic'
loop_
_space_group_symop_operation_xyz
x,y,z
-x,y,1/2-z
-x,-y,-z
x,-y,1/2+z
1/2+x,1/2+y,z
1/2-x,1/2+y,1/2-z
1/2-x,1/2-y,-z
1/2+x,1/2-y,1/2+z
loop_
_atom_site_type_symbol
_atom_site_label
_atom_site_fract_x
_atom_site_fract_y
_atom_site_fract_z
Si Si1 0.982041 0.862979 0.358408
Si Si2 0.784266 0.482672 0.579551
Si Si3 0.074096 0.700500 0.175591
Si Si4 0.536035 0.585225 0.428986
Si Si5 0.324422 0.409981 0.081247
Si Si6 0.888003 0.565879 0.722683
Si Si7 0.249441 0.913650 0.694876
O O1 0.869084 0.781576 0.367306
O O2 0.032192 0.865049 0.408268
O O3 0.205716 0.869168 0.275999
O O4 0.823916 0.934714 0.379237
O O5 0.624678 0.429325 0.581731
O O6 0.842045 0.433186 0.617378
O O7 0.000000 0.500000 0.500000
O O8 0.289454 0.648419 0.128672
O O9 0.000000 0.718942 0.250000
O O10 0.884094 0.658946 0.186686
O O11 0.657046 0.504939 0.417749
O O12 0.403075 0.619243 0.507846
O O13 0.067568 0.392981 0.145355
O O14 0.770622 0.489941 0.726053
O O15 0.000000 0.535899 0.750000
O O16 0.000000 0.887768 0.750000
#
# Coordination Sequence:
#
# PCOD8135542 Si02
#       7
#     8   8   8   8   8   8   8
#     4  10  24  41  67  97 131 171 224 275 333 387
#     4  11  24  42  69 102 130 171 224 281 328 399
#     4  12  27  43  65  98 137 180 218 278 338 400
#     4  10  21  42  65  98 130 176 220 264 339 407
#     4   9  19  38  71  93 126 172 225 266 318 411
#     4  10  19  38  66  94 124 176 226 270 320 399
#     4  12  23  38  67  95 132 172 225 276 330 384
#
# _framework density 20.711264
#
# number of rings (size 3 to 8) (size 9 to 14) (size 15 to 20)
#    0.000    1.429    2.857    2.143    8.000    2.286 
#    0.000    0.714    0.000    0.000    0.000    0.000 
#    0.000    0.000    0.000    0.000    0.000    0.000 
#
# Total GULP energy -347341.609270 kJ/mol
# GULP energy per Si atom -12405.057474 kJ/mol
# Density = 2.066412 g / cm^3
# Si number density = 20.711264 Si / 1000 Ang^3
#
#
#
# Elastic Constant Matrix: (Units=GPa)
#
#
# Indices 1 2 3 4 5 6 
#
# 1 102.8602 55.3323 37.2149 -0.0011 -2.1307 0.0018
# 2 55.3323 91.6137 38.3459 -0.0005 9.6210 0.0008
# 3 37.2149 38.3459 124.0558 0.0023 -0.3346 0.0049
# 4 -0.0011 -0.0005 0.0023 21.2831 0.0011 5.0850
# 5 -2.1307 9.6210 -0.3346 0.0011 39.2127 -0.0011
# 6 0.0018 0.0008 0.0049 5.0850 -0.0011 28.9583
#
#
#
# Elastic Compliance Matrix: (Units=1/GPa)
#
#
# Indices 1 2 3 4 5 6 
#
# 1 0.015110 -0.008660 -0.001848 0.000001 0.002930 0.000000
# 2 -0.008660 0.017892 -0.002946 0.000000 -0.004886 0.000000
# 3 -0.001848 -0.002946 0.009528 -0.000001 0.000704 -0.000001
# 4 0.000001 0.000000 -0.000001 0.049043 -0.000002 -0.008612
# 5 0.002930 -0.004886 0.000704 -0.000002 0.026866 0.000001
# 6 0.000000 0.000000 -0.000001 -0.008612 0.000001 0.036045
#
#
# Mechanical properties :
#
#
# Convention : Reuss Voigt Hill
#
# Bulk Modulus (GPa) = 64.01303 64.47953 64.24628
# Shear Modulus (GPa) = 26.79556 30.39993 28.59774
#
# Velocity S-wave (km/s) = 3.60080 3.83534 3.71992
# Velocity P-wave (km/s) = 6.94709 7.12834 7.03830
#
# Compressibility (1/GPa) = 0.01562182
#
# Stress axis : x y z
#
# Youngs Moduli (GPa) = 66.18202 55.89112 104.95758
#
# Poissons Ratio (x) = 0.48403 0.19396
# Poissons Ratio (y) = 0.57315 0.30917
# Poissons Ratio (z) = 0.12230 0.16464
#
# Static dielectric constant tensor:
#      x y z
#    x 3.915020 0.000000 -0.011550 
#    y 0.000000 3.387940 0.000000 
#    z -0.011550 0.000000 4.091250 
# 
# 
# High freq. dielectric constant tensor:
#      x y z
#    x 1.821000 0.000000 0.003070 
#    y 0.000000 1.776620 0.000000 
#    z 0.003070 0.000000 1.826130 
# 
# From -- ./inp_files/289719.got.cif
#   From: 2010.06.25/outbox.cif.g09.slc.cpg/sg15_145_cif.got.tgz:289719.got - 2010.06.28 07:06:18.
