data_PCOD8135368
_publ_section_title
;
Structure prediction by ZEFSAII (Michael W. Deem and Ramdas Pophale) SiO2 
 PCOD8135368
Probable space group: C 2/C
;
_chemical_formula_sum "Si O2"
_cell_formula_units_Z 44
_cell_length_a 7.675734
_cell_length_b 23.191605
_cell_length_c 16.666622
_cell_angle_alpha 90.000000
_cell_angle_beta 133.777727
_cell_angle_gamma 90.000000
_cell_volume 2142.165842
_symmetry_space_group_name_H-M "C 2/C"
_symmetry_group_IT_number 15
_symmetry_cell_setting 'monoclinic'
loop_
_space_group_symop_operation_xyz
x,y,z
-x,y,1/2-z
-x,-y,-z
x,-y,1/2+z
1/2+x,1/2+y,z
1/2-x,1/2+y,1/2-z
1/2-x,1/2-y,-z
1/2+x,1/2-y,1/2+z
loop_
_atom_site_type_symbol
_atom_site_label
_atom_site_fract_x
_atom_site_fract_y
_atom_site_fract_z
Si Si1 0.253863 0.208139 0.304139
Si Si2 0.403450 0.854887 0.470042
Si Si3 0.691994 0.940588 0.923233
Si Si4 0.000000 0.213632 0.750000
Si Si5 0.806985 0.458079 0.977612
Si Si6 0.176040 0.084581 0.209885
O O1 0.428171 0.193687 0.434762
O O2 0.398458 0.248467 0.289922
O O3 0.175858 0.150707 0.233457
O O4 0.000000 0.237879 0.250000
O O5 0.265701 0.893514 0.493185
O O6 0.567185 0.896493 0.465296
O O7 0.211549 0.825860 0.351321
O O8 0.821740 0.916846 0.886257
O O9 0.402730 0.948239 0.819353
O O10 0.784888 0.005557 0.974027
O O11 0.578303 0.444993 0.845835
O O12 0.000000 0.500000 0.000000
#
# Coordination Sequence:
#
# PCOD8135368 Si02
#       6
#     8   8   8   4   8   8
#     4  11  22  42  68  86 118 169 215 257 310 373
#     4  10  22  41  59  91 123 159 204 257 313 371
#     4   9  20  35  64  91 121 164 197 253 308 367
#     4  12  26  42  62  94 124 158 214 274 320 348
#     4  10  20  34  59  89 123 163 193 244 311 370
#     4  10  19  38  60  91 121 159 214 245 297 388
#
# _framework density 20.539961000000002
#
# number of rings (size 3 to 8) (size 9 to 14) (size 15 to 20)
#    0.000    1.818    1.818    3.273    0.000    3.636 
#    3.273    0.000    0.000    0.000    0.000    0.000 
#    0.000    0.000    0.000    0.000    0.000    0.000 
#
# Total GULP energy -272672.472995 kJ/mol
# GULP energy per Si atom -12394.203318 kJ/mol
# Density = 2.049321 g / cm^3
# Si number density = 20.539961 Si / 1000 Ang^3
#
#
#
# Elastic Constant Matrix: (Units=GPa)
#
#
# Indices 1 2 3 4 5 6 
#
# 1 51.4102 16.1295 20.5980 -0.0001 11.8078 0.0000
# 2 16.1295 75.4664 51.3449 -0.0001 8.5845 0.0000
# 3 20.5980 51.3449 114.8202 -0.0005 18.2797 0.0000
# 4 -0.0001 -0.0001 -0.0005 10.4979 -0.0002 2.3757
# 5 11.8078 8.5845 18.2797 -0.0002 34.3207 0.0000
# 6 0.0000 0.0000 0.0000 2.3757 0.0000 29.1383
#
#
#
# Elastic Compliance Matrix: (Units=1/GPa)
#
#
# Indices 1 2 3 4 5 6 
#
# 1 0.022463 -0.002913 -0.001762 0.000000 -0.006061 0.000000
# 2 -0.002913 0.019425 -0.008249 0.000000 0.000537 0.000000
# 3 -0.001762 -0.008249 0.013428 0.000000 -0.004482 0.000000
# 4 0.000000 0.000000 0.000000 0.097048 0.000000 -0.007912
# 5 -0.006061 0.000537 -0.004482 0.000000 0.033475 0.000000
# 6 0.000000 0.000000 0.000000 -0.007912 0.000000 0.034964
#
#
# Mechanical properties :
#
#
# Convention : Reuss Voigt Hill
#
# Bulk Modulus (GPa) = 33.93560 46.42686 40.18123
# Shear Modulus (GPa) = 19.49508 25.03299 22.26403
#
# Velocity S-wave (km/s) = 3.08414 3.49484 3.29589
# Velocity P-wave (km/s) = 5.40742 6.23999 5.83856
#
# Compressibility (1/GPa) = 0.02946758
#
# Stress axis : x y z
#
# Youngs Moduli (GPa) = 44.51677 51.48018 74.47158
#
# Poissons Ratio (x) = 0.14994 0.13125
# Poissons Ratio (y) = 0.12966 0.61435
# Poissons Ratio (z) = 0.07846 0.42468
#
# Static dielectric constant tensor:
#      x y z
#    x 4.287430 0.000000 -0.074820 
#    y 0.000000 3.867770 0.000000 
#    z -0.074820 0.000000 3.943790 
# 
# 
# High freq. dielectric constant tensor:
#      x y z
#    x 1.815520 0.000000 0.008650 
#    y 0.000000 1.789770 0.000000 
#    z 0.008650 0.000000 1.803170 
# 
# From -- ./inp_files/78113.got.cif
#   From: 2010.06.25/outbox.cif.g09.slc.cpg/sg15_40_cif.got.tgz:78113.got - 2010.06.28 07:06:18.
