data_PCOD8135495
_publ_section_title
;
Structure prediction by ZEFSAII (Michael W. Deem and Ramdas Pophale) SiO2 
 PCOD8135495
Probable space group: C 2/C
;
_chemical_formula_sum "Si O2"
_cell_formula_units_Z 56
_cell_length_a 8.947669
_cell_length_b 22.541430
_cell_length_c 13.566911
_cell_angle_alpha 90.000000
_cell_angle_beta 69.956320
_cell_angle_gamma 90.000000
_cell_volume 2570.617837
_symmetry_space_group_name_H-M "C 2/C"
_symmetry_group_IT_number 15
_symmetry_cell_setting 'monoclinic'
loop_
_space_group_symop_operation_xyz
x,y,z
-x,y,1/2-z
-x,-y,-z
x,-y,1/2+z
1/2+x,1/2+y,z
1/2-x,1/2+y,1/2-z
1/2-x,1/2-y,-z
1/2+x,1/2-y,1/2+z
loop_
_atom_site_type_symbol
_atom_site_label
_atom_site_fract_x
_atom_site_fract_y
_atom_site_fract_z
Si Si1 0.547765 0.142542 0.467142
Si Si2 0.155992 0.525071 0.518539
Si Si3 0.733196 0.416618 0.091329
Si Si4 0.945088 0.835002 0.108182
Si Si5 0.512831 0.737798 0.091233
Si Si6 0.829457 0.582507 0.791985
Si Si7 0.229720 0.725001 0.302188
O O1 0.673377 0.093616 0.479436
O O2 0.373765 0.113349 0.495389
O O3 0.516298 0.195609 0.551143
O O4 0.616903 0.167346 0.346861
O O5 0.300499 0.480959 0.452768
O O6 0.146751 0.525161 0.640900
O O7 0.000000 0.500000 0.500000
O O8 0.583521 0.373039 0.128295
O O9 0.779409 0.433164 0.192717
O O10 0.795558 0.876757 0.124621
O O11 0.887834 0.780649 0.190293
O O12 0.998315 0.810692 0.991325
O O13 0.351155 0.721894 0.185455
O O14 0.672790 0.731120 0.117916
O O15 0.000000 0.616410 0.750000
#
# Coordination Sequence:
#
# PCOD8135495 Si02
#       7
#     8   8   8   8   8   8   8
#     4  10  19  38  64  90 132 172 222 277 330 407
#     4  10  21  40  67  96 126 170 234 280 325 404
#     4  11  25  42  64 100 137 172 226 284 338 400
#     4  11  24  41  63 100 139 169 225 286 333 411
#     4  10  21  37  63 100 132 177 225 279 338 405
#     4  12  22  40  72  94 122 184 227 272 338 407
#     4  10  21  36  65  99 130 179 228 270 347 408
#
# _framework density 21.784645999999999
#
# number of rings (size 3 to 8) (size 9 to 14) (size 15 to 20)
#    0.000    1.429    2.857    4.714    2.000    2.857 
#    2.571    2.143    3.143    0.000    0.000    0.000 
#    0.000    0.000    0.000    0.000    0.000    0.000 
#
# Total GULP energy -346892.070787 kJ/mol
# GULP energy per Si atom -12389.002528 kJ/mol
# Density = 2.173506 g / cm^3
# Si number density = 21.784646 Si / 1000 Ang^3
#
#
#
# Elastic Constant Matrix: (Units=GPa)
#
#
# Indices 1 2 3 4 5 6 
#
# 1 97.1262 53.2517 44.5384 0.0000 -3.1636 0.0000
# 2 53.2517 120.8893 63.0326 0.0000 -4.5384 0.0000
# 3 44.5384 63.0326 105.2421 0.0000 -2.0695 0.0000
# 4 0.0000 0.0000 0.0000 24.0345 0.0000 -4.5792
# 5 -3.1636 -4.5384 -2.0695 0.0000 26.9379 0.0000
# 6 0.0000 0.0000 0.0000 -4.5792 0.0000 25.8208
#
#
#
# Elastic Compliance Matrix: (Units=1/GPa)
#
#
# Indices 1 2 3 4 5 6 
#
# 1 0.014342 -0.004558 -0.003326 0.000000 0.000661 0.000000
# 2 -0.004558 0.013536 -0.006153 0.000000 0.001272 0.000000
# 3 -0.003326 -0.006153 0.014589 0.000000 -0.000306 0.000000
# 4 0.000000 0.000000 0.000000 0.043062 0.000000 0.007637
# 5 0.000661 0.001272 -0.000306 0.000000 0.037391 0.000000
# 6 0.000000 0.000000 0.000000 0.007637 0.000000 0.040083
#
#
# Mechanical properties :
#
#
# Convention : Reuss Voigt Hill
#
# Bulk Modulus (GPa) = 69.48657 71.65590 70.57123
# Shear Modulus (GPa) = 25.52650 26.18764 25.85707
#
# Velocity S-wave (km/s) = 3.42682 3.47091 3.44894
# Velocity P-wave (km/s) = 6.90100 7.00195 6.95165
#
# Compressibility (1/GPa) = 0.01439127
#
# Stress axis : x y z
#
# Youngs Moduli (GPa) = 69.72517 73.87708 68.54597
#
# Poissons Ratio (x) = 0.33677 0.22801
# Poissons Ratio (y) = 0.31784 0.42176
# Poissons Ratio (z) = 0.23193 0.45456
#
# Static dielectric constant tensor:
#      x y z
#    x 3.880220 0.000000 -0.228870 
#    y 0.000000 4.431810 0.000000 
#    z -0.228870 0.000000 4.044750 
# 
# 
# High freq. dielectric constant tensor:
#      x y z
#    x 1.843340 0.000000 -0.009800 
#    y 0.000000 1.851100 0.000000 
#    z -0.009800 0.000000 1.860480 
# 
# From -- ./inp_files/137287.got.cif
#   From: 2010.06.25/outbox.cif.g09.slc.cpg/sg15_69_cif.got.tgz:137287.got - 2010.06.28 07:06:18.
