data_PCOD8135838
_publ_section_title
;
Structure prediction by ZEFSAII (Michael W. Deem and Ramdas Pophale) SiO2 
 PCOD8135838
Probable space group: C 2/C
;
_chemical_formula_sum "Si O2"
_cell_formula_units_Z 40
_cell_length_a 12.197870
_cell_length_b 8.254239
_cell_length_c 18.051737
_cell_angle_alpha 90.000000
_cell_angle_beta 103.129892
_cell_angle_gamma 90.000000
_cell_volume 1770.009063
_symmetry_space_group_name_H-M "C 2/C"
_symmetry_group_IT_number 15
_symmetry_cell_setting 'monoclinic'
loop_
_space_group_symop_operation_xyz
x,y,z
-x,y,1/2-z
-x,-y,-z
x,-y,1/2+z
1/2+x,1/2+y,z
1/2-x,1/2+y,1/2-z
1/2-x,1/2-y,-z
1/2+x,1/2-y,1/2+z
loop_
_atom_site_type_symbol
_atom_site_label
_atom_site_fract_x
_atom_site_fract_y
_atom_site_fract_z
Si Si1 0.259623 0.177767 0.155888
Si Si2 0.047618 0.899248 0.835681
Si Si3 0.553820 0.662751 0.036065
Si Si4 0.007083 0.263605 0.874290
Si Si5 0.278316 0.041502 0.311973
O O1 0.185704 0.128159 0.073012
O O2 0.390970 0.162969 0.157691
O O3 0.235684 0.059187 0.220922
O O4 0.211082 0.352823 0.170950
O O5 0.182989 0.892704 0.853824
O O6 0.000000 0.837402 0.750000
O O7 0.007601 0.781146 0.896583
O O8 0.996603 0.077231 0.846686
O O9 0.500000 0.500000 0.000000
O O10 0.537036 0.788434 0.966099
O O11 0.893187 0.359906 0.840450
#
# Coordination Sequence:
#
# PCOD8135838 Si02
#       5
#     8   8   8   8   8
#     4  11  23  43  66  98 132 174 226 273 328 399
#     4  10  19  40  64  91 132 169 217 274 329 395
#     4  10  22  40  67  95 133 179 214 270 343 390
#     4  10  22  40  65  94 131 173 218 273 333 395
#     4  11  23  40  70  95 130 174 223 280 327 396
#
# _framework density 22.598754
#
# number of rings (size 3 to 8) (size 9 to 14) (size 15 to 20)
#    0.000    1.600    2.000    3.600    2.800    1.600 
#    7.200    0.000    0.000    0.000    0.000    0.000 
#    0.000    0.000    0.000    0.000    0.000    0.000 
#
# Total GULP energy -247878.737786 kJ/mol
# GULP energy per Si atom -12393.936889 kJ/mol
# Density = 2.254732 g / cm^3
# Si number density = 22.598754 Si / 1000 Ang^3
#
#
#
# Elastic Constant Matrix: (Units=GPa)
#
#
# Indices 1 2 3 4 5 6 
#
# 1 152.5306 48.3008 31.4861 0.0000 3.9382 0.0000
# 2 48.3008 38.8175 17.4256 0.0000 3.8408 0.0000
# 3 31.4861 17.4256 144.4744 0.0000 -2.2969 0.0000
# 4 0.0000 0.0000 0.0000 20.7370 0.0000 3.2654
# 5 3.9382 3.8408 -2.2969 0.0000 49.2962 0.0000
# 6 0.0000 0.0000 0.0000 3.2654 0.0000 37.3152
#
#
#
# Elastic Compliance Matrix: (Units=1/GPa)
#
#
# Indices 1 2 3 4 5 6 
#
# 1 0.010903 -0.013229 -0.000779 0.000000 0.000123 0.000000
# 2 -0.013229 0.043546 -0.002408 0.000000 -0.002448 0.000000
# 3 -0.000779 -0.002408 0.007391 0.000000 0.000594 0.000000
# 4 0.000000 0.000000 0.000000 0.048897 0.000000 -0.004279
# 5 0.000123 -0.002448 0.000594 0.000000 0.020494 0.000000
# 6 0.000000 0.000000 0.000000 -0.004279 0.000000 0.027173
#
#
# Mechanical properties :
#
#
# Convention : Reuss Voigt Hill
#
# Bulk Modulus (GPa) = 34.47273 58.91639 46.69456
# Shear Modulus (GPa) = 24.88746 37.37702 31.13224
#
# Velocity S-wave (km/s) = 3.32215 4.07128 3.71564
# Velocity P-wave (km/s) = 5.47749 6.94461 6.25422
#
# Compressibility (1/GPa) = 0.02900844
#
# Stress axis : x y z
#
# Youngs Moduli (GPa) = 91.72018 22.96437 135.29605
#
# Poissons Ratio (x) = 0.30380 0.10533
# Poissons Ratio (y) = 1.21337 0.32580
# Poissons Ratio (z) = 0.07141 0.05530
#
# Static dielectric constant tensor:
#      x y z
#    x 4.764450 0.000000 -0.360980 
#    y 0.000000 3.641040 0.000000 
#    z -0.360980 0.000000 5.157470 
# 
# 
# High freq. dielectric constant tensor:
#      x y z
#    x 1.910540 0.000000 -0.002850 
#    y 0.000000 1.846680 0.000000 
#    z -0.002850 0.000000 1.908480 
# 
# From -- ./inp_files/195238.got.cif
#   From: 2010.06.25/outbox.cif.g09.slc.cpg/sg15_98_cif.got.tgz:195238.got - 2010.06.28 07:06:18.
