data_PCOD8135230
_publ_section_title
;
Structure prediction by ZEFSAII (Michael W. Deem and Ramdas Pophale) SiO2 
 PCOD8135230
Probable space group: C 2/C
;
_chemical_formula_sum "Si O2"
_cell_formula_units_Z 44
_cell_length_a 8.540367
_cell_length_b 17.835279
_cell_length_c 18.751768
_cell_angle_alpha 90.000000
_cell_angle_beta 133.467220
_cell_angle_gamma 90.000000
_cell_volume 2072.986729
_symmetry_space_group_name_H-M "C 2/C"
_symmetry_group_IT_number 15
_symmetry_cell_setting 'monoclinic'
loop_
_space_group_symop_operation_xyz
x,y,z
-x,y,1/2-z
-x,-y,-z
x,-y,1/2+z
1/2+x,1/2+y,z
1/2-x,1/2+y,1/2-z
1/2-x,1/2-y,-z
1/2+x,1/2-y,1/2+z
loop_
_atom_site_type_symbol
_atom_site_label
_atom_site_fract_x
_atom_site_fract_y
_atom_site_fract_z
Si Si1 0.665333 0.432675 0.036437
Si Si2 0.000000 0.483545 0.250000
Si Si3 0.808106 0.871995 0.598888
Si Si4 0.039744 0.770831 0.033212
Si Si5 0.205840 0.606507 0.223251
Si Si6 0.440593 0.248521 0.155235
O O1 0.551312 0.352134 0.002441
O O2 0.860241 0.432490 0.153354
O O3 0.500000 0.500000 0.000000
O O4 0.752193 0.432506 0.982045
O O5 0.164267 0.530342 0.252642
O O6 0.712967 0.788417 0.557134
O O7 0.710878 0.908825 0.640029
O O8 0.065682 0.859137 0.681940
O O9 0.070978 0.782058 0.128591
O O10 0.808695 0.737829 0.939153
O O11 0.007691 0.661144 0.180612
O O12 0.500000 0.287446 0.250000
#
# Coordination Sequence:
#
# PCOD8135230 Si02
#       6
#     8   4   8   8   8   8
#     4  12  24  41  61  91 134 170 206 271 329 392
#     4  12  24  38  64  92 132 172 210 252 338 402
#     4  10  22  41  69  90 125 165 226 272 311 378
#     4  10  23  39  62 100 122 162 223 270 315 378
#     4  10  20  40  65  94 120 178 215 253 322 400
#     4  10  19  37  66  88 128 165 209 265 323 376
#
# _framework density 21.225411999999999
#
# number of rings (size 3 to 8) (size 9 to 14) (size 15 to 20)
#    0.000    1.455    2.727    2.727    0.000    5.091 
#    0.000    1.818    0.000    0.000    0.000    0.000 
#    0.000    0.000    0.000    0.000    0.000    0.000 
#
# Total GULP energy -272716.581680 kJ/mol
# GULP energy per Si atom -12396.208258 kJ/mol
# Density = 2.117710 g / cm^3
# Si number density = 21.225412 Si / 1000 Ang^3
#
#
#
# Elastic Constant Matrix: (Units=GPa)
#
#
# Indices 1 2 3 4 5 6 
#
# 1 90.8176 42.5531 50.1578 0.0000 -13.0521 -0.0001
# 2 42.5531 82.0637 26.9010 0.0000 -5.2376 0.0000
# 3 50.1578 26.9010 145.4483 0.0002 -20.9436 -0.0001
# 4 0.0000 0.0000 0.0002 33.8570 0.0001 -2.2231
# 5 -13.0521 -5.2376 -20.9436 0.0001 45.7326 -0.0001
# 6 -0.0001 0.0000 -0.0001 -2.2231 -0.0001 23.0368
#
#
#
# Elastic Compliance Matrix: (Units=1/GPa)
#
#
# Indices 1 2 3 4 5 6 
#
# 1 0.017090 -0.007340 -0.004234 0.000000 0.002098 0.000000
# 2 -0.007340 0.016132 -0.000522 0.000000 -0.000487 0.000000
# 3 -0.004234 -0.000522 0.008832 0.000000 0.002776 0.000000
# 4 0.000000 0.000000 0.000000 0.029724 0.000000 0.002868
# 5 0.002098 -0.000487 0.002776 0.000000 0.023681 0.000000
# 6 0.000000 0.000000 0.000000 0.002868 0.000000 0.043686
#
#
# Mechanical properties :
#
#
# Convention : Reuss Voigt Hill
#
# Bulk Modulus (GPa) = 55.98794 61.95039 58.96916
# Shear Modulus (GPa) = 29.53491 33.77314 31.65402
#
# Velocity S-wave (km/s) = 3.73431 3.99327 3.86596
# Velocity P-wave (km/s) = 6.71033 7.10717 6.91160
#
# Compressibility (1/GPa) = 0.01786099
#
# Stress axis : x y z
#
# Youngs Moduli (GPa) = 58.51312 61.98861 113.22770
#
# Poissons Ratio (x) = 0.45500 0.47939
# Poissons Ratio (y) = 0.42949 0.05916
# Poissons Ratio (z) = 0.24774 0.03239
#
# Static dielectric constant tensor:
#      x y z
#    x 4.107830 0.000000 -0.430350 
#    y 0.000000 3.363600 0.000000 
#    z -0.430350 0.000000 4.218930 
# 
# 
# High freq. dielectric constant tensor:
#      x y z
#    x 1.844830 0.000000 -0.019560 
#    y 0.000000 1.790620 0.000000 
#    z -0.019560 0.000000 1.854370 
# 
# From -- ./inp_files/134520.got.cif
#   From: 2010.06.25/outbox.cif.g09.slc.cpg/sg15_68_cif.got.tgz:134520.got - 2010.06.28 07:06:18.
