data_PCOD8135304
_publ_section_title
;
Structure prediction by ZEFSAII (Michael W. Deem and Ramdas Pophale) SiO2 
 PCOD8135304
Probable space group: C 2/C
;
_chemical_formula_sum "Si O2"
_cell_formula_units_Z 48
_cell_length_a 15.676730
_cell_length_b 10.007767
_cell_length_c 26.985954
_cell_angle_alpha 90.000000
_cell_angle_beta 36.471914
_cell_angle_gamma 90.000000
_cell_volume 2516.692691
_symmetry_space_group_name_H-M "C 2/C"
_symmetry_group_IT_number 15
_symmetry_cell_setting 'monoclinic'
loop_
_space_group_symop_operation_xyz
x,y,z
-x,y,1/2-z
-x,-y,-z
x,-y,1/2+z
1/2+x,1/2+y,z
1/2-x,1/2+y,1/2-z
1/2-x,1/2-y,-z
1/2+x,1/2-y,1/2+z
loop_
_atom_site_type_symbol
_atom_site_label
_atom_site_fract_x
_atom_site_fract_y
_atom_site_fract_z
Si Si1 0.859884 0.868979 0.505051
Si Si2 0.334954 0.577692 0.320323
Si Si3 0.165141 0.434278 0.683448
Si Si4 0.679177 0.327939 0.348023
Si Si5 0.124151 0.176793 0.759934
Si Si6 0.190550 0.108076 0.580650
O O1 0.761551 0.949058 0.589301
O O2 0.837056 0.941412 0.462554
O O3 0.820599 0.712202 0.520325
O O4 0.026643 0.873370 0.442173
O O5 0.500000 0.623014 0.250000
O O6 0.237866 0.702513 0.351319
O O7 0.319532 0.467115 0.284213
O O8 0.275389 0.518152 0.400163
O O9 0.211314 0.549571 0.699657
O O10 0.196705 0.290263 0.692616
O O11 0.000000 0.458860 0.750000
O O12 0.664741 0.291735 0.297234
O O13 0.951948 0.183657 0.832283
#
# Coordination Sequence:
#
# PCOD8135304 Si02
#       6
#     8   8   8   8   8   8
#     4  10  20  37  57  83 109 146 187 226 271 324
#     4  10  19  38  58  82 111 150 183 224 274 326
#     4  12  21  39  59  82 108 150 188 224 272 333
#     4  11  24  34  55  88 120 135 177 241 285 311
#     4  10  19  38  60  80 107 151 190 218 262 335
#     4   9  18  36  62  80 103 148 194 220 257 336
#
# _framework density 19.072651
#
# number of rings (size 3 to 8) (size 9 to 14) (size 15 to 20)
#    0.000    1.667    3.333    2.500    0.000    0.667 
#    0.000    0.833    0.000    0.000    0.000    0.000 
#    0.000    0.000    0.000    0.000    0.000    0.000 
#
# Total GULP energy -297679.014494 kJ/mol
# GULP energy per Si atom -12403.292271 kJ/mol
# Density = 1.902924 g / cm^3
# Si number density = 19.072651 Si / 1000 Ang^3
#
#
#
# Elastic Constant Matrix: (Units=GPa)
#
#
# Indices 1 2 3 4 5 6 
#
# 1 100.1434 45.6616 43.9444 0.0000 -3.9276 0.0003
# 2 45.6616 78.7653 24.5623 0.0000 -6.9474 0.0005
# 3 43.9444 24.5623 97.8470 0.0000 5.1352 0.0000
# 4 0.0000 0.0000 0.0000 11.8982 0.0000 1.8909
# 5 -3.9276 -6.9474 5.1352 0.0000 32.5086 0.0000
# 6 0.0003 0.0005 0.0000 1.8909 0.0000 27.6838
#
#
#
# Elastic Compliance Matrix: (Units=1/GPa)
#
#
# Indices 1 2 3 4 5 6 
#
# 1 0.015694 -0.007355 -0.005263 0.000000 0.001156 0.000000
# 2 -0.007355 0.017632 -0.001285 0.000000 0.003083 0.000000
# 3 -0.005263 -0.001285 0.013062 0.000000 -0.002974 0.000000
# 4 0.000000 0.000000 0.000000 0.084969 0.000000 -0.005804
# 5 0.001156 0.003083 -0.002974 0.000000 0.032029 0.000000
# 6 0.000000 0.000000 0.000000 -0.005804 0.000000 0.036519
#
#
# Mechanical properties :
#
#
# Convention : Reuss Voigt Hill
#
# Bulk Modulus (GPa) = 53.81112 56.12137 54.96624
# Shear Modulus (GPa) = 21.37623 25.25727 23.31675
#
# Velocity S-wave (km/s) = 3.35144 3.64300 3.50025
# Velocity P-wave (km/s) = 6.57656 6.86907 6.72441
#
# Compressibility (1/GPa) = 0.01858352
#
# Stress axis : x y z
#
# Youngs Moduli (GPa) = 63.71882 56.71417 76.55699
#
# Poissons Ratio (x) = 0.41713 0.40290
# Poissons Ratio (y) = 0.46865 0.09836
# Poissons Ratio (z) = 0.33533 0.07286
#
# Static dielectric constant tensor:
#      x y z
#    x 3.572180 0.000000 0.095690 
#    y 0.000000 3.204560 0.000000 
#    z 0.095690 0.000000 3.507540 
# 
# 
# High freq. dielectric constant tensor:
#      x y z
#    x 1.749370 0.000000 0.008430 
#    y 0.000000 1.721070 0.000000 
#    z 0.008430 0.000000 1.740080 
# 
# From -- ./inp_files/208951.got.cif
#   From: 2010.06.25/outbox.cif.g09.slc.cpg/sg15_105_cif.got.tgz:208951.got - 2010.06.28 07:06:18.
