data_PCOD8135810
_publ_section_title
;
Structure prediction by ZEFSAII (Michael W. Deem and Ramdas Pophale) SiO2 
 PCOD8135810
Probable space group: C 2/C
;
_chemical_formula_sum "Si O2"
_cell_formula_units_Z 60
_cell_length_a 10.664162
_cell_length_b 14.938653
_cell_length_c 20.260734
_cell_angle_alpha 90.000000
_cell_angle_beta 61.528700
_cell_angle_gamma 90.000000
_cell_volume 2837.330316
_symmetry_space_group_name_H-M "C 2/C"
_symmetry_group_IT_number 15
_symmetry_cell_setting 'monoclinic'
loop_
_space_group_symop_operation_xyz
x,y,z
-x,y,1/2-z
-x,-y,-z
x,-y,1/2+z
1/2+x,1/2+y,z
1/2-x,1/2+y,1/2-z
1/2-x,1/2-y,-z
1/2+x,1/2-y,1/2+z
loop_
_atom_site_type_symbol
_atom_site_label
_atom_site_fract_x
_atom_site_fract_y
_atom_site_fract_z
Si Si1 0.441957 0.662621 0.115098
Si Si2 0.886863 0.286306 0.504407
Si Si3 0.500000 0.060280 0.750000
Si Si4 0.121345 0.101034 0.669234
Si Si5 0.824324 0.693453 0.719016
Si Si6 0.764458 0.990357 0.604322
Si Si7 0.274701 0.455373 0.952709
Si Si8 0.594123 0.337765 0.379211
O O1 0.377591 0.702683 0.199207
O O2 0.323961 0.608266 0.104204
O O3 0.581700 0.602975 0.086521
O O4 0.476256 0.760891 0.074103
O O5 0.750000 0.250000 0.500000
O O6 0.863271 0.391400 0.524370
O O7 0.926261 0.235566 0.560749
O O8 0.448453 0.121328 0.701540
O O9 0.622267 0.999989 0.684775
O O10 0.227769 0.164941 0.681317
O O11 0.000000 0.061129 0.750000
O O12 0.043908 0.159838 0.632649
O O13 0.214163 0.023925 0.610710
O O14 0.734825 0.694192 0.807862
O O15 0.745707 0.996961 0.530178
O O16 0.882658 0.063541 0.595849
#
# Coordination Sequence:
#
# PCOD8135810 Si02
#       8
#     8   8   4   8   8   8   8   8
#     4  11  21  37  63  95 125 159 219 254 318 380
#     4  10  20  34  60  98 126 152 209 271 307 367
#     4  10  24  44  64  82 132 168 218 262 336 366
#     4  10  22  42  61  91 130 171 207 258 324 392
#     4  10  24  40  61  89 129 167 208 265 320 377
#     4  11  20  40  66  95 123 174 206 268 316 384
#     4  11  21  36  70  96 127 159 222 263 312 374
#     4  10  19  40  62  86 128 170 204 259 328 368
#
# _framework density 21.146639
#
# number of rings (size 3 to 8) (size 9 to 14) (size 15 to 20)
#    0.000    1.600    4.000    2.000    5.600    1.067 
#    3.600    5.333    0.000    0.000    0.000    0.000 
#    0.000    0.000    0.000    0.000    0.000    0.000 
#
# Total GULP energy -371743.151524 kJ/mol
# GULP energy per Si atom -12391.438384 kJ/mol
# Density = 2.109851 g / cm^3
# Si number density = 21.146639 Si / 1000 Ang^3
#
#
#
# Elastic Constant Matrix: (Units=GPa)
#
#
# Indices 1 2 3 4 5 6 
#
# 1 75.4833 16.0679 12.4174 0.0000 7.2236 0.0000
# 2 16.0679 75.9729 33.3380 0.0000 -8.9575 0.0000
# 3 12.4174 33.3380 67.5904 0.0000 11.4878 0.0000
# 4 0.0000 0.0000 0.0000 33.5078 0.0000 2.5786
# 5 7.2236 -8.9575 11.4878 0.0000 28.5121 0.0000
# 6 0.0000 0.0000 0.0000 2.5786 0.0000 30.5022
#
#
#
# Elastic Compliance Matrix: (Units=1/GPa)
#
#
# Indices 1 2 3 4 5 6 
#
# 1 0.014481 -0.003589 -0.000080 0.000000 -0.004764 0.000000
# 2 -0.003589 0.020315 -0.011380 0.000000 0.011877 0.000000
# 3 -0.000080 -0.011380 0.022572 0.000000 -0.012649 0.000000
# 4 0.000000 0.000000 0.000000 0.030039 0.000000 -0.002539
# 5 -0.004764 0.011877 -0.012649 0.000000 0.045108 0.000000
# 6 0.000000 0.000000 0.000000 -0.002539 0.000000 0.032999
#
#
# Mechanical properties :
#
#
# Convention : Reuss Voigt Hill
#
# Bulk Modulus (GPa) = 36.66906 38.07703 37.37305
# Shear Modulus (GPa) = 24.42559 28.98598 26.70579
#
# Velocity S-wave (km/s) = 3.40230 3.70633 3.55757
# Velocity P-wave (km/s) = 5.72820 6.03002 5.88104
#
# Compressibility (1/GPa) = 0.02727094
#
# Stress axis : x y z
#
# Youngs Moduli (GPa) = 69.05558 49.22361 44.30176
#
# Poissons Ratio (x) = 0.17667 0.00356
# Poissons Ratio (y) = 0.24784 0.50413
# Poissons Ratio (z) = 0.00556 0.56014
#
# Static dielectric constant tensor:
#      x y z
#    x 3.905170 0.000000 -0.262320 
#    y 0.000000 4.179730 0.000000 
#    z -0.262320 0.000000 4.174900 
# 
# 
# High freq. dielectric constant tensor:
#      x y z
#    x 1.815680 0.000000 -0.004490 
#    y 0.000000 1.811340 0.000000 
#    z -0.004490 0.000000 1.848140 
# 
# From -- ./inp_files/238702.got.cif
#   From: 2010.06.25/outbox.cif.g09.slc.cpg/sg15_120_cif.got.tgz:238702.got - 2010.06.28 07:06:18.
