data_PCOD8135585
_publ_section_title
;
Structure prediction by ZEFSAII (Michael W. Deem and Ramdas Pophale) SiO2 
 PCOD8135585
Probable space group: C 2/C
;
_chemical_formula_sum "Si O2"
_cell_formula_units_Z 48
_cell_length_a 9.059458
_cell_length_b 11.391801
_cell_length_c 24.836638
_cell_angle_alpha 90.000000
_cell_angle_beta 123.268105
_cell_angle_gamma 90.000000
_cell_volume 2143.148750
_symmetry_space_group_name_H-M "C 2/C"
_symmetry_group_IT_number 15
_symmetry_cell_setting 'monoclinic'
loop_
_space_group_symop_operation_xyz
x,y,z
-x,y,1/2-z
-x,-y,-z
x,-y,1/2+z
1/2+x,1/2+y,z
1/2-x,1/2+y,1/2-z
1/2-x,1/2-y,-z
1/2+x,1/2-y,1/2+z
loop_
_atom_site_type_symbol
_atom_site_label
_atom_site_fract_x
_atom_site_fract_y
_atom_site_fract_z
Si Si1 0.276275 0.913753 0.856425
Si Si2 0.783229 0.770031 0.943491
Si Si3 0.338788 0.019528 0.589473
Si Si4 0.691786 0.839235 0.309624
Si Si5 0.606235 0.115712 0.007138
Si Si6 0.025991 0.129421 0.813718
O O1 0.459114 0.973569 0.874043
O O2 0.230819 0.799868 0.811976
O O3 0.275757 0.860527 0.917067
O O4 0.122713 0.007742 0.820732
O O5 0.787308 0.907182 0.930596
O O6 0.632878 0.708654 0.877399
O O7 0.973999 0.721264 0.966635
O O8 0.750000 0.750000 0.000000
O O9 0.297967 0.108548 0.628822
O O10 0.282278 0.091785 0.524539
O O11 0.500000 0.870560 0.250000
O O12 0.836175 0.902469 0.300959
O O13 0.500000 0.000000 0.000000
O O14 0.000000 0.192781 0.750000
#
# Coordination Sequence:
#
# PCOD8135585 Si02
#       6
#     8   8   8   8   8   8
#     4  11  22  47  71  98 137 181 227 283 344 413
#     4  12  20  41  75 103 136 182 230 279 345 413
#     4  11  23  42  69 100 137 178 220 283 345 409
#     4  12  28  45  65  98 139 178 238 286 337 416
#     4  10  19  38  73 100 136 178 221 278 350 410
#     4  12  25  45  69  99 137 185 231 285 351 411
#
# _framework density 22.396951999999999
#
# number of rings (size 3 to 8) (size 9 to 14) (size 15 to 20)
#    0.000    0.667    8.333    1.500    0.000    2.667 
#    3.000    5.833    0.000    0.000    0.000    0.000 
#    0.000    0.000    0.000    0.000    0.000    0.000 
#
# Total GULP energy -297565.109691 kJ/mol
# GULP energy per Si atom -12398.546237 kJ/mol
# Density = 2.234598 g / cm^3
# Si number density = 22.396952 Si / 1000 Ang^3
#
#
#
# Elastic Constant Matrix: (Units=GPa)
#
#
# Indices 1 2 3 4 5 6 
#
# 1 89.5466 37.2147 29.7792 0.0000 -16.9649 0.0000
# 2 37.2147 91.5211 10.7139 0.0000 -0.1809 0.0000
# 3 29.7792 10.7139 116.5849 0.0000 -15.8791 0.0000
# 4 0.0000 0.0000 0.0000 31.7879 0.0000 4.0492
# 5 -16.9649 -0.1809 -15.8791 0.0000 39.0471 0.0000
# 6 0.0000 0.0000 0.0000 4.0492 0.0000 29.7757
#
#
#
# Elastic Compliance Matrix: (Units=1/GPa)
#
#
# Indices 1 2 3 4 5 6 
#
# 1 0.015639 -0.006036 -0.002666 0.000000 0.005683 0.000000
# 2 -0.006036 0.013380 -0.000039 0.000000 -0.002576 0.000000
# 3 -0.002666 -0.000039 0.009638 0.000000 0.002761 0.000000
# 4 0.000000 0.000000 0.000000 0.032013 0.000000 -0.004353
# 5 0.005683 -0.002576 0.002761 0.000000 0.029190 0.000000
# 6 0.000000 0.000000 0.000000 -0.004353 0.000000 0.034176
#
#
# Mechanical properties :
#
#
# Convention : Reuss Voigt Hill
#
# Bulk Modulus (GPa) = 47.22329 50.34091 48.78210
# Shear Modulus (GPa) = 31.53052 34.78513 33.15782
#
# Velocity S-wave (km/s) = 3.75614 3.94524 3.85185
# Velocity P-wave (km/s) = 6.31996 6.57865 6.45061
#
# Compressibility (1/GPa) = 0.02117599
#
# Stress axis : x y z
#
# Youngs Moduli (GPa) = 63.94271 74.73718 103.75565
#
# Poissons Ratio (x) = 0.45110 0.27661
# Poissons Ratio (y) = 0.38595 0.00402
# Poissons Ratio (z) = 0.17047 0.00290
#
# Static dielectric constant tensor:
#      x y z
#    x 4.115370 0.000000 -0.282920 
#    y 0.000000 4.433230 0.000000 
#    z -0.282920 0.000000 4.379260 
# 
# 
# High freq. dielectric constant tensor:
#      x y z
#    x 1.874380 0.000000 -0.006460 
#    y 0.000000 1.884850 0.000000 
#    z -0.006460 0.000000 1.892020 
# 
# From -- ./inp_files/287775.got.cif
#   From: 2010.06.25/outbox.cif.g09.slc.cpg/sg15_144_cif.got.tgz:287775.got - 2010.06.28 07:06:18.
