data_PCOD8135397
_publ_section_title
;
Structure prediction by ZEFSAII (Michael W. Deem and Ramdas Pophale) SiO2 
 PCOD8135397
Probable space group: C 2/C
;
_chemical_formula_sum "Si O2"
_cell_formula_units_Z 64
_cell_length_a 9.098060
_cell_length_b 22.880112
_cell_length_c 15.639251
_cell_angle_alpha 90.000000
_cell_angle_beta 91.063668
_cell_angle_gamma 90.000000
_cell_volume 3254.977946
_symmetry_space_group_name_H-M "C 2/C"
_symmetry_group_IT_number 15
_symmetry_cell_setting 'monoclinic'
loop_
_space_group_symop_operation_xyz
x,y,z
-x,y,1/2-z
-x,-y,-z
x,-y,1/2+z
1/2+x,1/2+y,z
1/2-x,1/2+y,1/2-z
1/2-x,1/2-y,-z
1/2+x,1/2-y,1/2+z
loop_
_atom_site_type_symbol
_atom_site_label
_atom_site_fract_x
_atom_site_fract_y
_atom_site_fract_z
Si Si1 0.460356 0.550160 0.931597
Si Si2 0.143193 0.725092 0.571023
Si Si3 0.786070 0.571819 0.696606
Si Si4 0.255215 0.022692 0.871465
Si Si5 0.824333 0.304511 0.245989
Si Si6 0.488349 0.903049 0.444837
Si Si7 0.734634 0.600874 0.439943
Si Si8 0.330111 0.727782 0.085669
O O1 0.335642 0.536211 0.859406
O O2 0.609846 0.563549 0.882147
O O3 0.500000 0.500000 0.000000
O O4 0.387816 0.602932 0.985383
O O5 0.250000 0.750000 0.500000
O O6 0.223900 0.725116 0.664519
O O7 0.091370 0.659226 0.551084
O O8 0.003993 0.768099 0.573277
O O9 0.822330 0.530936 0.778006
O O10 0.735365 0.634746 0.733539
O O11 0.930122 0.587492 0.644105
O O12 0.368335 0.044571 0.946475
O O13 0.210635 0.954771 0.878845
O O14 0.776575 0.264575 0.166171
O O15 0.000000 0.314347 0.250000
O O16 0.599809 0.906622 0.524199
O O17 0.715551 0.661584 0.390884
O O18 0.250000 0.750000 0.000000
#
# Coordination Sequence:
#
# PCOD8135397 Si02
#       8
#     8   8   8   8   8   8   8   8
#     4   9  21  37  53  88 123 155 201 252 308 374
#     4  11  23  39  64  97 123 160 212 272 323 369
#     4  11  18  36  65  88 116 163 209 266 305 375
#     4  11  21  35  60  91 125 155 209 261 310 366
#     4  10  19  38  61  91 118 156 218 261 304 381
#     4  11  20  39  64  89 124 158 218 260 311 382
#     4  10  22  38  60  88 122 168 203 244 321 388
#     4  11  20  39  67  87 124 169 208 252 319 395
#
# _framework density 19.662191
#
# number of rings (size 3 to 8) (size 9 to 14) (size 15 to 20)
#    0.000    1.500    5.000    1.875    1.750    0.000 
#    0.000    8.125    8.250    0.000    0.000    0.000 
#    0.000    0.000    0.000    0.000    0.000    0.000 
#
# Total GULP energy -396510.626059 kJ/mol
# GULP energy per Si atom -12390.957064 kJ/mol
# Density = 1.961744 g / cm^3
# Si number density = 19.662191 Si / 1000 Ang^3
#
#
#
# Elastic Constant Matrix: (Units=GPa)
#
#
# Indices 1 2 3 4 5 6 
#
# 1 71.7591 36.4137 29.7964 0.0000 2.0849 0.0000
# 2 36.4137 120.6009 42.9887 0.0000 6.4262 0.0000
# 3 29.7964 42.9887 114.6931 0.0000 3.8258 0.0000
# 4 0.0000 0.0000 0.0000 33.2489 0.0000 2.4968
# 5 2.0849 6.4262 3.8258 0.0000 33.5552 0.0000
# 6 0.0000 0.0000 0.0000 2.4968 0.0000 31.0610
#
#
#
# Elastic Compliance Matrix: (Units=1/GPa)
#
#
# Indices 1 2 3 4 5 6 
#
# 1 0.017266 -0.004174 -0.002923 0.000000 0.000060 0.000000
# 2 -0.004174 0.010649 -0.002858 0.000000 -0.001454 0.000000
# 3 -0.002923 -0.002858 0.010565 0.000000 -0.000476 0.000000
# 4 0.000000 0.000000 0.000000 0.030259 0.000000 -0.002432
# 5 0.000060 -0.001454 -0.000476 0.000000 0.030131 0.000000
# 6 0.000000 0.000000 0.000000 -0.002432 0.000000 0.032390
#
#
# Mechanical properties :
#
#
# Convention : Reuss Voigt Hill
#
# Bulk Modulus (GPa) = 53.85438 58.38341 56.11889
# Shear Modulus (GPa) = 31.77427 32.76330 32.26879
#
# Velocity S-wave (km/s) = 4.02432 4.08647 4.05552
# Velocity P-wave (km/s) = 7.00306 7.21272 7.10866
#
# Compressibility (1/GPa) = 0.01856859
#
# Stress axis : x y z
#
# Youngs Moduli (GPa) = 57.91821 93.90963 94.64829
#
# Poissons Ratio (x) = 0.39202 0.27664
# Poissons Ratio (y) = 0.24178 0.27053
# Poissons Ratio (z) = 0.16929 0.26842
#
# Static dielectric constant tensor:
#      x y z
#    x 3.670080 0.000000 0.010080 
#    y 0.000000 3.484320 0.000000 
#    z 0.010080 0.000000 3.707270 
# 
# 
# High freq. dielectric constant tensor:
#      x y z
#    x 1.759960 0.000000 0.008300 
#    y 0.000000 1.753400 0.000000 
#    z 0.008300 0.000000 1.765820 
# 
# From -- ./inp_files/137845.got.cif
#   From: 2010.06.25/outbox.cif.g09.slc.cpg/sg15_69_cif.got.tgz:137845.got - 2010.06.28 07:06:18.
