data_PCOD8135089
_publ_section_title
;
Structure prediction by ZEFSAII (Michael W. Deem and Ramdas Pophale) SiO2 
 PCOD8135089
Probable space group: C 2/C
;
_chemical_formula_sum "Si O2"
_cell_formula_units_Z 44
_cell_length_a 31.746384
_cell_length_b 9.361134
_cell_length_c 25.611441
_cell_angle_alpha 90.000000
_cell_angle_beta 16.509557
_cell_angle_gamma 90.000000
_cell_volume 2162.932803
_symmetry_space_group_name_H-M "C 2/C"
_symmetry_group_IT_number 15
_symmetry_cell_setting 'monoclinic'
loop_
_space_group_symop_operation_xyz
x,y,z
-x,y,1/2-z
-x,-y,-z
x,-y,1/2+z
1/2+x,1/2+y,z
1/2-x,1/2+y,1/2-z
1/2-x,1/2-y,-z
1/2+x,1/2-y,1/2+z
loop_
_atom_site_type_symbol
_atom_site_label
_atom_site_fract_x
_atom_site_fract_y
_atom_site_fract_z
Si Si1 0.090849 0.186400 0.689510
Si Si2 0.000000 0.915389 0.750000
Si Si3 0.178576 0.368418 0.771006
Si Si4 0.553558 0.869393 0.030553
Si Si5 0.452007 0.816489 0.952855
Si Si6 0.726735 0.342747 0.395529
O O1 0.250000 0.250000 0.500000
O O2 0.000000 0.259582 0.750000
O O3 0.014866 0.213386 0.834329
O O4 0.099404 0.015392 0.669995
O O5 0.112117 0.825535 0.580304
O O6 0.287828 0.241594 0.658899
O O7 0.263058 0.496985 0.640255
O O8 0.053823 0.298862 0.882729
O O9 0.101016 0.421311 0.916179
O O10 0.390066 0.797373 0.221980
O O11 0.549299 0.019877 0.066626
O O12 0.671093 0.763086 0.916519
#
# Coordination Sequence:
#
# PCOD8135089 Si02
#       6
#     8   4   8   8   8   8
#     4  10  19  37  61  88 114 154 204 252 299 355
#     4  10  22  42  64  82 128 168 200 246 316 366
#     4  11  21  41  65  90 126 161 203 259 307 365
#     4  11  24  40  61  94 125 163 206 249 314 366
#     4  11  21  38  63  93 118 157 208 253 305 357
#     4  11  23  44  62  89 128 169 199 254 310 369
#
# _framework density 20.342749999999999
#
# number of rings (size 3 to 8) (size 9 to 14) (size 15 to 20)
#    0.545    0.727    1.818    7.636    0.000    2.182 
#    4.909    3.636    0.000    0.000    0.000    0.000 
#    0.000    0.000    0.000    0.000    0.000    0.000 
#
# Total GULP energy -272725.437896 kJ/mol
# GULP energy per Si atom -12396.610813 kJ/mol
# Density = 2.029645 g / cm^3
# Si number density = 20.342750 Si / 1000 Ang^3
#
#
#
# Elastic Constant Matrix: (Units=GPa)
#
#
# Indices 1 2 3 4 5 6 
#
# 1 78.6243 32.5148 22.2339 0.0022 -7.8004 0.0099
# 2 32.5148 54.5893 11.1481 -0.1306 -16.6802 -0.2090
# 3 22.2339 11.1481 96.4094 -0.0690 -6.5485 -0.1117
# 4 0.0022 -0.1306 -0.0690 122.8075 0.0500 148.6000
# 5 -7.8004 -16.6802 -6.5485 0.0500 51.0858 0.0819
# 6 0.0099 -0.2090 -0.1117 148.6000 0.0819 280.8558
#
#
#
# Elastic Compliance Matrix: (Units=1/GPa)
#
#
# Indices 1 2 3 4 5 6 
#
# 1 0.017693 -0.010246 -0.002965 -0.000004 -0.001024 -0.000007
# 2 -0.010246 0.026640 -0.000235 0.000010 0.007104 0.000013
# 3 -0.002965 -0.000235 0.011144 0.000002 0.000899 0.000003
# 4 -0.000004 0.000010 0.000002 0.022633 0.000000 -0.011975
# 5 -0.001024 0.007104 0.000899 0.000000 0.021853 -0.000001
# 6 -0.000007 0.000013 0.000003 -0.011975 -0.000001 0.009896
#
#
# Mechanical properties :
#
#
# Convention : Reuss Voigt Hill
#
# Bulk Modulus (GPa) = 34.98282 40.15740 37.57011
# Shear Modulus (GPa) = 34.18118 101.86491 68.02304
#
# Velocity S-wave (km/s) = 4.10355 7.08400 5.78887
# Velocity P-wave (km/s) = 6.29970 9.31096 7.94922
#
# Compressibility (1/GPa) = 0.02858546
#
# Stress axis : x y z
#
# Youngs Moduli (GPa) = 56.52070 37.53785 89.73041
#
# Poissons Ratio (x) = 0.38460 0.26606
# Poissons Ratio (y) = 0.57909 0.02109
# Poissons Ratio (z) = 0.16759 0.00882
#
# Static dielectric constant tensor:
#      x y z
#    x 3.692040 -0.000010 -0.042730 
#    y -0.000010 3.384180 0.000010 
#    z -0.042730 0.000010 3.531090 
# 
# 
# High freq. dielectric constant tensor:
#      x y z
#    x 1.795100 0.000000 0.000500 
#    y 0.000000 1.772420 0.000000 
#    z 0.000500 0.000000 1.810760 
# 
# From -- ./inp_files/284372.got.cif
#   From: 2010.06.25/outbox.cif.g09.slc.cpg/sg15_143_cif.got.tgz:284372.got - 2010.06.28 07:06:18.
