data_PCOD8135130
_publ_section_title
;
Structure prediction by ZEFSAII (Michael W. Deem and Ramdas Pophale) SiO2 
 PCOD8135130
Probable space group: C 2/C
;
_chemical_formula_sum "Si O2"
_cell_formula_units_Z 64
_cell_length_a 15.828574
_cell_length_b 11.854443
_cell_length_c 29.194686
_cell_angle_alpha 90.000000
_cell_angle_beta 32.757462
_cell_angle_gamma 90.000000
_cell_volume 2964.090400
_symmetry_space_group_name_H-M "C 2/C"
_symmetry_group_IT_number 15
_symmetry_cell_setting 'monoclinic'
loop_
_space_group_symop_operation_xyz
x,y,z
-x,y,1/2-z
-x,-y,-z
x,-y,1/2+z
1/2+x,1/2+y,z
1/2-x,1/2+y,1/2-z
1/2-x,1/2-y,-z
1/2+x,1/2-y,1/2+z
loop_
_atom_site_type_symbol
_atom_site_label
_atom_site_fract_x
_atom_site_fract_y
_atom_site_fract_z
Si Si1 0.985687 0.815745 0.307221
Si Si2 0.852258 0.831622 0.137206
Si Si3 0.136188 0.345856 0.154653
Si Si4 0.191727 0.644594 0.802887
Si Si5 0.526484 0.313333 0.628430
Si Si6 0.690147 0.900329 0.808244
Si Si7 0.131439 0.952260 0.055789
Si Si8 0.920283 0.582492 0.365636
O O1 0.899430 0.905476 0.379138
O O2 0.893233 0.696451 0.348231
O O3 0.000000 0.867509 0.250000
O O4 0.158210 0.788613 0.247574
O O5 0.796999 0.849419 0.110217
O O6 0.718907 0.868844 0.235024
O O7 0.889916 0.697467 0.125167
O O8 0.007712 0.903804 0.075505
O O9 0.108580 0.472891 0.151126
O O10 0.000000 0.304955 0.250000
O O11 0.138263 0.252087 0.113466
O O12 0.035544 0.719860 0.880160
O O13 0.177560 0.525666 0.836182
O O14 0.373200 0.373652 0.719256
O O15 0.625928 0.410872 0.558389
O O16 0.597091 0.914668 0.803111
O O17 0.303072 0.915759 0.962269
#
# Coordination Sequence:
#
# PCOD8135130 Si02
#       8
#     8   8   8   8   8   8   8   8
#     4  11  23  39  65  97 125 166 227 276 315 391
#     4  10  21  38  64  89 131 171 213 264 329 382
#     4  12  23  38  65 104 126 166 229 279 312 384
#     4  10  19  37  62  95 119 170 221 273 316 387
#     4  11  21  37  66  92 129 169 221 271 319 392
#     4  11  18  38  65  90 119 172 222 264 322 390
#     4  11  25  43  65  95 138 178 210 267 350 398
#     4  12  24  40  68  95 134 174 216 272 338 394
#
# _framework density 21.591785000000002
#
# number of rings (size 3 to 8) (size 9 to 14) (size 15 to 20)
#    0.000    1.000   10.000    0.750    0.000    3.500 
#    0.000    0.000    0.000    1.500    0.000    0.000 
#    0.000    0.000    0.000    0.000    0.000    0.000 
#
# Total GULP energy -396570.388148 kJ/mol
# GULP energy per Si atom -12392.824630 kJ/mol
# Density = 2.154264 g / cm^3
# Si number density = 21.591785 Si / 1000 Ang^3
#
#
#
# Elastic Constant Matrix: (Units=GPa)
#
#
# Indices 1 2 3 4 5 6 
#
# 1 108.0421 47.1021 18.2267 -0.0001 8.5286 0.0001
# 2 47.1021 171.3460 10.8461 0.0000 1.3749 0.0001
# 3 18.2267 10.8461 39.6068 0.0002 3.2944 0.0000
# 4 -0.0001 0.0000 0.0002 18.6190 0.0000 2.0647
# 5 8.5286 1.3749 3.2944 0.0000 12.5466 -0.0001
# 6 0.0001 0.0001 0.0000 2.0647 -0.0001 29.2463
#
#
#
# Elastic Compliance Matrix: (Units=1/GPa)
#
#
# Indices 1 2 3 4 5 6 
#
# 1 0.011730 -0.002915 -0.004052 0.000000 -0.006590 0.000000
# 2 -0.002915 0.006664 -0.000601 0.000000 0.001409 0.000000
# 3 -0.004052 -0.000601 0.027646 0.000000 -0.004439 0.000000
# 4 0.000000 0.000000 0.000000 0.054132 0.000000 -0.003822
# 5 -0.006590 0.001409 -0.004439 0.000000 0.085194 0.000000
# 6 0.000000 0.000000 0.000000 -0.003822 0.000000 0.034462
#
#
# Mechanical properties :
#
#
# Convention : Reuss Voigt Hill
#
# Bulk Modulus (GPa) = 32.35625 52.37164 42.36394
# Shear Modulus (GPa) = 20.38597 28.27037 24.32817
#
# Velocity S-wave (km/s) = 3.07604 3.62237 3.36033
# Velocity P-wave (km/s) = 5.25681 6.46555 5.89226
#
# Compressibility (1/GPa) = 0.03090593
#
# Stress axis : x y z
#
# Youngs Moduli (GPa) = 85.24894 150.05451 36.17104
#
# Poissons Ratio (x) = 0.43745 0.14655
# Poissons Ratio (y) = 0.24852 0.02172
# Poissons Ratio (z) = 0.34540 0.09012
#
# Static dielectric constant tensor:
#      x y z
#    x 3.893370 0.000000 -0.115220 
#    y 0.000000 4.422060 0.000000 
#    z -0.115220 0.000000 3.504040 
# 
# 
# High freq. dielectric constant tensor:
#      x y z
#    x 1.836950 0.000000 -0.021270 
#    y 0.000000 1.875000 0.000000 
#    z -0.021270 0.000000 1.796880 
# 
# From -- ./inp_files/296125.got.cif
#   From: 2010.06.25/outbox.cif.g09.slc.cpg/sg15_149_cif.got.tgz:296125.got - 2010.06.28 07:06:18.
