data_PCOD8135045
_publ_section_title
;
Structure prediction by ZEFSAII (Michael W. Deem and Ramdas Pophale) SiO2 
 PCOD8135045
Probable space group: C 2/C
;
_chemical_formula_sum "Si O2"
_cell_formula_units_Z 56
_cell_length_a 20.582484
_cell_length_b 9.042545
_cell_length_c 18.491684
_cell_angle_alpha 90.000000
_cell_angle_beta 57.176901
_cell_angle_gamma 90.000000
_cell_volume 2892.172374
_symmetry_space_group_name_H-M "C 2/C"
_symmetry_group_IT_number 15
_symmetry_cell_setting 'monoclinic'
loop_
_space_group_symop_operation_xyz
x,y,z
-x,y,1/2-z
-x,-y,-z
x,-y,1/2+z
1/2+x,1/2+y,z
1/2-x,1/2+y,1/2-z
1/2-x,1/2-y,-z
1/2+x,1/2-y,1/2+z
loop_
_atom_site_type_symbol
_atom_site_label
_atom_site_fract_x
_atom_site_fract_y
_atom_site_fract_z
Si Si1 0.574198 0.563536 0.028682
Si Si2 0.581195 0.377443 0.164073
Si Si3 0.587399 0.359007 0.892479
Si Si4 0.309631 0.552642 0.302872
Si Si5 0.688996 0.108506 0.082870
Si Si6 0.306272 0.827503 0.076598
Si Si7 0.757852 0.813838 0.072931
O O1 0.574473 0.426577 0.085096
O O2 0.498674 0.670816 0.089378
O O3 0.570945 0.500904 0.950386
O O4 0.651653 0.655737 0.980409
O O5 0.500000 0.358085 0.250000
O O6 0.627225 0.509345 0.175369
O O7 0.620225 0.215940 0.149987
O O8 0.650979 0.411381 0.796696
O O9 0.619497 0.221434 0.920860
O O10 0.249844 0.414797 0.334030
O O11 0.264023 0.699799 0.351608
O O12 0.769791 0.185562 0.057395
O O13 0.697776 0.951982 0.118500
O O14 0.677326 0.070458 0.003988
O O15 0.750000 0.750000 0.000000
#
# Coordination Sequence:
#
# PCOD8135045 Si02
#       7
#     8   8   8   8   8   8   8
#     4  11  22  39  61  89 122 168 201 253 316 374
#     4  11  20  40  63  92 119 159 220 259 301 376
#     4  11  23  38  60  90 128 161 201 257 316 365
#     4  11  24  36  64  93 122 165 211 258 307 371
#     4  10  19  37  62  86 114 158 208 255 298 359
#     4  10  19  37  60  86 117 159 208 250 297 368
#     4  12  21  39  65  92 119 159 213 256 307 369
#
# _framework density 19.362608000000002
#
# number of rings (size 3 to 8) (size 9 to 14) (size 15 to 20)
#    0.000    1.143    7.143    0.857    2.000    0.000 
#    0.000    2.857    0.000    0.000    0.000    0.000 
#    0.000    0.000    0.000    0.000    0.000    0.000 
#
# Total GULP energy -346871.587524 kJ/mol
# GULP energy per Si atom -12388.270983 kJ/mol
# Density = 1.931854 g / cm^3
# Si number density = 19.362608 Si / 1000 Ang^3
#
#
#
# Elastic Constant Matrix: (Units=GPa)
#
#
# Indices 1 2 3 4 5 6 
#
# 1 124.7152 53.4191 41.5241 0.0000 -21.8789 0.0001
# 2 53.4191 81.7287 32.9638 -0.0001 -9.8604 0.0005
# 3 41.5241 32.9638 108.9467 0.0000 -14.4382 0.0000
# 4 0.0000 -0.0001 0.0000 21.3545 0.0000 23.0197
# 5 -21.8789 -9.8604 -14.4382 0.0000 33.1091 0.0000
# 6 0.0001 0.0005 0.0000 23.0197 0.0000 -74.3883
#
#
#
# Elastic Compliance Matrix: (Units=1/GPa)
#
#
# Indices 1 2 3 4 5 6 
#
# 1 0.012512 -0.006712 -0.002024 0.000000 0.005386 0.000000
# 2 -0.006712 0.017727 -0.002859 0.000000 -0.000403 0.000000
# 3 -0.002024 -0.002859 0.011171 0.000000 0.002682 0.000000
# 4 0.000000 0.000000 0.000000 0.035115 0.000000 0.010866
# 5 0.005386 -0.000403 0.002682 0.000000 0.034812 0.000000
# 6 0.000000 0.000000 0.000000 0.010866 0.000000 -0.010080
#
#
# Mechanical properties :
#
#
# Convention : Reuss Voigt Hill
#
# Bulk Modulus (GPa) = 54.88427 63.46720 59.17573
# Shear Modulus (GPa) = 38.30836 8.51396 23.41116
#
# Velocity S-wave (km/s) = 4.45283 2.09921 3.48097
# Velocity P-wave (km/s) = 7.40567 6.22294 6.83991
#
# Compressibility (1/GPa) = 0.01822016
#
# Stress axis : x y z
#
# Youngs Moduli (GPa) = 79.92307 56.41112 89.51911
#
# Poissons Ratio (x) = 0.37862 0.18121
# Poissons Ratio (y) = 0.53642 0.25592
# Poissons Ratio (z) = 0.16178 0.16127
#
# Static dielectric constant tensor:
#      x y z
#    x 3.678640 0.000000 0.214910 
#    y 0.000000 3.997340 0.000000 
#    z 0.214910 0.000000 3.865620 
# 
# 
# High freq. dielectric constant tensor:
#      x y z
#    x 1.757990 0.000000 -0.001430 
#    y 0.000000 1.734910 0.000000 
#    z -0.001430 0.000000 1.752420 
# 
# From -- ./inp_files/209546.got.cif
#   From: 2010.06.25/outbox.cif.g09.slc.cpg/sg15_105_cif.got.tgz:209546.got - 2010.06.28 07:06:18.
