data_PCOD8135796
_publ_section_title
;
Structure prediction by ZEFSAII (Michael W. Deem and Ramdas Pophale) SiO2 
 PCOD8135796
Probable space group: C 2/C
;
_chemical_formula_sum "Si O2"
_cell_formula_units_Z 60
_cell_length_a 20.800988
_cell_length_b 9.034336
_cell_length_c 17.179495
_cell_angle_alpha 90.000000
_cell_angle_beta 110.688907
_cell_angle_gamma 90.000000
_cell_volume 3020.231040
_symmetry_space_group_name_H-M "C 2/C"
_symmetry_group_IT_number 15
_symmetry_cell_setting 'monoclinic'
loop_
_space_group_symop_operation_xyz
x,y,z
-x,y,1/2-z
-x,-y,-z
x,-y,1/2+z
1/2+x,1/2+y,z
1/2-x,1/2+y,1/2-z
1/2-x,1/2-y,-z
1/2+x,1/2-y,1/2+z
loop_
_atom_site_type_symbol
_atom_site_label
_atom_site_fract_x
_atom_site_fract_y
_atom_site_fract_z
Si Si1 0.181059 0.262762 0.636172
Si Si2 0.500000 0.326623 0.250000
Si Si3 0.094978 0.320898 0.445404
Si Si4 0.895748 0.006742 0.814007
Si Si5 0.536615 0.869628 0.892874
Si Si6 0.389043 0.019825 0.822278
Si Si7 0.049890 0.233476 0.060441
Si Si8 0.839715 0.747675 0.684303
O O1 0.134906 0.280943 0.540259
O O2 0.174222 0.412394 0.683798
O O3 0.258310 0.232449 0.644011
O O4 0.157679 0.128700 0.680909
O O5 0.541648 0.424949 0.207215
O O6 0.446703 0.222883 0.178165
O O7 0.091184 0.498970 0.430167
O O8 0.131322 0.236663 0.390138
O O9 0.017961 0.261927 0.417834
O O10 0.923846 0.929251 0.905093
O O11 0.857956 0.890839 0.742226
O O12 0.459067 0.927093 0.849620
O O13 0.536940 0.751200 0.963491
O O14 0.393691 0.144470 0.891045
O O15 0.373662 0.099121 0.733887
#
# Coordination Sequence:
#
# PCOD8135796 Si02
#       8
#     8   4   8   8   8   8   8   8
#     4  12  22  42  61  85 124 167 205 238 297 373
#     4  12  22  36  60  94 128 144 196 264 320 350
#     4  11  21  38  65  91 116 160 209 249 297 362
#     4  11  25  39  60  94 123 158 194 258 315 353
#     4  11  20  38  65  93 120 156 200 259 304 361
#     4  10  19  40  61  85 117 160 207 239 294 369
#     4  10  20  39  64  90 120 153 197 256 313 358
#     4  11  25  39  61  87 126 164 203 246 295 359
#
# _framework density 19.866029999999999
#
# number of rings (size 3 to 8) (size 9 to 14) (size 15 to 20)
#    0.000    1.067    4.000    3.600    0.000    6.933 
#    0.000    0.000    0.000    1.600    0.000    0.000 
#    0.000    0.000    0.000    0.000    0.000    0.000 
#
# Total GULP energy -372027.421339 kJ/mol
# GULP energy per Si atom -12400.914045 kJ/mol
# Density = 1.982081 g / cm^3
# Si number density = 19.866030 Si / 1000 Ang^3
#
#
#
# Elastic Constant Matrix: (Units=GPa)
#
#
# Indices 1 2 3 4 5 6 
#
# 1 72.4877 29.9311 25.1953 0.0000 -5.8296 0.0000
# 2 29.9311 95.0318 47.5326 0.0000 -9.5411 0.0000
# 3 25.1953 47.5326 75.8959 0.0000 -19.1542 0.0000
# 4 0.0000 0.0000 0.0000 33.2618 0.0000 -0.9321
# 5 -5.8296 -9.5411 -19.1542 0.0000 27.2198 0.0000
# 6 0.0000 0.0000 0.0000 -0.9321 0.0000 17.5988
#
#
#
# Elastic Compliance Matrix: (Units=1/GPa)
#
#
# Indices 1 2 3 4 5 6 
#
# 1 0.016379 -0.003552 -0.003212 0.000000 0.000002 0.000000
# 2 -0.003552 0.016156 -0.009365 0.000000 -0.001688 0.000000
# 3 -0.003212 -0.009365 0.023231 0.000000 0.012377 0.000000
# 4 0.000000 0.000000 0.000000 0.030109 0.000000 0.001595
# 5 0.000002 -0.001688 0.012377 0.000000 0.044856 0.000000
# 6 0.000000 0.000000 0.000000 0.001595 0.000000 0.056906
#
#
# Mechanical properties :
#
#
# Convention : Reuss Voigt Hill
#
# Bulk Modulus (GPa) = 42.53933 49.85927 46.19930
# Shear Modulus (GPa) = 21.95555 24.99984 23.47770
#
# Velocity S-wave (km/s) = 3.32803 3.55127 3.44146
# Velocity P-wave (km/s) = 6.01891 6.47824 6.25280
#
# Compressibility (1/GPa) = 0.02350766
#
# Stress axis : x y z
#
# Youngs Moduli (GPa) = 61.05491 61.89538 43.04526
#
# Poissons Ratio (x) = 0.21983 0.13827
# Poissons Ratio (y) = 0.21685 0.40314
# Poissons Ratio (z) = 0.19613 0.57967
#
# Static dielectric constant tensor:
#      x y z
#    x 3.387260 0.000000 -0.029840 
#    y 0.000000 3.871450 0.000000 
#    z -0.029840 0.000000 3.710770 
# 
# 
# High freq. dielectric constant tensor:
#      x y z
#    x 1.749760 0.000000 -0.006740 
#    y 0.000000 1.785930 0.000000 
#    z -0.006740 0.000000 1.785900 
# 
# From -- ./inp_files/213979.got.cif
#   From: 2010.06.25/outbox.cif.g09.slc.cpg/sg15_107_cif.got.tgz:213979.got - 2010.06.28 07:06:18.
