data_PCOD8135012
_publ_section_title
;
Structure prediction by ZEFSAII (Michael W. Deem and Ramdas Pophale) SiO2 
 PCOD8135012
Probable space group: C 2/C
;
_chemical_formula_sum "Si O2"
_cell_formula_units_Z 64
_cell_length_a 23.825768
_cell_length_b 14.936189
_cell_length_c 17.078881
_cell_angle_alpha 90.000000
_cell_angle_beta 151.398529
_cell_angle_gamma 90.000000
_cell_volume 2909.528476
_symmetry_space_group_name_H-M "C 2/C"
_symmetry_group_IT_number 15
_symmetry_cell_setting 'monoclinic'
loop_
_space_group_symop_operation_xyz
x,y,z
-x,y,1/2-z
-x,-y,-z
x,-y,1/2+z
1/2+x,1/2+y,z
1/2-x,1/2+y,1/2-z
1/2-x,1/2-y,-z
1/2+x,1/2-y,1/2+z
loop_
_atom_site_type_symbol
_atom_site_label
_atom_site_fract_x
_atom_site_fract_y
_atom_site_fract_z
Si Si1 0.148603 0.256619 0.636112
Si Si2 0.815363 0.392299 0.089977
Si Si3 0.622479 0.270370 0.926671
Si Si4 0.606736 0.938172 0.150899
Si Si5 0.741247 0.454147 0.393362
Si Si6 0.119184 0.319621 0.021669
Si Si7 0.773048 0.935164 0.779282
Si Si8 0.983824 0.164434 0.896004
O O1 0.145976 0.214730 0.546805
O O2 0.256985 0.228879 0.822034
O O3 0.164891 0.363774 0.647742
O O4 0.038026 0.214605 0.547245
O O5 0.876212 0.335365 0.095361
O O6 0.902251 0.405851 0.270163
O O7 0.709633 0.331118 0.986071
O O8 0.772368 0.489549 0.008471
O O9 0.500000 0.310986 0.750000
O O10 0.592498 0.854979 0.075871
O O11 0.732255 0.987851 0.290112
O O12 0.500000 0.000000 0.000000
O O13 0.859590 0.396725 0.517453
O O14 0.711957 0.521616 0.287615
O O15 0.626977 0.392193 0.270749
O O16 0.017373 0.246492 0.876785
O O17 0.901110 0.897766 0.957092
#
# Coordination Sequence:
#
# PCOD8135012 Si02
#       8
#     8   8   8   8   8   8   8   8
#     4  10  19  37  59  92 128 166 207 258 320 395
#     4  11  25  43  60  95 138 166 208 269 332 388
#     4  11  25  36  62  98 136 172 197 254 340 408
#     4  11  23  39  64  88 122 170 214 264 320 385
#     4  10  21  39  61  92 129 168 213 274 325 376
#     4   9  20  38  60  89 123 162 220 262 304 388
#     4  10  21  37  59  92 127 165 223 263 307 391
#     4  10  21  35  67  89 124 175 218 265 320 379
#
# _framework density 21.996691999999999
#
# number of rings (size 3 to 8) (size 9 to 14) (size 15 to 20)
#    0.000    1.750    2.500    1.125    5.250    1.000 
#    0.000    0.000    0.000   16.500    0.000    0.000 
#    0.000    0.000    0.000    0.000    0.000    0.000 
#
# Total GULP energy -396464.289341 kJ/mol
# GULP energy per Si atom -12389.509042 kJ/mol
# Density = 2.194663 g / cm^3
# Si number density = 21.996692 Si / 1000 Ang^3
#
#
#
# Elastic Constant Matrix: (Units=GPa)
#
#
# Indices 1 2 3 4 5 6 
#
# 1 58.4827 27.1055 20.6415 0.0000 1.9519 0.0000
# 2 27.1055 110.7617 29.1746 0.0000 6.1130 0.0000
# 3 20.6415 29.1746 61.7636 0.0000 6.4811 0.0000
# 4 0.0000 0.0000 0.0000 33.7613 0.0000 6.0243
# 5 1.9519 6.1130 6.4811 0.0000 22.4441 0.0000
# 6 0.0000 0.0000 0.0000 6.0243 0.0000 38.3895
#
#
#
# Elastic Compliance Matrix: (Units=1/GPa)
#
#
# Indices 1 2 3 4 5 6 
#
# 1 0.020639 -0.003716 -0.005218 0.000000 0.000724 0.000000
# 2 -0.003716 0.011026 -0.003800 0.000000 -0.001583 0.000000
# 3 -0.005218 -0.003800 0.020185 0.000000 -0.004340 0.000000
# 4 0.000000 0.000000 0.000000 0.030473 0.000000 -0.004782
# 5 0.000724 -0.001583 -0.004340 0.000000 0.046176 0.000000
# 6 0.000000 0.000000 0.000000 -0.004782 0.000000 0.026799
#
#
# Mechanical properties :
#
#
# Convention : Reuss Voigt Hill
#
# Bulk Modulus (GPa) = 37.90605 42.76124 40.33365
# Shear Modulus (GPa) = 26.37657 29.19139 27.78398
#
# Velocity S-wave (km/s) = 3.46658 3.64686 3.55786
# Velocity P-wave (km/s) = 5.77000 6.10040 5.93750
#
# Compressibility (1/GPa) = 0.02638101
#
# Stress axis : x y z
#
# Youngs Moduli (GPa) = 48.45178 90.69340 49.54131
#
# Poissons Ratio (x) = 0.33704 0.25851
# Poissons Ratio (y) = 0.18006 0.18827
# Poissons Ratio (z) = 0.25283 0.34466
#
# Static dielectric constant tensor:
#      x y z
#    x 3.709310 0.000000 0.449010 
#    y 0.000000 4.441400 0.000000 
#    z 0.449010 0.000000 3.528130 
# 
# 
# High freq. dielectric constant tensor:
#      x y z
#    x 1.859260 0.000000 0.026690 
#    y 0.000000 1.883230 0.000000 
#    z 0.026690 0.000000 1.841600 
# 
# From -- ./inp_files/219742.got.cif
#   From: 2010.06.25/outbox.cif.g09.slc.cpg/sg15_110_cif.got.tgz:219742.got - 2010.06.28 07:06:18.
