data_PCOD8135198
_publ_section_title
;
Structure prediction by ZEFSAII (Michael W. Deem and Ramdas Pophale) SiO2 
 PCOD8135198
Probable space group: C 2/C
;
_chemical_formula_sum "Si O2"
_cell_formula_units_Z 64
_cell_length_a 12.013176
_cell_length_b 15.064495
_cell_length_c 16.617585
_cell_angle_alpha 90.000000
_cell_angle_beta 72.528848
_cell_angle_gamma 90.000000
_cell_volume 2868.591531
_symmetry_space_group_name_H-M "C 2/C"
_symmetry_group_IT_number 15
_symmetry_cell_setting 'monoclinic'
loop_
_space_group_symop_operation_xyz
x,y,z
-x,y,1/2-z
-x,-y,-z
x,-y,1/2+z
1/2+x,1/2+y,z
1/2-x,1/2+y,1/2-z
1/2-x,1/2-y,-z
1/2+x,1/2-y,1/2+z
loop_
_atom_site_type_symbol
_atom_site_label
_atom_site_fract_x
_atom_site_fract_y
_atom_site_fract_z
Si Si1 0.220406 0.672673 0.716600
Si Si2 0.819468 0.992845 0.407623
Si Si3 0.947853 0.910486 0.138781
Si Si4 0.685159 0.696924 0.087027
Si Si5 0.080421 0.475794 0.159669
Si Si6 0.308441 0.443788 0.584674
Si Si7 0.601463 0.119438 0.900882
Si Si8 0.469284 0.704272 0.030853
O O1 0.354766 0.647357 0.711312
O O2 0.213338 0.763789 0.668731
O O3 0.166462 0.603369 0.664862
O O4 0.141143 0.674507 0.813150
O O5 0.854384 0.987502 0.492799
O O6 0.707008 0.935897 0.412408
O O7 0.934868 0.946639 0.340542
O O8 0.783766 0.094418 0.400995
O O9 0.875625 0.999837 0.136733
O O10 0.974824 0.844261 0.058049
O O11 0.550210 0.698451 0.092250
O O12 0.750000 0.750000 0.000000
O O13 0.167176 0.556479 0.119161
O O14 0.000000 0.507939 0.250000
O O15 0.004079 0.447003 0.099172
O O16 0.346871 0.341573 0.581221
O O17 0.558000 0.190860 0.976992
#
# Coordination Sequence:
#
# PCOD8135198 Si02
#       8
#     8   8   8   8   8   8   8   8
#     4  10  21  40  64  88 125 168 212 268 319 371
#     4  11  23  39  63  97 128 159 214 264 322 389
#     4  10  19  39  67  92 124 166 215 268 327 375
#     4  12  20  39  71 101 116 162 223 273 309 376
#     4   9  19  38  61  82 124 170 201 259 326 370
#     4  10  19  37  64  94 123 162 214 270 318 377
#     4  11  25  40  56  94 136 167 208 257 326 393
#     4  11  20  37  65  92 124 163 213 267 316 379
#
# _framework density 22.310600000000001
#
# number of rings (size 3 to 8) (size 9 to 14) (size 15 to 20)
#    0.000    1.500    5.000    1.500    0.000    3.000 
#    6.750    2.500    0.000    0.000    0.000    0.000 
#    0.000    0.000    0.000    0.000    0.000    0.000 
#
# Total GULP energy -396427.751619 kJ/mol
# GULP energy per Si atom -12388.367238 kJ/mol
# Density = 2.225982 g / cm^3
# Si number density = 22.310600 Si / 1000 Ang^3
#
#
#
# Elastic Constant Matrix: (Units=GPa)
#
#
# Indices 1 2 3 4 5 6 
#
# 1 114.5148 38.7368 4.2515 0.0000 -26.7524 0.0000
# 2 38.7368 63.5374 4.1577 0.0000 -4.8176 0.0000
# 3 4.2515 4.1577 25.1724 0.0000 -12.4502 0.0000
# 4 0.0000 0.0000 0.0000 17.3503 0.0000 -5.9161
# 5 -26.7524 -4.8176 -12.4502 0.0000 31.6964 0.0000
# 6 0.0000 0.0000 0.0000 -5.9161 0.0000 38.6988
#
#
#
# Elastic Compliance Matrix: (Units=1/GPa)
#
#
# Indices 1 2 3 4 5 6 
#
# 1 0.014285 -0.008077 0.005309 0.000000 0.012914 0.000000
# 2 -0.008077 0.020554 -0.004787 0.000000 -0.005574 0.000000
# 3 0.005309 -0.004787 0.051477 0.000000 0.023973 0.000000
# 4 0.000000 0.000000 0.000000 0.060806 0.000000 0.009296
# 5 0.012914 -0.005574 0.023973 0.000000 0.051018 0.000000
# 6 0.000000 0.000000 0.000000 0.009296 0.000000 0.027262
#
#
# Mechanical properties :
#
#
# Convention : Reuss Voigt Hill
#
# Bulk Modulus (GPa) = 14.04412 33.05740 23.55076
# Shear Modulus (GPa) = 18.92166 27.95433 23.43799
#
# Velocity S-wave (km/s) = 2.91538 3.54356 3.24471
# Velocity P-wave (km/s) = 4.20013 5.62063 4.96148
#
# Compressibility (1/GPa) = 0.07120416
#
# Stress axis : x y z
#
# Youngs Moduli (GPa) = 70.00572 48.65286 19.42607
#
# Poissons Ratio (x) = 0.39297 -0.10313
# Poissons Ratio (y) = 0.56544 0.09300
# Poissons Ratio (z) = -0.37164 0.23292
#
# Static dielectric constant tensor:
#      x y z
#    x 4.269580 0.000000 -0.309730 
#    y 0.000000 4.050580 0.000000 
#    z -0.309730 0.000000 3.833890 
# 
# 
# High freq. dielectric constant tensor:
#      x y z
#    x 1.891300 0.000000 -0.019150 
#    y 0.000000 1.867740 0.000000 
#    z -0.019150 0.000000 1.850840 
# 
# From -- ./inp_files/238735.got.cif
#   From: 2010.06.25/outbox.cif.g09.slc.cpg/sg15_120_cif.got.tgz:238735.got - 2010.06.28 07:06:18.
