data_PCOD8135403
_publ_section_title
;
Structure prediction by ZEFSAII (Michael W. Deem and Ramdas Pophale) SiO2 
 PCOD8135403
Probable space group: C 2/C
;
_chemical_formula_sum "Si O2"
_cell_formula_units_Z 44
_cell_length_a 22.269098
_cell_length_b 9.206975
_cell_length_c 13.090161
_cell_angle_alpha 90.000000
_cell_angle_beta 132.409367
_cell_angle_gamma 90.000000
_cell_volume 1981.636400
_symmetry_space_group_name_H-M "C 2/C"
_symmetry_group_IT_number 15
_symmetry_cell_setting 'monoclinic'
loop_
_space_group_symop_operation_xyz
x,y,z
-x,y,1/2-z
-x,-y,-z
x,-y,1/2+z
1/2+x,1/2+y,z
1/2-x,1/2+y,1/2-z
1/2-x,1/2-y,-z
1/2+x,1/2-y,1/2+z
loop_
_atom_site_type_symbol
_atom_site_label
_atom_site_fract_x
_atom_site_fract_y
_atom_site_fract_z
Si Si1 0.561747 0.471028 0.208063
Si Si2 0.264729 0.179951 0.670067
Si Si3 0.500000 0.208739 0.250000
Si Si4 0.111308 0.007325 0.531703
Si Si5 0.235270 0.965885 0.937694
Si Si6 0.153022 0.683290 0.535174
O O1 0.548069 0.301461 0.218444
O O2 0.585598 0.507755 0.119860
O O3 0.639966 0.523666 0.364762
O O4 0.472287 0.542770 0.128434
O O5 0.174560 0.137513 0.601901
O O6 0.287856 0.098679 0.591444
O O7 0.261196 0.353925 0.652972
O O8 0.332681 0.134657 0.831080
O O9 0.568560 0.117447 0.391383
O O10 0.150996 0.858697 0.531518
O O11 0.271457 0.120884 0.944588
#
# Coordination Sequence:
#
# PCOD8135403 Si02
#       6
#     8   8   4   8   8   8
#     4  10  19  38  61  95 115 161 205 259 288 376
#     4  11  22  40  60  94 123 163 200 264 306 372
#     4  10  24  36  64  90 126 160 222 244 314 368
#     4  10  21  38  67  87 125 157 208 251 312 353
#     4  11  23  38  66  92 128 160 210 248 319 362
#     4  11  21  44  60  90 124 164 203 263 299 372
#
# _framework density 22.203870999999999
#
# number of rings (size 3 to 8) (size 9 to 14) (size 15 to 20)
#    0.000    1.455    3.636    2.182    0.000    2.909 
#    3.273    4.545    0.000    0.000    0.000    0.000 
#    0.000    0.000    0.000    0.000    0.000    0.000 
#
# Total GULP energy -272538.670256 kJ/mol
# GULP energy per Si atom -12388.121375 kJ/mol
# Density = 2.215333 g / cm^3
# Si number density = 22.203871 Si / 1000 Ang^3
#
#
#
# Elastic Constant Matrix: (Units=GPa)
#
#
# Indices 1 2 3 4 5 6 
#
# 1 90.3772 57.6507 46.3552 0.0000 29.0702 0.0000
# 2 57.6507 77.2038 33.9971 0.0000 16.0232 0.0000
# 3 46.3552 33.9971 212.0861 0.0000 18.1889 0.0000
# 4 0.0000 0.0000 0.0000 24.8219 0.0000 5.2989
# 5 29.0702 16.0232 18.1889 0.0000 32.2850 0.0000
# 6 0.0000 0.0000 0.0000 5.2989 0.0000 22.6725
#
#
#
# Elastic Compliance Matrix: (Units=1/GPa)
#
#
# Indices 1 2 3 4 5 6 
#
# 1 0.027663 -0.016521 -0.002065 0.000000 -0.015545 0.000000
# 2 -0.016521 0.024981 -0.000637 0.000000 0.002836 0.000000
# 3 -0.002065 -0.000637 0.005340 0.000000 -0.000833 0.000000
# 4 0.000000 0.000000 0.000000 0.042403 0.000000 -0.009910
# 5 -0.015545 0.002836 -0.000833 0.000000 0.044033 0.000000
# 6 0.000000 0.000000 0.000000 -0.009910 0.000000 0.046423
#
#
# Mechanical properties :
#
#
# Convention : Reuss Voigt Hill
#
# Bulk Modulus (GPa) = 51.18013 72.85256 62.01634
# Shear Modulus (GPa) = 21.20443 32.06681 26.63562
#
# Velocity S-wave (km/s) = 3.09364 3.80438 3.46727
# Velocity P-wave (km/s) = 5.98840 7.22356 6.63478
#
# Compressibility (1/GPa) = 0.01953883
#
# Stress axis : x y z
#
# Youngs Moduli (GPa) = 36.14996 40.02998 187.27046
#
# Poissons Ratio (x) = 0.66134 0.38665
# Poissons Ratio (y) = 0.59723 0.11924
# Poissons Ratio (z) = 0.07464 0.02549
#
# Static dielectric constant tensor:
#      x y z
#    x 4.049920 0.000000 0.009650 
#    y 0.000000 3.533770 0.000000 
#    z 0.009650 0.000000 4.919090 
# 
# 
# High freq. dielectric constant tensor:
#      x y z
#    x 1.873630 0.000000 -0.013990 
#    y 0.000000 1.818220 0.000000 
#    z -0.013990 0.000000 1.917910 
# 
# From -- ./inp_files/176765.got.cif
#   From: 2010.06.25/outbox.cif.g09.slc.cpg/sg15_89_cif.got.tgz:176765.got - 2010.06.28 07:06:18.
