data_PCOD8135310
_publ_section_title
;
Structure prediction by ZEFSAII (Michael W. Deem and Ramdas Pophale) SiO2 
 PCOD8135310
Probable space group: C 2/C
;
_chemical_formula_sum "Si O2"
_cell_formula_units_Z 56
_cell_length_a 15.223028
_cell_length_b 20.335338
_cell_length_c 8.821125
_cell_angle_alpha 90.000000
_cell_angle_beta 82.170281
_cell_angle_gamma 90.000000
_cell_volume 2705.257658
_symmetry_space_group_name_H-M "C 2/C"
_symmetry_group_IT_number 15
_symmetry_cell_setting 'monoclinic'
loop_
_space_group_symop_operation_xyz
x,y,z
-x,y,1/2-z
-x,-y,-z
x,-y,1/2+z
1/2+x,1/2+y,z
1/2-x,1/2+y,1/2-z
1/2-x,1/2-y,-z
1/2+x,1/2-y,1/2+z
loop_
_atom_site_type_symbol
_atom_site_label
_atom_site_fract_x
_atom_site_fract_y
_atom_site_fract_z
Si Si1 0.754441 0.775652 0.169367
Si Si2 0.412056 0.314037 0.328508
Si Si3 0.081456 0.686524 0.014922
Si Si4 0.000000 0.368190 0.250000
Si Si5 0.178875 0.417235 0.135973
Si Si6 0.312626 0.955904 0.701700
Si Si7 0.732404 0.663045 0.405347
Si Si8 0.000000 0.417814 0.750000
O O1 0.855447 0.787225 0.199175
O O2 0.708003 0.846122 0.186139
O O3 0.708979 0.720010 0.287818
O O4 0.750000 0.750000 0.000000
O O5 0.500000 0.354676 0.250000
O O6 0.457312 0.252285 0.403027
O O7 0.351681 0.352663 0.466011
O O8 0.188804 0.689297 0.004205
O O9 0.041510 0.623901 0.106142
O O10 0.051098 0.681274 0.849723
O O11 0.928201 0.415745 0.346753
O O12 0.217532 0.470207 0.247510
O O13 0.214330 0.438471 0.963023
O O14 0.262333 0.903699 0.818292
O O15 0.418861 0.958918 0.699573
#
# Coordination Sequence:
#
# PCOD8135310 Si02
#       8
#     8   8   8   4   8   8   8   4
#     4  11  23  44  67  95 129 171 223 270 318 386
#     4  11  23  40  64  94 126 165 216 277 336 376
#     4  10  20  36  58  91 131 175 206 257 309 372
#     4  12  23  34  60  96 136 178 223 242 299 398
#     4  12  26  40  62  97 130 179 214 264 316 396
#     4  11  25  40  63  91 135 174 215 259 324 393
#     4  10  22  45  63  90 131 171 216 274 328 374
#     4  10  19  38  58  86 140 174 209 244 311 384
#
# _framework density 20.700430999999998
#
# number of rings (size 3 to 8) (size 9 to 14) (size 15 to 20)
#    0.000    1.143    3.571    3.857    8.000    1.143 
#    0.000    0.000    0.000    0.857    0.000    0.000 
#    0.000    0.000    0.000    0.000    0.000    0.000 
#
# Total GULP energy -347039.697592 kJ/mol
# GULP energy per Si atom -12394.274914 kJ/mol
# Density = 2.065332 g / cm^3
# Si number density = 20.700431 Si / 1000 Ang^3
#
#
#
# Elastic Constant Matrix: (Units=GPa)
#
#
# Indices 1 2 3 4 5 6 
#
# 1 95.6089 30.9258 57.4017 0.0000 -22.7485 0.0000
# 2 30.9258 113.8194 37.0746 0.0000 -0.3693 0.0000
# 3 57.4017 37.0746 136.5208 0.0000 3.0776 0.0000
# 4 0.0000 0.0000 0.0000 29.4948 0.0000 7.5030
# 5 -22.7485 -0.3693 3.0776 0.0000 36.2112 0.0000
# 6 0.0000 0.0000 0.0000 7.5030 0.0000 19.9717
#
#
#
# Elastic Compliance Matrix: (Units=1/GPa)
#
#
# Indices 1 2 3 4 5 6 
#
# 1 0.018712 -0.002623 -0.007434 0.000000 0.012360 0.000000
# 2 -0.002623 0.010010 -0.001584 0.000000 -0.001411 0.000000
# 3 -0.007434 -0.001584 0.011007 0.000000 -0.005622 0.000000
# 4 0.000000 0.000000 0.000000 0.037487 0.000000 -0.014083
# 5 0.012360 -0.001411 -0.005622 0.000000 0.035844 0.000000
# 6 0.000000 0.000000 0.000000 -0.014083 0.000000 0.055362
#
#
# Mechanical properties :
#
#
# Convention : Reuss Voigt Hill
#
# Bulk Modulus (GPa) = 60.79712 66.30592 63.55152
# Shear Modulus (GPa) = 25.35697 31.83869 28.59783
#
# Velocity S-wave (km/s) = 3.50372 3.92608 3.72090
# Velocity P-wave (km/s) = 6.76771 7.25623 7.01622
#
# Compressibility (1/GPa) = 0.01644815
#
# Stress axis : x y z
#
# Youngs Moduli (GPa) = 53.44275 99.90264 90.84779
#
# Poissons Ratio (x) = 0.26200 0.67536
# Poissons Ratio (y) = 0.14016 0.14389
# Poissons Ratio (z) = 0.39729 0.15823
#
# Static dielectric constant tensor:
#      x y z
#    x 3.750560 0.000000 -0.066560 
#    y 0.000000 3.596040 0.000000 
#    z -0.066560 0.000000 3.913180 
# 
# 
# High freq. dielectric constant tensor:
#      x y z
#    x 1.785850 0.000000 -0.007720 
#    y 0.000000 1.790300 0.000000 
#    z -0.007720 0.000000 1.830850 
# 
# From -- ./inp_files/41300.got.cif
#   From: 2010.06.25/outbox.cif.g09.slc.cpg/sg15_21_cif.got.tgz:41300.got - 2010.06.28 07:06:18.
