data_PCOD8135501
_publ_section_title
;
Structure prediction by ZEFSAII (Michael W. Deem and Ramdas Pophale) SiO2 
 PCOD8135501
Probable space group: C 2/C
;
_chemical_formula_sum "Si O2"
_cell_formula_units_Z 64
_cell_length_a 16.090315
_cell_length_b 12.564426
_cell_length_c 26.910647
_cell_angle_alpha 90.000000
_cell_angle_beta 34.996452
_cell_angle_gamma 90.000000
_cell_volume 3120.212912
_symmetry_space_group_name_H-M "C 2/C"
_symmetry_group_IT_number 15
_symmetry_cell_setting 'monoclinic'
loop_
_space_group_symop_operation_xyz
x,y,z
-x,y,1/2-z
-x,-y,-z
x,-y,1/2+z
1/2+x,1/2+y,z
1/2-x,1/2+y,1/2-z
1/2-x,1/2-y,-z
1/2+x,1/2-y,1/2+z
loop_
_atom_site_type_symbol
_atom_site_label
_atom_site_fract_x
_atom_site_fract_y
_atom_site_fract_z
Si Si1 0.349651 0.909984 0.026389
Si Si2 0.365260 0.963580 0.909550
Si Si3 0.668886 0.943485 0.276059
Si Si4 0.675204 0.054799 0.371745
Si Si5 0.648483 0.241159 0.709557
Si Si6 0.339496 0.218867 0.342381
Si Si7 0.145687 0.922281 0.880524
Si Si8 0.833572 0.899696 0.050359
O O1 0.258717 0.812741 0.090327
O O2 0.311938 0.011251 0.078931
O O3 0.300497 0.935584 0.994844
O O4 0.521440 0.884634 0.942132
O O5 0.341649 0.866336 0.884793
O O6 0.535222 0.984967 0.824548
O O7 0.284717 0.072629 0.933460
O O8 0.644762 0.826201 0.263462
O O9 0.682210 0.953362 0.329649
O O10 0.813430 0.000533 0.184909
O O11 0.805931 0.138608 0.298286
O O12 0.500000 0.237018 0.750000
O O13 0.776467 0.195616 0.612413
O O14 0.500000 0.259637 0.250000
O O15 0.264465 0.170656 0.329694
O O16 0.143706 0.991322 0.931263
O O17 0.987407 0.868978 0.949789
#
# Coordination Sequence:
#
# PCOD8135501 Si02
#       8
#     8   8   8   8   8   8   8   8
#     4  10  23  43  61  83 130 176 206 255 324 387
#     4  10  19  38  64  92 121 165 210 260 312 376
#     4  10  20  39  65  92 123 166 213 262 321 375
#     4  10  24  44  63  86 130 174 211 261 326 383
#     4  11  21  39  69  95 126 169 214 270 323 384
#     4  11  20  34  62  95 124 159 208 263 320 375
#     4   9  18  32  56  91 124 152 204 266 312 375
#     4   9  18  33  59  92 118 158 207 261 316 377
#
# _framework density 20.511422
#
# number of rings (size 3 to 8) (size 9 to 14) (size 15 to 20)
#    0.000    2.000    2.500    1.125    0.000    2.500 
#    4.500    1.875    0.000    0.000    0.000    0.000 
#    0.000    0.000    0.000    0.000    0.000    0.000 
#
# Total GULP energy -396593.331716 kJ/mol
# GULP energy per Si atom -12393.541616 kJ/mol
# Density = 2.046474 g / cm^3
# Si number density = 20.511422 Si / 1000 Ang^3
#
#
#
# Elastic Constant Matrix: (Units=GPa)
#
#
# Indices 1 2 3 4 5 6 
#
# 1 65.2654 20.8527 26.7074 0.0000 10.6635 0.0000
# 2 20.8527 66.8405 16.7361 0.0000 3.6564 0.0000
# 3 26.7074 16.7361 92.0123 -0.0001 -3.5240 -0.0001
# 4 0.0000 0.0000 -0.0001 28.6677 0.0000 7.3268
# 5 10.6635 3.6564 -3.5240 0.0000 29.4877 0.0000
# 6 0.0000 0.0000 -0.0001 7.3268 0.0000 11.4058
#
#
#
# Elastic Compliance Matrix: (Units=1/GPa)
#
#
# Indices 1 2 3 4 5 6 
#
# 1 0.020149 -0.004556 -0.005301 0.000000 -0.007355 0.000000
# 2 -0.004556 0.016861 -0.001769 0.000000 -0.000655 0.000000
# 3 -0.005301 -0.001769 0.012869 0.000000 0.003675 0.000000
# 4 0.000000 0.000000 0.000000 0.041734 0.000000 -0.026809
# 5 -0.007355 -0.000655 0.003675 0.000000 0.037093 0.000000
# 6 0.000000 0.000000 0.000000 -0.026809 0.000000 0.104896
#
#
# Mechanical properties :
#
#
# Convention : Reuss Voigt Hill
#
# Bulk Modulus (GPa) = 37.55798 39.19005 38.37402
# Shear Modulus (GPa) = 18.81602 24.56704 21.69153
#
# Velocity S-wave (km/s) = 3.03205 3.46457 3.25550
# Velocity P-wave (km/s) = 5.53248 5.92893 5.73413
#
# Compressibility (1/GPa) = 0.02662550
#
# Stress axis : x y z
#
# Youngs Moduli (GPa) = 49.63056 59.30745 77.70338
#
# Poissons Ratio (x) = 0.27022 0.41193
# Poissons Ratio (y) = 0.22613 0.13749
# Poissons Ratio (z) = 0.26311 0.10494
#
# Static dielectric constant tensor:
#      x y z
#    x 3.911120 0.000000 -0.152570 
#    y 0.000000 3.414690 0.000000 
#    z -0.152570 0.000000 3.839540 
# 
# 
# High freq. dielectric constant tensor:
#      x y z
#    x 1.796550 0.000000 -0.005320 
#    y 0.000000 1.779750 0.000000 
#    z -0.005320 0.000000 1.807800 
# 
# From -- ./inp_files/316192.got.cif
#   From: 2010.06.25/outbox.cif.g09.slc.cpg/sg15_159_cif.got.tgz:316192.got - 2010.06.28 07:06:18.
