data_PCOD8135915
_publ_section_title
;
Structure prediction by ZEFSAII (Michael W. Deem and Ramdas Pophale) SiO2 
 PCOD8135915
Probable space group: C 2/C
;
_chemical_formula_sum "Si O2"
_cell_formula_units_Z 56
_cell_length_a 21.933401
_cell_length_b 8.177960
_cell_length_c 22.754838
_cell_angle_alpha 90.000000
_cell_angle_beta 143.474545
_cell_angle_gamma 90.000000
_cell_volume 2429.254052
_symmetry_space_group_name_H-M "C 2/C"
_symmetry_group_IT_number 15
_symmetry_cell_setting 'monoclinic'
loop_
_space_group_symop_operation_xyz
x,y,z
-x,y,1/2-z
-x,-y,-z
x,-y,1/2+z
1/2+x,1/2+y,z
1/2-x,1/2+y,1/2-z
1/2-x,1/2-y,-z
1/2+x,1/2-y,1/2+z
loop_
_atom_site_type_symbol
_atom_site_label
_atom_site_fract_x
_atom_site_fract_y
_atom_site_fract_z
Si Si1 0.289867 0.426246 0.900873
Si Si2 0.516943 0.634626 0.601368
Si Si3 0.429344 0.204226 0.141859
Si Si4 0.774967 0.715659 0.394072
Si Si5 0.235621 0.099465 0.930508
Si Si6 0.014559 0.326297 0.484390
Si Si7 0.329458 0.366327 0.800795
O O1 0.239861 0.598905 0.885058
O O2 0.247429 0.259686 0.897328
O O3 0.273657 0.415255 0.818216
O O4 0.408615 0.453994 0.008091
O O5 0.507328 0.760313 0.648567
O O6 0.546345 0.711203 0.562358
O O7 0.608201 0.509437 0.684297
O O8 0.500000 0.135129 0.250000
O O9 0.368421 0.370818 0.113082
O O10 0.337463 0.082019 0.050538
O O11 0.716554 0.574644 0.384984
O O12 0.896529 0.682888 0.495878
O O13 0.756554 0.692732 0.310366
O O14 0.000000 0.500000 0.500000
O O15 0.907001 0.281583 0.372231
#
# Coordination Sequence:
#
# PCOD8135915 Si02
#       7
#     8   8   8   8   8   8   8
#     4  10  21  40  61  91 131 161 200 262 307 367
#     4  10  19  41  62  84 126 163 203 255 312 365
#     4  10  21  42  68  88 121 170 213 262 309 364
#     4  12  23  39  64  92 132 166 200 259 313 371
#     4  10  24  43  64  95 123 164 219 254 312 367
#     4  11  22  37  60  94 129 161 202 256 314 374
#     4  11  22  37  59  96 125 168 206 237 322 386
#
# _framework density 23.052344999999999
#
# number of rings (size 3 to 8) (size 9 to 14) (size 15 to 20)
#    0.000    1.429    2.857    4.286    4.000    1.143 
#    2.571    6.429    0.000    4.286    0.000    0.000 
#    0.000    0.000    0.000    0.000    0.000    0.000 
#
# Total GULP energy -346957.192782 kJ/mol
# GULP energy per Si atom -12391.328314 kJ/mol
# Density = 2.299988 g / cm^3
# Si number density = 23.052345 Si / 1000 Ang^3
#
#
#
# Elastic Constant Matrix: (Units=GPa)
#
#
# Indices 1 2 3 4 5 6 
#
# 1 48.3693 -11.7115 -5.1451 0.0000 0.4803 0.0000
# 2 -11.7115 108.8645 11.6466 0.0001 1.6234 0.0002
# 3 -5.1451 11.6466 87.4831 0.0000 -16.2325 0.0000
# 4 0.0000 0.0001 0.0000 9.9093 0.0000 6.5221
# 5 0.4803 1.6234 -16.2325 0.0000 29.5251 0.0000
# 6 0.0000 0.0002 0.0000 6.5221 0.0000 23.5681
#
#
#
# Elastic Compliance Matrix: (Units=1/GPa)
#
#
# Indices 1 2 3 4 5 6 
#
# 1 0.021307 0.002187 0.000975 0.000000 0.000069 0.000000
# 2 0.002187 0.009590 -0.001395 0.000000 -0.001330 0.000000
# 3 0.000975 -0.001395 0.013013 0.000000 0.007215 0.000000
# 4 0.000000 0.000000 0.000000 0.123389 0.000000 -0.034146
# 5 0.000069 -0.001330 0.007215 0.000000 0.037908 0.000000
# 6 0.000000 0.000000 0.000000 -0.034146 0.000000 0.051879
#
#
# Mechanical properties :
#
#
# Convention : Reuss Voigt Hill
#
# Bulk Modulus (GPa) = 21.07794 26.03296 23.55545
# Shear Modulus (GPa) = 18.56204 29.26230 23.91217
#
# Velocity S-wave (km/s) = 2.84071 3.56671 3.22421
# Velocity P-wave (km/s) = 4.46350 5.31784 4.90929
#
# Compressibility (1/GPa) = 0.04744296
#
# Stress axis : x y z
#
# Youngs Moduli (GPa) = 46.93347 104.27480 76.84894
#
# Poissons Ratio (x) = -0.22803 -0.07491
# Poissons Ratio (y) = -0.10264 0.10719
# Poissons Ratio (z) = -0.04575 0.14545
#
# Static dielectric constant tensor:
#      x y z
#    x 4.085300 0.000000 -0.096930 
#    y 0.000000 3.772940 0.000000 
#    z -0.096930 0.000000 3.951660 
# 
# 
# High freq. dielectric constant tensor:
#      x y z
#    x 1.899090 0.000000 0.000330 
#    y 0.000000 1.895980 0.000000 
#    z 0.000330 0.000000 1.909570 
# 
# From -- ./inp_files/281546.got.cif
#   From: 2010.06.25/outbox.cif.g09.slc.cpg/sg15_141_cif.got.tgz:281546.got - 2010.06.28 07:06:18.
