data_PCOD8135088
_publ_section_title
;
Structure prediction by ZEFSAII (Michael W. Deem and Ramdas Pophale) SiO2 
 PCOD8135088
Probable space group: C 2/C
;
_chemical_formula_sum "Si O2"
_cell_formula_units_Z 64
_cell_length_a 16.663096
_cell_length_b 26.956623
_cell_length_c 8.776033
_cell_angle_alpha 90.000000
_cell_angle_beta 133.732205
_cell_angle_gamma 90.000000
_cell_volume 2848.423652
_symmetry_space_group_name_H-M "C 2/C"
_symmetry_group_IT_number 15
_symmetry_cell_setting 'monoclinic'
loop_
_space_group_symop_operation_xyz
x,y,z
-x,y,1/2-z
-x,-y,-z
x,-y,1/2+z
1/2+x,1/2+y,z
1/2-x,1/2+y,1/2-z
1/2-x,1/2-y,-z
1/2+x,1/2-y,1/2+z
loop_
_atom_site_type_symbol
_atom_site_label
_atom_site_fract_x
_atom_site_fract_y
_atom_site_fract_z
Si Si1 0.122245 0.022508 0.640611
Si Si2 0.425098 0.793963 0.003369
Si Si3 0.240751 0.461965 0.895683
Si Si4 0.932970 0.537333 0.809133
Si Si5 0.965403 0.387847 0.875787
Si Si6 0.391523 0.373033 0.511401
Si Si7 0.212868 0.803625 0.891674
Si Si8 0.515819 0.301204 0.088241
O O1 0.128451 0.067845 0.527286
O O2 0.198845 0.976669 0.683170
O O3 0.165766 0.047489 0.854115
O O4 0.000000 0.000000 0.500000
O O5 0.500000 0.783061 0.250000
O O6 0.472888 0.833051 0.948301
O O7 0.310180 0.819311 0.904763
O O8 0.412340 0.744325 0.886179
O O9 0.182719 0.512192 0.882712
O O10 0.153643 0.416599 0.758138
O O11 0.000000 0.552408 0.750000
O O12 0.000000 0.500000 0.000000
O O13 0.928324 0.586896 0.902456
O O14 0.000000 0.386670 0.750000
O O15 0.500000 0.362704 0.750000
O O16 0.295877 0.343439 0.480536
O O17 0.414086 0.349837 0.372111
O O18 0.103642 0.799589 0.646915
O O19 0.250000 0.750000 0.000000
O O20 0.500000 0.299929 0.250000
#
# Coordination Sequence:
#
# PCOD8135088 Si02
#       8
#     8   8   8   8   8   8   8   8
#     4  12  26  43  67  95 133 179 237 289 331 405
#     4  12  24  42  69 101 136 182 227 280 343 427
#     4  11  23  42  64  92 134 176 224 280 349 393
#     4  10  19  37  61  87 123 173 215 270 343 416
#     4  11  24  41  63 100 140 174 222 283 347 428
#     4  10  23  45  70  94 131 182 231 281 351 404
#     4  11  22  46  72  95 135 179 230 276 345 420
#     4  11  24  44  69 102 139 177 222 289 350 414
#
# _framework density 22.468567
#
# number of rings (size 3 to 8) (size 9 to 14) (size 15 to 20)
#    0.000    1.000    2.500    6.000    0.000    8.500 
#    2.250    0.000    0.000    0.000    0.000    0.000 
#    0.000    0.000    0.000    0.000    0.000    0.000 
#
# Total GULP energy -396466.368006 kJ/mol
# GULP energy per Si atom -12389.574000 kJ/mol
# Density = 2.241743 g / cm^3
# Si number density = 22.468567 Si / 1000 Ang^3
#
#
#
# Elastic Constant Matrix: (Units=GPa)
#
#
# Indices 1 2 3 4 5 6 
#
# 1 109.7794 31.4713 15.1076 0.0000 -22.6452 0.0000
# 2 31.4713 99.8627 14.4730 0.0000 -9.1784 0.0000
# 3 15.1076 14.4730 74.6191 0.0000 -16.6550 0.0000
# 4 0.0000 0.0000 0.0000 24.2444 0.0000 -5.3719
# 5 -22.6452 -9.1784 -16.6550 0.0000 41.0691 0.0000
# 6 0.0000 0.0000 0.0000 -5.3719 0.0000 44.4733
#
#
#
# Elastic Compliance Matrix: (Units=1/GPa)
#
#
# Indices 1 2 3 4 5 6 
#
# 1 0.011108 -0.002944 -0.000503 0.000000 0.005263 0.000000
# 2 -0.002944 0.011185 -0.001515 0.000000 0.000262 0.000000
# 3 -0.000503 -0.001515 0.015019 0.000000 0.005475 0.000000
# 4 0.000000 0.000000 0.000000 0.042381 0.000000 0.005119
# 5 0.005263 0.000262 0.005475 0.000000 0.029530 0.000000
# 6 0.000000 0.000000 0.000000 0.005119 0.000000 0.023104
#
#
# Mechanical properties :
#
#
# Convention : Reuss Voigt Hill
#
# Bulk Modulus (GPa) = 36.51246 45.15166 40.83206
# Shear Modulus (GPa) = 33.02936 36.83799 34.93367
#
# Velocity S-wave (km/s) = 3.83825 4.05351 3.94735
# Velocity P-wave (km/s) = 5.99405 6.48437 6.24402
#
# Compressibility (1/GPa) = 0.02738791
#
# Stress axis : x y z
#
# Youngs Moduli (GPa) = 90.02493 89.40402 66.58201
#
# Poissons Ratio (x) = 0.26321 0.03351
# Poissons Ratio (y) = 0.26503 0.10087
# Poissons Ratio (z) = 0.04531 0.13544
#
# Static dielectric constant tensor:
#      x y z
#    x 4.524820 0.000000 0.260140 
#    y 0.000000 4.370200 0.000000 
#    z 0.260140 0.000000 4.212930 
# 
# 
# High freq. dielectric constant tensor:
#      x y z
#    x 1.895370 0.000000 -0.006230 
#    y 0.000000 1.886660 0.000000 
#    z -0.006230 0.000000 1.880990 
# 
# From -- ./inp_files/44889.got.cif
#   From: 2010.06.25/outbox.cif.g09.slc.cpg/sg15_23_cif.got.tgz:44889.got - 2010.06.28 07:06:18.
