data_PCOD8135124
_publ_section_title
;
Structure prediction by ZEFSAII (Michael W. Deem and Ramdas Pophale) SiO2 
 PCOD8135124
Probable space group: C 2/C
;
_chemical_formula_sum "Si O2"
_cell_formula_units_Z 56
_cell_length_a 8.509008
_cell_length_b 27.337172
_cell_length_c 14.188946
_cell_angle_alpha 90.000000
_cell_angle_beta 122.898148
_cell_angle_gamma 90.000000
_cell_volume 2771.241917
_symmetry_space_group_name_H-M "C 2/C"
_symmetry_group_IT_number 15
_symmetry_cell_setting 'monoclinic'
loop_
_space_group_symop_operation_xyz
x,y,z
-x,y,1/2-z
-x,-y,-z
x,-y,1/2+z
1/2+x,1/2+y,z
1/2-x,1/2+y,1/2-z
1/2-x,1/2-y,-z
1/2+x,1/2-y,1/2+z
loop_
_atom_site_type_symbol
_atom_site_label
_atom_site_fract_x
_atom_site_fract_y
_atom_site_fract_z
Si Si1 0.500000 0.232362 0.250000
Si Si2 0.500000 0.265697 0.750000
Si Si3 0.326923 0.463601 0.452017
Si Si4 0.367457 0.178103 0.389958
Si Si5 0.556765 0.008146 0.625190
Si Si6 0.829601 0.300234 0.353579
Si Si7 0.312512 0.897540 0.244665
Si Si8 0.294682 0.575352 0.152218
O O1 0.434935 0.197042 0.311466
O O2 0.662165 0.268025 0.341857
O O3 0.333535 0.298312 0.651620
O O4 0.569180 0.231543 0.690649
O O5 0.500000 0.500000 0.500000
O O6 0.340655 0.419494 0.379612
O O7 0.308550 0.440579 0.548527
O O8 0.130522 0.493435 0.368966
O O9 0.521939 0.189255 0.517669
O O10 0.346581 0.120015 0.381675
O O11 0.651660 0.061028 0.665452
O O12 0.500000 0.000000 0.500000
O O13 0.713059 0.966594 0.696057
O O14 0.743193 0.349362 0.277147
O O15 0.500000 0.883109 0.250000
O O16 0.500000 0.590954 0.250000
#
# Coordination Sequence:
#
# PCOD8135124 Si02
#       8
#     4   4   8   8   8   8   8   8
#     4  10  26  44  58  94 126 164 222 274 334 386
#     4  10  22  38  68  96 116 160 216 270 326 396
#     4  10  21  39  60  96 131 165 206 262 315 385
#     4  11  22  44  64  90 125 169 216 271 327 390
#     4   9  19  36  58  85 123 164 199 247 309 372
#     4  11  21  41  66  91 125 163 209 273 331 388
#     4  10  19  37  62  91 119 159 210 246 311 395
#     4  11  22  40  62  90 125 170 212 254 317 391
#
# _framework density 20.207547000000002
#
# number of rings (size 3 to 8) (size 9 to 14) (size 15 to 20)
#    0.000    1.714    1.429    4.286    0.000    0.000 
#   15.429    0.000    0.000    0.000    0.000    0.000 
#    0.000    0.000    0.000    0.000    0.000    0.000 
#
# Total GULP energy -347092.633275 kJ/mol
# GULP energy per Si atom -12396.165474 kJ/mol
# Density = 2.016155 g / cm^3
# Si number density = 20.207547 Si / 1000 Ang^3
#
#
#
# Elastic Constant Matrix: (Units=GPa)
#
#
# Indices 1 2 3 4 5 6 
#
# 1 83.3115 56.7331 32.4538 0.0000 15.2571 0.0000
# 2 56.7331 134.9365 40.6400 0.0000 -2.5743 0.0000
# 3 32.4538 40.6400 94.8346 0.0000 11.5928 0.0000
# 4 0.0000 0.0000 0.0000 35.6443 0.0000 5.8564
# 5 15.2571 -2.5743 11.5928 0.0000 24.5260 0.0000
# 6 0.0000 0.0000 0.0000 5.8564 0.0000 0.5005
#
#
#
# Elastic Compliance Matrix: (Units=1/GPa)
#
#
# Indices 1 2 3 4 5 6 
#
# 1 0.020882 -0.008441 -0.001945 0.000000 -0.012957 0.000000
# 2 -0.008441 0.012103 -0.003285 0.000000 0.008074 0.000000
# 3 -0.001945 -0.003285 0.013280 0.000000 -0.005412 0.000000
# 4 0.000000 0.000000 0.000000 -0.030416 0.000000 0.355881
# 5 -0.012957 0.008074 -0.005412 0.000000 0.052239 0.000000
# 6 0.000000 0.000000 0.000000 0.355881 0.000000 -2.166041
#
#
# Mechanical properties :
#
#
# Convention : Reuss Voigt Hill
#
# Bulk Modulus (GPa) = 52.84672 63.63738 58.24205
# Shear Modulus (GPa) = -2.42212 24.35121 10.96454
#
# Velocity S-wave (km/s) = -1.09600 3.47516 2.33190
# Velocity P-wave (km/s) = 4.96056 6.90381 6.01122
#
# Compressibility (1/GPa) = 0.01892265
#
# Stress axis : x y z
#
# Youngs Moduli (GPa) = 47.88887 82.62238 75.30373
#
# Poissons Ratio (x) = 0.69741 0.14646
# Poissons Ratio (y) = 0.40423 0.24738
# Poissons Ratio (z) = 0.09314 0.27142
#
# Static dielectric constant tensor:
#      x y z
#    x 4.009230 0.000000 0.328800 
#    y 0.000000 3.969250 0.000000 
#    z 0.328800 0.000000 3.840240 
# 
# 
# High freq. dielectric constant tensor:
#      x y z
#    x 1.781840 0.000000 0.003440 
#    y 0.000000 1.796150 0.000000 
#    z 0.003440 0.000000 1.797110 
# 
# From -- ./inp_files/138724.got.cif
#   From: 2010.06.25/outbox.cif.g09.slc.cpg/sg15_70_cif.got.tgz:138724.got - 2010.06.28 07:06:18.
