data_PCOD8135265
_publ_section_title
;
Structure prediction by ZEFSAII (Michael W. Deem and Ramdas Pophale) SiO2 
 PCOD8135265
Probable space group: C 2/C
;
_chemical_formula_sum "Si O2"
_cell_formula_units_Z 64
_cell_length_a 23.855766
_cell_length_b 13.467162
_cell_length_c 13.778946
_cell_angle_alpha 90.000000
_cell_angle_beta 135.710565
_cell_angle_gamma 90.000000
_cell_volume 3091.128839
_symmetry_space_group_name_H-M "C 2/C"
_symmetry_group_IT_number 15
_symmetry_cell_setting 'monoclinic'
loop_
_space_group_symop_operation_xyz
x,y,z
-x,y,1/2-z
-x,-y,-z
x,-y,1/2+z
1/2+x,1/2+y,z
1/2-x,1/2+y,1/2-z
1/2-x,1/2-y,-z
1/2+x,1/2-y,1/2+z
loop_
_atom_site_type_symbol
_atom_site_label
_atom_site_fract_x
_atom_site_fract_y
_atom_site_fract_z
Si Si1 0.180438 0.532840 0.773198
Si Si2 0.093006 0.821295 0.764864
Si Si3 0.442357 0.655527 0.959386
Si Si4 0.152356 0.654391 0.118554
Si Si5 0.178299 0.752392 0.690689
Si Si6 0.540006 0.342362 0.394676
Si Si7 0.086446 0.392670 0.333647
Si Si8 0.861589 0.964898 0.506536
O O1 0.138434 0.445856 0.661092
O O2 0.180490 0.635275 0.713251
O O3 0.133952 0.538877 0.817049
O O4 0.271093 0.498390 0.905386
O O5 0.162742 0.813664 0.770516
O O6 0.065774 0.712259 0.760717
O O7 0.123517 0.880839 0.894974
O O8 0.015124 0.872007 0.622167
O O9 0.417408 0.770530 0.934993
O O10 0.468993 0.632019 0.882863
O O11 0.372015 0.582907 0.911173
O O12 0.237670 0.707078 0.245677
O O13 0.144048 0.624140 0.996480
O O14 0.106528 0.770742 0.524958
O O15 0.500000 0.291155 0.250000
O O16 0.580232 0.442934 0.406229
O O17 0.000000 0.443049 0.250000
#
# Coordination Sequence:
#
# PCOD8135265 Si02
#       8
#     8   8   8   8   8   8   8   8
#     4  11  25  41  65 104 129 175 220 263 337 389
#     4  10  19  37  70 101 123 163 216 281 334 360
#     4  11  22  39  67  97 130 169 215 275 327 380
#     4  12  22  43  67  97 134 172 218 272 329 389
#     4  10  22  44  66  92 138 171 217 275 321 392
#     4  11  25  44  63  94 133 179 220 257 326 399
#     4  11  21  41  64  96 131 168 222 275 321 379
#     4  12  20  39  69 100 134 161 217 277 331 391
#
# _framework density 20.704411
#
# number of rings (size 3 to 8) (size 9 to 14) (size 15 to 20)
#    0.000    1.000    5.000    2.250    0.000    3.500 
#    4.500    0.625    0.000    0.000    0.000    0.000 
#    0.000    0.000    0.000    0.000    0.000    0.000 
#
# Total GULP energy -396854.741357 kJ/mol
# GULP energy per Si atom -12401.710667 kJ/mol
# Density = 2.065729 g / cm^3
# Si number density = 20.704411 Si / 1000 Ang^3
#
#
#
# Elastic Constant Matrix: (Units=GPa)
#
#
# Indices 1 2 3 4 5 6 
#
# 1 101.9373 24.0161 52.8256 0.0000 -0.5864 0.0000
# 2 24.0161 70.8498 15.4184 0.0000 3.5376 0.0000
# 3 52.8256 15.4184 95.6059 0.0000 -7.8052 0.0000
# 4 0.0000 0.0000 0.0000 29.0280 0.0000 -0.7573
# 5 -0.5864 3.5376 -7.8052 0.0000 28.6412 0.0000
# 6 0.0000 0.0000 0.0000 -0.7573 0.0000 26.4730
#
#
#
# Elastic Compliance Matrix: (Units=1/GPa)
#
#
# Indices 1 2 3 4 5 6 
#
# 1 0.014496 -0.003189 -0.007608 0.000000 -0.001383 0.000000
# 2 -0.003189 0.015507 -0.000921 0.000000 -0.002232 0.000000
# 3 -0.007608 -0.000921 0.015145 0.000000 0.004085 0.000000
# 4 0.000000 0.000000 0.000000 0.034475 0.000000 0.000986
# 5 -0.001383 -0.002232 0.004085 0.000000 0.036275 0.000000
# 6 0.000000 0.000000 0.000000 0.000986 0.000000 0.037803
#
#
# Mechanical properties :
#
#
# Convention : Reuss Voigt Hill
#
# Bulk Modulus (GPa) = 46.05678 50.32370 48.19024
# Shear Modulus (GPa) = 27.11859 28.57064 27.84461
#
# Velocity S-wave (km/s) = 3.62304 3.71877 3.67122
# Velocity P-wave (km/s) = 6.30833 6.54198 6.42622
#
# Compressibility (1/GPa) = 0.02171233
#
# Stress axis : x y z
#
# Youngs Moduli (GPa) = 68.98470 64.48615 66.02659
#
# Poissons Ratio (x) = 0.20565 0.50234
# Poissons Ratio (y) = 0.21999 0.06081
# Poissons Ratio (z) = 0.52484 0.05939
#
# Static dielectric constant tensor:
#      x y z
#    x 4.011050 0.000000 0.039300 
#    y 0.000000 3.534710 0.000000 
#    z 0.039300 0.000000 3.686460 
# 
# 
# High freq. dielectric constant tensor:
#      x y z
#    x 1.822070 0.000000 0.007970 
#    y 0.000000 1.793180 0.000000 
#    z 0.007970 0.000000 1.804920 
# 
# From -- ./inp_files/177864.got.cif
#   From: 2010.06.25/outbox.cif.g09.slc.cpg/sg15_89_cif.got.tgz:177864.got - 2010.06.28 07:06:18.
