data_PCOD8135662
_publ_section_title
;
Structure prediction by ZEFSAII (Michael W. Deem and Ramdas Pophale) SiO2 
 PCOD8135662
Probable space group: C 2/C
;
_chemical_formula_sum "Si O2"
_cell_formula_units_Z 60
_cell_length_a 30.603337
_cell_length_b 22.314695
_cell_length_c 9.123321
_cell_angle_alpha 90.000000
_cell_angle_beta 151.031855
_cell_angle_gamma 90.000000
_cell_volume 3017.505285
_symmetry_space_group_name_H-M "C 2/C"
_symmetry_group_IT_number 15
_symmetry_cell_setting 'monoclinic'
loop_
_space_group_symop_operation_xyz
x,y,z
-x,y,1/2-z
-x,-y,-z
x,-y,1/2+z
1/2+x,1/2+y,z
1/2-x,1/2+y,1/2-z
1/2-x,1/2-y,-z
1/2+x,1/2-y,1/2+z
loop_
_atom_site_type_symbol
_atom_site_label
_atom_site_fract_x
_atom_site_fract_y
_atom_site_fract_z
Si Si1 0.311724 0.032868 0.315480
Si Si2 0.598327 0.656764 0.572692
Si Si3 0.500000 0.487344 0.250000
Si Si4 0.903187 0.294701 0.006415
Si Si5 0.227869 0.379389 0.040627
Si Si6 0.419425 0.129457 0.811075
Si Si7 0.880901 0.401226 0.511580
Si Si8 0.883525 0.057059 0.668846
O O1 0.294752 0.056900 0.100420
O O2 0.377928 0.077281 0.592273
O O3 0.365988 0.971857 0.452392
O O4 0.216626 0.027260 0.125459
O O5 0.600754 0.728081 0.568891
O O6 0.626274 0.627996 0.813468
O O7 0.664992 0.630759 0.644838
O O8 0.500000 0.631886 0.250000
O O9 0.559226 0.526346 0.534102
O O10 0.568568 0.447712 0.349771
O O11 0.900532 0.306184 0.175495
O O12 0.000000 0.324057 0.250000
O O13 0.818185 0.326566 0.685940
O O14 0.198529 0.375385 0.121926
O O15 0.524510 0.113909 0.135644
O O16 0.372231 0.131767 0.830629
#
# Coordination Sequence:
#
# PCOD8135662 Si02
#       8
#     8   8   4   8   8   8   8   8
#     4  10  22  34  57  86 120 161 200 236 295 371
#     4  10  21  38  63  86 111 151 211 245 288 349
#     4  10  22  38  62  82 130 154 194 246 310 350
#     4  10  19  39  63  80 114 156 201 248 296 355
#     4  10  21  36  59  86 114 156 201 242 301 355
#     4  10  22  37  54  88 120 159 197 246 302 353
#     4  11  21  35  57  86 128 152 195 245 303 356
#     4  10  22  39  60  90 119 161 198 247 299 361
#
# _framework density 19.883975
#
# number of rings (size 3 to 8) (size 9 to 14) (size 15 to 20)
#    0.000    1.867    2.000    1.600    5.600    1.067 
#    0.000    0.667    5.867    0.000    0.000    0.000 
#    0.000    0.000    0.000    0.000    0.000    0.000 
#
# Total GULP energy -371748.493209 kJ/mol
# GULP energy per Si atom -12391.616440 kJ/mol
# Density = 1.983872 g / cm^3
# Si number density = 19.883975 Si / 1000 Ang^3
#
#
#
# Elastic Constant Matrix: (Units=GPa)
#
#
# Indices 1 2 3 4 5 6 
#
# 1 165.1081 41.3147 30.0303 0.0000 2.6443 0.0000
# 2 41.3147 86.5374 25.1234 0.0000 -7.2854 0.0000
# 3 30.0303 25.1234 53.1691 0.0000 0.8912 0.0000
# 4 0.0000 0.0000 0.0000 20.5523 0.0000 1.4511
# 5 2.6443 -7.2854 0.8912 0.0000 28.1874 0.0000
# 6 0.0000 0.0000 0.0000 1.4511 0.0000 19.0318
#
#
#
# Elastic Compliance Matrix: (Units=1/GPa)
#
#
# Indices 1 2 3 4 5 6 
#
# 1 0.007278 -0.002780 -0.002775 0.000000 -0.001313 0.000000
# 2 -0.002780 0.014844 -0.005516 0.000000 0.004272 0.000000
# 3 -0.002775 -0.005516 0.023013 0.000000 -0.001893 0.000000
# 4 0.000000 0.000000 0.000000 0.048920 0.000000 -0.003730
# 5 -0.001313 0.004272 -0.001893 0.000000 0.036764 0.000000
# 6 0.000000 0.000000 0.000000 -0.003730 0.000000 0.052828
#
#
# Mechanical properties :
#
#
# Convention : Reuss Voigt Hill
#
# Bulk Modulus (GPa) = 43.48927 55.30571 49.39749
# Shear Modulus (GPa) = 23.42446 27.44404 25.43425
#
# Velocity S-wave (km/s) = 3.43601 3.71915 3.58038
# Velocity P-wave (km/s) = 6.13682 6.80568 6.47989
#
# Compressibility (1/GPa) = 0.02299418
#
# Stress axis : x y z
#
# Youngs Moduli (GPa) = 137.40126 67.36916 43.45301
#
# Poissons Ratio (x) = 0.18725 0.12059
# Poissons Ratio (y) = 0.38191 0.23967
# Poissons Ratio (z) = 0.38132 0.37158
#
# Static dielectric constant tensor:
#      x y z
#    x 3.908470 0.000000 0.153110 
#    y 0.000000 3.494870 0.000000 
#    z 0.153110 0.000000 3.808980 
# 
# 
# High freq. dielectric constant tensor:
#      x y z
#    x 1.778880 0.000000 0.016280 
#    y 0.000000 1.754250 0.000000 
#    z 0.016280 0.000000 1.784390 
# 
# From -- ./inp_files/70958.got.cif
#   From: 2010.06.25/outbox.cif.g09.slc.cpg/sg15_36_cif.got.tgz:70958.got - 2010.06.28 07:06:18.
