data_PCOD8135869
_publ_section_title
;
Structure prediction by ZEFSAII (Michael W. Deem and Ramdas Pophale) SiO2 
 PCOD8135869
Probable space group: C 2/C
;
_chemical_formula_sum "Si O2"
_cell_formula_units_Z 52
_cell_length_a 8.800490
_cell_length_b 22.900082
_cell_length_c 22.149249
_cell_angle_alpha 90.000000
_cell_angle_beta 34.853687
_cell_angle_gamma 90.000000
_cell_volume 2550.973926
_symmetry_space_group_name_H-M "C 2/C"
_symmetry_group_IT_number 15
_symmetry_cell_setting 'monoclinic'
loop_
_space_group_symop_operation_xyz
x,y,z
-x,y,1/2-z
-x,-y,-z
x,-y,1/2+z
1/2+x,1/2+y,z
1/2-x,1/2+y,1/2-z
1/2-x,1/2-y,-z
1/2+x,1/2-y,1/2+z
loop_
_atom_site_type_symbol
_atom_site_label
_atom_site_fract_x
_atom_site_fract_y
_atom_site_fract_z
Si Si1 0.609305 0.798020 0.847232
Si Si2 0.297832 0.880701 0.448769
Si Si3 0.629589 0.617968 0.516154
Si Si4 0.602412 0.347712 0.636753
Si Si5 0.964780 0.495749 0.939771
Si Si6 0.000000 0.952054 0.750000
Si Si7 0.277880 0.827641 0.272733
O O1 0.737366 0.802397 0.872793
O O2 0.610134 0.732271 0.821058
O O3 0.788527 0.834023 0.741191
O O4 0.316447 0.825455 0.945278
O O5 0.213938 0.841749 0.533372
O O6 0.570771 0.850965 0.336073
O O7 0.056941 0.883596 0.481034
O O8 0.332728 0.946753 0.457384
O O9 0.439978 0.624744 0.636346
O O10 0.791858 0.559362 0.474667
O O11 0.627064 0.413454 0.654428
O O12 0.250709 0.491877 0.812553
O O13 0.000000 0.500000 0.000000
O O14 0.500000 0.816594 0.250000
#
# Coordination Sequence:
#
# PCOD8135869 Si02
#       7
#     8   8   8   8   8   4   8
#     4  10  19  42  69  85 125 171 216 248 316 379
#     4  11  25  39  62  98 136 159 210 269 322 371
#     4  11  23  41  64  94 128 170 209 262 326 370
#     4  10  19  40  67  91 121 170 214 257 308 388
#     4  12  23  42  66  92 124 173 216 259 312 386
#     4  10  20  40  66  88 118 164 220 260 302 368
#     4  10  22  41  62  93 131 168 202 264 321 369
#
# _framework density 20.384371999999999
#
# number of rings (size 3 to 8) (size 9 to 14) (size 15 to 20)
#    0.000    1.538    6.154    0.923    2.154    1.231 
#    0.000    0.000    6.769    0.000    0.000    0.000 
#    0.000    0.000    0.000    0.000    0.000    0.000 
#
# Total GULP energy -322242.766332 kJ/mol
# GULP energy per Si atom -12393.952551 kJ/mol
# Density = 2.033798 g / cm^3
# Si number density = 20.384372 Si / 1000 Ang^3
#
#
#
# Elastic Constant Matrix: (Units=GPa)
#
#
# Indices 1 2 3 4 5 6 
#
# 1 85.4680 40.7411 66.9700 0.0068 -4.6503 0.0065
# 2 40.7411 91.0026 51.1910 -0.0005 -1.9545 0.0012
# 3 66.9700 51.1910 171.8302 0.0073 6.4338 -0.0055
# 4 0.0068 -0.0005 0.0073 21.3989 -0.0041 -5.9840
# 5 -4.6503 -1.9545 6.4338 -0.0041 36.3665 -0.0018
# 6 0.0065 0.0012 -0.0055 -5.9840 -0.0018 19.2132
#
#
#
# Elastic Compliance Matrix: (Units=1/GPa)
#
#
# Indices 1 2 3 4 5 6 
#
# 1 0.019002 -0.005050 -0.006022 -0.000006 0.003224 -0.000009
# 2 -0.005050 0.014616 -0.002407 0.000003 0.000566 0.000001
# 3 -0.006022 -0.002407 0.008977 0.000000 -0.002488 0.000004
# 4 -0.000006 0.000003 0.000000 0.051190 0.000006 0.015943
# 5 0.003224 0.000566 -0.002488 0.000006 0.028381 0.000003
# 6 -0.000009 0.000001 0.000004 0.015943 0.000003 0.057013
#
#
# Mechanical properties :
#
#
# Convention : Reuss Voigt Hill
#
# Bulk Modulus (GPa) = 63.95558 74.01167 68.98363
# Shear Modulus (GPa) = 23.65760 28.02230 25.83995
#
# Velocity S-wave (km/s) = 3.41042 3.71171 3.56425
# Velocity P-wave (km/s) = 6.85207 7.39973 7.13116
#
# Compressibility (1/GPa) = 0.01563585
#
# Stress axis : x y z
#
# Youngs Moduli (GPa) = 52.62709 68.41885 111.39548
#
# Poissons Ratio (x) = 0.34552 0.67082
# Poissons Ratio (y) = 0.26577 0.26815
# Poissons Ratio (z) = 0.31692 0.16470
#
# Static dielectric constant tensor:
#      x y z
#    x 3.500100 -0.000010 -0.126750 
#    y -0.000010 3.704600 0.000000 
#    z -0.126750 0.000000 3.993770 
# 
# 
# High freq. dielectric constant tensor:
#      x y z
#    x 1.771870 0.000000 -0.016360 
#    y 0.000000 1.799910 0.000000 
#    z -0.016360 0.000000 1.814180 
# 
# From -- ./inp_files/234373.got.cif
#   From: 2010.06.25/outbox.cif.g09.slc.cpg/sg15_118_cif.got.tgz:234373.got - 2010.06.28 07:06:18.
