data_PCOD8135675
_publ_section_title
;
Structure prediction by ZEFSAII (Michael W. Deem and Ramdas Pophale) SiO2 
 PCOD8135675
Probable space group: C 2/C
;
_chemical_formula_sum "Si O2"
_cell_formula_units_Z 52
_cell_length_a 20.420770
_cell_length_b 12.794244
_cell_length_c 10.873757
_cell_angle_alpha 90.000000
_cell_angle_beta 68.024839
_cell_angle_gamma 90.000000
_cell_volume 2634.560935
_symmetry_space_group_name_H-M "C 2/C"
_symmetry_group_IT_number 15
_symmetry_cell_setting 'monoclinic'
loop_
_space_group_symop_operation_xyz
x,y,z
-x,y,1/2-z
-x,-y,-z
x,-y,1/2+z
1/2+x,1/2+y,z
1/2-x,1/2+y,1/2-z
1/2-x,1/2-y,-z
1/2+x,1/2-y,1/2+z
loop_
_atom_site_type_symbol
_atom_site_label
_atom_site_fract_x
_atom_site_fract_y
_atom_site_fract_z
Si Si1 0.590435 0.573531 0.113651
Si Si2 0.722528 0.665433 0.116186
Si Si3 0.912994 0.244163 0.203586
Si Si4 0.634061 0.924234 0.906284
Si Si5 0.500000 0.613073 0.750000
Si Si6 0.038780 0.223014 0.953284
Si Si7 0.579116 0.031237 0.700433
O O1 0.675786 0.578475 0.075003
O O2 0.554760 0.645302 0.244793
O O3 0.559889 0.456599 0.141052
O O4 0.572030 0.622247 0.995353
O O5 0.671710 0.724882 0.252204
O O6 0.784296 0.608688 0.147046
O O7 0.750000 0.750000 0.000000
O O8 0.924777 0.344541 0.280991
O O9 0.957532 0.250763 0.047156
O O10 0.585631 0.823175 0.944324
O O11 0.621407 0.986202 0.788297
O O12 0.616416 0.992518 0.042021
O O13 0.540021 0.691533 0.811519
O O14 0.500000 0.983666 0.750000
#
# Coordination Sequence:
#
# PCOD8135675 Si02
#       7
#     8   8   8   8   4   8   8
#     4  10  19  39  63  89 121 160 209 251 316 376
#     4  10  19  41  65  91 120 170 213 249 319 389
#     4  10  20  39  68  87 122 165 213 257 316 379
#     4  12  25  42  66  96 132 172 216 265 321 385
#     4  12  26  36  62 108 120 162 218 270 318 382
#     4  12  22  41  66  90 134 163 212 271 318 376
#     4  12  23  41  68  97 123 170 226 265 315 380
#
# _framework density 19.737635000000001
#
# number of rings (size 3 to 8) (size 9 to 14) (size 15 to 20)
#    0.923    0.000    7.692    0.923    1.077    0.000 
#    8.308    0.000    0.000    1.846    0.000    0.000 
#    0.000    0.000    0.000    0.000    0.000    0.000 
#
# Total GULP energy -322161.801611 kJ/mol
# GULP energy per Si atom -12390.838524 kJ/mol
# Density = 1.969271 g / cm^3
# Si number density = 19.737635 Si / 1000 Ang^3
#
#
#
# Elastic Constant Matrix: (Units=GPa)
#
#
# Indices 1 2 3 4 5 6 
#
# 1 147.2472 32.8509 57.0972 0.0000 -9.2208 0.0000
# 2 32.8509 35.9245 29.5688 0.0000 5.0924 0.0000
# 3 57.0972 29.5688 93.6780 0.0000 15.4299 0.0000
# 4 0.0000 0.0000 0.0000 14.7767 0.0000 3.9605
# 5 -9.2208 5.0924 15.4299 0.0000 38.5234 0.0000
# 6 0.0000 0.0000 0.0000 3.9605 0.0000 26.0339
#
#
#
# Elastic Compliance Matrix: (Units=1/GPa)
#
#
# Indices 1 2 3 4 5 6 
#
# 1 0.010592 -0.005953 -0.005486 0.000000 0.005520 0.000000
# 2 -0.005953 0.040954 -0.008749 0.000000 -0.003334 0.000000
# 3 -0.005486 -0.008749 0.017993 0.000000 -0.007364 0.000000
# 4 0.000000 0.000000 0.000000 0.070551 0.000000 -0.010733
# 5 0.005520 -0.003334 -0.007364 0.000000 0.030670 0.000000
# 6 0.000000 0.000000 0.000000 -0.010733 0.000000 0.040044
#
#
# Mechanical properties :
#
#
# Convention : Reuss Voigt Hill
#
# Bulk Modulus (GPa) = 34.29058 57.32038 45.80548
# Shear Modulus (GPa) = 19.16430 26.35566 22.75998
#
# Velocity S-wave (km/s) = 3.11939 3.65814 3.39945
# Velocity P-wave (km/s) = 5.51226 6.85178 6.21820
#
# Compressibility (1/GPa) = 0.02916253
#
# Stress axis : x y z
#
# Youngs Moduli (GPa) = 94.40683 24.41778 55.57620
#
# Poissons Ratio (x) = 0.14536 0.30491
# Poissons Ratio (y) = 0.56200 0.48625
# Poissons Ratio (z) = 0.51795 0.21364
#
# Static dielectric constant tensor:
#      x y z
#    x 3.692170 0.000000 -0.103530 
#    y 0.000000 3.385140 0.000000 
#    z -0.103530 0.000000 3.550300 
# 
# 
# High freq. dielectric constant tensor:
#      x y z
#    x 1.774220 0.000000 -0.005070 
#    y 0.000000 1.749840 0.000000 
#    z -0.005070 0.000000 1.753990 
# 
# From -- ./inp_files/110944.got.cif
#   From: 2010.06.25/outbox.cif.g09.slc.cpg/sg15_56_cif.got.tgz:110944.got - 2010.06.28 07:06:18.
