data_PCOD8135531
_publ_section_title
;
Structure prediction by ZEFSAII (Michael W. Deem and Ramdas Pophale) SiO2 
 PCOD8135531
Probable space group: C 2/C
;
_chemical_formula_sum "Si O2"
_cell_formula_units_Z 48
_cell_length_a 14.407195
_cell_length_b 13.801906
_cell_length_c 14.549586
_cell_angle_alpha 90.000000
_cell_angle_beta 48.092185
_cell_angle_gamma 90.000000
_cell_volume 2153.132390
_symmetry_space_group_name_H-M "C 2/C"
_symmetry_group_IT_number 15
_symmetry_cell_setting 'monoclinic'
loop_
_space_group_symop_operation_xyz
x,y,z
-x,y,1/2-z
-x,-y,-z
x,-y,1/2+z
1/2+x,1/2+y,z
1/2-x,1/2+y,1/2-z
1/2-x,1/2-y,-z
1/2+x,1/2-y,1/2+z
loop_
_atom_site_type_symbol
_atom_site_label
_atom_site_fract_x
_atom_site_fract_y
_atom_site_fract_z
Si Si1 0.457453 0.140634 0.879760
Si Si2 0.466605 0.345720 0.635552
Si Si3 0.727443 0.874412 0.443109
Si Si4 0.766752 0.831687 0.627040
Si Si5 0.531222 0.061133 0.335896
Si Si6 0.318005 0.420544 0.897092
O O1 0.500000 0.163812 0.750000
O O2 0.483002 0.237876 0.918407
O O3 0.535492 0.049742 0.871646
O O4 0.311348 0.116124 0.976514
O O5 0.395265 0.368821 0.587867
O O6 0.366608 0.348994 0.785344
O O7 0.580911 0.418143 0.585524
O O8 0.772508 0.862021 0.518028
O O9 0.760940 0.784683 0.354121
O O10 0.577323 0.881487 0.539772
O O11 0.799410 0.972189 0.365070
O O12 0.659975 0.881706 0.760406
O O13 0.500000 0.050135 0.250000
#
# Coordination Sequence:
#
# PCOD8135531 Si02
#       6
#     8   8   8   8   8   8
#     4  10  19  38  66  84 117 164 207 249 306 368
#     4  11  23  36  60  97 125 158 198 266 317 364
#     4   9  20  42  63  84 121 172 203 254 306 369
#     4  10  21  39  61  91 122 157 216 250 306 372
#     4   8  17  36  62  83 111 160 206 246 296 365
#     4  10  22  42  62  88 129 161 204 255 319 366
#
# _framework density 22.293102000000001
#
# number of rings (size 3 to 8) (size 9 to 14) (size 15 to 20)
#    0.000    2.333    1.667    1.500    0.000    3.333 
#   15.000    3.333    0.000    0.000    0.000    0.000 
#    0.000    0.000    0.000    0.000    0.000    0.000 
#
# Total GULP energy -297395.727716 kJ/mol
# GULP energy per Si atom -12391.488655 kJ/mol
# Density = 2.224236 g / cm^3
# Si number density = 22.293102 Si / 1000 Ang^3
#
#
#
# Elastic Constant Matrix: (Units=GPa)
#
#
# Indices 1 2 3 4 5 6 
#
# 1 94.3389 27.2122 23.5953 0.0000 -16.7534 0.0000
# 2 27.2122 116.3606 25.2140 0.0000 -26.0744 0.0000
# 3 23.5953 25.2140 61.7508 0.0000 -25.8104 0.0000
# 4 0.0000 0.0000 0.0000 27.5549 0.0000 -10.6677
# 5 -16.7534 -26.0744 -25.8104 0.0000 27.4360 0.0000
# 6 0.0000 0.0000 0.0000 -10.6677 0.0000 21.9902
#
#
#
# Elastic Compliance Matrix: (Units=1/GPa)
#
#
# Indices 1 2 3 4 5 6 
#
# 1 0.012328 -0.001501 -0.002550 0.000000 0.003703 0.000000
# 2 -0.001501 0.011104 0.000111 0.000000 0.009741 0.000000
# 3 -0.002550 0.000111 0.027220 0.000000 0.024155 0.000000
# 4 0.000000 0.000000 0.000000 0.044683 0.000000 0.021676
# 5 0.003703 0.009741 0.024155 0.000000 0.070690 0.000000
# 6 0.000000 0.000000 0.000000 0.021676 0.000000 0.055990
#
#
# Mechanical properties :
#
#
# Convention : Reuss Voigt Hill
#
# Bulk Modulus (GPa) = 23.38021 47.16590 35.27306
# Shear Modulus (GPa) = 20.47902 28.49147 24.48524
#
# Velocity S-wave (km/s) = 3.03417 3.57885 3.31771
# Velocity P-wave (km/s) = 4.77340 6.18713 5.52567
#
# Compressibility (1/GPa) = 0.04277121
#
# Stress axis : x y z
#
# Youngs Moduli (GPa) = 81.11359 90.06094 36.73828
#
# Poissons Ratio (x) = 0.13517 0.09370
# Poissons Ratio (y) = 0.12174 -0.00408
# Poissons Ratio (z) = 0.20687 -0.01000
#
# Static dielectric constant tensor:
#      x y z
#    x 3.946450 0.000000 -0.210490 
#    y 0.000000 4.443390 0.000000 
#    z -0.210490 0.000000 3.772170 
# 
# 
# High freq. dielectric constant tensor:
#      x y z
#    x 1.872510 0.000000 -0.011060 
#    y 0.000000 1.885810 0.000000 
#    z -0.011060 0.000000 1.854010 
# 
# From -- ./inp_files/153796.got.cif
#   From: 2010.06.25/outbox.cif.g09.slc.cpg/sg15_77_cif.got.tgz:153796.got - 2010.06.28 07:06:18.
