data_PCOD8135472
_publ_section_title
;
Structure prediction by ZEFSAII (Michael W. Deem and Ramdas Pophale) SiO2 
 PCOD8135472
Probable space group: C 2/C
;
_chemical_formula_sum "Si O2"
_cell_formula_units_Z 52
_cell_length_a 12.099566
_cell_length_b 8.592274
_cell_length_c 25.817214
_cell_angle_alpha 90.000000
_cell_angle_beta 56.484475
_cell_angle_gamma 90.000000
_cell_volume 2237.772659
_symmetry_space_group_name_H-M "C 2/C"
_symmetry_group_IT_number 15
_symmetry_cell_setting 'monoclinic'
loop_
_space_group_symop_operation_xyz
x,y,z
-x,y,1/2-z
-x,-y,-z
x,-y,1/2+z
1/2+x,1/2+y,z
1/2-x,1/2+y,1/2-z
1/2-x,1/2-y,-z
1/2+x,1/2-y,1/2+z
loop_
_atom_site_type_symbol
_atom_site_label
_atom_site_fract_x
_atom_site_fract_y
_atom_site_fract_z
Si Si1 0.000000 0.684198 0.250000
Si Si2 0.365481 0.417581 0.162710
Si Si3 0.613006 0.022388 0.907564
Si Si4 0.859774 0.806593 0.379645
Si Si5 0.947600 0.749629 0.006055
Si Si6 0.200368 0.409627 0.780348
Si Si7 0.689675 0.467773 0.937152
O O1 0.904468 0.794526 0.308333
O O2 0.914579 0.578987 0.233165
O O3 0.522552 0.382524 0.117516
O O4 0.336907 0.537292 0.217648
O O5 0.283969 0.261347 0.198700
O O6 0.318455 0.495387 0.122003
O O7 0.730142 0.085513 0.914673
O O8 0.580611 0.847958 0.934337
O O9 0.655880 0.028379 0.836994
O O10 0.483732 0.134523 0.949108
O O11 0.824520 0.632012 0.411248
O O12 0.821258 0.866718 0.028851
O O13 0.070462 0.860136 0.987560
#
# Coordination Sequence:
#
# PCOD8135472 Si02
#       7
#     4   8   8   8   8   8   8
#     4  10  20  38  60  96 118 166 204 268 320 406
#     4  11  23  40  65  98 126 174 207 273 333 392
#     4  10  19  38  63  96 127 170 209 275 315 387
#     4  10  21  38  66  90 131 160 217 258 333 391
#     4   9  20  36  65  87 129 170 217 260 321 373
#     4  11  22  38  67  93 131 162 216 264 338 386
#     4  10  19  41  64  91 125 172 213 267 318 393
#
# _framework density 23.237390999999999
#
# number of rings (size 3 to 8) (size 9 to 14) (size 15 to 20)
#    0.000    1.846    3.077    1.846    2.154    0.000 
#    0.000   12.308    0.000    0.000    0.000    0.000 
#    0.000    0.000    0.000    0.000    0.000    0.000 
#
# Total GULP energy -322173.293706 kJ/mol
# GULP energy per Si atom -12391.280527 kJ/mol
# Density = 2.318450 g / cm^3
# Si number density = 23.237391 Si / 1000 Ang^3
#
#
#
# Elastic Constant Matrix: (Units=GPa)
#
#
# Indices 1 2 3 4 5 6 
#
# 1 55.3691 26.1054 16.7185 0.0000 -6.8049 0.0000
# 2 26.1054 119.6843 42.5704 0.0000 -13.3174 0.0000
# 3 16.7185 42.5704 94.8361 0.0000 -15.7134 0.0000
# 4 0.0000 0.0000 0.0000 53.5191 0.0000 -12.3087
# 5 -6.8049 -13.3174 -15.7134 0.0000 24.0425 0.0000
# 6 0.0000 0.0000 0.0000 -12.3087 0.0000 27.0889
#
#
#
# Elastic Compliance Matrix: (Units=1/GPa)
#
#
# Indices 1 2 3 4 5 6 
#
# 1 0.020581 -0.003631 -0.001532 0.000000 0.002812 0.000000
# 2 -0.003631 0.010768 -0.003785 0.000000 0.002463 0.000000
# 3 -0.001532 -0.003785 0.013563 0.000000 0.006334 0.000000
# 4 0.000000 0.000000 0.000000 0.020865 0.000000 0.009481
# 5 0.002812 0.002463 0.006334 0.000000 0.047893 0.000000
# 6 0.000000 0.000000 0.000000 0.009481 0.000000 0.041223
#
#
# Mechanical properties :
#
#
# Convention : Reuss Voigt Hill
#
# Bulk Modulus (GPa) = 37.01702 48.96425 42.99063
# Shear Modulus (GPa) = 27.50337 33.22979 30.36658
#
# Velocity S-wave (km/s) = 3.44406 3.78565 3.61889
# Velocity P-wave (km/s) = 5.63736 6.34234 6.00022
#
# Compressibility (1/GPa) = 0.02701460
#
# Stress axis : x y z
#
# Youngs Moduli (GPa) = 48.58871 92.86983 73.72840
#
# Poissons Ratio (x) = 0.33722 0.11297
# Poissons Ratio (y) = 0.17643 0.27908
# Poissons Ratio (z) = 0.07445 0.35154
#
# Static dielectric constant tensor:
#      x y z
#    x 3.660130 0.000000 -0.351360 
#    y 0.000000 4.451400 0.000000 
#    z -0.351360 0.000000 4.582470 
# 
# 
# High freq. dielectric constant tensor:
#      x y z
#    x 1.864040 0.000000 -0.013450 
#    y 0.000000 1.925280 0.000000 
#    z -0.013450 0.000000 1.946860 
# 
# From -- ./inp_files/291482.got.cif
#   From: 2010.06.25/outbox.cif.g09.slc.cpg/sg15_146_cif.got.tgz:291482.got - 2010.06.28 07:06:18.
