data_PCOD8135473
_publ_section_title
;
Structure prediction by ZEFSAII (Michael W. Deem and Ramdas Pophale) SiO2 
 PCOD8135473
Probable space group: C 2/C
;
_chemical_formula_sum "Si O2"
_cell_formula_units_Z 48
_cell_length_a 14.611710
_cell_length_b 14.068593
_cell_length_c 11.462821
_cell_angle_alpha 90.000000
_cell_angle_beta 97.154532
_cell_angle_gamma 90.000000
_cell_volume 2338.021525
_symmetry_space_group_name_H-M "C 2/C"
_symmetry_group_IT_number 15
_symmetry_cell_setting 'monoclinic'
loop_
_space_group_symop_operation_xyz
x,y,z
-x,y,1/2-z
-x,-y,-z
x,-y,1/2+z
1/2+x,1/2+y,z
1/2-x,1/2+y,1/2-z
1/2-x,1/2-y,-z
1/2+x,1/2-y,1/2+z
loop_
_atom_site_type_symbol
_atom_site_label
_atom_site_fract_x
_atom_site_fract_y
_atom_site_fract_z
Si Si1 0.289141 0.977161 0.482073
Si Si2 0.226678 0.349863 0.249122
Si Si3 0.313333 0.340611 0.486737
Si Si4 0.001826 0.227160 0.112984
Si Si5 0.797529 0.813280 0.910148
Si Si6 0.441714 0.925921 0.136891
O O1 0.281191 0.918792 0.362166
O O2 0.244502 0.918997 0.583984
O O3 0.230589 0.071523 0.449589
O O4 0.396673 0.001526 0.534786
O O5 0.314539 0.365820 0.347262
O O6 0.227195 0.238082 0.215595
O O7 0.139711 0.365489 0.318048
O O8 0.250000 0.250000 0.500000
O O9 0.417541 0.326131 0.539885
O O10 0.003165 0.341927 0.088258
O O11 0.000000 0.204909 0.250000
O O12 0.091614 0.184570 0.062620
O O13 0.750000 0.750000 0.000000
O O14 0.500000 0.978998 0.250000
#
# Coordination Sequence:
#
# PCOD8135473 Si02
#       6
#     8   8   8   8   8   8
#     4  10  23  38  59  96 134 161 206 273 326 369
#     4  10  20  39  62  87 130 169 203 260 327 374
#     4  11  21  38  64  95 122 169 219 260 312 394
#     4  11  20  39  68  90 121 170 221 256 314 386
#     4  10  21  41  58  84 132 171 200 268 328 364
#     4  10  19  38  63  97 120 165 223 260 310 388
#
# _framework density 20.530177999999999
#
# number of rings (size 3 to 8) (size 9 to 14) (size 15 to 20)
#    0.000    1.667    6.667    0.000    0.000    6.667 
#    0.000    3.333    0.000    0.000    0.000    0.000 
#    0.000    0.000    0.000    0.000    0.000    0.000 
#
# Total GULP energy -297360.760320 kJ/mol
# GULP energy per Si atom -12390.031680 kJ/mol
# Density = 2.048345 g / cm^3
# Si number density = 20.530178 Si / 1000 Ang^3
#
#
#
# Elastic Constant Matrix: (Units=GPa)
#
#
# Indices 1 2 3 4 5 6 
#
# 1 82.2865 2.4004 21.7873 0.0000 29.4856 0.0000
# 2 2.4004 81.2446 16.8625 0.0000 10.9445 0.0000
# 3 21.7873 16.8625 107.3559 0.0000 35.9709 0.0000
# 4 0.0000 0.0000 0.0000 33.5590 0.0000 3.1949
# 5 29.4856 10.9445 35.9709 0.0000 42.0926 0.0000
# 6 0.0000 0.0000 0.0000 3.1949 0.0000 37.9664
#
#
#
# Elastic Compliance Matrix: (Units=1/GPa)
#
#
# Indices 1 2 3 4 5 6 
#
# 1 0.016349 0.001038 0.000626 0.000000 -0.012257 0.000000
# 2 0.001038 0.012942 -0.001222 0.000000 -0.003048 0.000000
# 3 0.000626 -0.001222 0.013200 0.000000 -0.011401 0.000000
# 4 0.000000 0.000000 0.000000 0.030039 0.000000 -0.002528
# 5 -0.012257 -0.003048 -0.011401 0.000000 0.042878 0.000000
# 6 0.000000 0.000000 0.000000 -0.002528 0.000000 0.026552
#
#
# Mechanical properties :
#
#
# Convention : Reuss Voigt Hill
#
# Bulk Modulus (GPa) = 23.05525 39.22082 31.13803
# Shear Modulus (GPa) = 32.14735 38.04605 35.09670
#
# Velocity S-wave (km/s) = 3.96139 4.30952 4.13912
# Velocity P-wave (km/s) = 5.67254 6.62632 6.16790
#
# Compressibility (1/GPa) = 0.04337407
#
# Stress axis : x y z
#
# Youngs Moduli (GPa) = 61.16705 77.26721 75.75925
#
# Poissons Ratio (x) = -0.08022 -0.04742
# Poissons Ratio (y) = -0.06350 0.09260
# Poissons Ratio (z) = -0.03828 0.09445
#
# Static dielectric constant tensor:
#      x y z
#    x 4.016090 0.000000 0.404880 
#    y 0.000000 4.038660 0.000000 
#    z 0.404880 0.000000 4.516160 
# 
# 
# High freq. dielectric constant tensor:
#      x y z
#    x 1.796310 0.000000 0.010580 
#    y 0.000000 1.797050 0.000000 
#    z 0.010580 0.000000 1.801820 
# 
# From -- ./inp_files/96480.got.cif
#   From: 2010.06.25/outbox.cif.g09.slc.cpg/sg15_49_cif.got.tgz:96480.got - 2010.06.28 07:06:18.
