data_PCOD8135527
_publ_section_title
;
Structure prediction by ZEFSAII (Michael W. Deem and Ramdas Pophale) SiO2 
 PCOD8135527
Probable space group: C 2/C
;
_chemical_formula_sum "Si O2"
_cell_formula_units_Z 64
_cell_length_a 9.585782
_cell_length_b 27.890697
_cell_length_c 10.704383
_cell_angle_alpha 90.000000
_cell_angle_beta 97.790075
_cell_angle_gamma 90.000000
_cell_volume 2835.449967
_symmetry_space_group_name_H-M "C 2/C"
_symmetry_group_IT_number 15
_symmetry_cell_setting 'monoclinic'
loop_
_space_group_symop_operation_xyz
x,y,z
-x,y,1/2-z
-x,-y,-z
x,-y,1/2+z
1/2+x,1/2+y,z
1/2-x,1/2+y,1/2-z
1/2-x,1/2-y,-z
1/2+x,1/2-y,1/2+z
loop_
_atom_site_type_symbol
_atom_site_label
_atom_site_fract_x
_atom_site_fract_y
_atom_site_fract_z
Si Si1 0.563589 0.229009 0.629785
Si Si2 0.767909 0.325185 0.827997
Si Si3 0.652308 0.725005 0.716069
Si Si4 0.631739 0.031349 0.980539
Si Si5 0.168028 0.464663 0.764142
Si Si6 0.512629 0.868675 0.486490
Si Si7 0.035020 0.175426 0.490260
Si Si8 0.729815 0.375664 0.584379
O O1 0.500000 0.249946 0.750000
O O2 0.730187 0.215772 0.662438
O O3 0.477138 0.179895 0.592989
O O4 0.537696 0.271539 0.527723
O O5 0.798354 0.269880 0.862604
O O6 0.628129 0.341097 0.884536
O O7 0.744795 0.329122 0.676344
O O8 0.899422 0.359456 0.876372
O O9 0.500000 0.738142 0.750000
O O10 0.637110 0.678571 0.623957
O O11 0.717931 0.028997 0.124205
O O12 0.583387 0.084748 0.931784
O O13 0.500000 0.000000 0.000000
O O14 0.703566 0.009152 0.863756
O O15 0.265464 0.422056 0.827453
O O16 0.000000 0.452676 0.750000
O O17 0.350417 0.879374 0.495941
O O18 0.920403 0.133316 0.500721
#
# Coordination Sequence:
#
# PCOD8135527 Si02
#       8
#     8   8   8   8   8   8   8   8
#     4  12  24  40  57  88 130 173 215 260 319 381
#     4  12  22  38  63  90 125 167 216 263 309 378
#     4  12  24  40  59  86 130 172 217 269 315 373
#     4  10  20  38  63  98 135 157 204 276 347 379
#     4  10  19  38  65  98 132 164 205 280 337 392
#     4  12  23  37  64  97 122 163 218 264 320 387
#     4  12  25  41  59  88 129 176 212 265 319 377
#     4  12  21  38  63  94 121 163 222 258 311 391
#
# _framework density 22.571373000000001
#
# number of rings (size 3 to 8) (size 9 to 14) (size 15 to 20)
#    0.000    0.500    7.500    3.375    0.000    2.500 
#    0.000    0.000    0.000    0.750    0.000    0.000 
#    0.000    0.000    0.000    0.000    0.000    0.000 
#
# Total GULP energy -396525.558550 kJ/mol
# GULP energy per Si atom -12391.423705 kJ/mol
# Density = 2.252000 g / cm^3
# Si number density = 22.571373 Si / 1000 Ang^3
#
#
#
# Elastic Constant Matrix: (Units=GPa)
#
#
# Indices 1 2 3 4 5 6 
#
# 1 74.0342 14.0410 16.6608 0.0000 2.3402 0.0000
# 2 14.0410 100.9643 22.4989 0.0000 8.4756 0.0000
# 3 16.6608 22.4989 67.7401 0.0000 -0.3161 0.0000
# 4 0.0000 0.0000 0.0000 33.0601 0.0000 5.8593
# 5 2.3402 8.4756 -0.3161 0.0000 27.0505 0.0000
# 6 0.0000 0.0000 0.0000 5.8593 0.0000 20.2886
#
#
#
# Elastic Compliance Matrix: (Units=1/GPa)
#
#
# Indices 1 2 3 4 5 6 
#
# 1 0.014480 -0.001235 -0.003156 0.000000 -0.000903 0.000000
# 2 -0.001235 0.011122 -0.003406 0.000000 -0.003418 0.000000
# 3 -0.003156 -0.003406 0.016677 0.000000 0.001535 0.000000
# 4 0.000000 0.000000 0.000000 0.031880 0.000000 -0.009207
# 5 -0.000903 -0.003418 0.001535 0.000000 0.038135 0.000000
# 6 0.000000 0.000000 0.000000 -0.009207 0.000000 0.051948
#
#
# Mechanical properties :
#
#
# Convention : Reuss Voigt Hill
#
# Bulk Modulus (GPa) = 37.47282 38.79332 38.13307
# Shear Modulus (GPa) = 26.49290 28.71572 27.60431
#
# Velocity S-wave (km/s) = 3.42970 3.57069 3.50091
# Velocity P-wave (km/s) = 5.68523 5.85013 5.76827
#
# Compressibility (1/GPa) = 0.02668601
#
# Stress axis : x y z
#
# Youngs Moduli (GPa) = 69.06028 89.91027 59.96307
#
# Poissons Ratio (x) = 0.11102 0.18921
# Poissons Ratio (y) = 0.08527 0.20425
# Poissons Ratio (z) = 0.21792 0.30626
#
# Static dielectric constant tensor:
#      x y z
#    x 4.020980 0.000000 0.294720 
#    y 0.000000 4.195980 0.000000 
#    z 0.294720 0.000000 4.431600 
# 
# 
# High freq. dielectric constant tensor:
#      x y z
#    x 1.864990 0.000000 0.012870 
#    y 0.000000 1.872060 0.000000 
#    z 0.012870 0.000000 1.886860 
# 
# From -- ./inp_files/82575.got.cif
#   From: 2010.06.25/outbox.cif.g09.slc.cpg/sg15_42_cif.got.tgz:82575.got - 2010.06.28 07:06:18.
