data_PCOD8135067
_publ_section_title
;
Structure prediction by ZEFSAII (Michael W. Deem and Ramdas Pophale) SiO2 
 PCOD8135067
Probable space group: C 2/C
;
_chemical_formula_sum "Si O2"
_cell_formula_units_Z 64
_cell_length_a 28.966755
_cell_length_b 19.780094
_cell_length_c 9.417036
_cell_angle_alpha 90.000000
_cell_angle_beta 142.312251
_cell_angle_gamma 90.000000
_cell_volume 3298.662767
_symmetry_space_group_name_H-M "C 2/C"
_symmetry_group_IT_number 15
_symmetry_cell_setting 'monoclinic'
loop_
_space_group_symop_operation_xyz
x,y,z
-x,y,1/2-z
-x,-y,-z
x,-y,1/2+z
1/2+x,1/2+y,z
1/2-x,1/2+y,1/2-z
1/2-x,1/2-y,-z
1/2+x,1/2-y,1/2+z
loop_
_atom_site_type_symbol
_atom_site_label
_atom_site_fract_x
_atom_site_fract_y
_atom_site_fract_z
Si Si1 0.457220 0.103421 0.792304
Si Si2 0.442611 0.252684 0.731355
Si Si3 0.215812 0.571644 0.755642
Si Si4 0.293901 0.939755 0.933454
Si Si5 0.793545 0.825778 0.948293
Si Si6 0.788195 0.187054 0.761040
Si Si7 0.560720 0.868308 0.780628
Si Si8 0.453810 0.282778 0.280474
O O1 0.500000 0.091666 0.750000
O O2 0.422481 0.178229 0.742404
O O3 0.384201 0.055966 0.628275
O O4 0.522545 0.086242 0.065276
O O5 0.500000 0.233612 0.750000
O O6 0.373313 0.291387 0.495511
O O7 0.483671 0.299375 0.947647
O O8 0.239978 0.505425 0.726626
O O9 0.226340 0.559751 0.949065
O O10 0.269663 0.631452 0.833933
O O11 0.130433 0.591782 0.513578
O O12 0.256634 0.875083 0.768746
O O13 0.767161 0.749865 0.851969
O O14 0.781060 0.842897 0.084404
O O15 0.881841 0.832719 0.118693
O O16 0.500000 0.854061 0.750000
O O17 0.580813 0.792586 0.775897
O O18 0.500000 0.294715 0.250000
#
# Coordination Sequence:
#
# PCOD8135067 Si02
#       8
#     8   8   8   8   8   8   8   8
#     4  10  22  35  62  91 128 168 207 250 300 378
#     4  10  19  37  60  95 127 161 204 254 315 368
#     4  12  27  43  63  87 128 174 214 262 314 370
#     4  12  27  44  60  90 127 173 216 260 314 374
#     4  11  23  40  64  97 127 165 210 259 313 373
#     4  11  23  39  67  94 127 166 210 261 312 370
#     4  10  20  39  58  90 129 167 210 249 304 368
#     4  10  21  35  62  94 130 160 199 261 312 369
#
# _framework density 19.401800999999999
#
# number of rings (size 3 to 8) (size 9 to 14) (size 15 to 20)
#    0.000    1.250    5.000    0.750    5.250    1.500 
#    0.000    0.000    0.000    1.500    0.000    0.000 
#    0.000    0.000    0.000    0.000    0.000    0.000 
#
# Total GULP energy -396733.075125 kJ/mol
# GULP energy per Si atom -12397.908598 kJ/mol
# Density = 1.935764 g / cm^3
# Si number density = 19.401801 Si / 1000 Ang^3
#
#
#
# Elastic Constant Matrix: (Units=GPa)
#
#
# Indices 1 2 3 4 5 6 
#
# 1 90.1143 33.8986 30.8420 0.0000 -13.2552 0.0000
# 2 33.8986 54.1518 18.5647 0.0000 -8.5185 0.0000
# 3 30.8420 18.5647 105.1670 0.0000 -18.5876 0.0000
# 4 0.0000 0.0000 0.0000 22.4150 0.0000 -4.5495
# 5 -13.2552 -8.5185 -18.5876 0.0000 39.0161 0.0000
# 6 0.0000 0.0000 0.0000 -4.5495 0.0000 31.0333
#
#
#
# Elastic Compliance Matrix: (Units=1/GPa)
#
#
# Indices 1 2 3 4 5 6 
#
# 1 0.015509 -0.008453 -0.002676 0.000000 0.002148 0.000000
# 2 -0.008453 0.024564 -0.001547 0.000000 0.001754 0.000000
# 3 -0.002676 -0.001547 0.011298 0.000000 0.004135 0.000000
# 4 0.000000 0.000000 0.000000 0.045981 0.000000 0.006741
# 5 0.002148 0.001754 0.004135 0.000000 0.028713 0.000000
# 6 0.000000 0.000000 0.000000 0.006741 0.000000 0.033212
#
#
# Mechanical properties :
#
#
# Convention : Reuss Voigt Hill
#
# Bulk Modulus (GPa) = 38.43516 46.22707 42.33112
# Shear Modulus (GPa) = 25.86620 29.56808 27.71714
#
# Velocity S-wave (km/s) = 3.65524 3.90806 3.78376
# Velocity P-wave (km/s) = 6.13739 6.65145 6.39958
#
# Compressibility (1/GPa) = 0.02601784
#
# Stress axis : x y z
#
# Youngs Moduli (GPa) = 64.47961 40.70922 88.51467
#
# Poissons Ratio (x) = 0.34411 0.23690
# Poissons Ratio (y) = 0.54504 0.13695
# Poissons Ratio (z) = 0.17257 0.06299
#
# Static dielectric constant tensor:
#      x y z
#    x 3.516660 0.000000 -0.100540 
#    y 0.000000 3.307720 0.000000 
#    z -0.100540 0.000000 3.552340 
# 
# 
# High freq. dielectric constant tensor:
#      x y z
#    x 1.758560 0.000000 -0.009490 
#    y 0.000000 1.725480 0.000000 
#    z -0.009490 0.000000 1.766590 
# 
# From -- ./inp_files/70604.got.cif
#   From: 2010.06.25/outbox.cif.g09.slc.cpg/sg15_36_cif.got.tgz:70604.got - 2010.06.28 07:06:18.
