data_PCOD8135204
_publ_section_title
;
Structure prediction by ZEFSAII (Michael W. Deem and Ramdas Pophale) SiO2 
 PCOD8135204
Probable space group: C 2/C
;
_chemical_formula_sum "Si O2"
_cell_formula_units_Z 44
_cell_length_a 19.845400
_cell_length_b 15.141902
_cell_length_c 17.977588
_cell_angle_alpha 90.000000
_cell_angle_beta 161.253971
_cell_angle_gamma 90.000000
_cell_volume 1736.129943
_symmetry_space_group_name_H-M "C 2/C"
_symmetry_group_IT_number 15
_symmetry_cell_setting 'monoclinic'
loop_
_space_group_symop_operation_xyz
x,y,z
-x,y,1/2-z
-x,-y,-z
x,-y,1/2+z
1/2+x,1/2+y,z
1/2-x,1/2+y,1/2-z
1/2-x,1/2-y,-z
1/2+x,1/2-y,1/2+z
loop_
_atom_site_type_symbol
_atom_site_label
_atom_site_fract_x
_atom_site_fract_y
_atom_site_fract_z
Si Si1 0.625654 0.331421 0.045088
Si Si2 0.982421 0.667836 0.368680
Si Si3 0.500000 0.054193 0.250000
Si Si4 0.098595 0.638540 0.053231
Si Si5 0.153035 0.969484 0.794469
Si Si6 0.543928 0.641121 0.621562
O O1 0.651687 0.226727 0.059830
O O2 0.494609 0.383177 0.843811
O O3 0.849811 0.376201 0.289770
O O4 0.477108 0.345253 0.964876
O O5 0.901750 0.617611 0.211222
O O6 0.009069 0.773486 0.382792
O O7 0.830675 0.650793 0.283735
O O8 0.205540 0.628668 0.621015
O O9 0.696114 0.992878 0.478794
O O10 0.196662 0.551990 0.118993
O O11 0.986367 0.047851 0.599971
#
# Coordination Sequence:
#
# PCOD8135204 Si02
#       6
#     8   8   4   8   8   8
#     4  10  19  37  64  96 122 159 208 264 316 351
#     4   9  20  38  61  89 129 163 200 253 324 371
#     4  10  24  42  60  90 132 172 200 252 316 376
#     4  10  20  38  68  94 121 163 209 263 313 359
#     4  11  22  40  63  92 128 162 215 260 297 374
#     4   9  20  36  60  93 118 160 205 259 307 363
#
# _framework density 25.343727000000001
#
# number of rings (size 3 to 8) (size 9 to 14) (size 15 to 20)
#    0.000    2.182    1.818    0.545    2.545    9.455 
#    6.545    1.818    4.000    0.000    0.000    0.000 
#    0.000    0.000    0.000    0.000    0.000    0.000 
#
# Total GULP energy -272678.291937 kJ/mol
# GULP energy per Si atom -12394.467815 kJ/mol
# Density = 2.528604 g / cm^3
# Si number density = 25.343727 Si / 1000 Ang^3
#
#
#
# Elastic Constant Matrix: (Units=GPa)
#
#
# Indices 1 2 3 4 5 6 
#
# 1 73.3198 45.0022 27.7433 -0.0286 -6.8610 -0.0070
# 2 45.0022 165.5187 62.3799 -0.0264 -28.7163 0.0037
# 3 27.7433 62.3799 91.3457 -0.1417 -37.5294 -0.1085
# 4 -0.0286 -0.0264 -0.1417 48.7796 -0.0283 -5.0968
# 5 -6.8610 -28.7163 -37.5294 -0.0283 32.2949 -0.0085
# 6 -0.0070 0.0037 -0.1085 -5.0968 -0.0085 38.8581
#
#
#
# Elastic Compliance Matrix: (Units=1/GPa)
#
#
# Indices 1 2 3 4 5 6 
#
# 1 0.017311 -0.003804 -0.004858 -0.000010 -0.005350 -0.000013
# 2 -0.003804 0.009009 -0.003900 -0.000008 0.002671 -0.000013
# 3 -0.004858 -0.003900 0.025332 0.000092 0.024939 0.000088
# 4 -0.000010 -0.000008 0.000092 0.020786 0.000116 0.002727
# 5 -0.005350 0.002671 0.024939 0.000116 0.061184 0.000097
# 6 -0.000013 -0.000013 0.000088 0.002727 0.000097 0.026093
#
#
# Mechanical properties :
#
#
# Convention : Reuss Voigt Hill
#
# Bulk Modulus (GPa) = 37.69466 66.71498 52.20482
# Shear Modulus (GPa) = 25.81563 36.99044 31.40303
#
# Velocity S-wave (km/s) = 3.19505 3.82455 3.52388
# Velocity P-wave (km/s) = 5.34011 6.77378 6.09922
#
# Compressibility (1/GPa) = 0.02652896
#
# Stress axis : x y z
#
# Youngs Moduli (GPa) = 57.76567 111.00172 39.47529
#
# Poissons Ratio (x) = 0.42225 0.19178
# Poissons Ratio (y) = 0.21974 0.15393
# Poissons Ratio (z) = 0.28064 0.43285
#
# Static dielectric constant tensor:
#      x y z
#    x 4.261770 -0.000090 0.157400 
#    y -0.000090 4.544660 -0.000110 
#    z 0.157400 -0.000110 4.855410 
# 
# 
# High freq. dielectric constant tensor:
#      x y z
#    x 1.954380 -0.000010 0.032000 
#    y -0.000010 2.020640 -0.000010 
#    z 0.032000 -0.000010 2.043270 
# 
# From -- ./inp_files/255670.got.cif
#   From: 2010.06.25/outbox.cif.g09.slc.cpg/sg15_128_cif.got.tgz:255670.got - 2010.06.28 07:06:18.
