data_PCOD8135689
_publ_section_title
;
Structure prediction by ZEFSAII (Michael W. Deem and Ramdas Pophale) SiO2 
 PCOD8135689
Probable space group: C 2/C
;
_chemical_formula_sum "Si O2"
_cell_formula_units_Z 52
_cell_length_a 11.591878
_cell_length_b 14.274609
_cell_length_c 20.789444
_cell_angle_alpha 90.000000
_cell_angle_beta 133.743191
_cell_angle_gamma 90.000000
_cell_volume 2485.228756
_symmetry_space_group_name_H-M "C 2/C"
_symmetry_group_IT_number 15
_symmetry_cell_setting 'monoclinic'
loop_
_space_group_symop_operation_xyz
x,y,z
-x,y,1/2-z
-x,-y,-z
x,-y,1/2+z
1/2+x,1/2+y,z
1/2-x,1/2+y,1/2-z
1/2-x,1/2-y,-z
1/2+x,1/2-y,1/2+z
loop_
_atom_site_type_symbol
_atom_site_label
_atom_site_fract_x
_atom_site_fract_y
_atom_site_fract_z
Si Si1 0.541653 0.811348 0.136617
Si Si2 0.955119 0.510084 0.055638
Si Si3 0.500000 0.722033 0.250000
Si Si4 0.382955 0.562031 0.534798
Si Si5 0.431898 0.376783 0.914620
Si Si6 0.605928 0.619592 0.731891
Si Si7 0.767905 0.917366 0.722641
O O1 0.453994 0.906377 0.084452
O O2 0.463732 0.786906 0.175154
O O3 0.499389 0.727940 0.070135
O O4 0.734683 0.819045 0.216209
O O5 0.078314 0.578346 0.139659
O O6 0.785568 0.560394 0.994506
O O7 0.000000 0.500000 0.000000
O O8 0.655217 0.659555 0.294512
O O9 0.430838 0.454190 0.541350
O O10 0.361719 0.616211 0.459205
O O11 0.507544 0.618866 0.627131
O O12 0.296095 0.395854 0.808697
O O13 0.500000 0.660480 0.750000
O O14 0.655847 0.515028 0.770134
#
# Coordination Sequence:
#
# PCOD8135689 Si02
#       7
#     8   8   4   8   8   8   8
#     4  10  23  40  64  94 124 157 216 258 306 373
#     4  11  24  39  61  96 125 168 211 262 309 381
#     4  10  20  40  66  92 114 162 210 262 308 368
#     4  10  21  40  65  89 129 164 205 255 320 377
#     4   9  21  41  61  92 124 168 202 259 319 365
#     4  10  19  39  64  84 118 171 202 244 306 383
#     4   9  19  38  65  84 124 166 207 241 320 389
#
# _framework density 20.923627
#
# number of rings (size 3 to 8) (size 9 to 14) (size 15 to 20)
#    0.000    2.154    0.769    1.846    4.308    6.154 
#   11.077    1.538    0.000    0.000    0.000    0.000 
#    0.000    0.000    0.000    0.000    0.000    0.000 
#
# Total GULP energy -322412.256833 kJ/mol
# GULP energy per Si atom -12400.471417 kJ/mol
# Density = 2.087600 g / cm^3
# Si number density = 20.923627 Si / 1000 Ang^3
#
#
#
# Elastic Constant Matrix: (Units=GPa)
#
#
# Indices 1 2 3 4 5 6 
#
# 1 106.3814 14.8957 44.3947 0.0000 -27.0398 0.0000
# 2 14.8957 78.2105 20.2243 0.0000 -16.3411 0.0000
# 3 44.3947 20.2243 91.9768 0.0000 -13.7644 0.0000
# 4 0.0000 0.0000 0.0000 29.3835 0.0000 -5.4595
# 5 -27.0398 -16.3411 -13.7644 0.0000 37.4774 0.0000
# 6 0.0000 0.0000 0.0000 -5.4595 0.0000 27.4107
#
#
#
# Elastic Compliance Matrix: (Units=1/GPa)
#
#
# Indices 1 2 3 4 5 6 
#
# 1 0.013677 0.000504 -0.005505 0.000000 0.008066 0.000000
# 2 0.000504 0.014562 -0.002583 0.000000 0.005765 0.000000
# 3 -0.005505 -0.002583 0.014110 0.000000 0.000084 0.000000
# 4 0.000000 0.000000 0.000000 0.035341 0.000000 0.007039
# 5 0.008066 0.005765 0.000084 0.000000 0.035047 0.000000
# 6 0.000000 0.000000 0.000000 0.007039 0.000000 0.037884
#
#
# Mechanical properties :
#
#
# Convention : Reuss Voigt Hill
#
# Bulk Modulus (GPa) = 36.78964 48.39977 42.59470
# Shear Modulus (GPa) = 28.59604 31.99126 30.29365
#
# Velocity S-wave (km/s) = 3.70088 3.91443 3.80915
# Velocity P-wave (km/s) = 5.99025 6.60395 6.30457
#
# Compressibility (1/GPa) = 0.02718157
#
# Stress axis : x y z
#
# Youngs Moduli (GPa) = 73.11422 68.67045 70.87139
#
# Poissons Ratio (x) = -0.03461 0.39017
# Poissons Ratio (y) = -0.03685 0.18303
# Poissons Ratio (z) = 0.40252 0.17735
#
# Static dielectric constant tensor:
#      x y z
#    x 3.629040 0.000000 -0.090050 
#    y 0.000000 3.877200 0.000000 
#    z -0.090050 0.000000 3.923690 
# 
# 
# High freq. dielectric constant tensor:
#      x y z
#    x 1.815640 0.000000 -0.010170 
#    y 0.000000 1.813880 0.000000 
#    z -0.010170 0.000000 1.819010 
# 
# From -- ./inp_files/197695.got.cif
#   From: 2010.06.25/outbox.cif.g09.slc.cpg/sg15_99_cif.got.tgz:197695.got - 2010.06.28 07:06:18.
