data_PCOD8135242
_publ_section_title
;
Structure prediction by ZEFSAII (Michael W. Deem and Ramdas Pophale) SiO2 
 PCOD8135242
Probable space group: C 2/C
;
_chemical_formula_sum "Si O2"
_cell_formula_units_Z 40
_cell_length_a 8.810238
_cell_length_b 15.344288
_cell_length_c 10.408969
_cell_angle_alpha 90.000000
_cell_angle_beta 98.918888
_cell_angle_gamma 90.000000
_cell_volume 1390.141331
_symmetry_space_group_name_H-M "C 2/C"
_symmetry_group_IT_number 15
_symmetry_cell_setting 'monoclinic'
loop_
_space_group_symop_operation_xyz
x,y,z
-x,y,1/2-z
-x,-y,-z
x,-y,1/2+z
1/2+x,1/2+y,z
1/2-x,1/2+y,1/2-z
1/2-x,1/2-y,-z
1/2+x,1/2-y,1/2+z
loop_
_atom_site_type_symbol
_atom_site_label
_atom_site_fract_x
_atom_site_fract_y
_atom_site_fract_z
Si Si1 0.509495 0.756706 0.505899
Si Si2 0.292548 0.729092 0.684276
Si Si3 0.419839 0.942260 0.098143
Si Si4 0.841724 0.857182 0.650683
Si Si5 0.319741 0.535595 0.746495
O O1 0.462905 0.749784 0.649575
O O2 0.346683 0.734193 0.417474
O O3 0.587724 0.845949 0.465572
O O4 0.617534 0.673164 0.488242
O O5 0.279977 0.782638 0.817332
O O6 0.252127 0.626574 0.687297
O O7 0.500000 0.944764 0.250000
O O8 0.246079 0.975966 0.114918
O O9 0.500000 0.000000 0.000000
O O10 0.000000 0.856784 0.750000
O O11 0.762575 0.952765 0.651149
O O12 0.500000 0.539975 0.750000
#
# Coordination Sequence:
#
# PCOD8135242 Si02
#       5
#     8   8   8   8   8
#     4  10  19  38  68  93 131 189 246 290 347 438
#     4  10  19  37  66  95 131 187 244 293 346 436
#     4  12  24  47  75 107 144 198 251 300 360 448
#     4   9  18  36  59  90 134 183 239 286 353 435
#     4  11  23  42  68 108 151 183 242 312 377 423
#
# _framework density 28.774052999999999
#
# number of rings (size 3 to 8) (size 9 to 14) (size 15 to 20)
#    0.000    1.600    4.000    1.800    0.000    2.400 
#    3.600    5.000    0.000    0.000    0.000    0.000 
#    0.000    0.000    0.000    0.000    0.000    0.000 
#
# Total GULP energy -247761.458798 kJ/mol
# GULP energy per Si atom -12388.072940 kJ/mol
# Density = 2.870856 g / cm^3
# Si number density = 28.774053 Si / 1000 Ang^3
#
#
#
# Elastic Constant Matrix: (Units=GPa)
#
#
# Indices 1 2 3 4 5 6 
#
# 1 124.6062 54.8185 72.0048 0.0000 -55.9830 0.0000
# 2 54.8185 221.9666 93.6413 0.0000 -29.0360 0.0000
# 3 72.0048 93.6413 201.5183 0.0000 -58.2501 0.0000
# 4 0.0000 0.0000 0.0000 56.4221 0.0000 -14.2627
# 5 -55.9830 -29.0360 -58.2501 0.0000 61.4194 0.0000
# 6 0.0000 0.0000 0.0000 -14.2627 0.0000 43.5143
#
#
#
# Elastic Compliance Matrix: (Units=1/GPa)
#
#
# Indices 1 2 3 4 5 6 
#
# 1 0.014507 -0.001611 -0.001147 0.000000 0.011373 0.000000
# 2 -0.001611 0.005785 -0.002406 0.000000 -0.001015 0.000000
# 3 -0.001147 -0.002406 0.008072 0.000000 0.005472 0.000000
# 4 0.000000 0.000000 0.000000 0.019325 0.000000 0.006334
# 5 0.011373 -0.001015 0.005472 0.000000 0.031358 0.000000
# 6 0.000000 0.000000 0.000000 0.006334 0.000000 0.025057
#
#
# Mechanical properties :
#
#
# Convention : Reuss Voigt Hill
#
# Bulk Modulus (GPa) = 55.44761 109.89116 82.66938
# Shear Modulus (GPa) = 41.51298 54.11292 47.81295
#
# Velocity S-wave (km/s) = 3.80244 4.34131 4.08078
# Velocity P-wave (km/s) = 6.21208 7.96262 7.14119
#
# Compressibility (1/GPa) = 0.01803504
#
# Stress axis : x y z
#
# Youngs Moduli (GPa) = 68.93417 172.85156 123.88129
#
# Poissons Ratio (x) = 0.27844 0.14215
# Poissons Ratio (y) = 0.11104 0.29809
# Poissons Ratio (z) = 0.07910 0.41592
#
# Static dielectric constant tensor:
#      x y z
#    x 6.065890 0.000000 -0.566680 
#    y 0.000000 5.889980 0.000000 
#    z -0.566680 0.000000 6.123100 
# 
# 
# High freq. dielectric constant tensor:
#      x y z
#    x 2.228870 0.000000 -0.010430 
#    y 0.000000 2.157340 0.000000 
#    z -0.010430 0.000000 2.186140 
# 
# From -- ./inp_files/85953.got.cif
#   From: 2010.06.25/outbox.cif.g09.slc.cpg/sg15_43_cif.got.tgz:85953.got - 2010.06.28 07:06:18.
