data_PCOD8135388
_publ_section_title
;
Structure prediction by ZEFSAII (Michael W. Deem and Ramdas Pophale) SiO2 
 PCOD8135388
Probable space group: C 2/C
;
_chemical_formula_sum "Si O2"
_cell_formula_units_Z 56
_cell_length_a 8.273732
_cell_length_b 12.045751
_cell_length_c 24.339268
_cell_angle_alpha 90.000000
_cell_angle_beta 91.098555
_cell_angle_gamma 90.000000
_cell_volume 2425.286287
_symmetry_space_group_name_H-M "C 2/C"
_symmetry_group_IT_number 15
_symmetry_cell_setting 'monoclinic'
loop_
_space_group_symop_operation_xyz
x,y,z
-x,y,1/2-z
-x,-y,-z
x,-y,1/2+z
1/2+x,1/2+y,z
1/2-x,1/2+y,1/2-z
1/2-x,1/2-y,-z
1/2+x,1/2-y,1/2+z
loop_
_atom_site_type_symbol
_atom_site_label
_atom_site_fract_x
_atom_site_fract_y
_atom_site_fract_z
Si Si1 0.911929 0.246299 0.655605
Si Si2 0.265742 0.958076 0.291992
Si Si3 0.163276 0.555635 0.022680
Si Si4 0.731826 0.156086 0.135385
Si Si5 0.261127 0.335589 0.049019
Si Si6 0.136718 0.503357 0.323312
Si Si7 0.900146 0.344894 0.083398
O O1 0.828259 0.154930 0.693863
O O2 0.892933 0.208401 0.592354
O O3 0.834305 0.366026 0.667418
O O4 0.104865 0.263593 0.666952
O O5 0.189241 0.063194 0.324326
O O6 0.454479 0.963703 0.308737
O O7 0.246104 0.970119 0.226308
O O8 0.133497 0.603676 0.083254
O O9 0.302907 0.459549 0.026359
O O10 0.196717 0.648337 0.975816
O O11 0.000000 0.500000 0.000000
O O12 0.878311 0.225170 0.111058
O O13 0.092515 0.354210 0.079856
O O14 0.250000 0.250000 0.000000
O O15 0.182359 0.439086 0.379100
#
# Coordination Sequence:
#
# PCOD8135388 Si02
#       7
#     8   8   8   8   8   8   8
#     4  11  20  41  65  88 119 169 213 252 308 380
#     4  10  21  42  64  90 121 169 217 252 315 387
#     4  10  19  38  61  86 122 166 207 245 304 389
#     4  11  23  40  62  94 131 160 202 268 319 372
#     4  11  20  37  64  92 119 165 218 246 302 386
#     4  10  22  40  66  89 123 168 213 259 315 379
#     4  11  22  40  60  93 134 159 202 268 324 363
#
# _framework density 23.090057999999999
#
# number of rings (size 3 to 8) (size 9 to 14) (size 15 to 20)
#    0.000    1.429    2.857    5.571    2.000    0.000 
#    5.143    1.429    0.000    0.000    0.000    0.000 
#    0.000    0.000    0.000    0.000    0.000    0.000 
#
# Total GULP energy -346938.816929 kJ/mol
# GULP energy per Si atom -12390.672033 kJ/mol
# Density = 2.303750 g / cm^3
# Si number density = 23.090058 Si / 1000 Ang^3
#
#
#
# Elastic Constant Matrix: (Units=GPa)
#
#
# Indices 1 2 3 4 5 6 
#
# 1 20.5310 28.8887 7.3219 0.0000 -2.5699 0.0000
# 2 28.8887 131.2893 36.1957 0.0000 -20.7604 0.0000
# 3 7.3219 36.1957 117.2360 0.0000 -18.8159 0.0000
# 4 0.0000 0.0000 0.0000 53.1902 0.0000 -11.6486
# 5 -2.5699 -20.7604 -18.8159 0.0000 20.8004 0.0000
# 6 0.0000 0.0000 0.0000 -11.6486 0.0000 37.0968
#
#
#
# Elastic Compliance Matrix: (Units=1/GPa)
#
#
# Indices 1 2 3 4 5 6 
#
# 1 0.071741 -0.016981 -0.000626 0.000000 -0.008651 0.000000
# 2 -0.016981 0.013318 -0.001468 0.000000 0.009867 0.000000
# 3 -0.000626 -0.001468 0.010265 0.000000 0.007743 0.000000
# 4 0.000000 0.000000 0.000000 0.020189 0.000000 0.006339
# 5 -0.008651 0.009867 0.007743 0.000000 0.063859 0.000000
# 6 0.000000 0.000000 0.000000 0.006339 0.000000 0.028947
#
#
# Mechanical properties :
#
#
# Convention : Reuss Voigt Hill
#
# Bulk Modulus (GPa) = 17.49056 45.98545 31.73800
# Shear Modulus (GPa) = 18.83045 35.32746 27.07895
#
# Velocity S-wave (km/s) = 2.85883 3.91575 3.42826
# Velocity P-wave (km/s) = 4.29984 6.35634 5.42640
#
# Compressibility (1/GPa) = 0.05717371
#
# Stress axis : x y z
#
# Youngs Moduli (GPa) = 13.93903 75.08567 97.42018
#
# Poissons Ratio (x) = 1.27504 0.06101
# Poissons Ratio (y) = 0.23670 0.14299
# Poissons Ratio (z) = 0.00873 0.11021
#
# Static dielectric constant tensor:
#      x y z
#    x 3.652030 0.000000 -0.040710 
#    y 0.000000 4.661940 0.000000 
#    z -0.040710 0.000000 4.824950 
# 
# 
# High freq. dielectric constant tensor:
#      x y z
#    x 1.857430 0.000000 -0.007380 
#    y 0.000000 1.929290 0.000000 
#    z -0.007380 0.000000 1.930940 
# 
# From -- ./inp_files/268429.got.cif
#   From: 2010.06.25/outbox.cif.g09.slc.cpg/sg15_135_cif.got.tgz:268429.got - 2010.06.28 07:06:18.
