data_PCOD8135361
_publ_section_title
;
Structure prediction by ZEFSAII (Michael W. Deem and Ramdas Pophale) SiO2 
 PCOD8135361
Probable space group: C 2/C
;
_chemical_formula_sum "Si O2"
_cell_formula_units_Z 32
_cell_length_a 18.729715
_cell_length_b 12.601069
_cell_length_c 13.477583
_cell_angle_alpha 90.000000
_cell_angle_beta 30.382588
_cell_angle_gamma 90.000000
_cell_volume 1608.811030
_symmetry_space_group_name_H-M "C 2/C"
_symmetry_group_IT_number 15
_symmetry_cell_setting 'monoclinic'
loop_
_space_group_symop_operation_xyz
x,y,z
-x,y,1/2-z
-x,-y,-z
x,-y,1/2+z
1/2+x,1/2+y,z
1/2-x,1/2+y,1/2-z
1/2-x,1/2-y,-z
1/2+x,1/2-y,1/2+z
loop_
_atom_site_type_symbol
_atom_site_label
_atom_site_fract_x
_atom_site_fract_y
_atom_site_fract_z
Si Si1 0.672754 0.865861 0.864987
Si Si2 0.708777 0.029329 0.654741
Si Si3 0.080673 0.242371 0.337172
Si Si4 0.000000 0.901316 0.750000
Si Si5 0.000000 0.544524 0.750000
O O1 0.831974 0.824033 0.685929
O O2 0.674124 0.973204 0.800049
O O3 0.571718 0.776851 0.934373
O O4 0.599249 0.883717 0.060014
O O5 0.671823 0.153642 0.701909
O O6 0.608938 0.976687 0.688052
O O7 0.874573 0.019523 0.433876
O O8 0.058390 0.170596 0.267976
#
# Coordination Sequence:
#
# PCOD8135361 Si02
#       5
#     8   8   8   4   4
#     4  11  23  37  63  91 125 154 198 251 302 352
#     4  11  23  38  60  95 122 156 196 253 304 346
#     4  11  20  38  61  91 119 153 201 250 296 348
#     4  12  21  38  66  91 118 150 211 258 290 341
#     4  10  19  38  60  87 120 154 195 242 300 349
#
# _framework density 19.890466
#
# number of rings (size 3 to 8) (size 9 to 14) (size 15 to 20)
#    0.000    1.000    5.000    6.750    0.000    1.000 
#    0.000    0.000    0.000   13.500    0.000    0.000 
#    0.000    0.000    0.000    0.000    0.000    0.000 
#
# Total GULP energy -198262.546842 kJ/mol
# GULP energy per Si atom -12391.409178 kJ/mol
# Density = 1.984519 g / cm^3
# Si number density = 19.890466 Si / 1000 Ang^3
#
#
#
# Elastic Constant Matrix: (Units=GPa)
#
#
# Indices 1 2 3 4 5 6 
#
# 1 143.6339 52.8144 64.3878 0.0000 -27.0451 0.0000
# 2 52.8144 50.3705 44.5999 0.0000 0.8332 0.0000
# 3 64.3878 44.5999 85.0769 0.0000 -15.8431 0.0000
# 4 0.0000 0.0000 0.0000 23.4568 0.0000 -4.1229
# 5 -27.0451 0.8332 -15.8431 0.0000 34.2260 0.0000
# 6 0.0000 0.0000 0.0000 -4.1229 0.0000 12.7512
#
#
#
# Elastic Compliance Matrix: (Units=1/GPa)
#
#
# Indices 1 2 3 4 5 6 
#
# 1 0.015378 -0.014834 -0.001676 0.000000 0.011737 0.000000
# 2 -0.014834 0.055428 -0.022176 0.000000 -0.023336 0.000000
# 3 -0.001676 -0.022176 0.026813 0.000000 0.011627 0.000000
# 4 0.000000 0.000000 0.000000 0.045200 0.000000 0.014615
# 5 0.011737 -0.023336 0.011627 0.000000 0.044442 0.000000
# 6 0.000000 0.000000 0.000000 0.014615 0.000000 0.083149
#
#
# Mechanical properties :
#
#
# Convention : Reuss Voigt Hill
#
# Bulk Modulus (GPa) = 49.39108 66.96505 58.17806
# Shear Modulus (GPa) = 14.10304 21.90541 18.00422
#
# Velocity S-wave (km/s) = 2.66566 3.32219 3.01187
# Velocity P-wave (km/s) = 5.86172 6.96103 6.43489
#
# Compressibility (1/GPa) = 0.02024657
#
# Stress axis : x y z
#
# Youngs Moduli (GPa) = 65.02788 18.04132 37.29477
#
# Poissons Ratio (x) = 0.26763 0.06252
# Poissons Ratio (y) = 0.96462 0.82706
# Poissons Ratio (z) = 0.10901 0.40009
#
# Static dielectric constant tensor:
#      x y z
#    x 4.267690 0.000000 -0.612000 
#    y 0.000000 3.187190 0.000000 
#    z -0.612000 0.000000 3.705000 
# 
# 
# High freq. dielectric constant tensor:
#      x y z
#    x 1.794930 0.000000 -0.035360 
#    y 0.000000 1.728060 0.000000 
#    z -0.035360 0.000000 1.765900 
# 
# From -- ./inp_files/27934.got.cif
#   From: 2010.06.25/outbox.cif.g09.slc.cpg/sg15_14_cif.got.tgz:27934.got - 2010.06.28 07:06:18.
