data_PCOD8135878
_publ_section_title
;
Structure prediction by ZEFSAII (Michael W. Deem and Ramdas Pophale) SiO2 
 PCOD8135878
Probable space group: C 2/C
;
_chemical_formula_sum "Si O2"
_cell_formula_units_Z 48
_cell_length_a 11.857240
_cell_length_b 15.938425
_cell_length_c 25.194851
_cell_angle_alpha 90.000000
_cell_angle_beta 150.032301
_cell_angle_gamma 90.000000
_cell_volume 2378.408593
_symmetry_space_group_name_H-M "C 2/C"
_symmetry_group_IT_number 15
_symmetry_cell_setting 'monoclinic'
loop_
_space_group_symop_operation_xyz
x,y,z
-x,y,1/2-z
-x,-y,-z
x,-y,1/2+z
1/2+x,1/2+y,z
1/2-x,1/2+y,1/2-z
1/2-x,1/2-y,-z
1/2+x,1/2-y,1/2+z
loop_
_atom_site_type_symbol
_atom_site_label
_atom_site_fract_x
_atom_site_fract_y
_atom_site_fract_z
Si Si1 0.100386 0.331499 0.586992
Si Si2 0.806530 0.027672 0.960258
Si Si3 0.713766 0.784279 0.428843
Si Si4 0.712540 0.321313 0.194005
Si Si5 0.651012 0.565079 0.909487
Si Si6 0.500000 0.548617 0.250000
Si Si7 0.000000 0.439450 0.250000
O O1 0.180000 0.283889 0.566961
O O2 0.066417 0.259605 0.617471
O O3 0.293285 0.394821 0.685980
O O4 0.870732 0.381755 0.483370
O O5 0.837194 0.126442 0.979676
O O6 0.569133 0.007942 0.831017
O O7 0.806219 0.981776 0.016952
O O8 0.000000 0.000000 0.000000
O O9 0.750000 0.750000 0.500000
O O10 0.446046 0.792811 0.314198
O O11 0.562056 0.373164 0.173720
O O12 0.780532 0.379819 0.171130
O O13 0.593949 0.503473 0.838168
#
# Coordination Sequence:
#
# PCOD8135878 Si02
#       7
#     8   8   8   8   8   4   4
#     4  12  23  46  67  93 135 182 223 274 344 408
#     4  11  22  41  66  99 127 166 217 281 332 390
#     4  11  23  41  71  92 126 179 231 262 327 418
#     4  11  21  45  68  93 129 178 222 275 334 397
#     4  12  28  40  70 103 139 171 224 292 337 394
#     4  12  27  46  62 101 140 180 220 270 351 406
#     4  10  19  40  68  89 128 166 222 262 329 394
#
# _framework density 20.181560999999999
#
# number of rings (size 3 to 8) (size 9 to 14) (size 15 to 20)
#    0.000    0.667    6.667    2.000    7.000    0.000 
#    0.000    0.000    0.000    0.000    0.000    0.000 
#    0.000    0.000    0.000    0.000    0.000    0.000 
#
# Total GULP energy -297422.060833 kJ/mol
# GULP energy per Si atom -12392.585868 kJ/mol
# Density = 2.013563 g / cm^3
# Si number density = 20.181561 Si / 1000 Ang^3
#
#
#
# Elastic Constant Matrix: (Units=GPa)
#
#
# Indices 1 2 3 4 5 6 
#
# 1 83.2449 57.1247 71.4694 -0.0002 -9.5307 0.0000
# 2 57.1247 110.1427 67.5266 0.0010 -6.7176 -0.0003
# 3 71.4694 67.5266 105.2685 0.0057 -7.1142 -0.0008
# 4 -0.0002 0.0010 0.0057 32.2683 0.0012 9.8007
# 5 -9.5307 -6.7176 -7.1142 0.0012 48.3301 0.0001
# 6 0.0000 -0.0003 -0.0008 9.8007 0.0001 22.0595
#
#
#
# Elastic Compliance Matrix: (Units=1/GPa)
#
#
# Indices 1 2 3 4 5 6 
#
# 1 0.030840 -0.005115 -0.017468 0.000004 0.002799 -0.000003
# 2 -0.005115 0.015834 -0.006670 0.000001 0.000210 0.000000
# 3 -0.017468 -0.006670 0.025597 -0.000005 -0.000604 0.000003
# 4 0.000004 0.000001 -0.000005 0.035824 -0.000001 -0.015916
# 5 0.002799 0.000210 -0.000604 -0.000001 0.021183 0.000000
# 6 -0.000003 0.000000 0.000003 -0.015916 0.000000 0.052403
#
#
# Mechanical properties :
#
#
# Convention : Reuss Voigt Hill
#
# Bulk Modulus (GPa) = 72.64802 76.76638 74.70720
# Shear Modulus (GPa) = 20.42675 27.36727 23.89701
#
# Velocity S-wave (km/s) = 3.18488 3.68646 3.44481
# Velocity P-wave (km/s) = 7.04273 7.49936 7.27463
#
# Compressibility (1/GPa) = 0.01376500
#
# Stress axis : x y z
#
# Youngs Moduli (GPa) = 32.42516 63.15412 39.06744
#
# Poissons Ratio (x) = 0.32304 0.68242
# Poissons Ratio (y) = 0.16586 0.26059
# Poissons Ratio (z) = 0.56640 0.42125
#
# Static dielectric constant tensor:
#      x y z
#    x 3.705830 0.000000 -0.097580 
#    y 0.000000 4.008410 0.000000 
#    z -0.097580 0.000000 3.830270 
# 
# 
# High freq. dielectric constant tensor:
#      x y z
#    x 1.785320 0.000000 -0.006640 
#    y 0.000000 1.797910 0.000000 
#    z -0.006640 0.000000 1.797110 
# 
# From -- ./inp_files/293148.got.cif
#   From: 2010.06.25/outbox.cif.g09.slc.cpg/sg15_147_cif.got.tgz:293148.got - 2010.06.28 07:06:18.
