data_PCOD8135074
_publ_section_title
;
Structure prediction by ZEFSAII (Michael W. Deem and Ramdas Pophale) SiO2 
 PCOD8135074
Probable space group: C 2/C
;
_chemical_formula_sum "Si O2"
_cell_formula_units_Z 44
_cell_length_a 17.737111
_cell_length_b 15.955001
_cell_length_c 11.493588
_cell_angle_alpha 90.000000
_cell_angle_beta 137.317511
_cell_angle_gamma 90.000000
_cell_volume 2205.075278
_symmetry_space_group_name_H-M "C 2/C"
_symmetry_group_IT_number 15
_symmetry_cell_setting 'monoclinic'
loop_
_space_group_symop_operation_xyz
x,y,z
-x,y,1/2-z
-x,-y,-z
x,-y,1/2+z
1/2+x,1/2+y,z
1/2-x,1/2+y,1/2-z
1/2-x,1/2-y,-z
1/2+x,1/2-y,1/2+z
loop_
_atom_site_type_symbol
_atom_site_label
_atom_site_fract_x
_atom_site_fract_y
_atom_site_fract_z
Si Si1 0.135077 0.119834 0.046390
Si Si2 0.673146 0.371775 0.852665
Si Si3 0.897404 0.317294 0.212380
Si Si4 0.678127 0.831472 0.895302
Si Si5 0.500000 0.500575 0.250000
Si Si6 0.054972 0.690914 0.473670
O O1 0.181252 0.102553 0.227168
O O2 0.236508 0.104309 0.069722
O O3 0.087371 0.213197 0.988622
O O4 0.034952 0.057213 0.899309
O O5 0.615388 0.282504 0.807703
O O6 0.604592 0.442560 0.839497
O O7 0.794242 0.368994 0.046318
O O8 0.914747 0.344302 0.365646
O O9 0.000000 0.344978 0.250000
O O10 0.577402 0.814366 0.691879
O O11 0.624780 0.863597 0.957175
O O12 0.750000 0.750000 0.000000
#
# Coordination Sequence:
#
# PCOD8135074 Si02
#       6
#     8   8   8   8   4   8
#     4  10  20  35  56  82 117 154 183 235 293 342
#     4  10  22  37  56  87 112 150 195 235 288 340
#     4  10  19  37  61  83 112 147 195 246 283 330
#     4   9  16  31  52  85 115 144 188 236 282 330
#     4  12  22  40  54  86 120 152 190 230 294 366
#     4   9  18  32  57  90 111 145 196 242 285 327
#
# _framework density 19.953968
#
# number of rings (size 3 to 8) (size 9 to 14) (size 15 to 20)
#    0.000    2.182    0.909    3.818    0.000    1.455 
#    6.545    0.000    4.000    2.182    0.000    0.000 
#    0.000    0.000    0.000    0.000    0.000    0.000 
#
# Total GULP energy -272708.935072 kJ/mol
# GULP energy per Si atom -12395.860685 kJ/mol
# Density = 1.990855 g / cm^3
# Si number density = 19.953968 Si / 1000 Ang^3
#
#
#
# Elastic Constant Matrix: (Units=GPa)
#
#
# Indices 1 2 3 4 5 6 
#
# 1 125.8558 33.8797 69.9954 0.0000 -1.7970 0.0000
# 2 33.8797 44.1731 36.1435 0.0000 -4.9260 0.0000
# 3 69.9954 36.1435 178.3376 0.0000 -10.8071 0.0000
# 4 0.0000 0.0000 0.0000 21.8364 0.0000 7.8994
# 5 -1.7970 -4.9260 -10.8071 0.0000 37.8917 0.0000
# 6 0.0000 0.0000 0.0000 7.8994 0.0000 19.9226
#
#
#
# Elastic Compliance Matrix: (Units=1/GPa)
#
#
# Indices 1 2 3 4 5 6 
#
# 1 0.011436 -0.006201 -0.003305 0.000000 -0.001206 0.000000
# 2 -0.006201 0.030650 -0.003617 0.000000 0.002659 0.000000
# 3 -0.003305 -0.003617 0.007733 0.000000 0.001579 0.000000
# 4 0.000000 0.000000 0.000000 0.053464 0.000000 -0.021198
# 5 -0.001206 0.002659 0.001579 0.000000 0.027130 0.000000
# 6 0.000000 0.000000 0.000000 -0.021198 0.000000 0.058599
#
#
# Mechanical properties :
#
#
# Convention : Reuss Voigt Hill
#
# Bulk Modulus (GPa) = 42.42067 69.82263 56.12165
# Shear Modulus (GPa) = 22.40993 29.82001 26.11497
#
# Velocity S-wave (km/s) = 3.35488 3.86999 3.62160
# Velocity P-wave (km/s) = 6.02597 7.41869 6.75830
#
# Compressibility (1/GPa) = 0.02357341
#
# Stress axis : x y z
#
# Youngs Moduli (GPa) = 87.44578 32.62599 129.31537
#
# Poissons Ratio (x) = 0.20233 0.42734
# Poissons Ratio (y) = 0.54229 0.46770
# Poissons Ratio (z) = 0.28897 0.11800
#
# Static dielectric constant tensor:
#      x y z
#    x 4.317560 0.000000 -0.088460 
#    y 0.000000 3.197770 0.000000 
#    z -0.088460 0.000000 3.761190 
# 
# 
# High freq. dielectric constant tensor:
#      x y z
#    x 1.790940 0.000000 0.000930 
#    y 0.000000 1.732980 0.000000 
#    z 0.000930 0.000000 1.794200 
# 
# From -- ./inp_files/106781.got.cif
#   From: 2010.06.25/outbox.cif.g09.slc.cpg/sg15_54_cif.got.tgz:106781.got - 2010.06.28 07:06:18.
