data_PCOD8135510
_publ_section_title
;
Structure prediction by ZEFSAII (Michael W. Deem and Ramdas Pophale) SiO2 
 PCOD8135510
Probable space group: C 2/C
;
_chemical_formula_sum "Si O2"
_cell_formula_units_Z 56
_cell_length_a 8.301970
_cell_length_b 33.016703
_cell_length_c 11.881901
_cell_angle_alpha 90.000000
_cell_angle_beta 56.213523
_cell_angle_gamma 90.000000
_cell_volume 2706.838228
_symmetry_space_group_name_H-M "C 2/C"
_symmetry_group_IT_number 15
_symmetry_cell_setting 'monoclinic'
loop_
_space_group_symop_operation_xyz
x,y,z
-x,y,1/2-z
-x,-y,-z
x,-y,1/2+z
1/2+x,1/2+y,z
1/2-x,1/2+y,1/2-z
1/2-x,1/2-y,-z
1/2+x,1/2-y,1/2+z
loop_
_atom_site_type_symbol
_atom_site_label
_atom_site_fract_x
_atom_site_fract_y
_atom_site_fract_z
Si Si1 0.966854 0.463843 0.592953
Si Si2 0.840354 0.161872 0.717128
Si Si3 0.284210 0.240668 0.855100
Si Si4 0.440515 0.877474 0.006923
Si Si5 0.671846 0.820790 0.772199
Si Si6 0.898628 0.119857 0.040692
Si Si7 0.337535 0.532242 0.107400
O O1 0.760497 0.475040 0.732597
O O2 0.000000 0.500000 0.500000
O O3 0.960019 0.421913 0.523059
O O4 0.153024 0.463623 0.599636
O O5 0.834616 0.203087 0.647788
O O6 0.645548 0.142210 0.845266
O O7 0.000000 0.169999 0.750000
O O8 0.906270 0.128378 0.602609
O O9 0.500000 0.226765 0.750000
O O10 0.242320 0.278315 0.791024
O O11 0.250000 0.250000 0.000000
O O12 0.603628 0.846269 0.905678
O O13 0.280848 0.881388 0.973545
O O14 0.500000 0.813534 0.750000
O O15 0.853082 0.845098 0.649003
O O16 0.937478 0.076115 0.079766
O O17 0.500000 0.500000 0.000000
#
# Coordination Sequence:
#
# PCOD8135510 Si02
#       7
#     8   8   8   8   8   8   8
#     4  10  21  38  60  88 123 156 194 245 301 354
#     4  10  21  38  61  87 112 151 207 248 284 349
#     4  12  25  40  57  86 126 157 185 239 312 361
#     4   9  18  35  61  87 111 146 199 253 290 330
#     4  10  19  38  65  84 107 152 206 246 284 347
#     4   9  18  35  61  87 109 147 201 252 287 331
#     4  10  21  38  60  89 122 155 197 246 297 355
#
# _framework density 20.688345000000002
#
# number of rings (size 3 to 8) (size 9 to 14) (size 15 to 20)
#    0.000    2.000    1.429    2.143    2.000    0.571 
#    0.000   10.000    0.000    0.000    0.000    0.000 
#    0.000    0.000    0.000    0.000    0.000    0.000 
#
# Total GULP energy -346877.673779 kJ/mol
# GULP energy per Si atom -12388.488349 kJ/mol
# Density = 2.064126 g / cm^3
# Si number density = 20.688345 Si / 1000 Ang^3
#
#
#
# Elastic Constant Matrix: (Units=GPa)
#
#
# Indices 1 2 3 4 5 6 
#
# 1 26.2756 26.3666 30.8172 0.0000 -8.8114 0.0000
# 2 26.3666 149.3282 70.5648 0.0000 4.5245 0.0000
# 3 30.8172 70.5648 177.8227 0.0000 -9.1150 0.0000
# 4 0.0000 0.0000 0.0000 40.5396 0.0000 2.7102
# 5 -8.8114 4.5245 -9.1150 0.0000 23.5069 0.0000
# 6 0.0000 0.0000 0.0000 2.7102 0.0000 22.4482
#
#
#
# Elastic Compliance Matrix: (Units=1/GPa)
#
#
# Indices 1 2 3 4 5 6 
#
# 1 0.061303 -0.008639 -0.006053 0.000000 0.022295 0.000000
# 2 -0.008639 0.009660 -0.002650 0.000000 -0.006125 0.000000
# 3 -0.006053 -0.002650 0.007789 0.000000 0.001261 0.000000
# 4 0.000000 0.000000 0.000000 0.024868 0.000000 -0.003002
# 5 0.022295 -0.006125 0.001261 0.000000 0.052566 0.000000
# 6 0.000000 0.000000 0.000000 -0.003002 0.000000 0.044909
#
#
# Mechanical properties :
#
#
# Convention : Reuss Voigt Hill
#
# Bulk Modulus (GPa) = 22.69267 67.65819 45.17543
# Shear Modulus (GPa) = 19.96257 32.34414 26.15336
#
# Velocity S-wave (km/s) = 3.10968 3.95827 3.55936
# Velocity P-wave (km/s) = 4.88735 7.32565 6.22701
#
# Compressibility (1/GPa) = 0.04406710
#
# Stress axis : x y z
#
# Youngs Moduli (GPa) = 16.31243 103.51974 128.38895
#
# Poissons Ratio (x) = 0.89435 0.77712
# Poissons Ratio (y) = 0.14093 0.34024
# Poissons Ratio (z) = 0.09874 0.27434
#
# Static dielectric constant tensor:
#      x y z
#    x 3.024580 0.000000 0.253030 
#    y 0.000000 4.079580 0.000000 
#    z 0.253030 0.000000 3.498900 
# 
# 
# High freq. dielectric constant tensor:
#      x y z
#    x 1.778900 0.000000 -0.010550 
#    y 0.000000 1.823190 0.000000 
#    z -0.010550 0.000000 1.826400 
# 
# From -- ./inp_files/82465.got.cif
#   From: 2010.06.25/outbox.cif.g09.slc.cpg/sg15_42_cif.got.tgz:82465.got - 2010.06.28 07:06:18.
