data_PCOD8135022
_publ_section_title
;
Structure prediction by ZEFSAII (Michael W. Deem and Ramdas Pophale) SiO2 
 PCOD8135022
Probable space group: C 2/C
;
_chemical_formula_sum "Si O2"
_cell_formula_units_Z 48
_cell_length_a 13.520851
_cell_length_b 10.879363
_cell_length_c 26.558626
_cell_angle_alpha 90.000000
_cell_angle_beta 143.872783
_cell_angle_gamma 90.000000
_cell_volume 2303.328703
_symmetry_space_group_name_H-M "C 2/C"
_symmetry_group_IT_number 15
_symmetry_cell_setting 'monoclinic'
loop_
_space_group_symop_operation_xyz
x,y,z
-x,y,1/2-z
-x,-y,-z
x,-y,1/2+z
1/2+x,1/2+y,z
1/2-x,1/2+y,1/2-z
1/2-x,1/2-y,-z
1/2+x,1/2-y,1/2+z
loop_
_atom_site_type_symbol
_atom_site_label
_atom_site_fract_x
_atom_site_fract_y
_atom_site_fract_z
Si Si1 0.026216 0.573250 0.103689
Si Si2 0.098461 0.564321 0.341540
Si Si3 0.382404 0.590619 0.980759
Si Si4 0.184519 0.989615 0.843767
Si Si5 0.748912 0.615419 0.474031
Si Si6 0.874317 0.272866 0.459718
O O1 0.216102 0.574362 0.161136
O O2 0.032229 0.584471 0.166555
O O3 0.931731 0.447323 0.049290
O O4 0.929882 0.688933 0.038835
O O5 0.190542 0.430108 0.380936
O O6 0.244236 0.663249 0.408370
O O7 0.000000 0.583627 0.250000
O O8 0.500000 0.500000 0.000000
O O9 0.376402 0.548942 0.037214
O O10 0.455683 0.729450 0.001482
O O11 0.287692 0.112012 0.897973
O O12 0.000000 0.025352 0.750000
O O13 0.172241 0.897149 0.886603
O O14 0.750000 0.750000 0.500000
#
# Coordination Sequence:
#
# PCOD8135022 Si02
#       6
#     8   8   8   8   8   8
#     4  10  21  38  58  81 115 154 194 234 285 358
#     4  10  21  37  58  89 120 146 189 247 293 335
#     4   9  19  34  58  85 112 153 191 225 280 354
#     4  11  23  37  57  88 117 147 196 252 288 328
#     4  10  19  37  60  80 110 153 191 226 285 356
#     4  10  19  39  63  83 111 157 197 228 287 357
#
# _framework density 20.839406
#
# number of rings (size 3 to 8) (size 9 to 14) (size 15 to 20)
#    0.000    2.000    0.000    5.000    0.000    4.000 
#    0.000   10.833    0.000    0.000    0.000    0.000 
#    0.000    0.000    0.000    0.000    0.000    0.000 
#
# Total GULP energy -297320.147292 kJ/mol
# GULP energy per Si atom -12388.339471 kJ/mol
# Density = 2.079197 g / cm^3
# Si number density = 20.839406 Si / 1000 Ang^3
#
#
#
# Elastic Constant Matrix: (Units=GPa)
#
#
# Indices 1 2 3 4 5 6 
#
# 1 178.6052 38.6106 81.3087 0.0000 -10.2442 0.0000
# 2 38.6106 90.9804 45.3315 0.0000 1.3311 0.0000
# 3 81.3087 45.3315 112.0477 0.0000 -11.2163 0.0000
# 4 0.0000 0.0000 0.0000 19.9256 0.0000 5.3789
# 5 -10.2442 1.3311 -11.2163 0.0000 30.7509 0.0000
# 6 0.0000 0.0000 0.0000 5.3789 0.0000 33.4378
#
#
#
# Elastic Compliance Matrix: (Units=1/GPa)
#
#
# Indices 1 2 3 4 5 6 
#
# 1 0.008409 -0.000721 -0.005736 0.000000 0.000740 0.000000
# 2 -0.000721 0.014052 -0.005445 0.000000 -0.002835 0.000000
# 3 -0.005736 -0.005445 0.015695 0.000000 0.004050 0.000000
# 4 0.000000 0.000000 0.000000 0.052465 0.000000 -0.008440
# 5 0.000740 -0.002835 0.004050 0.000000 0.034366 0.000000
# 6 0.000000 0.000000 0.000000 -0.008440 0.000000 0.031264
#
#
# Mechanical properties :
#
#
# Convention : Reuss Voigt Hill
#
# Bulk Modulus (GPa) = 69.68154 79.12611 74.40382
# Shear Modulus (GPa) = 27.05044 31.24837 29.14940
#
# Velocity S-wave (km/s) = 3.60674 3.87652 3.74406
# Velocity P-wave (km/s) = 7.13125 7.62158 7.38049
#
# Compressibility (1/GPa) = 0.01435100
#
# Stress axis : x y z
#
# Youngs Moduli (GPa) = 118.92698 71.16310 63.71259
#
# Poissons Ratio (x) = 0.05134 0.36544
# Poissons Ratio (y) = 0.08579 0.34694
# Poissons Ratio (z) = 0.68214 0.38751
#
# Static dielectric constant tensor:
#      x y z
#    x 5.308570 0.000000 -0.242680 
#    y 0.000000 4.564610 0.000000 
#    z -0.242680 0.000000 3.566330 
# 
# 
# High freq. dielectric constant tensor:
#      x y z
#    x 1.849300 0.000000 0.001450 
#    y 0.000000 1.817110 0.000000 
#    z 0.001450 0.000000 1.776990 
# 
# From -- ./inp_files/296191.got.cif
#   From: 2010.06.25/outbox.cif.g09.slc.cpg/sg15_149_cif.got.tgz:296191.got - 2010.06.28 07:06:18.
