data_PCOD8135855
_publ_section_title
;
Structure prediction by ZEFSAII (Michael W. Deem and Ramdas Pophale) SiO2 
 PCOD8135855
Probable space group: C 2/C
;
_chemical_formula_sum "Si O2"
_cell_formula_units_Z 64
_cell_length_a 18.732831
_cell_length_b 11.533886
_cell_length_c 19.129506
_cell_angle_alpha 90.000000
_cell_angle_beta 128.331409
_cell_angle_gamma 90.000000
_cell_volume 3242.206077
_symmetry_space_group_name_H-M "C 2/C"
_symmetry_group_IT_number 15
_symmetry_cell_setting 'monoclinic'
loop_
_space_group_symop_operation_xyz
x,y,z
-x,y,1/2-z
-x,-y,-z
x,-y,1/2+z
1/2+x,1/2+y,z
1/2-x,1/2+y,1/2-z
1/2-x,1/2-y,-z
1/2+x,1/2-y,1/2+z
loop_
_atom_site_type_symbol
_atom_site_label
_atom_site_fract_x
_atom_site_fract_y
_atom_site_fract_z
Si Si1 0.328288 0.478781 0.311178
Si Si2 0.773947 0.134621 0.400988
Si Si3 0.788412 0.535865 0.389179
Si Si4 0.508895 0.578148 0.435191
Si Si5 0.155225 0.028602 0.922866
Si Si6 0.902137 0.263970 0.663235
Si Si7 0.906674 0.746961 0.420813
Si Si8 0.906324 0.668198 0.011540
O O1 0.281693 0.527075 0.353115
O O2 0.256413 0.476018 0.205478
O O3 0.409964 0.567847 0.339203
O O4 0.365450 0.349084 0.347586
O O5 0.775790 0.088022 0.481188
O O6 0.676163 0.195368 0.330156
O O7 0.856360 0.226483 0.439547
O O8 0.714373 0.550508 0.406214
O O9 0.824796 0.663178 0.393040
O O10 0.872610 0.454935 0.462422
O O11 0.500000 0.500000 0.500000
O O12 0.581270 0.540321 0.421788
O O13 0.542337 0.704772 0.478869
O O14 0.103109 0.125123 0.845510
O O15 0.880908 0.324228 0.576928
O O16 0.000000 0.303091 0.750000
O O17 0.984439 0.677394 0.426498
#
# Coordination Sequence:
#
# PCOD8135855 Si02
#       8
#     8   8   8   8   8   8   8   8
#     4  11  24  41  68  94 121 171 223 265 312 390
#     4  11  19  42  66  87 123 167 212 263 323 375
#     4  12  27  38  62  99 135 162 212 274 324 382
#     4  10  19  40  66  89 118 165 217 259 308 385
#     4  11  21  39  61  94 125 163 213 263 317 376
#     4  11  23  35  66  97 125 162 213 275 320 368
#     4  11  24  42  63  92 127 178 211 255 329 388
#     4  11  22  41  64  92 129 165 212 267 329 370
#
# _framework density 19.739646
#
# number of rings (size 3 to 8) (size 9 to 14) (size 15 to 20)
#    0.000    1.000    6.250    3.375    7.000    0.500 
#    0.000    0.000    0.000    0.000    0.000    0.000 
#    0.000    0.000    0.000    0.000    0.000    0.000 
#
# Total GULP energy -396726.704347 kJ/mol
# GULP energy per Si atom -12397.709511 kJ/mol
# Density = 1.969472 g / cm^3
# Si number density = 19.739646 Si / 1000 Ang^3
#
#
#
# Elastic Constant Matrix: (Units=GPa)
#
#
# Indices 1 2 3 4 5 6 
#
# 1 127.5109 41.1101 40.9974 0.0000 11.0666 0.0000
# 2 41.1101 76.6865 35.9846 0.0000 2.8136 0.0000
# 3 40.9974 35.9846 78.8604 0.0000 12.9320 0.0000
# 4 0.0000 0.0000 0.0000 26.4551 0.0000 6.4263
# 5 11.0666 2.8136 12.9320 0.0000 23.0921 0.0000
# 6 0.0000 0.0000 0.0000 6.4263 0.0000 31.9654
#
#
#
# Elastic Compliance Matrix: (Units=1/GPa)
#
#
# Indices 1 2 3 4 5 6 
#
# 1 0.010371 -0.003995 -0.003120 0.000000 -0.002736 0.000000
# 2 -0.003995 0.018258 -0.006831 0.000000 0.003515 0.000000
# 3 -0.003120 -0.006831 0.018761 0.000000 -0.008179 0.000000
# 4 0.000000 0.000000 0.000000 0.039741 0.000000 -0.007989
# 5 -0.002736 0.003515 -0.008179 0.000000 0.048768 0.000000
# 6 0.000000 0.000000 0.000000 -0.007989 0.000000 0.032890
#
#
# Mechanical properties :
#
#
# Convention : Reuss Voigt Hill
#
# Bulk Modulus (GPa) = 51.28703 57.69358 54.49031
# Shear Modulus (GPa) = 24.60865 27.30023 25.95444
#
# Velocity S-wave (km/s) = 3.53464 3.72293 3.63000
# Velocity P-wave (km/s) = 6.53425 6.91165 6.72560
#
# Compressibility (1/GPa) = 0.01949811
#
# Stress axis : x y z
#
# Youngs Moduli (GPa) = 96.42098 54.76967 53.30284
#
# Poissons Ratio (x) = 0.21883 0.16630
# Poissons Ratio (y) = 0.38524 0.36410
# Poissons Ratio (z) = 0.30082 0.37412
#
# Static dielectric constant tensor:
#      x y z
#    x 3.644760 0.000000 0.136120 
#    y 0.000000 3.432710 0.000000 
#    z 0.136120 0.000000 3.642640 
# 
# 
# High freq. dielectric constant tensor:
#      x y z
#    x 1.779860 0.000000 0.010280 
#    y 0.000000 1.741570 0.000000 
#    z 0.010280 0.000000 1.765130 
# 
# From -- ./inp_files/248646.got.cif
#   From: 2010.06.25/outbox.cif.g09.slc.cpg/sg15_125_cif.got.tgz:248646.got - 2010.06.28 07:06:18.
