data_PCOD8135539
_publ_section_title
;
Structure prediction by ZEFSAII (Michael W. Deem and Ramdas Pophale) SiO2 
 PCOD8135539
Probable space group: C 2/C
;
_chemical_formula_sum "Si O2"
_cell_formula_units_Z 56
_cell_length_a 19.747938
_cell_length_b 11.966053
_cell_length_c 21.923245
_cell_angle_alpha 90.000000
_cell_angle_beta 150.451407
_cell_angle_gamma 90.000000
_cell_volume 2554.857684
_symmetry_space_group_name_H-M "C 2/C"
_symmetry_group_IT_number 15
_symmetry_cell_setting 'monoclinic'
loop_
_space_group_symop_operation_xyz
x,y,z
-x,y,1/2-z
-x,-y,-z
x,-y,1/2+z
1/2+x,1/2+y,z
1/2-x,1/2+y,1/2-z
1/2-x,1/2-y,-z
1/2+x,1/2-y,1/2+z
loop_
_atom_site_type_symbol
_atom_site_label
_atom_site_fract_x
_atom_site_fract_y
_atom_site_fract_z
Si Si1 0.901574 0.893049 0.768213
Si Si2 0.299323 0.006495 0.482924
Si Si3 0.194910 0.034299 0.183489
Si Si4 0.408433 0.213382 0.619514
Si Si5 0.486084 0.083734 0.433966
Si Si6 0.502683 0.336032 0.059676
Si Si7 0.567969 0.605788 0.866621
O O1 0.803820 0.905173 0.631966
O O2 0.813356 0.895523 0.760406
O O3 0.001696 0.786825 0.856712
O O4 0.004082 0.995028 0.844071
O O5 0.411904 0.083163 0.604545
O O6 0.374107 0.924330 0.494928
O O7 0.224948 0.925239 0.473485
O O8 0.355502 0.040892 0.291969
O O9 0.116686 0.095587 0.067544
O O10 0.141617 0.908046 0.155896
O O11 0.500000 0.233497 0.750000
O O12 0.250000 0.250000 0.500000
O O13 0.472228 0.211826 0.446696
O O14 0.500000 0.000000 0.500000
O O15 0.457006 0.312740 0.095152
O O16 0.500000 0.649973 0.750000
#
# Coordination Sequence:
#
# PCOD8135539 Si02
#       7
#     8   8   8   8   8   8   8
#     4  10  19  38  66  92 133 185 224 278 354 422
#     4  11  23  40  63  99 132 182 236 281 352 426
#     4  10  24  45  71 101 141 185 234 291 353 418
#     4  12  22  38  64  99 138 179 231 294 351 417
#     4  12  27  44  69 102 140 181 236 287 357 433
#     4  10  25  46  72 103 139 185 238 295 348 425
#     4   9  19  40  69  96 133 180 227 274 350 420
#
# _framework density 21.919029999999999
#
# number of rings (size 3 to 8) (size 9 to 14) (size 15 to 20)
#    0.000    1.429    4.286    0.429    4.000    1.714 
#    2.571    0.714    0.000    0.000    0.000    0.000 
#    0.000    0.000    0.000    0.000    0.000    0.000 
#
# Total GULP energy -346877.280399 kJ/mol
# GULP energy per Si atom -12388.474300 kJ/mol
# Density = 2.186914 g / cm^3
# Si number density = 21.919030 Si / 1000 Ang^3
#
#
#
# Elastic Constant Matrix: (Units=GPa)
#
#
# Indices 1 2 3 4 5 6 
#
# 1 89.7351 27.2706 20.5080 -0.0002 1.8500 0.0000
# 2 27.2706 116.7044 36.5359 -0.0003 4.8617 -0.0001
# 3 20.5080 36.5359 98.2954 -0.0012 13.1046 -0.0003
# 4 -0.0002 -0.0003 -0.0012 24.2076 -0.0004 0.1373
# 5 1.8500 4.8617 13.1046 -0.0004 37.9150 -0.0001
# 6 0.0000 -0.0001 -0.0003 0.1373 -0.0001 23.3094
#
#
#
# Elastic Compliance Matrix: (Units=1/GPa)
#
#
# Indices 1 2 3 4 5 6 
#
# 1 0.012241 -0.002332 -0.001727 0.000000 0.000299 0.000000
# 2 -0.002332 0.010141 -0.003276 0.000000 -0.000054 0.000000
# 3 -0.001727 -0.003276 0.012248 0.000000 -0.003729 0.000000
# 4 0.000000 0.000000 0.000000 0.041311 0.000000 -0.000243
# 5 0.000299 -0.000054 -0.003729 0.000000 0.027656 0.000000
# 6 0.000000 0.000000 0.000000 -0.000243 0.000000 0.042903
#
#
# Mechanical properties :
#
#
# Convention : Reuss Voigt Hill
#
# Bulk Modulus (GPa) = 50.09663 52.59599 51.34631
# Shear Modulus (GPa) = 29.79316 31.78110 30.78713
#
# Velocity S-wave (km/s) = 3.69078 3.81193 3.75184
# Velocity P-wave (km/s) = 6.40839 6.58954 6.49960
#
# Compressibility (1/GPa) = 0.01996142
#
# Stress axis : x y z
#
# Youngs Moduli (GPa) = 81.69141 98.60581 81.64325
#
# Poissons Ratio (x) = 0.22997 0.14099
# Poissons Ratio (y) = 0.19052 0.26744
# Poissons Ratio (z) = 0.14107 0.32300
#
# Static dielectric constant tensor:
#      x y z
#    x 3.330390 -0.000040 -0.542760 
#    y -0.000040 4.352490 -0.000010 
#    z -0.542760 -0.000010 3.947180 
# 
# 
# High freq. dielectric constant tensor:
#      x y z
#    x 1.862040 0.000000 0.008010 
#    y 0.000000 1.847370 0.000000 
#    z 0.008010 0.000000 1.859480 
# 
# From -- ./inp_files/280019.got.cif
#   From: 2010.06.25/outbox.cif.g09.slc.cpg/sg15_141_cif.got.tgz:280019.got - 2010.06.28 07:06:18.
