data_PCOD8135858
_publ_section_title
;
Structure prediction by ZEFSAII (Michael W. Deem and Ramdas Pophale) SiO2 
 PCOD8135858
Probable space group: C 2/C
;
_chemical_formula_sum "Si O2"
_cell_formula_units_Z 48
_cell_length_a 15.074801
_cell_length_b 8.452256
_cell_length_c 20.401346
_cell_angle_alpha 90.000000
_cell_angle_beta 61.650169
_cell_angle_gamma 90.000000
_cell_volume 2287.692522
_symmetry_space_group_name_H-M "C 2/C"
_symmetry_group_IT_number 15
_symmetry_cell_setting 'monoclinic'
loop_
_space_group_symop_operation_xyz
x,y,z
-x,y,1/2-z
-x,-y,-z
x,-y,1/2+z
1/2+x,1/2+y,z
1/2-x,1/2+y,1/2-z
1/2-x,1/2-y,-z
1/2+x,1/2-y,1/2+z
loop_
_atom_site_type_symbol
_atom_site_label
_atom_site_fract_x
_atom_site_fract_y
_atom_site_fract_z
Si Si1 0.754832 0.729176 0.075592
Si Si2 0.749371 0.148588 0.208070
Si Si3 0.367219 0.350292 0.149414
Si Si4 0.095639 0.452425 0.176170
Si Si5 0.088017 0.721916 0.080515
Si Si6 0.778307 0.366597 0.082991
O O1 0.839388 0.840634 0.081357
O O2 0.646996 0.787164 0.139539
O O3 0.780999 0.553650 0.087910
O O4 0.750000 0.750000 0.000000
O O5 0.702487 0.217137 0.291148
O O6 0.792728 0.294047 0.150024
O O7 0.839923 0.023055 0.188967
O O8 0.662914 0.061745 0.198345
O O9 0.485413 0.322222 0.117492
O O10 0.068533 0.551681 0.120544
O O11 0.000000 0.398805 0.250000
O O12 0.170952 0.821201 0.090303
O O13 0.127776 0.694467 0.993132
#
# Coordination Sequence:
#
# PCOD8135858 Si02
#       6
#     8   8   8   8   8   8
#     4  11  23  42  61  90 132 167 212 265 320 383
#     4  10  22  40  64  92 131 164 212 277 327 381
#     4  11  23  41  64  94 125 169 216 268 326 390
#     4  10  19  40  66  90 126 173 211 259 329 385
#     4  10  21  40  68  91 125 172 211 262 329 384
#     4  10  22  42  63  93 131 165 212 266 325 392
#
# _framework density 20.981839999999998
#
# number of rings (size 3 to 8) (size 9 to 14) (size 15 to 20)
#    0.000    1.667    3.333    1.000    2.333    1.333 
#    9.000    0.000    0.000    0.000    0.000    0.000 
#    0.000    0.000    0.000    0.000    0.000    0.000 
#
# Total GULP energy -297570.491925 kJ/mol
# GULP energy per Si atom -12398.770497 kJ/mol
# Density = 2.093408 g / cm^3
# Si number density = 20.981840 Si / 1000 Ang^3
#
#
#
# Elastic Constant Matrix: (Units=GPa)
#
#
# Indices 1 2 3 4 5 6 
#
# 1 77.4400 24.4088 46.5400 0.0000 -18.0723 0.0001
# 2 24.4088 97.6634 24.0143 0.0000 -12.7971 0.0001
# 3 46.5400 24.0143 107.5821 0.0000 -11.9993 0.0000
# 4 0.0000 0.0000 0.0000 32.3739 0.0000 2.9852
# 5 -18.0723 -12.7971 -11.9993 0.0000 38.7580 0.0000
# 6 0.0001 0.0001 0.0000 2.9852 0.0000 26.0168
#
#
#
# Elastic Compliance Matrix: (Units=1/GPa)
#
#
# Indices 1 2 3 4 5 6 
#
# 1 0.019367 -0.002278 -0.007195 0.000000 0.006051 0.000000
# 2 -0.002278 0.011433 -0.001309 0.000000 0.002307 0.000000
# 3 -0.007195 -0.001309 0.012717 0.000000 0.000150 0.000000
# 4 0.000000 0.000000 0.000000 0.031219 0.000000 -0.003582
# 5 0.006051 0.002307 0.000150 0.000000 0.029431 0.000000
# 6 0.000000 0.000000 0.000000 -0.003582 0.000000 0.038848
#
#
# Mechanical properties :
#
#
# Convention : Reuss Voigt Hill
#
# Bulk Modulus (GPa) = 45.55326 52.51239 49.03282
# Shear Modulus (GPa) = 29.08717 31.94458 30.51587
#
# Velocity S-wave (km/s) = 3.72735 3.90614 3.81779
# Velocity P-wave (km/s) = 6.34682 6.73986 6.54629
#
# Compressibility (1/GPa) = 0.02195233
#
# Stress axis : x y z
#
# Youngs Moduli (GPa) = 51.63291 87.46683 78.63710
#
# Poissons Ratio (x) = 0.19929 0.56578
# Poissons Ratio (y) = 0.11764 0.10294
# Poissons Ratio (z) = 0.37149 0.11450
#
# Static dielectric constant tensor:
#      x y z
#    x 3.612900 0.000000 0.093350 
#    y 0.000000 3.905840 0.000000 
#    z 0.093350 0.000000 4.098290 
# 
# 
# High freq. dielectric constant tensor:
#      x y z
#    x 1.805670 0.000000 0.004790 
#    y 0.000000 1.824480 0.000000 
#    z 0.004790 0.000000 1.832130 
# 
# From -- ./inp_files/247292.got.cif
#   From: 2010.06.25/outbox.cif.g09.slc.cpg/sg15_124_cif.got.tgz:247292.got - 2010.06.28 07:06:18.
