data_PCOD8135773
_publ_section_title
;
Structure prediction by ZEFSAII (Michael W. Deem and Ramdas Pophale) SiO2 
 PCOD8135773
Probable space group: C 2/C
;
_chemical_formula_sum "Si O2"
_cell_formula_units_Z 60
_cell_length_a 14.014889
_cell_length_b 14.567674
_cell_length_c 22.415549
_cell_angle_alpha 90.000000
_cell_angle_beta 41.086919
_cell_angle_gamma 90.000000
_cell_volume 3007.661220
_symmetry_space_group_name_H-M "C 2/C"
_symmetry_group_IT_number 15
_symmetry_cell_setting 'monoclinic'
loop_
_space_group_symop_operation_xyz
x,y,z
-x,y,1/2-z
-x,-y,-z
x,-y,1/2+z
1/2+x,1/2+y,z
1/2-x,1/2+y,1/2-z
1/2-x,1/2-y,-z
1/2+x,1/2-y,1/2+z
loop_
_atom_site_type_symbol
_atom_site_label
_atom_site_fract_x
_atom_site_fract_y
_atom_site_fract_z
Si Si1 0.000098 0.094419 0.368483
Si Si2 0.488401 0.936416 0.062722
Si Si3 0.339604 0.120023 0.337620
Si Si4 0.000000 0.189554 0.250000
Si Si5 0.711986 0.960426 0.054027
Si Si6 0.255010 0.325800 0.137926
Si Si7 0.266370 0.984704 0.265272
Si Si8 0.561491 0.269804 0.941659
O O1 0.049031 0.182957 0.383277
O O2 0.944296 0.127994 0.330955
O O3 0.882680 0.036574 0.460918
O O4 0.126608 0.022263 0.297511
O O5 0.641031 0.927939 0.025221
O O6 0.388498 0.984972 0.158273
O O7 0.425422 0.838796 0.072609
O O8 0.500000 0.000000 0.000000
O O9 0.500000 0.164327 0.250000
O O10 0.211485 0.195934 0.402466
O O11 0.340284 0.060292 0.398466
O O12 0.308248 0.050777 0.299216
O O13 0.857757 0.244629 0.296048
O O14 0.683328 0.882955 0.117470
O O15 0.263832 0.384129 0.194280
O O16 0.418148 0.291069 0.048258
#
# Coordination Sequence:
#
# PCOD8135773 Si02
#       8
#     8   8   8   4   8   8   8   8
#     4  10  22  36  59  90 125 155 195 256 307 362
#     4  12  25  39  57  86 127 164 194 243 317 378
#     4  10  19  39  69  89 113 159 219 256 288 355
#     4  12  22  32  60  94 124 160 206 244 308 378
#     4  10  20  39  62  89 117 157 204 254 303 360
#     4  10  20  36  65  90 117 153 208 260 299 356
#     4  10  21  38  60  91 119 162 200 247 304 366
#     4  10  22  40  59  91 123 154 201 262 312 346
#
# _framework density 19.949055000000001
#
# number of rings (size 3 to 8) (size 9 to 14) (size 15 to 20)
#    0.000    1.600    1.333    4.000    5.600    5.333 
#    0.000    2.000    0.000    0.000    0.000    0.000 
#    0.000    0.000    0.000    0.000    0.000    0.000 
#
# Total GULP energy -371971.091703 kJ/mol
# GULP energy per Si atom -12399.036390 kJ/mol
# Density = 1.990365 g / cm^3
# Si number density = 19.949055 Si / 1000 Ang^3
#
#
#
# Elastic Constant Matrix: (Units=GPa)
#
#
# Indices 1 2 3 4 5 6 
#
# 1 70.8748 44.6586 28.7953 0.0000 -9.7441 0.0000
# 2 44.6586 85.7118 26.9833 0.0000 -1.3447 0.0000
# 3 28.7953 26.9833 81.8694 -0.0001 -3.3037 0.0000
# 4 0.0000 0.0000 -0.0001 25.1203 0.0000 -3.8533
# 5 -9.7441 -1.3447 -3.3037 0.0000 40.8898 0.0000
# 6 0.0000 0.0000 0.0000 -3.8533 0.0000 23.7623
#
#
#
# Elastic Compliance Matrix: (Units=1/GPa)
#
#
# Indices 1 2 3 4 5 6 
#
# 1 0.023316 -0.010658 -0.004493 0.000000 0.004843 0.000000
# 2 -0.010658 0.017890 -0.002234 0.000000 -0.002132 0.000000
# 3 -0.004493 -0.002234 0.014532 0.000000 0.000030 0.000000
# 4 0.000000 0.000000 0.000000 0.040824 0.000000 0.006620
# 5 0.004843 -0.002132 0.000030 0.000000 0.025542 0.000000
# 6 0.000000 0.000000 0.000000 0.006620 0.000000 0.043157
#
#
# Mechanical properties :
#
#
# Convention : Reuss Voigt Hill
#
# Bulk Modulus (GPa) = 47.68836 48.81447 48.25141
# Shear Modulus (GPa) = 24.15223 27.15575 25.65399
#
# Velocity S-wave (km/s) = 3.48328 3.69352 3.58994
# Velocity P-wave (km/s) = 6.33519 6.53545 6.43610
#
# Compressibility (1/GPa) = 0.02096948
#
# Stress axis : x y z
#
# Youngs Moduli (GPa) = 42.88855 55.89715 68.81310
#
# Poissons Ratio (x) = 0.59576 0.30915
# Poissons Ratio (y) = 0.45711 0.15371
# Poissons Ratio (z) = 0.19268 0.12486
#
# Static dielectric constant tensor:
#      x y z
#    x 3.680310 0.000000 -0.041620 
#    y 0.000000 3.476860 0.000000 
#    z -0.041620 0.000000 3.784470 
# 
# 
# High freq. dielectric constant tensor:
#      x y z
#    x 1.767040 0.000000 -0.009890 
#    y 0.000000 1.758650 0.000000 
#    z -0.009890 0.000000 1.794730 
# 
# From -- ./inp_files/244700.got.cif
#   From: 2010.06.25/outbox.cif.g09.slc.cpg/sg15_123_cif.got.tgz:244700.got - 2010.06.28 07:06:18.
