data_PCOD8135163
_publ_section_title
;
Structure prediction by ZEFSAII (Michael W. Deem and Ramdas Pophale) SiO2 
 PCOD8135163
Probable space group: C 2/C
;
_chemical_formula_sum "Si O2"
_cell_formula_units_Z 44
_cell_length_a 28.958897
_cell_length_b 13.381230
_cell_length_c 14.796881
_cell_angle_alpha 90.000000
_cell_angle_beta 22.736009
_cell_angle_gamma 90.000000
_cell_volume 2216.061091
_symmetry_space_group_name_H-M "C 2/C"
_symmetry_group_IT_number 15
_symmetry_cell_setting 'monoclinic'
loop_
_space_group_symop_operation_xyz
x,y,z
-x,y,1/2-z
-x,-y,-z
x,-y,1/2+z
1/2+x,1/2+y,z
1/2-x,1/2+y,1/2-z
1/2-x,1/2-y,-z
1/2+x,1/2-y,1/2+z
loop_
_atom_site_type_symbol
_atom_site_label
_atom_site_fract_x
_atom_site_fract_y
_atom_site_fract_z
Si Si1 0.872260 0.047325 0.742060
Si Si2 0.131617 0.443151 0.163204
Si Si3 0.977484 0.352755 0.584690
Si Si4 0.500000 0.824333 0.250000
Si Si5 0.084560 0.185157 0.674948
Si Si6 0.664022 0.740527 0.804641
O O1 0.866396 0.095814 0.851830
O O2 0.851649 0.128004 0.700997
O O3 0.000000 0.000000 0.500000
O O4 0.773668 0.960190 0.909578
O O5 0.062302 0.547819 0.292387
O O6 0.090408 0.392029 0.144869
O O7 0.097972 0.373225 0.309957
O O8 0.996206 0.263960 0.622483
O O9 0.872100 0.320178 0.707026
O O10 0.417067 0.753722 0.460702
O O11 0.196683 0.241160 0.426387
O O12 0.000000 0.140017 0.750000
#
# Coordination Sequence:
#
# PCOD8135163 Si02
#       6
#     8   8   8   4   8   8
#     4  11  23  42  62  88 127 165 194 253 315 363
#     4  10  19  37  63  92 118 150 212 246 298 352
#     4   9  18  37  63  84 111 162 197 255 295 348
#     4  10  24  36  64  94 120 164 202 260 288 364
#     4  11  22  39  62  89 120 167 207 242 306 367
#     4  10  20  44  58  81 129 160 199 246 312 356
#
# _framework density 19.855049000000001
#
# number of rings (size 3 to 8) (size 9 to 14) (size 15 to 20)
#    0.000    1.818    3.636    1.091    3.818    0.000 
#    4.909    2.727    0.000    0.000    0.000    0.000 
#    0.000    0.000    0.000    0.000    0.000    0.000 
#
# Total GULP energy -272819.853784 kJ/mol
# GULP energy per Si atom -12400.902445 kJ/mol
# Density = 1.980986 g / cm^3
# Si number density = 19.855049 Si / 1000 Ang^3
#
#
#
# Elastic Constant Matrix: (Units=GPa)
#
#
# Indices 1 2 3 4 5 6 
#
# 1 100.2297 23.3398 64.5649 0.0000 -2.4198 0.0000
# 2 23.3398 50.7198 47.4815 0.0000 -5.4871 0.0000
# 3 64.5649 47.4815 149.2380 0.0000 -15.1163 0.0000
# 4 0.0000 0.0000 0.0000 37.6112 0.0000 -4.5082
# 5 -2.4198 -5.4871 -15.1163 0.0000 31.9497 0.0000
# 6 0.0000 0.0000 0.0000 -4.5082 0.0000 4.7338
#
#
#
# Elastic Compliance Matrix: (Units=1/GPa)
#
#
# Indices 1 2 3 4 5 6 
#
# 1 0.013985 -0.001135 -0.005884 0.000000 -0.001919 0.000000
# 2 -0.001135 0.028184 -0.008397 0.000000 0.000782 0.000000
# 3 -0.005884 -0.008397 0.012317 0.000000 0.003940 0.000000
# 4 0.000000 0.000000 0.000000 0.030014 0.000000 0.028584
# 5 -0.001919 0.000782 0.003940 0.000000 0.033152 0.000000
# 6 0.000000 0.000000 0.000000 0.028584 0.000000 0.238471
#
#
# Mechanical properties :
#
#
# Convention : Reuss Voigt Hill
#
# Bulk Modulus (GPa) = 42.27521 63.43998 52.85759
# Shear Modulus (GPa) = 12.66343 25.84568 19.25455
#
# Velocity S-wave (km/s) = 2.52820 3.61185 3.11747
# Velocity P-wave (km/s) = 5.46448 7.02957 6.29585
#
# Compressibility (1/GPa) = 0.02365453
#
# Stress axis : x y z
#
# Youngs Moduli (GPa) = 71.50442 35.48158 81.19082
#
# Poissons Ratio (x) = 0.04028 0.47770
# Poissons Ratio (y) = 0.08117 0.68173
# Poissons Ratio (z) = 0.42071 0.29792
#
# Static dielectric constant tensor:
#      x y z
#    x 3.499440 0.000000 0.119710 
#    y 0.000000 3.632300 0.000000 
#    z 0.119710 0.000000 3.753260 
# 
# 
# High freq. dielectric constant tensor:
#      x y z
#    x 1.763240 0.000000 0.004440 
#    y 0.000000 1.764320 0.000000 
#    z 0.004440 0.000000 1.781110 
# 
# From -- ./inp_files/143037.got.cif
#   From: 2010.06.25/outbox.cif.g09.slc.cpg/sg15_72_cif.got.tgz:143037.got - 2010.06.28 07:06:18.
