data_PCOD8135951
_publ_section_title
;
Structure prediction by ZEFSAII (Michael W. Deem and Ramdas Pophale) SiO2 
 PCOD8135951
Probable space group: C 2/C
;
_chemical_formula_sum "Si O2"
_cell_formula_units_Z 44
_cell_length_a 18.954620
_cell_length_b 8.279769
_cell_length_c 14.896382
_cell_angle_alpha 90.000000
_cell_angle_beta 123.071054
_cell_angle_gamma 90.000000
_cell_volume 1959.093991
_symmetry_space_group_name_H-M "C 2/C"
_symmetry_group_IT_number 15
_symmetry_cell_setting 'monoclinic'
loop_
_space_group_symop_operation_xyz
x,y,z
-x,y,1/2-z
-x,-y,-z
x,-y,1/2+z
1/2+x,1/2+y,z
1/2-x,1/2+y,1/2-z
1/2-x,1/2-y,-z
1/2+x,1/2-y,1/2+z
loop_
_atom_site_type_symbol
_atom_site_label
_atom_site_fract_x
_atom_site_fract_y
_atom_site_fract_z
Si Si1 0.737925 0.623386 0.072295
Si Si2 0.399069 0.382973 0.496751
Si Si3 0.133149 0.636728 0.872967
Si Si4 0.000000 0.608111 0.250000
Si Si5 0.868489 0.210392 0.779213
Si Si6 0.060206 0.108697 0.209522
O O1 0.642266 0.565607 0.027745
O O2 0.778516 0.450755 0.076966
O O3 0.781966 0.701443 0.190511
O O4 0.750000 0.750000 0.000000
O O5 0.360300 0.275606 0.549266
O O6 0.377832 0.283522 0.392478
O O7 0.500818 0.395886 0.579177
O O8 0.064218 0.502049 0.851927
O O9 0.103863 0.718033 0.757606
O O10 0.949392 0.712468 0.287225
O O11 0.865728 0.022636 0.748156
O O12 0.000000 0.061323 0.250000
#
# Coordination Sequence:
#
# PCOD8135951 Si02
#       6
#     8   8   8   4   8   8
#     4  11  25  42  63  90 130 177 209 256 327 381
#     4  11  23  40  63  99 123 166 217 265 316 372
#     4  10  21  41  66  88 127 171 211 254 322 392
#     4  10  20  40  62  92 126 164 208 254 328 370
#     4  11  24  39  65  95 129 164 216 270 311 378
#     4  10  19  41  66  89 124 168 207 255 324 374
#
# _framework density 22.459363
#
# number of rings (size 3 to 8) (size 9 to 14) (size 15 to 20)
#    0.000    1.455    3.636    3.273    2.545    3.636 
#    0.000    0.000    0.000    0.000    0.000    0.000 
#    0.000    0.000    0.000    0.000    0.000    0.000 
#
# Total GULP energy -272679.834569 kJ/mol
# GULP energy per Si atom -12394.537935 kJ/mol
# Density = 2.240824 g / cm^3
# Si number density = 22.459363 Si / 1000 Ang^3
#
#
#
# Elastic Constant Matrix: (Units=GPa)
#
#
# Indices 1 2 3 4 5 6 
#
# 1 48.0681 34.5136 32.9944 0.0000 9.7890 0.0000
# 2 34.5136 122.3220 55.6171 0.0000 10.6469 0.0000
# 3 32.9944 55.6171 137.3863 0.0000 -2.7146 0.0000
# 4 0.0000 0.0000 0.0000 41.6431 0.0000 7.4914
# 5 9.7890 10.6469 -2.7146 0.0000 26.7491 0.0000
# 6 0.0000 0.0000 0.0000 7.4914 0.0000 22.8248
#
#
#
# Elastic Compliance Matrix: (Units=1/GPa)
#
#
# Indices 1 2 3 4 5 6 
#
# 1 0.030155 -0.005277 -0.005293 0.000000 -0.009472 0.000000
# 2 -0.005277 0.011490 -0.003443 0.000000 -0.002992 0.000000
# 3 -0.005293 -0.003443 0.010029 0.000000 0.004325 0.000000
# 4 0.000000 0.000000 0.000000 0.025520 0.000000 -0.008376
# 5 -0.009472 -0.002992 0.004325 0.000000 0.042480 0.000000
# 6 0.000000 0.000000 0.000000 -0.008376 0.000000 0.046561
#
#
# Mechanical properties :
#
#
# Convention : Reuss Voigt Hill
#
# Bulk Modulus (GPa) = 42.28737 61.55851 51.92294
# Shear Modulus (GPa) = 24.73467 30.55348 27.64408
#
# Velocity S-wave (km/s) = 3.32220 3.69235 3.51215
# Velocity P-wave (km/s) = 5.79528 6.75620 6.29410
#
# Compressibility (1/GPa) = 0.02364772
#
# Stress axis : x y z
#
# Youngs Moduli (GPa) = 33.16196 87.03148 99.70936
#
# Poissons Ratio (x) = 0.45930 0.52773
# Poissons Ratio (y) = 0.17501 0.34331
# Poissons Ratio (z) = 0.17552 0.29966
#
# Static dielectric constant tensor:
#      x y z
#    x 3.818570 0.000000 0.275280 
#    y 0.000000 4.191440 0.000000 
#    z 0.275280 0.000000 4.253910 
# 
# 
# High freq. dielectric constant tensor:
#      x y z
#    x 1.862770 0.000000 0.016360 
#    y 0.000000 1.894580 0.000000 
#    z 0.016360 0.000000 1.886660 
# 
# From -- ./inp_files/172091.got.cif
#   From: 2010.06.25/outbox.cif.g09.slc.cpg/sg15_87_cif.got.tgz:172091.got - 2010.06.28 07:06:18.
