data_PCOD8135564
_publ_section_title
;
Structure prediction by ZEFSAII (Michael W. Deem and Ramdas Pophale) SiO2 
 PCOD8135564
Probable space group: C 2/C
;
_chemical_formula_sum "Si O2"
_cell_formula_units_Z 60
_cell_length_a 11.307538
_cell_length_b 19.039946
_cell_length_c 24.393646
_cell_angle_alpha 90.000000
_cell_angle_beta 32.545337
_cell_angle_gamma 90.000000
_cell_volume 2825.309038
_symmetry_space_group_name_H-M "C 2/C"
_symmetry_group_IT_number 15
_symmetry_cell_setting 'monoclinic'
loop_
_space_group_symop_operation_xyz
x,y,z
-x,y,1/2-z
-x,-y,-z
x,-y,1/2+z
1/2+x,1/2+y,z
1/2-x,1/2+y,1/2-z
1/2-x,1/2-y,-z
1/2+x,1/2-y,1/2+z
loop_
_atom_site_type_symbol
_atom_site_label
_atom_site_fract_x
_atom_site_fract_y
_atom_site_fract_z
Si Si1 0.500000 0.609222 0.250000
Si Si2 0.534920 0.341392 0.956522
Si Si3 0.407834 0.091622 0.895366
Si Si4 0.737251 0.332450 0.758350
Si Si5 0.697192 0.190060 0.918576
Si Si6 0.383219 0.928917 0.532865
Si Si7 0.403303 0.061101 0.347102
Si Si8 0.174286 0.178085 0.756966
O O1 0.395573 0.657636 0.244865
O O2 0.339716 0.559020 0.346661
O O3 0.593153 0.338853 0.869562
O O4 0.607830 0.270027 0.959953
O O5 0.661937 0.404894 0.936659
O O6 0.273400 0.357407 0.062585
O O7 0.652886 0.121601 0.784849
O O8 0.386964 0.012591 0.883427
O O9 0.352336 0.087928 0.981269
O O10 0.812479 0.253504 0.720960
O O11 0.941734 0.385686 0.680074
O O12 0.760630 0.180862 0.831226
O O13 0.913789 0.163842 0.867524
O O14 0.506636 0.137468 0.011915
O O15 0.500000 0.000000 0.500000
O O16 0.500000 0.047149 0.250000
#
# Coordination Sequence:
#
# PCOD8135564 Si02
#       8
#     4   8   8   8   8   8   8   8
#     4  12  24  40  62  94 130 164 218 268 320 374
#     4  10  19  38  68  93 124 161 217 265 318 387
#     4  11  22  38  65  97 128 168 215 266 321 385
#     4  10  20  38  63  89 124 169 207 266 320 376
#     4   9  19  38  65  92 118 168 213 259 313 385
#     4  11  25  41  62  92 131 174 217 260 321 381
#     4  10  21  39  64  94 128 170 212 263 327 378
#     4   9  19  37  64  92 122 162 214 257 309 385
#
# _framework density 21.236615
#
# number of rings (size 3 to 8) (size 9 to 14) (size 15 to 20)
#    0.000    1.867    2.667    1.200    1.867    4.800 
#    1.200    0.667    0.000    0.000    0.000    0.000 
#    0.000    0.000    0.000    0.000    0.000    0.000 
#
# Total GULP energy -371717.209174 kJ/mol
# GULP energy per Si atom -12390.573639 kJ/mol
# Density = 2.118828 g / cm^3
# Si number density = 21.236615 Si / 1000 Ang^3
#
#
#
# Elastic Constant Matrix: (Units=GPa)
#
#
# Indices 1 2 3 4 5 6 
#
# 1 93.3373 49.0823 52.4964 0.0069 -33.3308 0.0135
# 2 49.0823 141.3708 54.7867 0.0266 -20.9180 0.0316
# 3 52.4964 54.7867 93.0793 0.0722 -25.0029 0.0447
# 4 0.0069 0.0266 0.0722 24.0478 0.0194 -2.3188
# 5 -33.3308 -20.9180 -25.0029 0.0194 28.9988 0.0169
# 6 0.0135 0.0316 0.0447 -2.3188 0.0169 25.1682
#
#
#
# Elastic Compliance Matrix: (Units=1/GPa)
#
#
# Indices 1 2 3 4 5 6 
#
# 1 0.021929 -0.002620 -0.005938 -0.000001 0.018195 -0.000010
# 2 -0.002620 0.009624 -0.004075 0.000002 0.000418 -0.000004
# 3 -0.005938 -0.004075 0.018048 -0.000056 0.005797 -0.000033
# 4 -0.000001 0.000002 -0.000056 0.041957 -0.000079 0.003866
# 5 0.018195 0.000418 0.005797 -0.000079 0.060696 -0.000069
# 6 -0.000010 -0.000004 -0.000033 0.003866 -0.000069 0.040089
#
#
# Mechanical properties :
#
#
# Convention : Reuss Voigt Hill
#
# Bulk Modulus (GPa) = 41.09293 71.16870 56.13081
# Shear Modulus (GPa) = 22.15118 27.07109 24.61113
#
# Velocity S-wave (km/s) = 3.23316 3.57422 3.40796
# Velocity P-wave (km/s) = 5.77319 7.11466 6.47874
#
# Compressibility (1/GPa) = 0.02433509
#
# Stress axis : x y z
#
# Youngs Moduli (GPa) = 45.60212 103.90442 55.40659
#
# Poissons Ratio (x) = 0.27222 0.32901
# Poissons Ratio (y) = 0.11947 0.22579
# Poissons Ratio (z) = 0.27079 0.42342
#
# Static dielectric constant tensor:
#      x y z
#    x 3.968110 -0.000010 -0.398020 
#    y -0.000010 3.855730 0.000080 
#    z -0.398020 0.000080 3.653490 
# 
# 
# High freq. dielectric constant tensor:
#      x y z
#    x 1.832040 0.000000 -0.021780 
#    y 0.000000 1.835120 0.000010 
#    z -0.021780 0.000010 1.822310 
# 
# From -- ./inp_files/293521.got.cif
#   From: 2010.06.25/outbox.cif.g09.slc.cpg/sg15_147_cif.got.tgz:293521.got - 2010.06.28 07:06:18.
