data_PCOD8135205
_publ_section_title
;
Structure prediction by ZEFSAII (Michael W. Deem and Ramdas Pophale) SiO2 
 PCOD8135205
Probable space group: C 2/C
;
_chemical_formula_sum "Si O2"
_cell_formula_units_Z 44
_cell_length_a 20.037085
_cell_length_b 19.275768
_cell_length_c 5.191195
_cell_angle_alpha 90.000000
_cell_angle_beta 104.934958
_cell_angle_gamma 90.000000
_cell_volume 1937.265542
_symmetry_space_group_name_H-M "C 2/C"
_symmetry_group_IT_number 15
_symmetry_cell_setting 'monoclinic'
loop_
_space_group_symop_operation_xyz
x,y,z
-x,y,1/2-z
-x,-y,-z
x,-y,1/2+z
1/2+x,1/2+y,z
1/2-x,1/2+y,1/2-z
1/2-x,1/2-y,-z
1/2+x,1/2-y,1/2+z
loop_
_atom_site_type_symbol
_atom_site_label
_atom_site_fract_x
_atom_site_fract_y
_atom_site_fract_z
Si Si1 0.879951 0.660925 0.145385
Si Si2 0.788421 0.676218 0.554552
Si Si3 0.000000 0.548479 0.250000
Si Si4 0.082104 0.113814 0.331812
Si Si5 0.708793 0.538814 0.468596
Si Si6 0.076676 0.188249 0.827132
O O1 0.845533 0.666115 0.390966
O O2 0.930527 0.594843 0.177799
O O3 0.925474 0.729324 0.154614
O O4 0.822435 0.662062 0.866123
O O5 0.750000 0.750000 0.500000
O O6 0.731903 0.617418 0.457900
O O7 0.000000 0.500000 0.500000
O O8 0.124332 0.041264 0.384324
O O9 0.110225 0.160469 0.597805
O O10 0.000000 0.099800 0.250000
O O11 0.111301 0.155142 0.112941
O O12 0.737560 0.506087 0.759981
O O13 0.000000 0.159108 0.750000
#
# Coordination Sequence:
#
# PCOD8135205 Si02
#       6
#     8   8   4   8   8   8
#     4  12  24  44  70  97 136 179 227 295 351 416
#     4  12  27  45  72 103 137 184 237 291 353 426
#     4  12  28  46  68 104 144 190 246 300 360 438
#     4  10  22  39  65  96 129 170 209 269 326 397
#     4  12  26  44  65  94 134 175 223 272 332 408
#     4  10  19  37  64  96 128 157 211 269 335 381
#
# _framework density 22.712425
#
# number of rings (size 3 to 8) (size 9 to 14) (size 15 to 20)
#    0.000    0.727    0.909    7.091    0.000    5.091 
#    0.000    0.000    0.000    0.000    0.000    0.000 
#    0.000    0.000    0.000    0.000    0.000    0.000 
#
# Total GULP energy -272721.603388 kJ/mol
# GULP energy per Si atom -12396.436518 kJ/mol
# Density = 2.266073 g / cm^3
# Si number density = 22.712425 Si / 1000 Ang^3
#
#
#
# Elastic Constant Matrix: (Units=GPa)
#
#
# Indices 1 2 3 4 5 6 
#
# 1 71.4629 37.1668 24.2865 0.0000 1.7573 0.0000
# 2 37.1668 113.3759 35.1995 0.0000 3.9606 0.0000
# 3 24.2865 35.1995 143.0852 0.0000 -19.9530 0.0000
# 4 0.0000 0.0000 0.0000 38.3626 0.0000 6.1462
# 5 1.7573 3.9606 -19.9530 0.0000 25.2832 0.0000
# 6 0.0000 0.0000 0.0000 6.1462 0.0000 39.4326
#
#
#
# Elastic Compliance Matrix: (Units=1/GPa)
#
#
# Indices 1 2 3 4 5 6 
#
# 1 0.017313 -0.004988 -0.001989 0.000000 -0.001992 0.000000
# 2 -0.004988 0.011317 -0.002400 0.000000 -0.003320 0.000000
# 3 -0.001989 -0.002400 0.008977 0.000000 0.007598 0.000000
# 4 0.000000 0.000000 0.000000 0.026735 0.000000 -0.004167
# 5 -0.001992 -0.003320 0.007598 0.000000 0.046207 0.000000
# 6 0.000000 0.000000 0.000000 -0.004167 0.000000 0.026009
#
#
# Mechanical properties :
#
#
# Convention : Reuss Voigt Hill
#
# Bulk Modulus (GPa) = 53.04925 57.91439 55.48182
# Shear Modulus (GPa) = 30.94148 36.03377 33.48763
#
# Velocity S-wave (km/s) = 3.69496 3.98744 3.84398
# Velocity P-wave (km/s) = 6.45068 6.83768 6.64700
#
# Compressibility (1/GPa) = 0.01885041
#
# Stress axis : x y z
#
# Youngs Moduli (GPa) = 57.76150 88.36540 111.40173
#
# Poissons Ratio (x) = 0.44079 0.22160
# Poissons Ratio (y) = 0.28813 0.26739
# Poissons Ratio (z) = 0.11490 0.21210
#
# Static dielectric constant tensor:
#      x y z
#    x 4.329610 0.000000 -0.577410 
#    y 0.000000 4.034930 0.000000 
#    z -0.577410 0.000000 5.169920 
# 
# 
# High freq. dielectric constant tensor:
#      x y z
#    x 1.897430 0.000000 -0.007000 
#    y 0.000000 1.897960 0.000000 
#    z -0.007000 0.000000 1.918440 
# 
# From -- ./inp_files/12966.got.cif
#   From: 2010.06.25/outbox.cif.g09.slc.cpg/sg15_7_cif.got.tgz:12966.got - 2010.06.28 07:06:18.
