data_PCOD8135069
_publ_section_title
;
Structure prediction by ZEFSAII (Michael W. Deem and Ramdas Pophale) SiO2 
 PCOD8135069
Probable space group: C 2/C
;
_chemical_formula_sum "Si O2"
_cell_formula_units_Z 64
_cell_length_a 12.098719
_cell_length_b 21.103594
_cell_length_c 24.173098
_cell_angle_alpha 90.000000
_cell_angle_beta 146.961740
_cell_angle_gamma 90.000000
_cell_volume 3364.985011
_symmetry_space_group_name_H-M "C 2/C"
_symmetry_group_IT_number 15
_symmetry_cell_setting 'monoclinic'
loop_
_space_group_symop_operation_xyz
x,y,z
-x,y,1/2-z
-x,-y,-z
x,-y,1/2+z
1/2+x,1/2+y,z
1/2-x,1/2+y,1/2-z
1/2-x,1/2-y,-z
1/2+x,1/2-y,1/2+z
loop_
_atom_site_type_symbol
_atom_site_label
_atom_site_fract_x
_atom_site_fract_y
_atom_site_fract_z
Si Si1 0.360234 0.800657 0.239861
Si Si2 0.770522 0.743655 0.135375
Si Si3 0.488164 0.648017 0.528949
Si Si4 0.790169 0.884130 0.131201
Si Si5 0.458845 0.284220 0.601899
Si Si6 0.350390 0.413713 0.515165
Si Si7 0.392701 0.911350 0.335454
Si Si8 0.015159 0.044257 0.882715
O O1 0.500000 0.829361 0.250000
O O2 0.450134 0.733461 0.299025
O O3 0.364412 0.842149 0.297302
O O4 0.136804 0.799925 0.119881
O O5 0.734662 0.811872 0.089998
O O6 0.623589 0.735607 0.125834
O O7 0.000000 0.733024 0.250000
O O8 0.714422 0.687142 0.069659
O O9 0.586858 0.612576 0.518153
O O10 0.434724 0.593369 0.548558
O O11 0.623691 0.909289 0.104773
O O12 0.000000 0.875686 0.250000
O O13 0.820456 0.935841 0.095341
O O14 0.250000 0.250000 0.500000
O O15 0.404978 0.358592 0.581720
O O16 0.468982 0.474696 0.585818
O O17 0.116056 0.435549 0.414656
O O18 0.216529 0.955059 0.235950
#
# Coordination Sequence:
#
# PCOD8135069 Si02
#       8
#     8   8   8   8   8   8   8   8
#     4  11  18  34  60  93 110 145 202 253 305 357
#     4  10  20  37  59  86 123 161 194 256 320 361
#     4  10  22  37  58  87 120 155 205 252 300 370
#     4   9  18  36  58  81 113 157 200 236 294 372
#     4  11  20  37  64  90 117 154 206 256 313 370
#     4  11  21  40  59  84 122 162 201 253 308 357
#     4  10  19  37  61  80 114 157 199 243 299 362
#     4  10  23  37  56  87 118 163 207 240 293 377
#
# _framework density 19.019401999999999
#
# number of rings (size 3 to 8) (size 9 to 14) (size 15 to 20)
#    0.000    1.750    3.750    1.125    1.750    1.000 
#    4.500    1.875    0.000    0.000    0.000    0.000 
#    0.000    0.000    0.000    0.000    0.000    0.000 
#
# Total GULP energy -396523.553251 kJ/mol
# GULP energy per Si atom -12391.361039 kJ/mol
# Density = 1.897611 g / cm^3
# Si number density = 19.019402 Si / 1000 Ang^3
#
#
#
# Elastic Constant Matrix: (Units=GPa)
#
#
# Indices 1 2 3 4 5 6 
#
# 1 80.2381 15.3180 33.0647 -0.0004 -9.5198 0.0005
# 2 15.3180 76.3072 47.8313 -0.0004 -25.7558 0.0004
# 3 33.0647 47.8313 101.5227 -0.0014 -3.1977 0.0015
# 4 -0.0004 -0.0004 -0.0014 22.7105 -0.0005 -2.5774
# 5 -9.5198 -25.7558 -3.1977 -0.0005 26.8720 -0.0001
# 6 0.0005 0.0004 0.0015 -2.5774 -0.0001 12.6132
#
#
#
# Elastic Compliance Matrix: (Units=1/GPa)
#
#
# Indices 1 2 3 4 5 6 
#
# 1 0.015432 0.003852 -0.006577 0.000000 0.008376 0.000000
# 2 0.003852 0.032401 -0.015557 0.000000 0.030568 0.000001
# 3 -0.006577 -0.015557 0.018849 0.000000 -0.014998 -0.000002
# 4 0.000000 0.000000 0.000000 0.045078 0.000001 0.009211
# 5 0.008376 0.030568 -0.014998 0.000001 0.067695 0.000001
# 6 0.000000 0.000001 -0.000002 0.009211 0.000001 0.081164
#
#
# Mechanical properties :
#
#
# Convention : Reuss Voigt Hill
#
# Bulk Modulus (GPa) = 33.20296 50.05510 41.62903
# Shear Modulus (GPa) = 16.27487 23.22939 19.75213
#
# Velocity S-wave (km/s) = 2.92841 3.49858 3.22611
# Velocity P-wave (km/s) = 5.37861 6.53415 5.98433
#
# Compressibility (1/GPa) = 0.03011779
#
# Stress axis : x y z
#
# Youngs Moduli (GPa) = 64.80236 30.86329 53.05270
#
# Poissons Ratio (x) = -0.11889 0.34892
# Poissons Ratio (y) = -0.24962 0.82535
# Poissons Ratio (z) = 0.42620 0.48014
#
# Static dielectric constant tensor:
#      x y z
#    x 3.887540 0.000000 -0.021770 
#    y 0.000000 3.419690 0.000000 
#    z -0.021770 0.000000 3.571510 
# 
# 
# High freq. dielectric constant tensor:
#      x y z
#    x 1.746380 0.000000 0.004180 
#    y 0.000000 1.721290 0.000000 
#    z 0.004180 0.000000 1.732970 
# 
# From -- ./inp_files/293761.got.cif
#   From: 2010.06.25/outbox.cif.g09.slc.cpg/sg15_147_cif.got.tgz:293761.got - 2010.06.28 07:06:18.
