data_PCOD8135546
_publ_section_title
;
Structure prediction by ZEFSAII (Michael W. Deem and Ramdas Pophale) SiO2 
 PCOD8135546
Probable space group: C 2/C
;
_chemical_formula_sum "Si O2"
_cell_formula_units_Z 48
_cell_length_a 13.531858
_cell_length_b 22.220247
_cell_length_c 11.148588
_cell_angle_alpha 90.000000
_cell_angle_beta 138.155238
_cell_angle_gamma 90.000000
_cell_volume 2236.282516
_symmetry_space_group_name_H-M "C 2/C"
_symmetry_group_IT_number 15
_symmetry_cell_setting 'monoclinic'
loop_
_space_group_symop_operation_xyz
x,y,z
-x,y,1/2-z
-x,-y,-z
x,-y,1/2+z
1/2+x,1/2+y,z
1/2-x,1/2+y,1/2-z
1/2-x,1/2-y,-z
1/2+x,1/2-y,1/2+z
loop_
_atom_site_type_symbol
_atom_site_label
_atom_site_fract_x
_atom_site_fract_y
_atom_site_fract_z
Si Si1 0.472337 0.717555 0.981221
Si Si2 0.884035 0.891154 0.987886
Si Si3 0.500000 0.355003 0.750000
Si Si4 0.000000 0.377283 0.250000
Si Si5 0.754261 0.431988 0.879507
Si Si6 0.799156 0.071337 0.668579
Si Si7 0.656412 0.826926 0.182200
O O1 0.573826 0.679229 0.981999
O O2 0.299817 0.714794 0.793288
O O3 0.492373 0.688606 0.130121
O O4 0.517967 0.787326 0.010032
O O5 0.802840 0.901088 0.039305
O O6 0.040301 0.927239 0.121551
O O7 0.775092 0.912152 0.783649
O O8 0.639160 0.400111 0.865612
O O9 0.875354 0.338068 0.205478
O O10 0.080580 0.415194 0.427680
O O11 0.750112 0.503259 0.884703
O O12 0.677890 0.109913 0.632650
#
# Coordination Sequence:
#
# PCOD8135546 Si02
#       7
#     8   8   4   4   8   8   8
#     4  10  22  39  65  94 131 168 223 270 327 388
#     4   9  21  41  69  98 126 175 225 265 323 391
#     4  10  19  38  66  98 120 177 222 274 324 380
#     4  12  27  42  62 100 138 169 216 274 344 386
#     4  11  23  40  69  98 136 171 219 272 333 392
#     4  10  22  43  68  97 133 171 222 272 327 394
#     4  11  25  42  64  96 131 177 218 276 328 390
#
# _framework density 21.464193000000002
#
# number of rings (size 3 to 8) (size 9 to 14) (size 15 to 20)
#    0.000    1.667    1.667    2.000    7.000    2.667 
#    0.000    0.000    0.000    0.000    0.000    0.000 
#    0.000    0.000    0.000    0.000    0.000    0.000 
#
# Total GULP energy -297560.283763 kJ/mol
# GULP energy per Si atom -12398.345157 kJ/mol
# Density = 2.141534 g / cm^3
# Si number density = 21.464193 Si / 1000 Ang^3
#
#
#
# Elastic Constant Matrix: (Units=GPa)
#
#
# Indices 1 2 3 4 5 6 
#
# 1 111.2452 38.8883 26.2615 0.0000 -7.4836 0.0000
# 2 38.8883 93.1159 20.6812 0.0000 3.5717 0.0000
# 3 26.2615 20.6812 114.2445 0.0000 -5.2225 0.0000
# 4 0.0000 0.0000 0.0000 26.2124 0.0000 3.5655
# 5 -7.4836 3.5717 -5.2225 0.0000 22.3006 0.0000
# 6 0.0000 0.0000 0.0000 3.5655 0.0000 23.1895
#
#
#
# Elastic Compliance Matrix: (Units=1/GPa)
#
#
# Indices 1 2 3 4 5 6 
#
# 1 0.011206 -0.004488 -0.001576 0.000000 0.004110 0.000000
# 2 -0.004488 0.013103 -0.001521 0.000000 -0.003961 0.000000
# 3 -0.001576 -0.001521 0.009479 0.000000 0.001935 0.000000
# 4 0.000000 0.000000 0.000000 0.038965 0.000000 -0.005991
# 5 0.004110 -0.003961 0.001935 0.000000 0.047309 0.000000
# 6 0.000000 0.000000 0.000000 -0.005991 0.000000 0.044044
#
#
# Mechanical properties :
#
#
# Convention : Reuss Voigt Hill
#
# Bulk Modulus (GPa) = 53.70866 54.47415 54.09141
# Shear Modulus (GPa) = 26.95657 29.85880 28.40769
#
# Velocity S-wave (km/s) = 3.54769 3.73379 3.64193
# Velocity P-wave (km/s) = 6.46980 6.63494 6.55289
#
# Compressibility (1/GPa) = 0.01861897
#
# Stress axis : x y z
#
# Youngs Moduli (GPa) = 89.23404 76.31577 105.49360
#
# Poissons Ratio (x) = 0.34250 0.16623
# Poissons Ratio (y) = 0.40047 0.16051
# Poissons Ratio (z) = 0.14061 0.11611
#
# Static dielectric constant tensor:
#      x y z
#    x 3.913300 0.000000 -0.031100 
#    y 0.000000 3.815930 0.000000 
#    z -0.031100 0.000000 3.834730 
# 
# 
# High freq. dielectric constant tensor:
#      x y z
#    x 1.842300 0.000000 -0.000420 
#    y 0.000000 1.840850 0.000000 
#    z -0.000420 0.000000 1.833850 
# 
# From -- ./inp_files/100101.got.cif
#   From: 2010.06.25/outbox.cif.g09.slc.cpg/sg15_51_cif.got.tgz:100101.got - 2010.06.28 07:06:18.
