data_PCOD8135879
_publ_section_title
;
Structure prediction by ZEFSAII (Michael W. Deem and Ramdas Pophale) SiO2 
 PCOD8135879
Probable space group: C 2/C
;
_chemical_formula_sum "Si O2"
_cell_formula_units_Z 48
_cell_length_a 18.417605
_cell_length_b 28.416630
_cell_length_c 10.742025
_cell_angle_alpha 90.000000
_cell_angle_beta 157.536885
_cell_angle_gamma 90.000000
_cell_volume 2148.107231
_symmetry_space_group_name_H-M "C 2/C"
_symmetry_group_IT_number 15
_symmetry_cell_setting 'monoclinic'
loop_
_space_group_symop_operation_xyz
x,y,z
-x,y,1/2-z
-x,-y,-z
x,-y,1/2+z
1/2+x,1/2+y,z
1/2-x,1/2+y,1/2-z
1/2-x,1/2-y,-z
1/2+x,1/2-y,1/2+z
loop_
_atom_site_type_symbol
_atom_site_label
_atom_site_fract_x
_atom_site_fract_y
_atom_site_fract_z
Si Si1 0.324700 0.379427 0.799415
Si Si2 0.354268 0.943444 0.171473
Si Si3 0.085195 0.363493 0.647840
Si Si4 0.500000 0.976273 0.750000
Si Si5 0.845867 0.297776 0.111844
Si Si6 0.000000 0.084685 0.250000
Si Si7 0.791289 0.103097 0.692548
O O1 0.170270 0.416423 0.500520
O O2 0.270205 0.364491 0.852493
O O3 0.314092 0.333361 0.693096
O O4 0.534100 0.402143 0.128021
O O5 0.479114 0.913509 0.466301
O O6 0.461209 0.992451 0.312450
O O7 0.142213 0.948539 0.895217
O O8 0.949185 0.320200 0.397096
O O9 0.145483 0.361283 0.890175
O O10 0.308852 0.946047 0.431787
O O11 0.000000 0.287918 0.250000
O O12 0.750000 0.250000 0.000000
O O13 0.119202 0.119391 0.532774
#
# Coordination Sequence:
#
# PCOD8135879 Si02
#       7
#     8   8   8   4   8   4   8
#     4   9  19  40  65  91 130 168 214 258 329 392
#     4  10  20  42  61  87 124 172 218 273 323 381
#     4  10  19  40  68  90 132 170 215 258 335 389
#     4  12  24  42  62  92 129 172 229 278 324 386
#     4   9  19  40  70 105 130 170 206 253 325 409
#     4  10  24  40  56  84 125 164 231 272 330 376
#     4  11  24  38  58  92 124 174 217 272 321 375
#
# _framework density 22.345253
#
# number of rings (size 3 to 8) (size 9 to 14) (size 15 to 20)
#    0.000    2.000    1.667    2.500    0.000    5.333 
#   19.500    0.833    0.000    0.000    0.000    0.000 
#    0.000    0.000    0.000    0.000    0.000    0.000 
#
# Total GULP energy -297331.131847 kJ/mol
# GULP energy per Si atom -12388.797160 kJ/mol
# Density = 2.229439 g / cm^3
# Si number density = 22.345253 Si / 1000 Ang^3
#
#
#
# Elastic Constant Matrix: (Units=GPa)
#
#
# Indices 1 2 3 4 5 6 
#
# 1 108.5487 49.8491 61.4976 0.0000 -5.7666 0.0000
# 2 49.8491 112.3695 61.7991 -0.0001 8.1858 0.0000
# 3 61.4976 61.7991 128.6388 -0.0001 -16.5984 -0.0002
# 4 0.0000 -0.0001 -0.0001 22.4811 -0.0001 17.4082
# 5 -5.7666 8.1858 -16.5984 -0.0001 54.2373 -0.0001
# 6 0.0000 0.0000 -0.0002 17.4082 -0.0001 33.6571
#
#
#
# Elastic Compliance Matrix: (Units=1/GPa)
#
#
# Indices 1 2 3 4 5 6 
#
# 1 0.013496 -0.003411 -0.004749 0.000000 0.000496 0.000000
# 2 -0.003411 0.013738 -0.005500 0.000000 -0.004119 0.000000
# 3 -0.004749 -0.005500 0.013252 0.000000 0.004381 0.000000
# 4 0.000000 0.000000 0.000000 0.074199 0.000000 -0.038377
# 5 0.000496 -0.004119 0.004381 0.000000 0.020453 0.000000
# 6 0.000000 0.000000 0.000000 -0.038377 0.000000 0.049561
#
#
# Mechanical properties :
#
#
# Convention : Reuss Voigt Hill
#
# Bulk Modulus (GPa) = 75.96603 77.31653 76.64128
# Shear Modulus (GPa) = 23.10457 33.83585 28.47021
#
# Velocity S-wave (km/s) = 3.21905 3.89553 3.57333
# Velocity P-wave (km/s) = 6.92002 7.41010 7.16925
#
# Compressibility (1/GPa) = 0.01316378
#
# Stress axis : x y z
#
# Youngs Moduli (GPa) = 74.09599 72.79280 75.46224
#
# Poissons Ratio (x) = 0.24833 0.35837
# Poissons Ratio (y) = 0.25277 0.41506
# Poissons Ratio (z) = 0.35188 0.40038
#
# Static dielectric constant tensor:
#      x y z
#    x 4.284300 0.000000 0.097290 
#    y 0.000000 3.557040 0.000000 
#    z 0.097290 0.000000 4.208990 
# 
# 
# High freq. dielectric constant tensor:
#      x y z
#    x 1.904310 0.000000 0.010600 
#    y 0.000000 1.816010 0.000000 
#    z 0.010600 0.000000 1.891820 
# 
# From -- ./inp_files/115076.got.cif
#   From: 2010.06.25/outbox.cif.g09.slc.cpg/sg15_58_cif.got.tgz:115076.got - 2010.06.28 07:06:18.
