data_PCOD8135903
_publ_section_title
;
Structure prediction by ZEFSAII (Michael W. Deem and Ramdas Pophale) SiO2 
 PCOD8135903
Probable space group: C 2/C
;
_chemical_formula_sum "Si O2"
_cell_formula_units_Z 48
_cell_length_a 7.626499
_cell_length_b 13.496465
_cell_length_c 25.460478
_cell_angle_alpha 90.000000
_cell_angle_beta 51.980789
_cell_angle_gamma 90.000000
_cell_volume 2064.572507
_symmetry_space_group_name_H-M "C 2/C"
_symmetry_group_IT_number 15
_symmetry_cell_setting 'monoclinic'
loop_
_space_group_symop_operation_xyz
x,y,z
-x,y,1/2-z
-x,-y,-z
x,-y,1/2+z
1/2+x,1/2+y,z
1/2-x,1/2+y,1/2-z
1/2-x,1/2-y,-z
1/2+x,1/2-y,1/2+z
loop_
_atom_site_type_symbol
_atom_site_label
_atom_site_fract_x
_atom_site_fract_y
_atom_site_fract_z
Si Si1 0.526068 0.899422 0.166718
Si Si2 0.473211 0.446158 0.424851
Si Si3 0.000000 0.751005 0.250000
Si Si4 0.383860 0.892489 0.688477
Si Si5 0.500000 0.731852 0.250000
Si Si6 0.368838 0.637393 0.054459
Si Si7 0.815841 0.344893 0.107103
O O1 0.423704 0.805225 0.216273
O O2 0.518623 0.890141 0.104073
O O3 0.779797 0.913900 0.138734
O O4 0.365515 0.993103 0.209496
O O5 0.475650 0.562605 0.440118
O O6 0.402632 0.378911 0.486867
O O7 0.293926 0.425214 0.411960
O O8 0.155075 0.674155 0.252725
O O9 0.131784 0.817466 0.184353
O O10 0.184656 0.843816 0.690995
O O11 0.612107 0.880322 0.615249
O O12 0.421564 0.751411 0.057456
#
# Coordination Sequence:
#
# PCOD8135903 Si02
#       7
#     8   8   4   8   4   8   8
#     4  11  24  40  63  97 127 171 225 265 336 400
#     4  10  22  43  68  92 130 176 217 274 331 397
#     4  10  19  41  56  82 126 164 211 269 322 386
#     4  10  22  41  64  89 129 170 217 273 330 401
#     4  12  23  43  62  94 138 176 219 283 332 402
#     4   9  21  43  66  93 131 173 216 274 337 384
#     4  11  22  38  64  94 126 169 221 267 328 397
#
# _framework density 23.249365999999998
#
# number of rings (size 3 to 8) (size 9 to 14) (size 15 to 20)
#    0.000    1.667    1.667    3.000    0.000    2.667 
#    3.000    7.500    0.000    0.000    0.000    0.000 
#    0.000    0.000    0.000    0.000    0.000    0.000 
#
# Total GULP energy -297376.561773 kJ/mol
# GULP energy per Si atom -12390.690074 kJ/mol
# Density = 2.319645 g / cm^3
# Si number density = 23.249366 Si / 1000 Ang^3
#
#
#
# Elastic Constant Matrix: (Units=GPa)
#
#
# Indices 1 2 3 4 5 6 
#
# 1 89.8985 41.0266 10.9519 0.0005 24.4682 0.0001
# 2 41.0266 106.2914 23.0366 0.0001 -5.5573 0.0003
# 3 10.9519 23.0366 68.0771 -0.0004 17.5291 0.0006
# 4 0.0005 0.0001 -0.0004 25.1228 -0.0001 3.7402
# 5 24.4682 -5.5573 17.5291 -0.0001 27.0763 -0.0001
# 6 0.0001 0.0003 0.0006 3.7402 -0.0001 35.4961
#
#
#
# Elastic Compliance Matrix: (Units=1/GPa)
#
#
# Indices 1 2 3 4 5 6 
#
# 1 0.023731 -0.012383 0.007859 0.000000 -0.029074 0.000000
# 2 -0.012383 0.017255 -0.009169 0.000000 0.020668 0.000000
# 3 0.007859 -0.009169 0.022610 0.000000 -0.023621 0.000000
# 4 0.000000 0.000000 0.000000 0.040439 0.000000 -0.004261
# 5 -0.029074 0.020668 -0.023621 0.000000 0.082740 0.000001
# 6 0.000000 0.000000 0.000000 -0.004261 0.000001 0.028621
#
#
# Mechanical properties :
#
#
# Convention : Reuss Voigt Hill
#
# Bulk Modulus (GPa) = 27.61641 46.03303 36.82472
# Shear Modulus (GPa) = 19.61925 30.15583 24.88754
#
# Velocity S-wave (km/s) = 2.90808 3.60538 3.27534
# Velocity P-wave (km/s) = 4.81457 6.09708 5.49338
#
# Compressibility (1/GPa) = 0.03621035
#
# Stress axis : x y z
#
# Youngs Moduli (GPa) = 42.13945 57.95279 44.22889
#
# Poissons Ratio (x) = 0.71763 -0.34759
# Poissons Ratio (y) = 0.52181 0.40552
# Poissons Ratio (z) = -0.33117 0.53135
#
# Static dielectric constant tensor:
#      x y z
#    x 4.355250 0.000000 0.198450 
#    y 0.000000 4.602980 0.000000 
#    z 0.198450 0.000000 3.945470 
# 
# 
# High freq. dielectric constant tensor:
#      x y z
#    x 1.913680 0.000000 0.007080 
#    y 0.000000 1.930810 0.000000 
#    z 0.007080 0.000000 1.904500 
# 
# From -- ./inp_files/287557.got.cif
#   From: 2010.06.25/outbox.cif.g09.slc.cpg/sg15_144_cif.got.tgz:287557.got - 2010.06.28 07:06:18.
