data_PCOD8135343
_publ_section_title
;
Structure prediction by ZEFSAII (Michael W. Deem and Ramdas Pophale) SiO2 
 PCOD8135343
Probable space group: C 2/C
;
_chemical_formula_sum "Si O2"
_cell_formula_units_Z 48
_cell_length_a 12.899783
_cell_length_b 29.794890
_cell_length_c 5.751165
_cell_angle_alpha 90.000000
_cell_angle_beta 97.317186
_cell_angle_gamma 90.000000
_cell_volume 2192.445307
_symmetry_space_group_name_H-M "C 2/C"
_symmetry_group_IT_number 15
_symmetry_cell_setting 'monoclinic'
loop_
_space_group_symop_operation_xyz
x,y,z
-x,y,1/2-z
-x,-y,-z
x,-y,1/2+z
1/2+x,1/2+y,z
1/2-x,1/2+y,1/2-z
1/2-x,1/2-y,-z
1/2+x,1/2-y,1/2+z
loop_
_atom_site_type_symbol
_atom_site_label
_atom_site_fract_x
_atom_site_fract_y
_atom_site_fract_z
Si Si1 0.828401 0.110418 0.524665
Si Si2 0.000000 0.329393 0.250000
Si Si3 0.652925 0.209005 0.138144
Si Si4 0.119859 0.017630 0.788012
Si Si5 0.604079 0.125538 0.403709
Si Si6 0.000000 0.854039 0.750000
Si Si7 0.154688 0.809716 0.119025
O O1 0.868041 0.071417 0.707324
O O2 0.710984 0.097285 0.397911
O O3 0.817648 0.156270 0.666591
O O4 0.907862 0.114721 0.330105
O O5 0.920738 0.366140 0.335542
O O6 0.061853 0.294978 0.425372
O O7 0.623564 0.176875 0.337309
O O8 0.653077 0.260069 0.230731
O O9 0.762306 0.191551 0.066120
O O10 0.000000 0.002326 0.750000
O O11 0.169294 0.000389 0.552507
O O12 0.500000 0.104380 0.250000
O O13 0.955819 0.823633 0.527488
#
# Coordination Sequence:
#
# PCOD8135343 Si02
#       7
#     8   4   8   8   8   4   8
#     4  12  25  42  65  94 130 164 218 269 337 397
#     4  10  19  38  60  80 114 172 220 268 304 370
#     4  10  21  37  58  83 124 172 224 265 319 371
#     4  10  24  44  72 102 136 176 215 267 338 420
#     4  10  22  40  62  88 120 168 219 268 309 378
#     4  12  25  38  58  94 128 174 204 276 328 396
#     4  11  23  37  56  89 125 173 212 271 322 384
#
# _framework density 21.893360999999999
#
# number of rings (size 3 to 8) (size 9 to 14) (size 15 to 20)
#    0.000    1.333    3.333    2.000    5.833    6.000 
#    0.000    0.000    0.000    1.000    0.000    0.000 
#    0.000    0.000    0.000    0.000    0.000    0.000 
#
# Total GULP energy -297352.891307 kJ/mol
# GULP energy per Si atom -12389.703804 kJ/mol
# Density = 2.184353 g / cm^3
# Si number density = 21.893361 Si / 1000 Ang^3
#
#
#
# Elastic Constant Matrix: (Units=GPa)
#
#
# Indices 1 2 3 4 5 6 
#
# 1 121.4040 12.3066 23.8352 0.0000 -3.1009 0.0000
# 2 12.3066 62.5645 26.8334 0.0000 -1.1383 0.0000
# 3 23.8352 26.8334 98.2903 0.0000 -4.0760 0.0000
# 4 0.0000 0.0000 0.0000 29.3069 0.0000 3.1739
# 5 -3.1009 -1.1383 -4.0760 0.0000 22.3799 0.0000
# 6 0.0000 0.0000 0.0000 3.1739 0.0000 15.3156
#
#
#
# Elastic Compliance Matrix: (Units=1/GPa)
#
#
# Indices 1 2 3 4 5 6 
#
# 1 0.008710 -0.000914 -0.001828 0.000000 0.000827 0.000000
# 2 -0.000914 0.018199 -0.004749 0.000000 -0.000066 0.000000
# 3 -0.001828 -0.004749 0.011984 0.000000 0.001688 0.000000
# 4 0.000000 0.000000 0.000000 0.034905 0.000000 -0.007233
# 5 0.000827 -0.000066 0.001688 0.000000 0.045102 0.000000
# 6 0.000000 0.000000 0.000000 -0.007233 0.000000 0.066792
#
#
# Mechanical properties :
#
#
# Convention : Reuss Voigt Hill
#
# Bulk Modulus (GPa) = 41.82497 45.35659 43.59078
# Shear Modulus (GPa) = 23.96421 28.01938 25.99179
#
# Velocity S-wave (km/s) = 3.31205 3.58133 3.44931
# Velocity P-wave (km/s) = 5.81133 6.15331 5.98477
#
# Compressibility (1/GPa) = 0.02390916
#
# Stress axis : x y z
#
# Youngs Moduli (GPa) = 114.81468 54.94778 83.44536
#
# Poissons Ratio (x) = 0.05023 0.15256
# Poissons Ratio (y) = 0.10495 0.39632
# Poissons Ratio (z) = 0.20991 0.26097
#
# Static dielectric constant tensor:
#      x y z
#    x 4.317600 0.000000 0.014720 
#    y 0.000000 3.534760 0.000000 
#    z 0.014720 0.000000 4.059500 
# 
# 
# High freq. dielectric constant tensor:
#      x y z
#    x 1.865880 0.000000 -0.003720 
#    y 0.000000 1.818150 0.000000 
#    z -0.003720 0.000000 1.866590 
# 
# From -- ./inp_files/8773.got.cif
#   From: 2010.06.25/outbox.cif.g09.slc.cpg/sg15_5_cif.got.tgz:8773.got - 2010.06.28 07:06:18.
