data_PCOD8135031
_publ_section_title
;
Structure prediction by ZEFSAII (Michael W. Deem and Ramdas Pophale) SiO2 
 PCOD8135031
Probable space group: C 2/C
;
_chemical_formula_sum "Si O2"
_cell_formula_units_Z 64
_cell_length_a 12.239161
_cell_length_b 33.342897
_cell_length_c 8.373400
_cell_angle_alpha 90.000000
_cell_angle_beta 124.180683
_cell_angle_gamma 90.000000
_cell_volume 2826.858749
_symmetry_space_group_name_H-M "C 2/C"
_symmetry_group_IT_number 15
_symmetry_cell_setting 'monoclinic'
loop_
_space_group_symop_operation_xyz
x,y,z
-x,y,1/2-z
-x,-y,-z
x,-y,1/2+z
1/2+x,1/2+y,z
1/2-x,1/2+y,1/2-z
1/2-x,1/2-y,-z
1/2+x,1/2-y,1/2+z
loop_
_atom_site_type_symbol
_atom_site_label
_atom_site_fract_x
_atom_site_fract_y
_atom_site_fract_z
Si Si1 0.883321 0.888144 0.030270
Si Si2 0.554631 0.830544 0.465822
Si Si3 0.208666 0.802967 0.640832
Si Si4 0.805490 0.984725 0.414496
Si Si5 0.556508 0.925377 0.470955
Si Si6 0.139959 0.053527 0.244378
Si Si7 0.179265 0.552061 0.516555
Si Si8 0.101709 0.727260 0.460960
O O1 0.749392 0.909805 0.986292
O O2 0.000000 0.896040 0.250000
O O3 0.872107 0.841779 0.979379
O O4 0.920437 0.907166 0.887320
O O5 0.500000 0.816849 0.250000
O O6 0.697001 0.811634 0.630411
O O7 0.566230 0.877745 0.489479
O O8 0.449906 0.813651 0.503840
O O9 0.121507 0.763169 0.609074
O O10 0.270315 0.788363 0.524797
O O11 0.901705 0.956736 0.606152
O O12 0.739694 0.953160 0.242666
O O13 0.897941 0.015985 0.398236
O O14 0.700349 0.010895 0.434698
O O15 0.500000 0.938167 0.250000
O O16 0.699656 0.944346 0.610957
O O17 0.473880 0.939660 0.561461
O O18 0.000000 0.745248 0.250000
#
# Coordination Sequence:
#
# PCOD8135031 Si02
#       8
#     8   8   8   8   8   8   8   8
#     4  11  23  39  59  82 110 152 205 248 292 340
#     4  10  21  35  55  89 120 155 187 231 300 352
#     4  10  19  37  60  83 114 150 195 245 281 345
#     4   9  20  36  56  83 118 148 192 235 297 353
#     4  11  20  33  59  87 122 154 186 236 294 358
#     4  10  20  37  55  84 116 152 190 240 288 352
#     4  10  21  36  56  84 115 149 192 239 292 354
#     4   9  19  35  59  87 117 151 191 234 290 346
#
# _framework density 22.639972
#
# number of rings (size 3 to 8) (size 9 to 14) (size 15 to 20)
#    0.000    2.000    2.500    1.125    0.000    5.500 
#    0.000   10.625    0.000    1.500    0.000    0.000 
#    0.000    0.000    0.000    0.000    0.000    0.000 
#
# Total GULP energy -396423.176467 kJ/mol
# GULP energy per Si atom -12388.224265 kJ/mol
# Density = 2.258844 g / cm^3
# Si number density = 22.639972 Si / 1000 Ang^3
#
#
#
# Elastic Constant Matrix: (Units=GPa)
#
#
# Indices 1 2 3 4 5 6 
#
# 1 39.1524 9.8150 8.3880 0.0000 -11.8305 0.0000
# 2 9.8150 101.5316 31.9546 0.0000 -7.9959 0.0000
# 3 8.3880 31.9546 116.1615 0.0000 -13.8907 0.0000
# 4 0.0000 0.0000 0.0000 38.1854 0.0000 -5.6048
# 5 -11.8305 -7.9959 -13.8907 0.0000 33.5975 0.0000
# 6 0.0000 0.0000 0.0000 -5.6048 0.0000 11.9381
#
#
#
# Elastic Compliance Matrix: (Units=1/GPa)
#
#
# Indices 1 2 3 4 5 6 
#
# 1 0.029008 -0.001917 -0.000421 0.000000 0.009584 0.000000
# 2 -0.001917 0.010973 -0.002786 0.000000 0.000785 0.000000
# 3 -0.000421 -0.002786 0.009793 0.000000 0.003237 0.000000
# 4 0.000000 0.000000 0.000000 0.028126 0.000000 0.013205
# 5 0.009584 0.000785 0.003237 0.000000 0.034664 0.000000
# 6 0.000000 0.000000 0.000000 0.013205 0.000000 0.089965
#
#
# Mechanical properties :
#
#
# Convention : Reuss Voigt Hill
#
# Bulk Modulus (GPa) = 25.30050 39.68453 32.49251
# Shear Modulus (GPa) = 22.12852 30.52340 26.32596
#
# Velocity S-wave (km/s) = 3.12975 3.67578 3.41370
# Velocity P-wave (km/s) = 4.92543 5.96504 5.46999
#
# Compressibility (1/GPa) = 0.03952491
#
# Stress axis : x y z
#
# Youngs Moduli (GPa) = 34.47328 91.13134 102.11655
#
# Poissons Ratio (x) = 0.17468 0.04302
# Poissons Ratio (y) = 0.06608 0.28453
# Poissons Ratio (z) = 0.01452 0.25392
#
# Static dielectric constant tensor:
#      x y z
#    x 4.093300 0.000000 0.011220 
#    y 0.000000 4.226450 0.000000 
#    z 0.011220 0.000000 3.463140 
# 
# 
# High freq. dielectric constant tensor:
#      x y z
#    x 1.875050 0.000000 0.001360 
#    y 0.000000 1.895270 0.000000 
#    z 0.001360 0.000000 1.914670 
# 
# From -- ./inp_files/44872.got.cif
#   From: 2010.06.25/outbox.cif.g09.slc.cpg/sg15_23_cif.got.tgz:44872.got - 2010.06.28 07:06:18.
