data_PCOD8135931
_publ_section_title
;
Structure prediction by ZEFSAII (Michael W. Deem and Ramdas Pophale) SiO2 
 PCOD8135931
Probable space group: C 2/C
;
_chemical_formula_sum "Si O2"
_cell_formula_units_Z 64
_cell_length_a 9.872208
_cell_length_b 14.408082
_cell_length_c 29.762442
_cell_angle_alpha 90.000000
_cell_angle_beta 129.142288
_cell_angle_gamma 90.000000
_cell_volume 3283.341326
_symmetry_space_group_name_H-M "C 2/C"
_symmetry_group_IT_number 15
_symmetry_cell_setting 'monoclinic'
loop_
_space_group_symop_operation_xyz
x,y,z
-x,y,1/2-z
-x,-y,-z
x,-y,1/2+z
1/2+x,1/2+y,z
1/2-x,1/2+y,1/2-z
1/2-x,1/2-y,-z
1/2+x,1/2-y,1/2+z
loop_
_atom_site_type_symbol
_atom_site_label
_atom_site_fract_x
_atom_site_fract_y
_atom_site_fract_z
Si Si1 0.252453 0.501139 0.489935
Si Si2 0.925347 0.307391 0.040937
Si Si3 0.430145 0.247355 0.834560
Si Si4 0.798510 0.574151 0.205004
Si Si5 0.860364 0.991441 0.414244
Si Si6 0.314789 0.878155 0.236054
Si Si7 0.909240 0.311878 0.519012
Si Si8 0.295895 0.287858 0.372215
O O1 0.125846 0.413975 0.465313
O O2 0.303386 0.531316 0.450301
O O3 0.436629 0.485067 0.554384
O O4 0.141030 0.581005 0.489919
O O5 0.042976 0.276535 0.107717
O O6 0.750000 0.250000 0.000000
O O7 0.038853 0.287234 0.020818
O O8 0.323980 0.341863 0.805823
O O9 0.322204 0.164851 0.787372
O O10 0.612188 0.258309 0.846759
O O11 0.762149 0.543361 0.146469
O O12 0.751397 0.485132 0.226726
O O13 0.000000 0.605392 0.250000
O O14 0.828605 0.880591 0.408442
O O15 0.500000 0.882435 0.250000
O O16 0.191114 0.815209 0.177882
O O17 0.750000 0.250000 0.500000
O O18 0.063583 0.290337 0.586448
#
# Coordination Sequence:
#
# PCOD8135931 Si02
#       8
#     8   8   8   8   8   8   8   8
#     4  11  23  38  63  94 133 167 215 261 322 378
#     4  12  24  42  66  93 135 172 215 263 325 393
#     4  11  21  40  68  91 126 164 218 265 324 387
#     4  10  22  37  64  91 120 160 217 269 318 381
#     4  10  20  39  65  94 121 172 218 259 310 389
#     4   8  19  39  62  87 117 158 217 263 312 380
#     4  12  25  40  61 100 137 172 211 265 324 381
#     4  10  19  41  64  91 122 172 211 264 317 390
#
# _framework density 19.492339000000001
#
# number of rings (size 3 to 8) (size 9 to 14) (size 15 to 20)
#    0.000    1.500    3.750    1.875    3.500    1.000 
#    0.000    0.000    0.000    0.000    0.000    0.000 
#    0.000    0.000    0.000    0.000    0.000    0.000 
#
# Total GULP energy -396837.629143 kJ/mol
# GULP energy per Si atom -12401.175911 kJ/mol
# Density = 1.944797 g / cm^3
# Si number density = 19.492339 Si / 1000 Ang^3
#
#
#
# Elastic Constant Matrix: (Units=GPa)
#
#
# Indices 1 2 3 4 5 6 
#
# 1 94.1232 52.4913 46.7442 0.0000 3.3234 0.0000
# 2 52.4913 120.2702 54.3689 0.0000 2.4562 0.0000
# 3 46.7442 54.3689 140.2173 0.0000 -1.0145 0.0000
# 4 0.0000 0.0000 0.0000 35.0360 0.0000 7.4879
# 5 3.3234 2.4562 -1.0145 0.0000 28.5853 0.0000
# 6 0.0000 0.0000 0.0000 7.4879 0.0000 30.6250
#
#
#
# Elastic Compliance Matrix: (Units=1/GPa)
#
#
# Indices 1 2 3 4 5 6 
#
# 1 0.015064 -0.005179 -0.003024 0.000000 -0.001414 0.000000
# 2 -0.005179 0.011891 -0.002888 0.000000 -0.000522 0.000000
# 3 -0.003024 -0.002888 0.009267 0.000000 0.000929 0.000000
# 4 0.000000 0.000000 0.000000 0.030116 0.000000 -0.007363
# 5 -0.001414 -0.000522 0.000929 0.000000 0.035225 0.000000
# 6 0.000000 0.000000 0.000000 -0.007363 0.000000 0.034453
#
#
# Mechanical properties :
#
#
# Convention : Reuss Voigt Hill
#
# Bulk Modulus (GPa) = 71.22556 73.53551 72.38054
# Shear Modulus (GPa) = 30.69776 32.24967 31.47371
#
# Velocity S-wave (km/s) = 3.97276 4.07194 4.02266
# Velocity P-wave (km/s) = 7.59364 7.74047 7.66741
#
# Compressibility (1/GPa) = 0.01403990
#
# Stress axis : x y z
#
# Youngs Moduli (GPa) = 66.38200 84.09649 107.91551
#
# Poissons Ratio (x) = 0.43552 0.32635
# Poissons Ratio (y) = 0.34378 0.31167
# Poissons Ratio (z) = 0.20075 0.24288
#
# Static dielectric constant tensor:
#      x y z
#    x 3.338130 0.000000 0.014100 
#    y 0.000000 3.667190 0.000000 
#    z 0.014100 0.000000 3.909970 
# 
# 
# High freq. dielectric constant tensor:
#      x y z
#    x 1.731970 0.000000 0.003680 
#    y 0.000000 1.763550 0.000000 
#    z 0.003680 0.000000 1.774570 
# 
# From -- ./inp_files/308274.got.cif
#   From: 2010.06.25/outbox.cif.g09.slc.cpg/sg15_155_cif.got.tgz:308274.got - 2010.06.28 07:06:18.
