data_PCOD8135171
_publ_section_title
;
Structure prediction by ZEFSAII (Michael W. Deem and Ramdas Pophale) SiO2 
 PCOD8135171
Probable space group: C 2/C
;
_chemical_formula_sum "Si O2"
_cell_formula_units_Z 56
_cell_length_a 21.326389
_cell_length_b 9.477335
_cell_length_c 17.785021
_cell_angle_alpha 90.000000
_cell_angle_beta 57.498617
_cell_angle_gamma 90.000000
_cell_volume 3031.659725
_symmetry_space_group_name_H-M "C 2/C"
_symmetry_group_IT_number 15
_symmetry_cell_setting 'monoclinic'
loop_
_space_group_symop_operation_xyz
x,y,z
-x,y,1/2-z
-x,-y,-z
x,-y,1/2+z
1/2+x,1/2+y,z
1/2-x,1/2+y,1/2-z
1/2-x,1/2-y,-z
1/2+x,1/2-y,1/2+z
loop_
_atom_site_type_symbol
_atom_site_label
_atom_site_fract_x
_atom_site_fract_y
_atom_site_fract_z
Si Si1 0.502308 0.195360 0.448667
Si Si2 0.715763 0.220810 0.440546
Si Si3 0.575072 0.396034 0.506890
Si Si4 0.654166 0.497327 0.816393
Si Si5 0.871969 0.513549 0.583547
Si Si6 0.221559 0.703760 0.749954
Si Si7 0.015959 0.927572 0.325736
O O1 0.506008 0.311985 0.513218
O O2 0.423027 0.115803 0.499049
O O3 0.514639 0.271073 0.361183
O O4 0.573523 0.096100 0.412083
O O5 0.750000 0.250000 0.500000
O O6 0.635976 0.290332 0.497837
O O7 0.773872 0.292976 0.344508
O O8 0.693950 0.060371 0.424711
O O9 0.609590 0.501570 0.423241
O O10 0.549204 0.481994 0.595275
O O11 0.698668 0.643991 0.775353
O O12 0.709721 0.364609 0.783998
O O13 0.594831 0.492416 0.786762
O O14 0.840469 0.603084 0.674297
O O15 0.000000 0.912152 0.250000
#
# Coordination Sequence:
#
# PCOD8135171 Si02
#       7
#     8   8   8   8   8   8   8
#     4   9  19  38  59  83 108 153 200 238 279 343
#     4  10  22  37  54  88 123 148 190 246 294 343
#     4   9  19  37  58  79 112 153 195 233 282 344
#     4  10  21  36  60  86 112 151 202 237 278 350
#     4  10  19  37  64  79 111 156 199 238 286 346
#     4  11  20  36  62  87 111 156 199 238 281 350
#     4  11  22  35  56  86 121 149 188 242 295 348
#
# _framework density 18.471729
#
# number of rings (size 3 to 8) (size 9 to 14) (size 15 to 20)
#    0.000    2.000    1.429    4.286    2.000    0.000 
#    2.571    0.000    0.000    4.286    0.000    0.000 
#    0.000    0.000    0.000    0.000    0.000    0.000 
#
# Total GULP energy -346885.492032 kJ/mol
# GULP energy per Si atom -12388.767573 kJ/mol
# Density = 1.842969 g / cm^3
# Si number density = 18.471729 Si / 1000 Ang^3
#
#
#
# Elastic Constant Matrix: (Units=GPa)
#
#
# Indices 1 2 3 4 5 6 
#
# 1 86.3968 41.1115 65.6751 0.0000 11.7524 0.0000
# 2 41.1115 104.8960 63.1376 0.0000 0.2606 0.0001
# 3 65.6751 63.1376 106.5262 0.0000 11.2261 0.0000
# 4 0.0000 0.0000 0.0000 31.2315 0.0000 -7.6081
# 5 11.7524 0.2606 11.2261 0.0000 32.1049 0.0000
# 6 0.0000 0.0001 0.0000 -7.6081 0.0000 21.8441
#
#
#
# Elastic Compliance Matrix: (Units=1/GPa)
#
#
# Indices 1 2 3 4 5 6 
#
# 1 0.022223 -0.001070 -0.012677 0.000000 -0.003693 0.000000
# 2 -0.001070 0.015168 -0.008678 0.000000 0.003303 0.000000
# 3 -0.012677 -0.008678 0.022686 0.000000 -0.003222 0.000000
# 4 0.000000 0.000000 0.000000 0.034987 0.000000 0.012186
# 5 -0.003693 0.003303 -0.003222 0.000000 0.033600 0.000000
# 6 0.000000 0.000000 0.000000 0.012186 0.000000 0.050023
#
#
# Mechanical properties :
#
#
# Convention : Reuss Voigt Hill
#
# Bulk Modulus (GPa) = 65.67872 70.85193 68.26532
# Shear Modulus (GPa) = 21.87091 25.56240 23.71666
#
# Velocity S-wave (km/s) = 3.44469 3.72407 3.58710
# Velocity P-wave (km/s) = 7.17320 7.54532 7.36161
#
# Compressibility (1/GPa) = 0.01522563
#
# Stress axis : x y z
#
# Youngs Moduli (GPa) = 44.99879 65.92812 44.07934
#
# Poissons Ratio (x) = 0.07054 0.55881
# Poissons Ratio (y) = 0.04815 0.38254
# Poissons Ratio (z) = 0.57047 0.57216
#
# Static dielectric constant tensor:
#      x y z
#    x 3.397100 0.000000 -0.241110 
#    y 0.000000 3.663610 0.000000 
#    z -0.241110 0.000000 3.429400 
# 
# 
# High freq. dielectric constant tensor:
#      x y z
#    x 1.697440 0.000000 -0.026620 
#    y 0.000000 1.724500 0.000000 
#    z -0.026620 0.000000 1.716990 
# 
# From -- ./inp_files/213800.got.cif
#   From: 2010.06.25/outbox.cif.g09.slc.cpg/sg15_107_cif.got.tgz:213800.got - 2010.06.28 07:06:18.
