data_PCOD8135844
_publ_section_title
;
Structure prediction by ZEFSAII (Michael W. Deem and Ramdas Pophale) SiO2 
 PCOD8135844
Probable space group: C 2/C
;
_chemical_formula_sum "Si O2"
_cell_formula_units_Z 56
_cell_length_a 14.981728
_cell_length_b 11.704516
_cell_length_c 19.401167
_cell_angle_alpha 90.000000
_cell_angle_beta 125.960365
_cell_angle_gamma 90.000000
_cell_volume 2753.714943
_symmetry_space_group_name_H-M "C 2/C"
_symmetry_group_IT_number 15
_symmetry_cell_setting 'monoclinic'
loop_
_space_group_symop_operation_xyz
x,y,z
-x,y,1/2-z
-x,-y,-z
x,-y,1/2+z
1/2+x,1/2+y,z
1/2-x,1/2+y,1/2-z
1/2-x,1/2-y,-z
1/2+x,1/2-y,1/2+z
loop_
_atom_site_type_symbol
_atom_site_label
_atom_site_fract_x
_atom_site_fract_y
_atom_site_fract_z
Si Si1 0.692742 0.370583 0.986346
Si Si2 0.223268 0.656511 0.698970
Si Si3 0.450028 0.666226 0.415917
Si Si4 0.600910 0.169045 0.246370
Si Si5 0.168738 0.494708 0.557558
Si Si6 0.767507 0.023084 0.849250
Si Si7 0.007244 0.330416 0.552906
O O1 0.560617 0.362309 0.924063
O O2 0.727868 0.456732 0.941404
O O3 0.750000 0.250000 0.000000
O O4 0.735200 0.421994 0.077149
O O5 0.110379 0.729929 0.651728
O O6 0.311225 0.732603 0.697599
O O7 0.208731 0.539384 0.650104
O O8 0.266418 0.627125 0.794569
O O9 0.375992 0.553277 0.386953
O O10 0.478211 0.706715 0.507065
O O11 0.500000 0.190489 0.250000
O O12 0.565112 0.181789 0.151620
O O13 0.654925 0.046812 0.286384
O O14 0.088118 0.388003 0.533491
O O15 0.103600 0.595074 0.488043
#
# Coordination Sequence:
#
# PCOD8135844 Si02
#       7
#     8   8   8   8   8   8   8
#     4  12  24  39  64  97 122 159 215 258 305 376
#     4  10  23  41  63  88 126 171 203 250 327 371
#     4  10  23  41  64  91 125 170 206 257 317 377
#     4  11  23  38  63  93 121 158 212 264 305 369
#     4  10  21  38  64  89 120 164 207 252 305 375
#     4  11  24  42  63  91 131 165 204 262 325 365
#     4  10  19  40  65  85 123 166 205 247 321 373
#
# _framework density 20.336164
#
# number of rings (size 3 to 8) (size 9 to 14) (size 15 to 20)
#    0.000    1.429    2.857    2.143    0.000    3.429 
#    0.000    5.714    0.000    0.000    0.000    0.000 
#    0.000    0.000    0.000    0.000    0.000    0.000 
#
# Total GULP energy -347324.354279 kJ/mol
# GULP energy per Si atom -12404.441224 kJ/mol
# Density = 2.028988 g / cm^3
# Si number density = 20.336164 Si / 1000 Ang^3
#
#
#
# Elastic Constant Matrix: (Units=GPa)
#
#
# Indices 1 2 3 4 5 6 
#
# 1 139.8028 43.7494 42.9553 0.0000 6.7557 0.0000
# 2 43.7494 78.2210 36.3315 0.0000 -4.4823 0.0000
# 3 42.9553 36.3315 102.3783 0.0000 0.3243 0.0000
# 4 0.0000 0.0000 0.0000 24.4725 0.0000 1.6011
# 5 6.7557 -4.4823 0.3243 0.0000 27.0961 0.0000
# 6 0.0000 0.0000 0.0000 1.6011 0.0000 26.8428
#
#
#
# Elastic Compliance Matrix: (Units=1/GPa)
#
#
# Indices 1 2 3 4 5 6 
#
# 1 0.009384 -0.004308 -0.002399 0.000000 -0.003024 0.000000
# 2 -0.004308 0.017470 -0.004405 0.000000 0.004017 0.000000
# 3 -0.002399 -0.004405 0.012338 0.000000 -0.000278 0.000000
# 4 0.000000 0.000000 0.000000 0.041022 0.000000 -0.002447
# 5 -0.003024 0.004017 -0.000278 0.000000 0.038327 0.000000
# 6 0.000000 0.000000 0.000000 -0.002447 0.000000 0.037400
#
#
# Mechanical properties :
#
#
# Convention : Reuss Voigt Hill
#
# Bulk Modulus (GPa) = 58.93100 62.94161 60.93630
# Shear Modulus (GPa) = 27.20033 28.84000 28.02016
#
# Velocity S-wave (km/s) = 3.66120 3.76994 3.71597
# Velocity P-wave (km/s) = 6.84937 7.06878 6.95994
#
# Compressibility (1/GPa) = 0.01696900
#
# Stress axis : x y z
#
# Youngs Moduli (GPa) = 106.56235 57.24214 81.04780
#
# Poissons Ratio (x) = 0.24657 0.19445
# Poissons Ratio (y) = 0.45902 0.35701
# Poissons Ratio (z) = 0.25566 0.25215
#
# Static dielectric constant tensor:
#      x y z
#    x 3.667740 0.000000 0.163450 
#    y 0.000000 3.766630 0.000000 
#    z 0.163450 0.000000 3.686310 
# 
# 
# High freq. dielectric constant tensor:
#      x y z
#    x 1.789850 0.000000 0.012440 
#    y 0.000000 1.803940 0.000000 
#    z 0.012440 0.000000 1.797110 
# 
# From -- ./inp_files/181882.got.cif
#   From: 2010.06.25/outbox.cif.g09.slc.cpg/sg15_91_cif.got.tgz:181882.got - 2010.06.28 07:06:18.
