data_PCOD8135210
_publ_section_title
;
Structure prediction by ZEFSAII (Michael W. Deem and Ramdas Pophale) SiO2 
 PCOD8135210
Probable space group: C 2/C
;
_chemical_formula_sum "Si O2"
_cell_formula_units_Z 44
_cell_length_a 11.854599
_cell_length_b 16.002113
_cell_length_c 12.582727
_cell_angle_alpha 90.000000
_cell_angle_beta 69.983963
_cell_angle_gamma 90.000000
_cell_volume 2242.748260
_symmetry_space_group_name_H-M "C 2/C"
_symmetry_group_IT_number 15
_symmetry_cell_setting 'monoclinic'
loop_
_space_group_symop_operation_xyz
x,y,z
-x,y,1/2-z
-x,-y,-z
x,-y,1/2+z
1/2+x,1/2+y,z
1/2-x,1/2+y,1/2-z
1/2-x,1/2-y,-z
1/2+x,1/2-y,1/2+z
loop_
_atom_site_type_symbol
_atom_site_label
_atom_site_fract_x
_atom_site_fract_y
_atom_site_fract_z
Si Si1 0.000000 0.739786 0.750000
Si Si2 0.074575 0.284205 0.618425
Si Si3 0.176689 0.126829 0.479267
Si Si4 0.800938 0.501623 0.584724
Si Si5 0.992738 0.381462 0.444738
Si Si6 0.616281 0.398881 0.768448
O O1 0.967057 0.684413 0.861421
O O2 0.884972 0.799613 0.762109
O O3 0.092340 0.190225 0.571023
O O4 0.202371 0.327315 0.598938
O O5 0.000000 0.282042 0.750000
O O6 0.000284 0.336532 0.555974
O O7 0.202506 0.047756 0.545086
O O8 0.106433 0.093242 0.398738
O O9 0.883580 0.446552 0.480251
O O10 0.737387 0.442951 0.691112
O O11 0.882997 0.569572 0.619944
O O12 0.500000 0.442053 0.750000
#
# Coordination Sequence:
#
# PCOD8135210 Si02
#       6
#     4   8   8   8   8   8
#     4  10  22  40  62  84 128 164 200 254 300 376
#     4  10  19  37  65  88 122 158 203 248 309 363
#     4  10  21  38  58  92 122 157 204 258 295 373
#     4  10  23  38  63  91 123 158 206 254 312 352
#     4  10  21  41  62  97 117 159 209 254 304 365
#     4  10  22  41  58  84 129 162 198 257 302 366
#
# _framework density 19.618787000000001
#
# number of rings (size 3 to 8) (size 9 to 14) (size 15 to 20)
#    0.545    1.455    1.818    1.091    2.545    2.182 
#    3.273    1.818    0.000    0.000    0.000    0.000 
#    0.000    0.000    0.000    0.000    0.000    0.000 
#
# Total GULP energy -272801.488753 kJ/mol
# GULP energy per Si atom -12400.067671 kJ/mol
# Density = 1.957413 g / cm^3
# Si number density = 19.618787 Si / 1000 Ang^3
#
#
#
# Elastic Constant Matrix: (Units=GPa)
#
#
# Indices 1 2 3 4 5 6 
#
# 1 35.9156 18.5087 10.7514 0.0000 8.1062 0.0000
# 2 18.5087 104.1798 37.3831 0.0000 2.9788 0.0000
# 3 10.7514 37.3831 102.4081 0.0000 1.7001 0.0000
# 4 0.0000 0.0000 0.0000 35.6506 0.0000 -5.2763
# 5 8.1062 2.9788 1.7001 0.0000 26.5840 0.0000
# 6 0.0000 0.0000 0.0000 -5.2763 0.0000 26.5933
#
#
#
# Elastic Compliance Matrix: (Units=1/GPa)
#
#
# Indices 1 2 3 4 5 6 
#
# 1 0.033017 -0.005074 -0.001458 0.000000 -0.009406 0.000000
# 2 -0.005074 0.011851 -0.003801 0.000000 0.000462 0.000000
# 3 -0.001458 -0.003801 0.011303 0.000000 0.000148 0.000000
# 4 0.000000 0.000000 0.000000 0.028899 0.000000 0.005734
# 5 -0.009406 0.000462 0.000148 0.000000 0.040424 0.000000
# 6 0.000000 0.000000 0.000000 0.005734 0.000000 0.038741
#
#
# Mechanical properties :
#
#
# Convention : Reuss Voigt Hill
#
# Bulk Modulus (GPa) = 28.16472 41.75441 34.95957
# Shear Modulus (GPa) = 25.41488 29.48960 27.45224
#
# Velocity S-wave (km/s) = 3.60312 3.88123 3.74476
# Velocity P-wave (km/s) = 5.63002 6.43540 6.04613
#
# Compressibility (1/GPa) = 0.03550541
#
# Stress axis : x y z
#
# Youngs Moduli (GPa) = 30.28728 84.38162 88.47192
#
# Poissons Ratio (x) = 0.42813 0.12900
# Poissons Ratio (y) = 0.15367 0.33629
# Poissons Ratio (z) = 0.04416 0.32074
#
# Static dielectric constant tensor:
#      x y z
#    x 3.556540 0.000000 0.120810 
#    y 0.000000 3.661810 0.000000 
#    z 0.120810 0.000000 3.250530 
# 
# 
# High freq. dielectric constant tensor:
#      x y z
#    x 1.759100 0.000000 0.011730 
#    y 0.000000 1.771680 0.000000 
#    z 0.011730 0.000000 1.751360 
# 
# From -- ./inp_files/87729.got.cif
#   From: 2010.06.25/outbox.cif.g09.slc.cpg/sg15_44_cif.got.tgz:87729.got - 2010.06.28 07:06:18.
