data_PCOD8135424
_publ_section_title
;
Structure prediction by ZEFSAII (Michael W. Deem and Ramdas Pophale) SiO2 
 PCOD8135424
Probable space group: C 2/C
;
_chemical_formula_sum "Si O2"
_cell_formula_units_Z 40
_cell_length_a 9.002884
_cell_length_b 11.848127
_cell_length_c 25.826095
_cell_angle_alpha 90.000000
_cell_angle_beta 45.223276
_cell_angle_gamma 90.000000
_cell_volume 1955.513985
_symmetry_space_group_name_H-M "C 2/C"
_symmetry_group_IT_number 15
_symmetry_cell_setting 'monoclinic'
loop_
_space_group_symop_operation_xyz
x,y,z
-x,y,1/2-z
-x,-y,-z
x,-y,1/2+z
1/2+x,1/2+y,z
1/2-x,1/2+y,1/2-z
1/2-x,1/2-y,-z
1/2+x,1/2-y,1/2+z
loop_
_atom_site_type_symbol
_atom_site_label
_atom_site_fract_x
_atom_site_fract_y
_atom_site_fract_z
Si Si1 0.191332 0.262145 0.168619
Si Si2 0.825151 0.087203 0.413546
Si Si3 0.141912 0.006443 0.914957
Si Si4 0.876372 0.360677 0.032346
Si Si5 0.095074 0.345221 0.596749
O O1 0.101868 0.172405 0.149356
O O2 0.316957 0.365203 0.111762
O O3 0.360351 0.198747 0.163243
O O4 0.000000 0.307511 0.250000
O O5 0.618697 0.142320 0.492036
O O6 0.745222 0.965693 0.411314
O O7 0.025959 0.067068 0.399783
O O8 0.365795 0.951746 0.875147
O O9 0.000000 0.000000 0.000000
O O10 0.764827 0.245654 0.074937
O O11 0.866870 0.378279 0.972368
#
# Coordination Sequence:
#
# PCOD8135424 Si02
#       5
#     8   8   8   8   8
#     4  11  26  44  59  85 130 177 210 254 318 383
#     4  10  20  37  64  91 125 158 199 258 314 375
#     4  12  22  39  69 100 123 159 212 272 318 366
#     4   9  17  36  62  93 125 152 196 256 320 367
#     4  10  19  38  62  88 128 159 195 261 315 365
#
# _framework density 20.454981
#
# number of rings (size 3 to 8) (size 9 to 14) (size 15 to 20)
#    0.000    1.600    4.000    2.400    0.000    4.800 
#    0.000    0.000    0.000    0.000    0.000    0.000 
#    0.000    0.000    0.000    0.000    0.000    0.000 
#
# Total GULP energy -247882.638342 kJ/mol
# GULP energy per Si atom -12394.131917 kJ/mol
# Density = 2.040842 g / cm^3
# Si number density = 20.454981 Si / 1000 Ang^3
#
#
#
# Elastic Constant Matrix: (Units=GPa)
#
#
# Indices 1 2 3 4 5 6 
#
# 1 107.1299 56.4277 25.8564 0.0000 -11.7377 0.0001
# 2 56.4277 94.1758 31.5790 0.0001 -1.3063 0.0000
# 3 25.8564 31.5790 79.8894 0.0002 -9.9541 0.0001
# 4 0.0000 0.0001 0.0002 21.7179 0.0000 -4.1770
# 5 -11.7377 -1.3063 -9.9541 0.0000 16.4613 -0.0001
# 6 0.0001 0.0000 0.0001 -4.1770 -0.0001 40.8404
#
#
#
# Elastic Compliance Matrix: (Units=1/GPa)
#
#
# Indices 1 2 3 4 5 6 
#
# 1 0.015148 -0.008890 -0.000141 0.000000 0.010010 0.000000
# 2 -0.008890 0.017527 -0.005048 0.000000 -0.008000 0.000000
# 3 -0.000141 -0.005048 0.015677 0.000000 0.008979 0.000000
# 4 0.000000 0.000000 0.000000 0.046969 0.000000 0.004804
# 5 0.010010 -0.008000 0.008979 0.000000 0.072681 0.000000
# 6 0.000000 0.000000 0.000000 0.004804 0.000000 0.024977
#
#
# Mechanical properties :
#
#
# Convention : Reuss Voigt Hill
#
# Bulk Modulus (GPa) = 49.52025 56.54680 53.03353
# Shear Modulus (GPa) = 21.94264 26.95940 24.45102
#
# Velocity S-wave (km/s) = 3.27881 3.63435 3.46115
# Velocity P-wave (km/s) = 6.21257 6.73170 6.47734
#
# Compressibility (1/GPa) = 0.02019376
#
# Stress axis : x y z
#
# Youngs Moduli (GPa) = 66.01584 57.05586 63.78775
#
# Poissons Ratio (x) = 0.50723 0.00901
# Poissons Ratio (y) = 0.58688 0.32198
# Poissons Ratio (z) = 0.00933 0.28800
#
# Static dielectric constant tensor:
#      x y z
#    x 4.011060 0.000000 -0.246580 
#    y 0.000000 4.038050 0.000000 
#    z -0.246580 0.000000 3.161210 
# 
# 
# High freq. dielectric constant tensor:
#      x y z
#    x 1.806940 0.000000 -0.025500 
#    y 0.000000 1.817790 0.000000 
#    z -0.025500 0.000000 1.736750 
# 
# From -- ./inp_files/229861.got.cif
#   From: 2010.06.25/outbox.cif.g09.slc.cpg/sg15_115_cif.got.tgz:229861.got - 2010.06.28 07:06:18.
