data_PCOD8135669
_publ_section_title
;
Structure prediction by ZEFSAII (Michael W. Deem and Ramdas Pophale) SiO2 
 PCOD8135669
Probable space group: C 2/C
;
_chemical_formula_sum "Si O2"
_cell_formula_units_Z 40
_cell_length_a 23.267789
_cell_length_b 16.365865
_cell_length_c 14.493521
_cell_angle_alpha 90.000000
_cell_angle_beta 160.869732
_cell_angle_gamma 90.000000
_cell_volume 1808.701999
_symmetry_space_group_name_H-M "C 2/C"
_symmetry_group_IT_number 15
_symmetry_cell_setting 'monoclinic'
loop_
_space_group_symop_operation_xyz
x,y,z
-x,y,1/2-z
-x,-y,-z
x,-y,1/2+z
1/2+x,1/2+y,z
1/2-x,1/2+y,1/2-z
1/2-x,1/2-y,-z
1/2+x,1/2-y,1/2+z
loop_
_atom_site_type_symbol
_atom_site_label
_atom_site_fract_x
_atom_site_fract_y
_atom_site_fract_z
Si Si1 0.171739 0.446889 0.277558
Si Si2 0.299853 0.016566 0.470344
Si Si3 0.670220 0.583194 0.091747
Si Si4 0.348348 0.358031 0.194640
Si Si5 0.927281 0.685962 0.363664
O O1 0.221941 0.444726 0.461053
O O2 0.319952 0.493547 0.442303
O O3 0.000000 0.500000 0.000000
O O4 0.121864 0.355179 0.166657
O O5 0.186122 0.933432 0.289744
O O6 0.218825 0.078278 0.273882
O O7 0.500000 0.997072 0.750000
O O8 0.802575 0.650969 0.254198
O O9 0.467838 0.614684 0.786644
O O10 0.439464 0.284300 0.389760
O O11 0.158345 0.333567 0.865717
#
# Coordination Sequence:
#
# PCOD8135669 Si02
#       5
#     8   8   8   8   8
#     4  10  19  39  63  87 121 172 208 243 313 387
#     4  12  21  38  66  90 121 173 217 244 314 389
#     4  11  22  39  62  90 130 161 213 265 300 384
#     4  11  23  37  61 100 122 158 211 269 316 359
#     4  10  21  39  61  90 131 163 196 262 334 357
#
# _framework density 22.115307999999999
#
# number of rings (size 3 to 8) (size 9 to 14) (size 15 to 20)
#    0.000    1.200    8.000    1.200    0.000    4.800 
#    0.000    1.000    0.000    0.000    0.000    0.000 
#    0.000    0.000    0.000    0.000    0.000    0.000 
#
# Total GULP energy -247924.278896 kJ/mol
# GULP energy per Si atom -12396.213945 kJ/mol
# Density = 2.206497 g / cm^3
# Si number density = 22.115308 Si / 1000 Ang^3
#
#
#
# Elastic Constant Matrix: (Units=GPa)
#
#
# Indices 1 2 3 4 5 6 
#
# 1 92.9340 31.5414 20.4254 0.0000 -11.2632 0.0000
# 2 31.5414 140.5822 36.8993 0.0000 -0.4566 0.0000
# 3 20.4254 36.8993 47.0778 0.0000 1.3880 0.0000
# 4 0.0000 0.0000 0.0000 33.7106 0.0000 0.1704
# 5 -11.2632 -0.4566 1.3880 0.0000 41.8697 0.0000
# 6 0.0000 0.0000 0.0000 0.1704 0.0000 33.5388
#
#
#
# Elastic Compliance Matrix: (Units=1/GPa)
#
#
# Indices 1 2 3 4 5 6 
#
# 1 0.012712 -0.001719 -0.004272 0.000000 0.003543 0.000000
# 2 -0.001719 0.009193 -0.006455 0.000000 -0.000148 0.000000
# 3 -0.004272 -0.006455 0.028218 0.000000 -0.002155 0.000000
# 4 0.000000 0.000000 0.000000 0.029665 0.000000 -0.000151
# 5 0.003543 -0.000148 -0.002155 0.000000 0.024906 0.000000
# 6 0.000000 0.000000 0.000000 -0.000151 0.000000 0.029817
#
#
# Mechanical properties :
#
#
# Convention : Reuss Voigt Hill
#
# Bulk Modulus (GPa) = 39.63551 50.92514 45.28033
# Shear Modulus (GPa) = 29.79487 34.60567 32.20027
#
# Velocity S-wave (km/s) = 3.67447 3.96003 3.81992
# Velocity P-wave (km/s) = 5.99695 6.63221 6.32256
#
# Compressibility (1/GPa) = 0.02522990
#
# Stress axis : x y z
#
# Youngs Moduli (GPa) = 78.66494 108.78078 35.43852
#
# Poissons Ratio (x) = 0.18702 0.15140
# Poissons Ratio (y) = 0.13525 0.22875
# Poissons Ratio (z) = 0.33607 0.70218
#
# Static dielectric constant tensor:
#      x y z
#    x 4.019420 0.000000 0.073050 
#    y 0.000000 4.294430 0.000000 
#    z 0.073050 0.000000 4.235180 
# 
# 
# High freq. dielectric constant tensor:
#      x y z
#    x 1.868950 0.000000 -0.002720 
#    y 0.000000 1.850010 0.000000 
#    z -0.002720 0.000000 1.858430 
# 
# From -- ./inp_files/85742.got.cif
#   From: 2010.06.25/outbox.cif.g09.slc.cpg/sg15_43_cif.got.tgz:85742.got - 2010.06.28 07:06:18.
