data_PCOD8135628
_publ_section_title
;
Structure prediction by ZEFSAII (Michael W. Deem and Ramdas Pophale) SiO2 
 PCOD8135628
Probable space group: C 2/C
;
_chemical_formula_sum "Si O2"
_cell_formula_units_Z 60
_cell_length_a 17.046515
_cell_length_b 8.861419
_cell_length_c 20.145515
_cell_angle_alpha 90.000000
_cell_angle_beta 101.658757
_cell_angle_gamma 90.000000
_cell_volume 2980.323418
_symmetry_space_group_name_H-M "C 2/C"
_symmetry_group_IT_number 15
_symmetry_cell_setting 'monoclinic'
loop_
_space_group_symop_operation_xyz
x,y,z
-x,y,1/2-z
-x,-y,-z
x,-y,1/2+z
1/2+x,1/2+y,z
1/2-x,1/2+y,1/2-z
1/2-x,1/2-y,-z
1/2+x,1/2-y,1/2+z
loop_
_atom_site_type_symbol
_atom_site_label
_atom_site_fract_x
_atom_site_fract_y
_atom_site_fract_z
Si Si1 0.646915 0.476173 0.698756
Si Si2 0.328102 0.395088 0.515663
Si Si3 0.425133 0.414487 0.954146
Si Si4 0.190348 0.639316 0.084525
Si Si5 0.423574 0.793511 0.140265
Si Si6 0.958058 0.429587 0.431019
Si Si7 0.214837 0.284429 0.289193
Si Si8 0.000000 0.071261 0.250000
O O1 0.605768 0.486452 0.620177
O O2 0.721066 0.590321 0.720497
O O3 0.678537 0.305185 0.719545
O O4 0.578953 0.523892 0.742189
O O5 0.358839 0.560413 0.500473
O O6 0.240319 0.427434 0.530427
O O7 0.333560 0.304520 0.446289
O O8 0.382107 0.299041 0.574566
O O9 0.436539 0.239330 0.946589
O O10 0.500000 0.500000 0.000000
O O11 0.119571 0.530479 0.097078
O O12 0.245223 0.655436 0.158578
O O13 0.479215 0.927994 0.120107
O O14 0.358421 0.860089 0.181089
O O15 0.483134 0.675369 0.183839
O O16 0.000000 0.500000 0.500000
#
# Coordination Sequence:
#
# PCOD8135628 Si02
#       8
#     8   8   8   8   8   8   8   4
#     4  11  23  41  67  92 120 168 213 260 314 382
#     4  10  19  39  60  87 122 168 201 247 324 378
#     4  12  22  38  66  93 125 166 216 262 315 375
#     4  10  21  37  62  87 124 161 200 256 317 374
#     4  10  20  39  63  89 121 170 208 249 314 388
#     4  12  23  36  61  95 125 157 215 265 310 369
#     4  10  24  41  65  87 126 165 210 254 319 381
#     4  10  20  40  64  88 118 170 216 250 312 390
#
# _framework density 20.132044
#
# number of rings (size 3 to 8) (size 9 to 14) (size 15 to 20)
#    0.000    1.333    5.333    0.000    1.867    0.533 
#    0.000    1.333    2.933    0.000    0.000    0.000 
#    0.000    0.000    0.000    0.000    0.000    0.000 
#
# Total GULP energy -371655.482846 kJ/mol
# GULP energy per Si atom -12388.516095 kJ/mol
# Density = 2.008622 g / cm^3
# Si number density = 20.132044 Si / 1000 Ang^3
#
#
#
# Elastic Constant Matrix: (Units=GPa)
#
#
# Indices 1 2 3 4 5 6 
#
# 1 169.0483 63.3293 42.6507 0.0000 -26.8142 0.0000
# 2 63.3293 55.9557 16.1395 0.0000 -18.8078 0.0000
# 3 42.6507 16.1395 82.4024 0.0000 0.5546 0.0000
# 4 0.0000 0.0000 0.0000 65.3627 0.0000 5.5049
# 5 -26.8142 -18.8078 0.5546 0.0000 37.3726 0.0000
# 6 0.0000 0.0000 0.0000 5.5049 0.0000 51.0691
#
#
#
# Elastic Compliance Matrix: (Units=1/GPa)
#
#
# Indices 1 2 3 4 5 6 
#
# 1 0.011372 -0.010856 -0.003778 0.000000 0.002752 0.000000
# 2 -0.010856 0.033501 -0.001004 0.000000 0.009086 0.000000
# 3 -0.003778 -0.001004 0.014311 0.000000 -0.003428 0.000000
# 4 0.000000 0.000000 0.000000 0.015439 0.000000 -0.001664
# 5 0.002752 0.009086 -0.003428 0.000000 0.033355 0.000000
# 6 0.000000 0.000000 0.000000 -0.001664 0.000000 0.019761
#
#
# Mechanical properties :
#
#
# Convention : Reuss Voigt Hill
#
# Bulk Modulus (GPa) = 35.83210 61.29394 48.56302
# Shear Modulus (GPa) = 29.70559 43.11333 36.40946
#
# Velocity S-wave (km/s) = 3.84544 4.63268 4.25730
# Velocity P-wave (km/s) = 6.12811 7.68946 6.95275
#
# Compressibility (1/GPa) = 0.02790794
#
# Stress axis : x y z
#
# Youngs Moduli (GPa) = 87.93419 29.84978 69.87670
#
# Poissons Ratio (x) = 0.32404 0.26402
# Poissons Ratio (y) = 0.95460 0.07015
# Poissons Ratio (z) = 0.33225 0.02997
#
# Static dielectric constant tensor:
#      x y z
#    x 3.893900 0.000000 -0.372190 
#    y 0.000000 3.403070 0.000000 
#    z -0.372190 0.000000 3.010470 
# 
# 
# High freq. dielectric constant tensor:
#      x y z
#    x 1.811200 0.000000 0.005270 
#    y 0.000000 1.742590 0.000000 
#    z 0.005270 0.000000 1.797400 
# 
# From -- ./inp_files/247499.got.cif
#   From: 2010.06.25/outbox.cif.g09.slc.cpg/sg15_124_cif.got.tgz:247499.got - 2010.06.28 07:06:18.
