data_PCOD8135892
_publ_section_title
;
Structure prediction by ZEFSAII (Michael W. Deem and Ramdas Pophale) SiO2 
 PCOD8135892
Probable space group: C 2/C
;
_chemical_formula_sum "Si O2"
_cell_formula_units_Z 56
_cell_length_a 12.107987
_cell_length_b 22.597447
_cell_length_c 11.088776
_cell_angle_alpha 90.000000
_cell_angle_beta 116.313497
_cell_angle_gamma 90.000000
_cell_volume 2719.619057
_symmetry_space_group_name_H-M "C 2/C"
_symmetry_group_IT_number 15
_symmetry_cell_setting 'monoclinic'
loop_
_space_group_symop_operation_xyz
x,y,z
-x,y,1/2-z
-x,-y,-z
x,-y,1/2+z
1/2+x,1/2+y,z
1/2-x,1/2+y,1/2-z
1/2-x,1/2-y,-z
1/2+x,1/2-y,1/2+z
loop_
_atom_site_type_symbol
_atom_site_label
_atom_site_fract_x
_atom_site_fract_y
_atom_site_fract_z
Si Si1 0.165022 0.887940 0.215278
Si Si2 0.048606 0.531803 0.904712
Si Si3 0.628765 0.256783 0.519512
Si Si4 0.500000 0.298889 0.250000
Si Si5 0.918273 0.113426 0.439980
Si Si6 0.805749 0.024170 0.562169
Si Si7 0.424624 0.845045 0.320405
Si Si8 0.500000 0.442686 0.750000
O O1 0.201299 0.947004 0.307139
O O2 0.290972 0.868275 0.209639
O O3 0.121433 0.840196 0.295071
O O4 0.054191 0.894527 0.066055
O O5 0.000000 0.508877 0.750000
O O6 0.012064 0.600641 0.904162
O O7 0.193682 0.518945 0.975205
O O8 0.000000 0.500000 0.000000
O O9 0.750000 0.250000 0.500000
O O10 0.513192 0.257694 0.372374
O O11 0.629528 0.319213 0.588875
O O12 0.601784 0.201073 0.588469
O O13 0.820619 0.073491 0.465591
O O14 0.916563 0.096599 0.298343
O O15 0.923674 0.982304 0.619721
O O16 0.500000 0.812575 0.250000
#
# Coordination Sequence:
#
# PCOD8135892 Si02
#       8
#     8   8   8   4   8   8   8   4
#     4  11  19  43  70  95 128 178 231 271 349 409
#     4  11  27  44  67 100 143 190 225 277 351 431
#     4  11  22  45  71  94 126 179 238 280 331 414
#     4  10  19  40  70 100 114 171 234 288 330 386
#     4  11  25  42  68 103 133 176 229 297 343 405
#     4  12  22  43  70  96 138 175 231 280 346 413
#     4  11  25  43  66  98 142 190 218 278 360 424
#     4  12  27  36  66 106 134 165 216 296 352 392
#
# _framework density 20.59112
#
# number of rings (size 3 to 8) (size 9 to 14) (size 15 to 20)
#    0.000    0.857    7.143    0.429    7.000    0.000 
#    3.857    2.857    0.000    0.000    0.000    0.000 
#    0.000    0.000    0.000    0.000    0.000    0.000 
#
# Total GULP energy -346965.224419 kJ/mol
# GULP energy per Si atom -12391.615158 kJ/mol
# Density = 2.054425 g / cm^3
# Si number density = 20.591120 Si / 1000 Ang^3
#
#
#
# Elastic Constant Matrix: (Units=GPa)
#
#
# Indices 1 2 3 4 5 6 
#
# 1 130.3427 56.0928 30.3543 0.0000 -2.0980 0.0000
# 2 56.0928 110.6109 45.8236 0.0000 -3.3600 0.0000
# 3 30.3543 45.8236 76.7285 0.0000 -11.8482 0.0000
# 4 0.0000 0.0000 0.0000 21.4487 0.0000 -11.3911
# 5 -2.0980 -3.3600 -11.8482 0.0000 44.2963 0.0000
# 6 0.0000 0.0000 0.0000 -11.3911 0.0000 34.7285
#
#
#
# Elastic Compliance Matrix: (Units=1/GPa)
#
#
# Indices 1 2 3 4 5 6 
#
# 1 0.009901 -0.004506 -0.001258 0.000000 -0.000209 0.000000
# 2 -0.004506 0.014111 -0.006793 0.000000 -0.000960 0.000000
# 3 -0.001258 -0.006793 0.018253 0.000000 0.004307 0.000000
# 4 0.000000 0.000000 0.000000 0.056458 0.000000 0.018518
# 5 -0.000209 -0.000960 0.004307 0.000000 0.023645 0.000000
# 6 0.000000 0.000000 0.000000 0.018518 0.000000 0.034869
#
#
# Mechanical properties :
#
#
# Convention : Reuss Voigt Hill
#
# Bulk Modulus (GPa) = 58.30800 64.69151 61.49976
# Shear Modulus (GPa) = 26.58639 32.45545 29.52092
#
# Velocity S-wave (km/s) = 3.59717 3.97443 3.79049
# Velocity P-wave (km/s) = 6.75510 7.24892 7.00636
#
# Compressibility (1/GPa) = 0.01715030
#
# Stress axis : x y z
#
# Youngs Moduli (GPa) = 101.00107 70.86796 54.78684
#
# Poissons Ratio (x) = 0.31934 0.06893
# Poissons Ratio (y) = 0.45512 0.37216
# Poissons Ratio (z) = 0.12707 0.48139
#
# Static dielectric constant tensor:
#      x y z
#    x 3.997900 0.000000 -0.181140 
#    y 0.000000 3.884040 0.000000 
#    z -0.181140 0.000000 4.243890 
# 
# 
# High freq. dielectric constant tensor:
#      x y z
#    x 1.815520 0.000000 -0.009310 
#    y 0.000000 1.801940 0.000000 
#    z -0.009310 0.000000 1.796650 
# 
# From -- ./inp_files/89690.got.cif
#   From: 2010.06.25/outbox.cif.g09.slc.cpg/sg15_45_cif.got.tgz:89690.got - 2010.06.28 07:06:18.
