data_PCOD8135015
_publ_section_title
;
Structure prediction by ZEFSAII (Michael W. Deem and Ramdas Pophale) SiO2 
 PCOD8135015
Probable space group: C 2/C
;
_chemical_formula_sum "Si O2"
_cell_formula_units_Z 48
_cell_length_a 20.509797
_cell_length_b 8.956248
_cell_length_c 15.024802
_cell_angle_alpha 90.000000
_cell_angle_beta 63.099350
_cell_angle_gamma 90.000000
_cell_volume 2461.274178
_symmetry_space_group_name_H-M "C 2/C"
_symmetry_group_IT_number 15
_symmetry_cell_setting 'monoclinic'
loop_
_space_group_symop_operation_xyz
x,y,z
-x,y,1/2-z
-x,-y,-z
x,-y,1/2+z
1/2+x,1/2+y,z
1/2-x,1/2+y,1/2-z
1/2-x,1/2-y,-z
1/2+x,1/2-y,1/2+z
loop_
_atom_site_type_symbol
_atom_site_label
_atom_site_fract_x
_atom_site_fract_y
_atom_site_fract_z
Si Si1 0.673212 0.309373 0.008394
Si Si2 0.844930 0.181033 0.689436
Si Si3 0.832959 0.343757 0.348327
Si Si4 0.915686 0.648828 0.298540
Si Si5 0.337564 0.359794 0.003758
Si Si6 0.198381 0.153346 0.288977
O O1 0.653995 0.479353 0.047759
O O2 0.670565 0.300088 0.903707
O O3 0.750000 0.250000 0.000000
O O4 0.608884 0.211208 0.090422
O O5 0.903271 0.227829 0.728585
O O6 0.882737 0.169427 0.567671
O O7 0.783665 0.309373 0.728492
O O8 0.809342 0.020180 0.731627
O O9 0.869024 0.501793 0.308549
O O10 0.746401 0.356174 0.412769
O O11 0.863675 0.265456 0.418467
O O12 0.850575 0.244460 0.251084
O O13 0.000000 0.605585 0.250000
#
# Coordination Sequence:
#
# PCOD8135015 Si02
#       6
#     8   8   8   8   8   8
#     4  11  19  37  61  91 115 154 204 245 297 352
#     4  10  19  37  59  93 120 154 197 251 310 348
#     4  10  20  36  55  92 119 156 198 248 302 342
#     4  12  25  40  57  85 128 165 197 245 308 368
#     4   9  19  35  63  89 115 146 203 263 288 346
#     4  10  20  33  65  91 118 148 204 260 293 351
#
# _framework density 19.502094
#
# number of rings (size 3 to 8) (size 9 to 14) (size 15 to 20)
#    0.000    1.667    3.333    3.000    0.000    2.667 
#    0.000   10.000    0.000    0.000    0.000    0.000 
#    0.000    0.000    0.000    0.000    0.000    0.000 
#
# Total GULP energy -297492.357645 kJ/mol
# GULP energy per Si atom -12395.514902 kJ/mol
# Density = 1.945771 g / cm^3
# Si number density = 19.502094 Si / 1000 Ang^3
#
#
#
# Elastic Constant Matrix: (Units=GPa)
#
#
# Indices 1 2 3 4 5 6 
#
# 1 38.6945 26.6815 42.7234 0.0000 14.2725 0.0001
# 2 26.6815 118.6548 43.4521 0.0000 16.1937 0.0001
# 3 42.7234 43.4521 93.1834 0.0000 18.5550 0.0000
# 4 0.0000 0.0000 0.0000 34.4832 0.0000 11.3225
# 5 14.2725 16.1937 18.5550 0.0000 25.4100 0.0000
# 6 0.0001 0.0001 0.0000 11.3225 0.0000 5.2327
#
#
#
# Elastic Compliance Matrix: (Units=1/GPa)
#
#
# Indices 1 2 3 4 5 6 
#
# 1 0.057672 -0.002865 -0.022255 0.000001 -0.014317 -0.000002
# 2 -0.002865 0.010584 -0.003041 0.000000 -0.002915 -0.000001
# 3 -0.022255 -0.003041 0.022793 0.000000 -0.002205 0.000001
# 4 0.000001 0.000000 0.000000 0.100161 0.000000 -0.216726
# 5 -0.014317 -0.002915 -0.002205 0.000000 0.050864 0.000001
# 6 -0.000002 -0.000001 0.000001 -0.216726 0.000001 0.660051
#
#
# Mechanical properties :
#
#
# Convention : Reuss Voigt Hill
#
# Bulk Modulus (GPa) = 28.79726 52.91628 40.85677
# Shear Modulus (GPa) = 5.15453 22.20357 13.67905
#
# Velocity S-wave (km/s) = 1.62751 3.37786 2.65130
# Velocity P-wave (km/s) = 4.28136 6.51197 5.51071
#
# Compressibility (1/GPa) = 0.03472552
#
# Stress axis : x y z
#
# Youngs Moduli (GPa) = 17.33952 94.48623 43.87406
#
# Poissons Ratio (x) = 0.27066 0.97643
# Poissons Ratio (y) = 0.04967 0.13344
# Poissons Ratio (z) = 0.38589 0.28737
#
# Static dielectric constant tensor:
#      x y z
#    x 3.208990 0.000000 0.448070 
#    y 0.000000 3.825940 0.000000 
#    z 0.448070 0.000000 3.850420 
# 
# 
# High freq. dielectric constant tensor:
#      x y z
#    x 1.708820 0.000000 0.036270 
#    y 0.000000 1.776920 0.000000 
#    z 0.036270 0.000000 1.765930 
# 
# From -- ./inp_files/166151.got.cif
#   From: 2010.06.25/outbox.cif.g09.slc.cpg/sg15_84_cif.got.tgz:166151.got - 2010.06.28 07:06:18.
