data_PCOD8135057
_publ_section_title
;
Structure prediction by ZEFSAII (Michael W. Deem and Ramdas Pophale) SiO2 
 PCOD8135057
Probable space group: C 2/C
;
_chemical_formula_sum "Si O2"
_cell_formula_units_Z 48
_cell_length_a 13.642612
_cell_length_b 13.782535
_cell_length_c 24.899202
_cell_angle_alpha 90.000000
_cell_angle_beta 30.890005
_cell_angle_gamma 90.000000
_cell_volume 2403.592188
_symmetry_space_group_name_H-M "C 2/C"
_symmetry_group_IT_number 15
_symmetry_cell_setting 'monoclinic'
loop_
_space_group_symop_operation_xyz
x,y,z
-x,y,1/2-z
-x,-y,-z
x,-y,1/2+z
1/2+x,1/2+y,z
1/2-x,1/2+y,1/2-z
1/2-x,1/2-y,-z
1/2+x,1/2-y,1/2+z
loop_
_atom_site_type_symbol
_atom_site_label
_atom_site_fract_x
_atom_site_fract_y
_atom_site_fract_z
Si Si1 0.087250 0.216639 0.899239
Si Si2 0.011722 0.431804 0.942429
Si Si3 0.069253 0.039043 0.274695
Si Si4 0.656504 0.555855 0.532856
Si Si5 0.322822 0.643745 0.529483
Si Si6 0.530280 0.738196 0.339135
O O1 0.012765 0.318731 0.957773
O O2 0.174320 0.159226 0.908367
O O3 0.251061 0.228889 0.775939
O O4 0.899635 0.159421 0.966322
O O5 0.206739 0.458157 0.821896
O O6 0.000000 0.500000 0.000000
O O7 0.854475 0.447747 0.971289
O O8 0.976176 0.145510 0.327302
O O9 0.000000 0.000178 0.250000
O O10 0.008022 0.961539 0.346884
O O11 0.657663 0.471608 0.487789
O O12 0.493521 0.702437 0.418110
O O13 0.115739 0.675747 0.604974
#
# Coordination Sequence:
#
# PCOD8135057 Si02
#       6
#     8   8   8   8   8   8
#     4  11  23  40  62  90 131 162 204 255 319 369
#     4  11  23  39  63  89 122 168 208 258 303 367
#     4  10  19  37  60  90 119 155 218 259 298 362
#     4  11  24  38  60  91 128 163 201 254 322 374
#     4  10  21  38  64  92 121 161 212 257 312 364
#     4   9  20  36  63  91 121 157 215 263 299 360
#
# _framework density 19.970110999999999
#
# number of rings (size 3 to 8) (size 9 to 14) (size 15 to 20)
#    0.000    1.667    1.667    3.500    7.000    0.000 
#    0.000    0.000    0.000    0.000    0.000    0.000 
#    0.000    0.000    0.000    0.000    0.000    0.000 
#
# Total GULP energy -297491.009828 kJ/mol
# GULP energy per Si atom -12395.458743 kJ/mol
# Density = 1.992466 g / cm^3
# Si number density = 19.970111 Si / 1000 Ang^3
#
#
#
# Elastic Constant Matrix: (Units=GPa)
#
#
# Indices 1 2 3 4 5 6 
#
# 1 84.1271 37.6208 34.5626 0.0002 -15.2134 -0.0002
# 2 37.6208 113.1386 46.3283 -0.0011 -8.1918 -0.0010
# 3 34.5626 46.3283 97.1561 -0.0030 -4.6649 -0.0001
# 4 0.0002 -0.0011 -0.0030 20.4987 0.0029 -8.1112
# 5 -15.2134 -8.1918 -4.6649 0.0029 27.7306 0.0003
# 6 -0.0002 -0.0010 -0.0001 -8.1112 0.0003 29.8568
#
#
#
# Elastic Compliance Matrix: (Units=1/GPa)
#
#
# Indices 1 2 3 4 5 6 
#
# 1 0.016270 -0.003299 -0.003864 -0.000002 0.007301 -0.000001
# 2 -0.003299 0.011811 -0.004413 0.000000 0.000937 0.000000
# 3 -0.003864 -0.004413 0.013718 0.000002 -0.001116 0.000000
# 4 -0.000002 0.000000 0.000002 0.054659 -0.000007 0.014849
# 5 0.007301 0.000937 -0.001116 -0.000007 0.040156 -0.000002
# 6 -0.000001 0.000000 0.000000 0.014849 -0.000002 0.037527
#
#
# Mechanical properties :
#
#
# Convention : Reuss Voigt Hill
#
# Bulk Modulus (GPa) = 53.63141 59.04947 56.34044
# Shear Modulus (GPa) = 24.56881 27.34455 25.95668
#
# Velocity S-wave (km/s) = 3.51134 3.70438 3.60915
# Velocity P-wave (km/s) = 6.58434 6.92313 6.75586
#
# Compressibility (1/GPa) = 0.01864579
#
# Stress axis : x y z
#
# Youngs Moduli (GPa) = 61.46275 84.66903 72.89566
#
# Poissons Ratio (x) = 0.27933 0.28169
# Poissons Ratio (y) = 0.20277 0.32171
# Poissons Ratio (z) = 0.23751 0.37367
#
# Static dielectric constant tensor:
#      x y z
#    x 3.326650 0.000000 0.059230 
#    y 0.000000 3.759190 0.000010 
#    z 0.059230 0.000010 3.846450 
# 
# 
# High freq. dielectric constant tensor:
#      x y z
#    x 1.762270 0.000000 0.002570 
#    y 0.000000 1.782000 0.000000 
#    z 0.002570 0.000000 1.783580 
# 
# From -- ./inp_files/144061.got.cif
#   From: 2010.06.25/outbox.cif.g09.slc.cpg/sg15_73_cif.got.tgz:144061.got - 2010.06.28 07:06:18.
