data_PCOD8135594
_publ_section_title
;
Structure prediction by ZEFSAII (Michael W. Deem and Ramdas Pophale) SiO2 
 PCOD8135594
Probable space group: C 2/C
;
_chemical_formula_sum "Si O2"
_cell_formula_units_Z 60
_cell_length_a 26.626222
_cell_length_b 19.514144
_cell_length_c 9.968187
_cell_angle_alpha 90.000000
_cell_angle_beta 142.335543
_cell_angle_gamma 90.000000
_cell_volume 3164.769576
_symmetry_space_group_name_H-M "C 2/C"
_symmetry_group_IT_number 15
_symmetry_cell_setting 'monoclinic'
loop_
_space_group_symop_operation_xyz
x,y,z
-x,y,1/2-z
-x,-y,-z
x,-y,1/2+z
1/2+x,1/2+y,z
1/2-x,1/2+y,1/2-z
1/2-x,1/2-y,-z
1/2+x,1/2-y,1/2+z
loop_
_atom_site_type_symbol
_atom_site_label
_atom_site_fract_x
_atom_site_fract_y
_atom_site_fract_z
Si Si1 0.586767 0.746460 0.883165
Si Si2 0.677008 0.799256 0.673435
Si Si3 0.348841 0.441401 0.371382
Si Si4 0.972968 0.152197 0.975940
Si Si5 0.284820 0.312243 0.656696
Si Si6 0.000000 0.744965 0.750000
Si Si7 0.872289 0.067233 0.225476
Si Si8 0.724421 0.834545 0.057824
O O1 0.500000 0.775283 0.750000
O O2 0.578957 0.690318 0.748843
O O3 0.628067 0.707923 0.094815
O O4 0.640081 0.812021 0.951640
O O5 0.719770 0.832437 0.634091
O O6 0.578816 0.802282 0.447658
O O7 0.705361 0.721189 0.759154
O O8 0.706308 0.843363 0.862011
O O9 0.410998 0.385589 0.444553
O O10 0.352875 0.508538 0.290165
O O11 0.371681 0.461097 0.572280
O O12 0.257280 0.408281 0.176612
O O13 0.021831 0.208725 0.166598
O O14 0.037750 0.098339 0.051471
O O15 0.250000 0.250000 0.500000
O O16 0.300972 0.375830 0.592163
#
# Coordination Sequence:
#
# PCOD8135594 Si02
#       8
#     8   8   8   8   8   4   8   8
#     4  11  22  35  64  94 125 160 207 267 315 363
#     4  10  20  33  62  85 118 159 204 260 306 366
#     4  12  25  40  60  82 129 169 213 241 306 378
#     4  12  21  38  58  87 131 164 206 247 305 376
#     4  11  23  39  60  87 123 155 212 264 315 361
#     4  12  18  36  60  94 122 156 202 252 314 374
#     4  12  26  40  59  90 122 173 208 253 303 378
#     4  10  19  39  57  87 121 165 205 252 313 363
#
# _framework density 18.958725000000001
#
# number of rings (size 3 to 8) (size 9 to 14) (size 15 to 20)
#    0.000    0.800    5.333    4.400    3.733    0.000 
#    0.000    0.000    0.000    0.000    1.733    2.800 
#    0.000    0.000    0.000    0.000    0.000    0.000 
#
# Total GULP energy -372064.128782 kJ/mol
# GULP energy per Si atom -12402.137626 kJ/mol
# Density = 1.891557 g / cm^3
# Si number density = 18.958725 Si / 1000 Ang^3
#
#
#
# Elastic Constant Matrix: (Units=GPa)
#
#
# Indices 1 2 3 4 5 6 
#
# 1 117.0797 41.0786 42.3376 0.0000 3.8647 0.0000
# 2 41.0786 71.4692 34.4218 0.0000 -1.0996 0.0000
# 3 42.3376 34.4218 110.0857 0.0000 -0.2342 0.0000
# 4 0.0000 0.0000 0.0000 20.4878 0.0000 -4.9679
# 5 3.8647 -1.0996 -0.2342 0.0000 41.5656 0.0000
# 6 0.0000 0.0000 0.0000 -4.9679 0.0000 33.4424
#
#
#
# Elastic Compliance Matrix: (Units=1/GPa)
#
#
# Indices 1 2 3 4 5 6 
#
# 1 0.011421 -0.005258 -0.002751 0.000000 -0.001217 0.000000
# 2 -0.005258 0.018901 -0.003886 0.000000 0.000967 0.000000
# 3 -0.002751 -0.003886 0.011357 0.000000 0.000217 0.000000
# 4 0.000000 0.000000 0.000000 0.050633 0.000000 0.007522
# 5 -0.001217 0.000967 0.000217 0.000000 0.024198 0.000000
# 6 0.000000 0.000000 0.000000 0.007522 0.000000 0.031020
#
#
# Mechanical properties :
#
#
# Convention : Reuss Voigt Hill
#
# Bulk Modulus (GPa) = 55.89873 59.36784 57.63329
# Shear Modulus (GPa) = 28.20359 31.15227 29.67793
#
# Velocity S-wave (km/s) = 3.86117 4.05799 3.96080
# Velocity P-wave (km/s) = 7.03040 7.30333 7.16817
#
# Compressibility (1/GPa) = 0.01788949
#
# Stress axis : x y z
#
# Youngs Moduli (GPa) = 87.55796 52.90818 88.05028
#
# Poissons Ratio (x) = 0.27821 0.24221
# Poissons Ratio (y) = 0.46041 0.34212
# Poissons Ratio (z) = 0.24085 0.20558
#
# Static dielectric constant tensor:
#      x y z
#    x 3.661770 0.000000 -0.107910 
#    y 0.000000 3.123480 0.000000 
#    z -0.107910 0.000000 3.600200 
# 
# 
# High freq. dielectric constant tensor:
#      x y z
#    x 1.750900 0.000000 -0.011040 
#    y 0.000000 1.688430 0.000000 
#    z -0.011040 0.000000 1.748300 
# 
# From -- ./inp_files/67534.got.cif
#   From: 2010.06.25/outbox.cif.g09.slc.cpg/sg15_34_cif.got.tgz:67534.got - 2010.06.28 07:06:18.
