data_PCOD8135762
_publ_section_title
;
Structure prediction by ZEFSAII (Michael W. Deem and Ramdas Pophale) SiO2 
 PCOD8135762
Probable space group: C 2/C
;
_chemical_formula_sum "Si O2"
_cell_formula_units_Z 56
_cell_length_a 12.214102
_cell_length_b 8.331579
_cell_length_c 22.508212
_cell_angle_alpha 90.000000
_cell_angle_beta 125.016932
_cell_angle_gamma 90.000000
_cell_volume 1875.877529
_symmetry_space_group_name_H-M "C 2/C"
_symmetry_group_IT_number 15
_symmetry_cell_setting 'monoclinic'
loop_
_space_group_symop_operation_xyz
x,y,z
-x,y,1/2-z
-x,-y,-z
x,-y,1/2+z
1/2+x,1/2+y,z
1/2-x,1/2+y,1/2-z
1/2-x,1/2-y,-z
1/2+x,1/2-y,1/2+z
loop_
_atom_site_type_symbol
_atom_site_label
_atom_site_fract_x
_atom_site_fract_y
_atom_site_fract_z
Si Si1 0.221805 0.500520 0.359072
Si Si2 0.666130 0.330366 0.800214
Si Si3 0.793969 0.518172 0.018860
Si Si4 0.966545 0.953687 0.853224
Si Si5 0.036126 0.719510 0.115107
Si Si6 0.726955 0.653083 0.883679
Si Si7 0.033045 0.739750 0.977266
O O1 0.130973 0.341885 0.320174
O O2 0.289692 0.477855 0.446811
O O3 0.325937 0.499310 0.338443
O O4 0.157297 0.681247 0.338295
O O5 0.554851 0.349421 0.713226
O O6 0.815158 0.336270 0.819552
O O7 0.655227 0.486141 0.840550
O O8 0.937993 0.570866 0.091450
O O9 0.838365 0.375022 0.988919
O O10 0.723383 0.651436 0.955440
O O11 0.059800 0.871216 0.932633
O O12 0.016668 0.137591 0.856312
O O13 0.039213 0.792918 0.048208
O O14 0.886884 0.660904 0.916747
#
# Coordination Sequence:
#
# PCOD8135762 Si02
#       7
#     8   8   8   8   8   8   8
#     4  10  25  38  64 101 126 167 213 270 321 375
#     4  11  22  43  65  94 125 175 219 253 319 393
#     4  11  20  41  65  99 129 162 210 280 323 366
#     4  10  24  40  65  90 128 171 222 255 307 402
#     4  10  20  39  68  94 122 171 218 258 315 385
#     4  10  20  41  67  93 131 171 214 256 321 394
#     4  10  19  39  67  94 127 170 214 261 318 380
#
# _framework density 29.852695000000001
#
# number of rings (size 3 to 8) (size 9 to 14) (size 15 to 20)
#    0.000    1.714    2.857    1.714    8.000    1.714 
#    2.571    2.857    0.000    0.000    0.000    0.000 
#    0.000    0.000    0.000    0.000    0.000    0.000 
#
# Total GULP energy -346914.016378 kJ/mol
# GULP energy per Si atom -12389.786299 kJ/mol
# Density = 2.978475 g / cm^3
# Si number density = 29.852695 Si / 1000 Ang^3
#
#
#
# Elastic Constant Matrix: (Units=GPa)
#
#
# Indices 1 2 3 4 5 6 
#
# 1 63.8364 29.0478 9.8280 0.0000 -0.6503 0.0000
# 2 29.0478 208.6287 59.0261 0.0000 -7.6947 0.0000
# 3 9.8280 59.0261 136.4965 0.0000 -3.6191 0.0000
# 4 0.0000 0.0000 0.0000 53.3673 0.0000 -19.9531
# 5 -0.6503 -7.6947 -3.6191 0.0000 52.1855 0.0000
# 6 0.0000 0.0000 0.0000 -19.9531 0.0000 28.6608
#
#
#
# Elastic Compliance Matrix: (Units=1/GPa)
#
#
# Indices 1 2 3 4 5 6 
#
# 1 0.016732 -0.002271 -0.000227 0.000000 -0.000142 0.000000
# 2 -0.002271 0.005791 -0.002323 0.000000 0.000664 0.000000
# 3 -0.000227 -0.002323 0.008353 0.000000 0.000234 0.000000
# 4 0.000000 0.000000 0.000000 0.025332 0.000000 0.017635
# 5 -0.000142 0.000664 0.000234 0.000000 0.019275 0.000000
# 6 0.000000 0.000000 0.000000 0.017635 0.000000 0.047168
#
#
# Mechanical properties :
#
#
# Convention : Reuss Voigt Hill
#
# Bulk Modulus (GPa) = 47.09137 67.19617 57.14377
# Shear Modulus (GPa) = 35.87562 47.58003 41.72782
#
# Velocity S-wave (km/s) = 3.47039 3.99661 3.74276
# Velocity P-wave (km/s) = 5.64509 6.62233 6.15314
#
# Compressibility (1/GPa) = 0.02123531
#
# Stress axis : x y z
#
# Youngs Moduli (GPa) = 59.76663 172.67692 119.71257
#
# Poissons Ratio (x) = 0.39211 0.02712
# Poissons Ratio (y) = 0.13571 0.27812
# Poissons Ratio (z) = 0.01354 0.40116
#
# Static dielectric constant tensor:
#      x y z
#    x 6.317170 0.000000 -0.115180 
#    y 0.000000 6.099480 0.000000 
#    z -0.115180 0.000000 5.082060 
# 
# 
# High freq. dielectric constant tensor:
#      x y z
#    x 2.272030 0.000000 -0.007430 
#    y 0.000000 2.237870 0.000000 
#    z -0.007430 0.000000 2.185150 
# 
# From -- ./inp_files/247570.got.cif
#   From: 2010.06.25/outbox.cif.g09.slc.cpg/sg15_124_cif.got.tgz:247570.got - 2010.06.28 07:06:18.
