data_PCOD8135227
_publ_section_title
;
Structure prediction by ZEFSAII (Michael W. Deem and Ramdas Pophale) SiO2 
 PCOD8135227
Probable space group: C 2/C
;
_chemical_formula_sum "Si O2"
_cell_formula_units_Z 56
_cell_length_a 27.703499
_cell_length_b 9.160232
_cell_length_c 19.502102
_cell_angle_alpha 90.000000
_cell_angle_beta 36.376433
_cell_angle_gamma 90.000000
_cell_volume 2935.225604
_symmetry_space_group_name_H-M "C 2/C"
_symmetry_group_IT_number 15
_symmetry_cell_setting 'monoclinic'
loop_
_space_group_symop_operation_xyz
x,y,z
-x,y,1/2-z
-x,-y,-z
x,-y,1/2+z
1/2+x,1/2+y,z
1/2-x,1/2+y,1/2-z
1/2-x,1/2-y,-z
1/2+x,1/2-y,1/2+z
loop_
_atom_site_type_symbol
_atom_site_label
_atom_site_fract_x
_atom_site_fract_y
_atom_site_fract_z
Si Si1 0.773841 0.144833 0.669123
Si Si2 0.342180 0.653683 0.127711
Si Si3 0.947488 0.268839 0.494841
Si Si4 0.584219 0.447715 0.817416
Si Si5 0.185459 0.279325 0.131421
Si Si6 0.515835 0.753287 0.894091
Si Si7 0.465246 0.028890 0.713696
O O1 0.711026 0.199201 0.799851
O O2 0.853650 0.242408 0.587875
O O3 0.734314 0.181044 0.642581
O O4 0.789822 0.971104 0.649387
O O5 0.364358 0.575099 0.173113
O O6 0.421813 0.703690 0.995159
O O7 0.964962 0.322937 0.552856
O O8 0.993643 0.115479 0.431886
O O9 0.979547 0.386678 0.404478
O O10 0.630263 0.366047 0.702950
O O11 0.576263 0.618064 0.811155
O O12 0.126622 0.412670 0.179324
O O13 0.250000 0.250000 0.000000
O O14 0.536046 0.862504 0.809588
O O15 0.500000 0.042616 0.750000
#
# Coordination Sequence:
#
# PCOD8135227 Si02
#       7
#     8   8   8   8   8   8   8
#     4  11  21  34  61  92 119 149 190 247 304 348
#     4  10  21  34  56  92 123 143 189 244 305 349
#     4  10  19  37  66  87 117 159 194 244 298 355
#     4   9  18  39  62  86 116 152 195 243 287 358
#     4  10  23  42  59  84 117 159 202 240 292 364
#     4  11  20  40  61  90 120 153 201 250 296 350
#     4  11  25  41  59  85 121 163 206 242 288 361
#
# _framework density 19.078600999999999
#
# number of rings (size 3 to 8) (size 9 to 14) (size 15 to 20)
#    0.000    1.714    2.857    3.000    4.000    0.000 
#    2.571    1.429    0.000    0.000    0.000    0.000 
#    0.000    0.000    0.000    0.000    0.000    0.000 
#
# Total GULP energy -347202.677228 kJ/mol
# GULP energy per Si atom -12400.095615 kJ/mol
# Density = 1.903518 g / cm^3
# Si number density = 19.078601 Si / 1000 Ang^3
#
#
#
# Elastic Constant Matrix: (Units=GPa)
#
#
# Indices 1 2 3 4 5 6 
#
# 1 95.6337 38.4921 38.6053 -0.0003 -12.5295 -0.0010
# 2 38.4921 106.0405 43.3543 0.0060 -0.6538 -0.0020
# 3 38.6053 43.3543 105.1843 -0.0005 -12.8947 0.0009
# 4 -0.0003 0.0060 -0.0005 22.3774 -0.0050 -3.1828
# 5 -12.5295 -0.6538 -12.8947 -0.0050 27.2740 0.0031
# 6 -0.0010 -0.0020 0.0009 -3.1828 0.0031 22.4725
#
#
#
# Elastic Compliance Matrix: (Units=1/GPa)
#
#
# Indices 1 2 3 4 5 6 
#
# 1 0.013792 -0.003790 -0.002903 0.000002 0.004873 0.000000
# 2 -0.003790 0.012493 -0.004177 -0.000004 -0.003416 0.000001
# 3 -0.002903 -0.004177 0.012864 0.000002 0.004648 -0.000001
# 4 0.000002 -0.000004 0.000002 0.045607 0.000010 0.006459
# 5 0.004873 -0.003416 0.004648 0.000010 0.041019 -0.000005
# 6 0.000000 0.000001 -0.000001 0.006459 -0.000005 0.045414
#
#
# Mechanical properties :
#
#
# Convention : Reuss Voigt Hill
#
# Bulk Modulus (GPa) = 57.43849 60.86245 59.15047
# Shear Modulus (GPa) = 25.15971 26.85189 26.00580
#
# Velocity S-wave (km/s) = 3.63539 3.75565 3.69601
# Velocity P-wave (km/s) = 6.91325 7.12578 7.02032
#
# Compressibility (1/GPa) = 0.01740993
#
# Stress axis : x y z
#
# Youngs Moduli (GPa) = 72.50559 80.04671 77.73625
#
# Poissons Ratio (x) = 0.30335 0.22564
# Poissons Ratio (y) = 0.27477 0.32471
# Poissons Ratio (z) = 0.21046 0.33436
#
# Static dielectric constant tensor:
#      x y z
#    x 3.461360 -0.000020 -0.210760 
#    y -0.000020 3.781250 -0.000010 
#    z -0.210760 -0.000010 3.428670 
# 
# 
# High freq. dielectric constant tensor:
#      x y z
#    x 1.739100 0.000000 -0.019220 
#    y 0.000000 1.742510 0.000000 
#    z -0.019220 0.000000 1.735040 
# 
# From -- ./inp_files/222002.got.cif
#   From: 2010.06.25/outbox.cif.g09.slc.cpg/sg15_112_cif.got.tgz:222002.got - 2010.06.28 07:06:18.
