data_PCOD8135974
_publ_section_title
;
Structure prediction by ZEFSAII (Michael W. Deem and Ramdas Pophale) SiO2 
 PCOD8135974
Probable space group: C 2/C
;
_chemical_formula_sum "Si O2"
_cell_formula_units_Z 64
_cell_length_a 30.941486
_cell_length_b 16.044247
_cell_length_c 20.821398
_cell_angle_alpha 90.000000
_cell_angle_beta 161.941309
_cell_angle_gamma 90.000000
_cell_volume 3204.199473
_symmetry_space_group_name_H-M "C 2/C"
_symmetry_group_IT_number 15
_symmetry_cell_setting 'monoclinic'
loop_
_space_group_symop_operation_xyz
x,y,z
-x,y,1/2-z
-x,-y,-z
x,-y,1/2+z
1/2+x,1/2+y,z
1/2-x,1/2+y,1/2-z
1/2-x,1/2-y,-z
1/2+x,1/2-y,1/2+z
loop_
_atom_site_type_symbol
_atom_site_label
_atom_site_fract_x
_atom_site_fract_y
_atom_site_fract_z
Si Si1 0.467597 0.442735 0.129076
Si Si2 0.852234 0.409589 0.830222
Si Si3 0.996236 0.757109 0.955676
Si Si4 0.230754 0.148824 0.562160
Si Si5 0.603712 0.848241 0.836706
Si Si6 0.523829 0.628022 0.379705
Si Si7 0.590084 0.702886 0.723624
Si Si8 0.410287 0.009213 0.280962
O O1 0.500000 0.440989 0.250000
O O2 0.512579 0.531153 0.163964
O O3 0.562196 0.375401 0.229008
O O4 0.309291 0.423511 0.887840
O O5 0.899311 0.426465 0.824033
O O6 0.887978 0.313347 0.892485
O O7 0.935873 0.467776 0.998993
O O8 0.842384 0.722790 0.722338
O O9 0.039607 0.832705 0.971464
O O10 0.997703 0.794757 0.029111
O O11 0.103177 0.175030 0.335968
O O12 0.295198 0.062605 0.627278
O O13 0.169347 0.134555 0.546645
O O14 0.500000 0.851686 0.750000
O O15 0.550356 0.786416 0.705895
O O16 0.613293 0.941086 0.818966
O O17 0.747790 0.808424 0.066077
#
# Coordination Sequence:
#
# PCOD8135974 Si02
#       8
#     8   8   8   8   8   8   8   8
#     4  12  23  41  66  91 125 169 219 264 314 387
#     4  10  21  38  65  93 121 164 211 262 313 379
#     4  11  25  39  62  96 133 159 210 267 317 385
#     4  10  21  42  67  94 122 166 212 268 311 384
#     4  11  24  41  64  94 132 170 214 258 317 380
#     4  11  22  40  70  92 117 170 217 258 325 378
#     4  11  26  39  60  95 133 171 204 263 324 377
#     4  10  19  41  68  92 121 166 217 258 312 380
#
# _framework density 19.973789
#
# number of rings (size 3 to 8) (size 9 to 14) (size 15 to 20)
#    0.000    1.250    3.750    2.250    5.250    1.500 
#    0.000    1.250   11.000    0.000    0.000    0.000 
#    0.000    0.000    0.000    0.000    0.000    0.000 
#
# Total GULP energy -396850.578535 kJ/mol
# GULP energy per Si atom -12401.580579 kJ/mol
# Density = 1.992833 g / cm^3
# Si number density = 19.973789 Si / 1000 Ang^3
#
#
#
# Elastic Constant Matrix: (Units=GPa)
#
#
# Indices 1 2 3 4 5 6 
#
# 1 113.3670 71.9456 36.4716 0.0002 0.2651 0.0001
# 2 71.9456 91.3939 20.2281 0.0003 1.2259 0.0002
# 3 36.4716 20.2281 92.3156 0.0004 8.0305 0.0003
# 4 0.0002 0.0003 0.0004 20.9993 0.0002 1.5173
# 5 0.2651 1.2259 8.0305 0.0002 26.2032 0.0001
# 6 0.0001 0.0002 0.0003 1.5173 0.0001 32.9139
#
#
#
# Elastic Compliance Matrix: (Units=1/GPa)
#
#
# Indices 1 2 3 4 5 6 
#
# 1 0.019351 -0.014220 -0.004695 0.000000 0.001908 0.000000
# 2 -0.014220 0.021950 0.000909 0.000000 -0.001162 0.000000
# 3 -0.004695 0.000909 0.012830 0.000000 -0.003927 0.000000
# 4 0.000000 0.000000 0.000000 0.047780 0.000000 -0.002203
# 5 0.001908 -0.001162 -0.003927 0.000000 0.039402 0.000000
# 6 0.000000 0.000000 0.000000 -0.002203 0.000000 0.030484
#
#
# Mechanical properties :
#
#
# Convention : Reuss Voigt Hill
#
# Bulk Modulus (GPa) = 55.19014 61.59635 58.39324
# Shear Modulus (GPa) = 23.38115 27.25202 25.31658
#
# Velocity S-wave (km/s) = 3.42510 3.69777 3.56405
# Velocity P-wave (km/s) = 6.58278 7.00977 6.79963
#
# Compressibility (1/GPa) = 0.01811918
#
# Stress axis : x y z
#
# Youngs Moduli (GPa) = 51.67640 45.55855 77.94350
#
# Poissons Ratio (x) = 0.64783 0.36597
# Poissons Ratio (y) = 0.73482 -0.07087
# Poissons Ratio (z) = 0.24264 -0.04143
#
# Static dielectric constant tensor:
#      x y z
#    x 3.379040 0.000000 -0.014110 
#    y 0.000000 3.641400 0.000000 
#    z -0.014110 0.000000 3.787110 
# 
# 
# High freq. dielectric constant tensor:
#      x y z
#    x 1.757800 0.000000 0.000660 
#    y 0.000000 1.782480 0.000000 
#    z 0.000660 0.000000 1.792600 
# 
# From -- ./inp_files/259458.got.cif
#   From: 2010.06.25/outbox.cif.g09.slc.cpg/sg15_130_cif.got.tgz:259458.got - 2010.06.28 07:06:18.
