data_PCOD8135725
_publ_section_title
;
Structure prediction by ZEFSAII (Michael W. Deem and Ramdas Pophale) SiO2 
 PCOD8135725
Probable space group: C 2/C
;
_chemical_formula_sum "Si O2"
_cell_formula_units_Z 64
_cell_length_a 22.206155
_cell_length_b 8.879795
_cell_length_c 18.752361
_cell_angle_alpha 90.000000
_cell_angle_beta 57.772302
_cell_angle_gamma 90.000000
_cell_volume 3128.019801
_symmetry_space_group_name_H-M "C 2/C"
_symmetry_group_IT_number 15
_symmetry_cell_setting 'monoclinic'
loop_
_space_group_symop_operation_xyz
x,y,z
-x,y,1/2-z
-x,-y,-z
x,-y,1/2+z
1/2+x,1/2+y,z
1/2-x,1/2+y,1/2-z
1/2-x,1/2-y,-z
1/2+x,1/2-y,1/2+z
loop_
_atom_site_type_symbol
_atom_site_label
_atom_site_fract_x
_atom_site_fract_y
_atom_site_fract_z
Si Si1 0.293841 0.872323 0.616921
Si Si2 0.990994 0.196756 0.671609
Si Si3 0.122659 0.208119 0.056377
Si Si4 0.144310 0.625770 0.270974
Si Si5 0.658412 0.813315 0.191006
Si Si6 0.737784 0.691905 0.614868
Si Si7 0.352436 0.356566 0.463124
Si Si8 0.473090 0.364465 0.686754
O O1 0.349633 0.804997 0.526290
O O2 0.334720 0.919616 0.662568
O O3 0.233729 0.748275 0.670364
O O4 0.258090 0.018359 0.606101
O O5 0.067226 0.207228 0.584126
O O6 0.000000 0.217906 0.750000
O O7 0.938132 0.323868 0.675679
O O8 0.956380 0.035043 0.673704
O O9 0.148900 0.284973 0.112922
O O10 0.037095 0.209936 0.101448
O O11 0.150842 0.037242 0.035909
O O12 0.154331 0.489639 0.209274
O O13 0.196819 0.758643 0.212111
O O14 0.597651 0.732891 0.276545
O O15 0.682342 0.712324 0.585688
O O16 0.808179 0.794595 0.558712
O O17 0.500000 0.372075 0.750000
#
# Coordination Sequence:
#
# PCOD8135725 Si02
#       8
#     8   8   8   8   8   8   8   8
#     4  12  25  41  61  91 132 169 204 259 320 379
#     4  10  19  39  65  91 121 164 211 258 307 371
#     4  10  21  41  66  94 119 162 214 259 307 374
#     4  12  26  40  60  94 131 167 205 258 324 375
#     4  11  22  39  63  91 124 166 212 256 308 376
#     4  11  23  39  62  91 126 160 208 258 309 372
#     4  10  21  39  67  95 115 157 215 266 303 359
#     4   8  18  37  63  90 118 154 212 264 304 356
#
# _framework density 20.460227
#
# number of rings (size 3 to 8) (size 9 to 14) (size 15 to 20)
#    0.000    1.500    2.500    3.375    3.500    2.500 
#    0.000    7.500    0.000    0.000    0.000    0.000 
#    0.000    0.000    0.000    0.000    0.000    0.000 
#
# Total GULP energy -396894.670041 kJ/mol
# GULP energy per Si atom -12402.958439 kJ/mol
# Density = 2.041366 g / cm^3
# Si number density = 20.460227 Si / 1000 Ang^3
#
#
#
# Elastic Constant Matrix: (Units=GPa)
#
#
# Indices 1 2 3 4 5 6 
#
# 1 71.4914 27.7974 41.6029 0.0004 -8.8074 0.0010
# 2 27.7974 100.8421 47.7322 0.0003 -13.0677 0.0029
# 3 41.6029 47.7322 100.0104 0.0003 -22.1835 0.0007
# 4 0.0004 0.0003 0.0003 35.2990 -0.0001 -10.9812
# 5 -8.8074 -13.0677 -22.1835 -0.0001 29.6390 -0.0003
# 6 0.0010 0.0029 0.0007 -10.9812 -0.0003 22.0921
#
#
#
# Elastic Compliance Matrix: (Units=1/GPa)
#
#
# Indices 1 2 3 4 5 6 
#
# 1 0.018741 -0.001923 -0.006992 0.000000 -0.000512 -0.000001
# 2 -0.001923 0.013049 -0.005130 -0.000001 0.001342 -0.000002
# 3 -0.006992 -0.005130 0.017259 0.000000 0.008578 0.000001
# 4 0.000000 -0.000001 0.000000 0.033511 0.000000 0.016657
# 5 -0.000512 0.001342 0.008578 0.000000 0.040599 0.000000
# 6 -0.000001 -0.000002 0.000001 0.016657 0.000000 0.053545
#
#
# Mechanical properties :
#
#
# Convention : Reuss Voigt Hill
#
# Bulk Modulus (GPa) = 47.71319 56.28988 52.00153
# Shear Modulus (GPa) = 23.60944 27.75344 25.68144
#
# Velocity S-wave (km/s) = 3.40062 3.68701 3.54671
# Velocity P-wave (km/s) = 6.22813 6.75995 6.49948
#
# Compressibility (1/GPa) = 0.02095856
#
# Stress axis : x y z
#
# Youngs Moduli (GPa) = 53.35889 76.63555 57.94206
#
# Poissons Ratio (x) = 0.14736 0.40512
# Poissons Ratio (y) = 0.10260 0.29726
# Poissons Ratio (z) = 0.37307 0.39316
#
# Static dielectric constant tensor:
#      x y z
#    x 3.521130 0.000000 -0.383640 
#    y 0.000000 3.679980 0.000000 
#    z -0.383640 0.000000 3.900150 
# 
# 
# High freq. dielectric constant tensor:
#      x y z
#    x 1.781510 0.000000 -0.026350 
#    y 0.000000 1.803450 0.000000 
#    z -0.026350 0.000000 1.801860 
# 
# From -- ./inp_files/255044.got.cif
#   From: 2010.06.25/outbox.cif.g09.slc.cpg/sg15_128_cif.got.tgz:255044.got - 2010.06.28 07:06:18.
