data_PCOD8135959
_publ_section_title
;
Structure prediction by ZEFSAII (Michael W. Deem and Ramdas Pophale) SiO2 
 PCOD8135959
Probable space group: C 2/C
;
_chemical_formula_sum "Si O2"
_cell_formula_units_Z 52
_cell_length_a 10.755371
_cell_length_b 15.356496
_cell_length_c 12.257807
_cell_angle_alpha 90.000000
_cell_angle_beta 68.472525
_cell_angle_gamma 90.000000
_cell_volume 1883.328661
_symmetry_space_group_name_H-M "C 2/C"
_symmetry_group_IT_number 15
_symmetry_cell_setting 'monoclinic'
loop_
_space_group_symop_operation_xyz
x,y,z
-x,y,1/2-z
-x,-y,-z
x,-y,1/2+z
1/2+x,1/2+y,z
1/2-x,1/2+y,1/2-z
1/2-x,1/2-y,-z
1/2+x,1/2-y,1/2+z
loop_
_atom_site_type_symbol
_atom_site_label
_atom_site_fract_x
_atom_site_fract_y
_atom_site_fract_z
Si Si1 0.762213 0.391242 0.696714
Si Si2 0.346846 0.173867 0.498536
Si Si3 0.899015 0.281619 0.482719
Si Si4 0.116683 0.107629 0.893432
Si Si5 0.500000 0.117735 0.250000
Si Si6 0.650213 0.211473 0.739047
Si Si7 0.854437 0.979140 0.416806
O O1 0.849721 0.365686 0.563052
O O2 0.865610 0.432958 0.753904
O O3 0.686498 0.308094 0.776520
O O4 0.657787 0.464491 0.691504
O O5 0.250000 0.250000 0.500000
O O6 0.431919 0.190829 0.589302
O O7 0.459512 0.176016 0.368013
O O8 0.272729 0.083600 0.533284
O O9 0.937542 0.194944 0.533859
O O10 0.807395 0.267033 0.405142
O O11 0.241386 0.133806 0.771434
O O12 0.994280 0.071146 0.861285
O O13 0.155780 0.037111 0.971418
O O14 0.500000 0.186512 0.750000
#
# Coordination Sequence:
#
# PCOD8135959 Si02
#       7
#     8   8   8   8   4   8   8
#     4  10  21  43  71  99 136 191 235 296 359 424
#     4  11  24  43  72 100 140 197 237 292 371 427
#     4  10  19  41  66  94 134 182 239 279 357 431
#     4  10  20  40  67 101 127 180 236 291 350 428
#     4  10  26  44  68 102 152 182 246 302 350 442
#     4  11  22  39  69 100 144 183 240 294 360 431
#     4  11  21  40  75  95 135 184 240 292 358 434
#
# _framework density 27.610688
#
# number of rings (size 3 to 8) (size 9 to 14) (size 15 to 20)
#    0.000    1.538    4.615    0.923    2.154    2.462 
#    1.385    0.000    1.692    0.000    0.000    0.000 
#    0.000    0.000    0.000    0.000    0.000    0.000 
#
# Total GULP energy -322091.811394 kJ/mol
# GULP energy per Si atom -12388.146592 kJ/mol
# Density = 2.754785 g / cm^3
# Si number density = 27.610688 Si / 1000 Ang^3
#
#
#
# Elastic Constant Matrix: (Units=GPa)
#
#
# Indices 1 2 3 4 5 6 
#
# 1 255.8418 82.6591 50.3167 0.0000 17.3832 0.0000
# 2 82.6591 130.5077 21.2025 0.0000 -1.7716 0.0000
# 3 50.3167 21.2025 94.7414 0.0000 -0.3965 0.0000
# 4 0.0000 0.0000 0.0000 19.8494 0.0000 -2.2084
# 5 17.3832 -1.7716 -0.3965 0.0000 60.2774 0.0000
# 6 0.0000 0.0000 0.0000 -2.2084 0.0000 48.5678
#
#
#
# Elastic Compliance Matrix: (Units=1/GPa)
#
#
# Indices 1 2 3 4 5 6 
#
# 1 0.005468 -0.003127 -0.002211 0.000000 -0.001683 0.000000
# 2 -0.003127 0.009743 -0.000515 0.000000 0.001185 0.000000
# 3 -0.002211 -0.000515 0.011848 0.000000 0.000701 0.000000
# 4 0.000000 0.000000 0.000000 0.050635 0.000000 0.002302
# 5 -0.001683 0.001185 0.000701 0.000000 0.017115 0.000000
# 6 0.000000 0.000000 0.000000 0.002302 0.000000 0.020694
#
#
# Mechanical properties :
#
#
# Convention : Reuss Voigt Hill
#
# Bulk Modulus (GPa) = 65.13639 87.71636 76.42637
# Shear Modulus (GPa) = 37.78525 47.53309 42.65917
#
# Velocity S-wave (km/s) = 3.70334 4.15365 3.93494
# Velocity P-wave (km/s) = 6.47522 7.40552 6.95594
#
# Compressibility (1/GPa) = 0.01535240
#
# Stress axis : x y z
#
# Youngs Moduli (GPa) = 182.87375 102.64198 84.40512
#
# Poissons Ratio (x) = 0.32096 0.18665
# Poissons Ratio (y) = 0.57184 0.04344
# Poissons Ratio (z) = 0.40441 0.05282
#
# Static dielectric constant tensor:
#      x y z
#    x 0.000000 0.000000 0.000000 
#    y 0.000000 0.000000 0.000000 
#    z 0.000000 0.000000 0.000000 
# 
# 
# High freq. dielectric constant tensor:
#      x y z
#    x 2.166930 0.000000 -0.002090 
#    y 0.000000 2.083310 0.000000 
#    z -0.002090 0.000000 2.148920 
# 
# From -- ./inp_files/144162.got.cif
#   From: 2010.06.25/outbox.cif.g09.slc.cpg/sg15_73_cif.got.tgz:144162.got - 2010.06.28 07:06:18.
