data_PCOD8135136
_publ_section_title
;
Structure prediction by ZEFSAII (Michael W. Deem and Ramdas Pophale) SiO2 
 PCOD8135136
Probable space group: C 2/C
;
_chemical_formula_sum "Si O2"
_cell_formula_units_Z 48
_cell_length_a 33.217417
_cell_length_b 15.275291
_cell_length_c 16.490721
_cell_angle_alpha 90.000000
_cell_angle_beta 17.437888
_cell_angle_gamma 90.000000
_cell_volume 2507.499073
_symmetry_space_group_name_H-M "C 2/C"
_symmetry_group_IT_number 15
_symmetry_cell_setting 'monoclinic'
loop_
_space_group_symop_operation_xyz
x,y,z
-x,y,1/2-z
-x,-y,-z
x,-y,1/2+z
1/2+x,1/2+y,z
1/2-x,1/2+y,1/2-z
1/2-x,1/2-y,-z
1/2+x,1/2-y,1/2+z
loop_
_atom_site_type_symbol
_atom_site_label
_atom_site_fract_x
_atom_site_fract_y
_atom_site_fract_z
Si Si1 0.000000 0.950125 0.750000
Si Si2 0.303058 0.532141 0.343925
Si Si3 0.267942 0.379049 0.283951
Si Si4 0.508647 0.062356 0.903894
Si Si5 0.781068 0.706761 0.354603
Si Si6 0.000000 0.537561 0.250000
Si Si7 0.573251 0.566595 0.756778
O O1 0.128189 0.889608 0.489047
O O2 0.974856 0.013934 0.725924
O O3 0.297818 0.446740 0.297840
O O4 0.167347 0.589549 0.595051
O O5 0.317688 0.492715 0.405536
O O6 0.437337 0.589710 0.068843
O O7 0.293090 0.280941 0.264590
O O8 0.121607 0.396066 0.529658
O O9 0.472754 0.019352 0.884742
O O10 0.416227 0.147489 0.095625
O O11 0.500000 0.000000 0.000000
O O12 0.750000 0.750000 0.500000
O O13 0.649000 0.653195 0.583067
#
# Coordination Sequence:
#
# PCOD8135136 Si02
#       7
#     4   8   8   8   8   4   8
#     4  10  22  38  60  86 116 162 204 234 304 372
#     4   9  19  38  63  85 113 157 208 235 293 376
#     4  10  21  38  59  89 121 154 195 257 306 348
#     4  11  21  39  66  94 119 166 210 252 303 375
#     4  12  22  38  60  90 123 155 200 263 316 353
#     4  10  22  42  62  90 122 166 216 248 296 390
#     4  10  19  37  63  84 116 158 201 242 297 370
#
# _framework density 19.142579000000001
#
# number of rings (size 3 to 8) (size 9 to 14) (size 15 to 20)
#    0.000    1.667    3.333    2.000    0.000    1.333 
#    0.000    2.500    0.000    0.000    0.000    0.000 
#    0.000    0.000    0.000    0.000    0.000    0.000 
#
# Total GULP energy -297397.116019 kJ/mol
# GULP energy per Si atom -12391.546501 kJ/mol
# Density = 1.909901 g / cm^3
# Si number density = 19.142579 Si / 1000 Ang^3
#
#
#
# Elastic Constant Matrix: (Units=GPa)
#
#
# Indices 1 2 3 4 5 6 
#
# 1 75.6107 5.0584 19.2331 -0.0002 -3.0322 0.0002
# 2 5.0584 77.6885 58.0504 -0.0002 -6.5303 0.0002
# 3 19.2331 58.0504 129.9614 -0.0002 -17.2241 0.0002
# 4 -0.0002 -0.0002 -0.0002 23.1951 0.0001 -4.6686
# 5 -3.0322 -6.5303 -17.2241 0.0001 36.6317 -0.0001
# 6 0.0002 0.0002 0.0002 -4.6686 -0.0001 19.7898
#
#
#
# Elastic Compliance Matrix: (Units=1/GPa)
#
#
# Indices 1 2 3 4 5 6 
#
# 1 0.013790 0.000937 -0.002438 0.000000 0.000162 0.000000
# 2 0.000937 0.019399 -0.008889 0.000000 -0.000644 0.000000
# 3 -0.002438 -0.008889 0.012573 0.000000 0.004125 0.000000
# 4 0.000000 0.000000 0.000000 0.045262 0.000000 0.010678
# 5 0.000162 -0.000644 0.004125 0.000000 0.029137 0.000000
# 6 0.000000 0.000000 0.000000 0.010678 0.000000 0.053050
#
#
# Mechanical properties :
#
#
# Convention : Reuss Voigt Hill
#
# Bulk Modulus (GPa) = 40.02886 49.77161 44.90024
# Shear Modulus (GPa) = 24.71377 29.31789 27.01583
#
# Velocity S-wave (km/s) = 3.59700 3.91775 3.76080
# Velocity P-wave (km/s) = 6.18122 6.82070 6.50882
#
# Compressibility (1/GPa) = 0.02498197
#
# Stress axis : x y z
#
# Youngs Moduli (GPa) = 72.51853 51.54954 79.53798
#
# Poissons Ratio (x) = -0.04833 0.19391
# Poissons Ratio (y) = -0.06799 0.70701
# Poissons Ratio (z) = 0.17680 0.45822
#
# Static dielectric constant tensor:
#      x y z
#    x 3.547350 0.000000 -0.010070 
#    y 0.000000 2.764240 -0.000010 
#    z -0.010070 -0.000010 4.665920 
# 
# 
# High freq. dielectric constant tensor:
#      x y z
#    x 1.755090 0.000000 -0.002850 
#    y 0.000000 1.709780 0.000000 
#    z -0.002850 0.000000 1.769840 
# 
# From -- ./inp_files/182474.got.cif
#   From: 2010.06.25/outbox.cif.g09.slc.cpg/sg15_92_cif.got.tgz:182474.got - 2010.06.28 07:06:18.
