data_PCOD8135026
_publ_section_title
;
Structure prediction by ZEFSAII (Michael W. Deem and Ramdas Pophale) SiO2 
 PCOD8135026
Probable space group: C 2/C
;
_chemical_formula_sum "Si O2"
_cell_formula_units_Z 64
_cell_length_a 8.540544
_cell_length_b 22.129085
_cell_length_c 30.030531
_cell_angle_alpha 90.000000
_cell_angle_beta 146.341075
_cell_angle_gamma 90.000000
_cell_volume 3145.690780
_symmetry_space_group_name_H-M "C 2/C"
_symmetry_group_IT_number 15
_symmetry_cell_setting 'monoclinic'
loop_
_space_group_symop_operation_xyz
x,y,z
-x,y,1/2-z
-x,-y,-z
x,-y,1/2+z
1/2+x,1/2+y,z
1/2-x,1/2+y,1/2-z
1/2-x,1/2-y,-z
1/2+x,1/2-y,1/2+z
loop_
_atom_site_type_symbol
_atom_site_label
_atom_site_fract_x
_atom_site_fract_y
_atom_site_fract_z
Si Si1 0.823966 0.520586 0.085144
Si Si2 0.185094 0.960974 0.250951
Si Si3 0.422513 0.351279 0.615462
Si Si4 0.776984 0.847895 0.908007
Si Si5 0.191725 0.521864 0.085709
Si Si6 0.269463 0.176515 0.786603
Si Si7 0.236423 0.772244 0.046998
Si Si8 0.294750 0.707276 0.241292
O O1 0.834469 0.590539 0.098444
O O2 0.996452 0.488079 0.166840
O O3 0.999520 0.508418 0.082535
O O4 0.500000 0.500000 0.000000
O O5 0.225075 0.889246 0.254535
O O6 0.000000 0.976831 0.250000
O O7 0.001077 0.988562 0.165659
O O8 0.557027 0.360455 0.598719
O O9 0.238136 0.407699 0.587093
O O10 0.232833 0.289808 0.574623
O O11 0.667393 0.340197 0.709312
O O12 0.530030 0.799656 0.846736
O O13 0.967825 0.814800 0.990142
O O14 0.000000 0.500000 0.000000
O O15 0.514351 0.181227 0.881351
O O16 0.343088 0.222558 0.764439
O O17 0.000000 0.199014 0.750000
O O18 0.250000 0.750000 0.000000
O O19 0.500000 0.688299 0.250000
#
# Coordination Sequence:
#
# PCOD8135026 Si02
#       8
#     8   8   8   8   8   8   8   8
#     4  11  22  39  61  88 120 158 200 248 302 364
#     4   9  21  39  61  83 115 161 204 242 293 361
#     4  10  21  39  59  84 113 148 197 246 290 353
#     4  11  21  37  62  85 110 150 197 242 291 354
#     4  11  23  40  60  88 121 159 202 253 306 360
#     4  10  19  37  60  82 110 150 197 237 284 356
#     4   9  19  34  58  88 113 142 188 245 300 357
#     4  11  22  37  56  84 117 150 184 235 298 353
#
# _framework density 20.345293000000002
#
# number of rings (size 3 to 8) (size 9 to 14) (size 15 to 20)
#    0.000    1.750    0.000    5.625    0.000    7.000 
#    0.000   13.750    0.000    0.000    0.000    0.000 
#    0.000    0.000    0.000    0.000    0.000    0.000 
#
# Total GULP energy -396491.983673 kJ/mol
# GULP energy per Si atom -12390.374490 kJ/mol
# Density = 2.029899 g / cm^3
# Si number density = 20.345293 Si / 1000 Ang^3
#
#
#
# Elastic Constant Matrix: (Units=GPa)
#
#
# Indices 1 2 3 4 5 6 
#
# 1 44.2814 17.0453 32.0430 0.0036 3.7857 0.0029
# 2 17.0453 115.4472 59.7582 -0.0008 1.7046 0.0060
# 3 32.0430 59.7582 180.2913 0.0051 10.4908 0.0115
# 4 0.0036 -0.0008 0.0051 26.4933 0.0031 13.1907
# 5 3.7857 1.7046 10.4908 0.0031 26.4193 0.0029
# 6 0.0029 0.0060 0.0115 13.1907 0.0029 25.1736
#
#
#
# Elastic Compliance Matrix: (Units=1/GPa)
#
#
# Indices 1 2 3 4 5 6 
#
# 1 0.026320 -0.001807 -0.003958 -0.000003 -0.002083 0.000001
# 2 -0.001807 0.010593 -0.003240 0.000002 0.000862 -0.000002
# 3 -0.003958 -0.003240 0.007451 0.000000 -0.002182 -0.000002
# 4 -0.000003 0.000002 0.000000 0.051069 -0.000003 -0.026759
# 5 -0.002083 0.000862 -0.002182 -0.000003 0.038961 -0.000002
# 6 0.000001 -0.000002 -0.000002 -0.026759 -0.000002 0.053746
#
#
# Mechanical properties :
#
#
# Convention : Reuss Voigt Hill
#
# Bulk Modulus (GPa) = 37.94334 61.96812 49.95573
# Shear Modulus (GPa) = 23.26296 31.02882 27.14589
#
# Velocity S-wave (km/s) = 3.38510 3.90950 3.65671
# Velocity P-wave (km/s) = 5.82827 7.13465 6.51429
#
# Compressibility (1/GPa) = 0.02635509
#
# Stress axis : x y z
#
# Youngs Moduli (GPa) = 37.99341 94.40018 134.21061
#
# Poissons Ratio (x) = 0.17055 0.53118
# Poissons Ratio (y) = 0.06864 0.43487
# Poissons Ratio (z) = 0.15037 0.30588
#
# Static dielectric constant tensor:
#      x y z
#    x 3.575170 0.000030 -0.294630 
#    y 0.000030 3.863130 -0.000100 
#    z -0.294630 -0.000100 4.700040 
# 
# 
# High freq. dielectric constant tensor:
#      x y z
#    x 1.760530 0.000000 0.002150 
#    y 0.000000 1.806000 0.000000 
#    z 0.002150 0.000000 1.819480 
# 
# From -- ./inp_files/309147.got.cif
#   From: 2010.06.25/outbox.cif.g09.slc.cpg/sg15_155_cif.got.tgz:309147.got - 2010.06.28 07:06:18.
