data_PCOD8135899
_publ_section_title
;
Structure prediction by ZEFSAII (Michael W. Deem and Ramdas Pophale) SiO2 
 PCOD8135899
Probable space group: C 2/C
;
_chemical_formula_sum "Si O2"
_cell_formula_units_Z 32
_cell_length_a 9.936763
_cell_length_b 14.320045
_cell_length_c 9.761366
_cell_angle_alpha 90.000000
_cell_angle_beta 84.466963
_cell_angle_gamma 90.000000
_cell_volume 1382.520895
_symmetry_space_group_name_H-M "C 2/C"
_symmetry_group_IT_number 15
_symmetry_cell_setting 'monoclinic'
loop_
_space_group_symop_operation_xyz
x,y,z
-x,y,1/2-z
-x,-y,-z
x,-y,1/2+z
1/2+x,1/2+y,z
1/2-x,1/2+y,1/2-z
1/2-x,1/2-y,-z
1/2+x,1/2-y,1/2+z
loop_
_atom_site_type_symbol
_atom_site_label
_atom_site_fract_x
_atom_site_fract_y
_atom_site_fract_z
Si Si1 0.493501 0.892437 0.534364
Si Si2 0.796224 0.313080 0.371603
Si Si3 0.593112 0.481951 0.361677
Si Si4 0.781119 0.349526 0.791051
O O1 0.450993 0.841251 0.395729
O O2 0.379543 0.880189 0.660077
O O3 0.635934 0.850418 0.573618
O O4 0.500000 0.000000 0.500000
O O5 0.750000 0.250000 0.500000
O O6 0.709173 0.407259 0.378497
O O7 0.779924 0.254157 0.232566
O O8 0.500000 0.441883 0.250000
O O9 0.500000 0.500000 0.500000
O O10 0.656967 0.579866 0.310104
#
# Coordination Sequence:
#
# PCOD8135899 Si02
#       4
#     8   8   8   8
#     4  10  19  40  72  99 135 180 238 295 345 417
#     4  10  22  42  69  98 138 182 233 289 351 424
#     4  12  26  46  71 101 149 189 231 295 365 429
#     4  10  23  42  69 103 135 181 241 288 357 422
#
# _framework density 23.146124
#
# number of rings (size 3 to 8) (size 9 to 14) (size 15 to 20)
#    0.000    1.500    2.500    3.000    7.000    0.000 
#    0.000   11.250    0.000    0.000    0.000    0.000 
#    0.000    0.000    0.000    0.000    0.000    0.000 
#
# Total GULP energy -198339.245641 kJ/mol
# GULP energy per Si atom -12396.202853 kJ/mol
# Density = 2.309344 g / cm^3
# Si number density = 23.146124 Si / 1000 Ang^3
#
#
#
# Elastic Constant Matrix: (Units=GPa)
#
#
# Indices 1 2 3 4 5 6 
#
# 1 91.5378 45.2365 37.1940 0.0000 53.1739 0.0000
# 2 45.2365 148.9441 39.3014 0.0000 34.7610 0.0000
# 3 37.1940 39.3014 86.7752 0.0000 41.8673 0.0000
# 4 0.0000 0.0000 0.0000 44.3419 0.0000 12.6656
# 5 53.1739 34.7610 41.8673 0.0000 57.6961 0.0000
# 6 0.0000 0.0000 0.0000 12.6656 0.0000 45.2629
#
#
#
# Elastic Compliance Matrix: (Units=1/GPa)
#
#
# Indices 1 2 3 4 5 6 
#
# 1 0.024377 -0.002653 0.001264 0.000000 -0.021785 0.000000
# 2 -0.002653 0.008322 -0.002143 0.000000 -0.001014 0.000000
# 3 0.001264 -0.002143 0.018298 0.000000 -0.013152 0.000000
# 4 0.000000 0.000000 0.000000 0.024511 0.000000 -0.006859
# 5 -0.021785 -0.001014 -0.013152 0.000000 0.047564 0.000000
# 6 0.000000 0.000000 0.000000 -0.006859 0.000000 0.024012
#
#
# Mechanical properties :
#
#
# Convention : Reuss Voigt Hill
#
# Bulk Modulus (GPa) = 22.76181 63.41344 43.08763
# Shear Modulus (GPa) = 29.62221 43.16186 36.39203
#
# Velocity S-wave (km/s) = 3.58130 4.32297 3.96949
# Velocity P-wave (km/s) = 5.19194 7.23698 6.29802
#
# Compressibility (1/GPa) = 0.04393324
#
# Stress axis : x y z
#
# Youngs Moduli (GPa) = 41.02291 120.16847 54.64961
#
# Poissons Ratio (x) = 0.31878 -0.06907
# Poissons Ratio (y) = 0.10883 0.11710
# Poissons Ratio (z) = -0.05185 0.25749
#
# Static dielectric constant tensor:
#      x y z
#    x 4.830090 0.000000 0.935110 
#    y 0.000000 4.507940 0.000000 
#    z 0.935110 0.000000 4.715810 
# 
# 
# High freq. dielectric constant tensor:
#      x y z
#    x 1.922740 0.000000 0.028350 
#    y 0.000000 1.920720 0.000000 
#    z 0.028350 0.000000 1.915060 
# 
# From -- ./inp_files/75337.got.cif
#   From: 2010.06.25/outbox.cif.g09.slc.cpg/sg15_38_cif.got.tgz:75337.got - 2010.06.28 07:06:18.
