data_PCOD8135327
_publ_section_title
;
Structure prediction by ZEFSAII (Michael W. Deem and Ramdas Pophale) SiO2 
 PCOD8135327
Probable space group: C 2/C
;
_chemical_formula_sum "Si O2"
_cell_formula_units_Z 52
_cell_length_a 13.602946
_cell_length_b 7.797440
_cell_length_c 22.025119
_cell_angle_alpha 90.000000
_cell_angle_beta 82.626943
_cell_angle_gamma 90.000000
_cell_volume 2316.847448
_symmetry_space_group_name_H-M "C 2/C"
_symmetry_group_IT_number 15
_symmetry_cell_setting 'monoclinic'
loop_
_space_group_symop_operation_xyz
x,y,z
-x,y,1/2-z
-x,-y,-z
x,-y,1/2+z
1/2+x,1/2+y,z
1/2-x,1/2+y,1/2-z
1/2-x,1/2-y,-z
1/2+x,1/2-y,1/2+z
loop_
_atom_site_type_symbol
_atom_site_label
_atom_site_fract_x
_atom_site_fract_y
_atom_site_fract_z
Si Si1 0.451302 0.937263 0.100726
Si Si2 0.000000 0.124151 0.750000
Si Si3 0.297171 0.282374 0.290433
Si Si4 0.864487 0.540485 0.988346
Si Si5 0.714704 0.138325 0.334961
Si Si6 0.890999 0.089787 0.154550
Si Si7 0.679351 0.636973 0.941403
O O1 0.560410 0.998927 0.072770
O O2 0.400936 0.080389 0.148039
O O3 0.455283 0.758586 0.136299
O O4 0.384863 0.916609 0.044151
O O5 0.916543 0.244871 0.789578
O O6 0.939922 0.002980 0.708047
O O7 0.279537 0.470894 0.318465
O O8 0.225686 0.141456 0.326701
O O9 0.275867 0.275573 0.219865
O O10 0.752798 0.512510 0.973109
O O11 0.881030 0.739928 0.007931
O O12 0.747655 0.237435 0.393341
O O13 0.895766 0.968899 0.094885
#
# Coordination Sequence:
#
# PCOD8135327 Si02
#       7
#     8   4   8   8   8   8   8
#     4   9  21  38  61  89 119 162 213 257 317 393
#     4  12  24  40  66  94 128 174 210 262 322 390
#     4  11  22  40  62  90 131 165 213 264 310 400
#     4   9  20  39  62  87 119 162 214 258 320 385
#     4  10  19  38  59  84 127 158 205 264 314 374
#     4  11  24  41  62  95 129 164 214 264 324 382
#     4  10  20  38  62  87 124 163 204 272 318 373
#
# _framework density 22.444293999999999
#
# number of rings (size 3 to 8) (size 9 to 14) (size 15 to 20)
#    0.000    1.846    3.077    0.000    2.154    2.462 
#    2.769    3.077    0.000    0.000    0.000    0.000 
#    0.000    0.000    0.000    0.000    0.000    0.000 
#
# Total GULP energy -322146.174545 kJ/mol
# GULP energy per Si atom -12390.237482 kJ/mol
# Density = 2.239321 g / cm^3
# Si number density = 22.444294 Si / 1000 Ang^3
#
#
#
# Elastic Constant Matrix: (Units=GPa)
#
#
# Indices 1 2 3 4 5 6 
#
# 1 71.4669 -2.6593 -4.8717 0.0000 -3.0270 0.0000
# 2 -2.6593 36.9281 -1.8317 0.0000 5.7183 0.0000
# 3 -4.8717 -1.8317 41.3701 0.0000 -4.9822 0.0000
# 4 0.0000 0.0000 0.0000 37.0236 0.0000 2.6855
# 5 -3.0270 5.7183 -4.9822 0.0000 41.6516 0.0000
# 6 0.0000 0.0000 0.0000 2.6855 0.0000 19.9888
#
#
#
# Elastic Compliance Matrix: (Units=1/GPa)
#
#
# Indices 1 2 3 4 5 6 
#
# 1 0.014201 0.000940 0.001849 0.000000 0.001124 0.000000
# 2 0.000940 0.027755 0.000902 0.000000 -0.003634 0.000000
# 3 0.001849 0.000902 0.024788 0.000000 0.002976 0.000000
# 4 0.000000 0.000000 0.000000 0.027276 0.000000 -0.003664
# 5 0.001124 -0.003634 0.002976 0.000000 0.024945 0.000000
# 6 0.000000 0.000000 0.000000 -0.003664 0.000000 0.050520
#
#
# Mechanical properties :
#
#
# Convention : Reuss Voigt Hill
#
# Bulk Modulus (GPa) = 13.49031 14.55997 14.02514
# Shear Modulus (GPa) = 26.76498 30.34133 28.55316
#
# Velocity S-wave (km/s) = 3.45702 3.68074 3.57063
# Velocity P-wave (km/s) = 4.68596 4.95631 4.82303
#
# Compressibility (1/GPa) = 0.07412726
#
# Stress axis : x y z
#
# Youngs Moduli (GPa) = 70.41674 36.02974 40.34191
#
# Poissons Ratio (x) = -0.03388 -0.07461
# Poissons Ratio (y) = -0.06621 -0.03638
# Poissons Ratio (z) = -0.13022 -0.03250
#
# Static dielectric constant tensor:
#      x y z
#    x 3.932510 0.000000 -0.258050 
#    y 0.000000 3.926090 0.000000 
#    z -0.258050 0.000000 4.162670 
# 
# 
# High freq. dielectric constant tensor:
#      x y z
#    x 1.859500 0.000000 -0.015040 
#    y 0.000000 1.870380 0.000000 
#    z -0.015040 0.000000 1.891740 
# 
# From -- ./inp_files/242494.got.cif
#   From: 2010.06.25/outbox.cif.g09.slc.cpg/sg15_122_cif.got.tgz:242494.got - 2010.06.28 07:06:18.
