data_PCOD8135013
_publ_section_title
;
Structure prediction by ZEFSAII (Michael W. Deem and Ramdas Pophale) SiO2 
 PCOD8135013
Probable space group: C 2/C
;
_chemical_formula_sum "Si O2"
_cell_formula_units_Z 60
_cell_length_a 25.361695
_cell_length_b 23.555739
_cell_length_c 14.819709
_cell_angle_alpha 90.000000
_cell_angle_beta 159.330098
_cell_angle_gamma 90.000000
_cell_volume 3125.136305
_symmetry_space_group_name_H-M "C 2/C"
_symmetry_group_IT_number 15
_symmetry_cell_setting 'monoclinic'
loop_
_space_group_symop_operation_xyz
x,y,z
-x,y,1/2-z
-x,-y,-z
x,-y,1/2+z
1/2+x,1/2+y,z
1/2-x,1/2+y,1/2-z
1/2-x,1/2-y,-z
1/2+x,1/2-y,1/2+z
loop_
_atom_site_type_symbol
_atom_site_label
_atom_site_fract_x
_atom_site_fract_y
_atom_site_fract_z
Si Si1 0.500000 0.781878 0.750000
Si Si2 0.246315 0.157678 0.424706
Si Si3 0.336500 0.942928 0.953216
Si Si4 0.558273 0.882847 0.727876
Si Si5 0.556184 0.141785 0.017724
Si Si6 0.960079 0.848485 0.586617
Si Si7 0.266278 0.763488 0.782903
Si Si8 0.767426 0.432930 0.348185
O O1 0.593468 0.822218 0.831575
O O2 0.397458 0.743067 0.522005
O O3 0.240408 0.096315 0.367133
O O4 0.390066 0.156094 0.719075
O O5 0.261582 0.207480 0.374350
O O6 0.103559 0.170167 0.257974
O O7 0.245041 0.000640 0.789764
O O8 0.500000 0.959950 0.250000
O O9 0.361189 0.908886 0.901162
O O10 0.565730 0.878060 0.634382
O O11 0.393168 0.904746 0.486644
O O12 0.682742 0.926267 0.966714
O O13 0.645759 0.199430 0.148472
O O14 0.846446 0.796785 0.418909
O O15 0.887071 0.901012 0.416934
O O16 0.000000 0.870690 0.750000
#
# Coordination Sequence:
#
# PCOD8135013 Si02
#       8
#     4   8   8   8   8   8   8   8
#     4  10  22  38  58  88 120 150 194 246 298 356
#     4  10  24  40  59  89 120 161 198 242 295 353
#     4   9  18  41  62  83 120 156 199 245 292 350
#     4  10  19  37  59  93 115 150 196 253 290 355
#     4  10  22  38  62  91 117 159 205 237 293 359
#     4  12  24  38  61  89 120 156 198 248 295 352
#     4  11  23  41  61  85 121 158 197 243 300 356
#     4  10  20  38  61  87 118 154 195 246 302 346
#
# _framework density 19.199162999999999
#
# number of rings (size 3 to 8) (size 9 to 14) (size 15 to 20)
#    0.000    1.867    4.000    2.800    1.867    3.733 
#    2.400    0.000    5.867    0.000    0.000    0.000 
#    0.000    0.000    0.000    0.000    0.000    0.000 
#
# Total GULP energy -371917.662163 kJ/mol
# GULP energy per Si atom -12397.255405 kJ/mol
# Density = 1.915546 g / cm^3
# Si number density = 19.199163 Si / 1000 Ang^3
#
#
#
# Elastic Constant Matrix: (Units=GPa)
#
#
# Indices 1 2 3 4 5 6 
#
# 1 104.9589 23.7695 42.4310 0.0000 -15.6452 0.0000
# 2 23.7695 109.0562 39.9378 0.0000 -2.4418 0.0000
# 3 42.4310 39.9378 88.7977 0.0000 -7.8954 0.0000
# 4 0.0000 0.0000 0.0000 24.2109 0.0000 1.1330
# 5 -15.6452 -2.4418 -7.8954 0.0000 30.0514 0.0000
# 6 0.0000 0.0000 0.0000 1.1330 0.0000 13.6276
#
#
#
# Elastic Compliance Matrix: (Units=1/GPa)
#
#
# Indices 1 2 3 4 5 6 
#
# 1 0.012564 -0.000708 -0.005231 0.000000 0.005109 0.000000
# 2 -0.000708 0.011023 -0.004682 0.000000 -0.000703 0.000000
# 3 -0.005231 -0.004682 0.015964 0.000000 0.001091 0.000000
# 4 0.000000 0.000000 0.000000 0.041465 0.000000 -0.003447
# 5 0.005109 -0.000703 0.001091 0.000000 0.036166 0.000000
# 6 0.000000 0.000000 0.000000 -0.003447 0.000000 0.073667
#
#
# Mechanical properties :
#
#
# Convention : Reuss Voigt Hill
#
# Bulk Modulus (GPa) = 54.61832 57.23216 55.92524
# Shear Modulus (GPa) = 22.91551 26.68961 24.80256
#
# Velocity S-wave (km/s) = 3.45855 3.73251 3.59814
# Velocity P-wave (km/s) = 6.66775 6.96060 6.81574
#
# Compressibility (1/GPa) = 0.01830888
#
# Stress axis : x y z
#
# Youngs Moduli (GPa) = 79.59156 90.72173 62.64273
#
# Poissons Ratio (x) = 0.06427 0.32767
# Poissons Ratio (y) = 0.05639 0.29327
# Poissons Ratio (z) = 0.41632 0.42472
#
# Static dielectric constant tensor:
#      x y z
#    x 3.563180 0.000000 -0.201640 
#    y 0.000000 3.573790 0.000000 
#    z -0.201640 0.000000 3.516930 
# 
# 
# High freq. dielectric constant tensor:
#      x y z
#    x 1.740210 0.000000 -0.011290 
#    y 0.000000 1.751110 0.000000 
#    z -0.011290 0.000000 1.738380 
# 
# From -- ./inp_files/179295.got.cif
#   From: 2010.06.25/outbox.cif.g09.slc.cpg/sg15_90_cif.got.tgz:179295.got - 2010.06.28 07:06:18.
