data_PCOD8135636
_publ_section_title
;
Structure prediction by ZEFSAII (Michael W. Deem and Ramdas Pophale) SiO2 
 PCOD8135636
Probable space group: C 2/C
;
_chemical_formula_sum "Si O2"
_cell_formula_units_Z 60
_cell_length_a 11.593043
_cell_length_b 26.434484
_cell_length_c 17.340015
_cell_angle_alpha 90.000000
_cell_angle_beta 147.057671
_cell_angle_gamma 90.000000
_cell_volume 2889.699220
_symmetry_space_group_name_H-M "C 2/C"
_symmetry_group_IT_number 15
_symmetry_cell_setting 'monoclinic'
loop_
_space_group_symop_operation_xyz
x,y,z
-x,y,1/2-z
-x,-y,-z
x,-y,1/2+z
1/2+x,1/2+y,z
1/2-x,1/2+y,1/2-z
1/2-x,1/2-y,-z
1/2+x,1/2-y,1/2+z
loop_
_atom_site_type_symbol
_atom_site_label
_atom_site_fract_x
_atom_site_fract_y
_atom_site_fract_z
Si Si1 0.627825 0.856573 0.744450
Si Si2 0.492632 0.324098 0.041119
Si Si3 0.067070 0.562385 0.615748
Si Si4 0.037676 0.547514 0.422014
Si Si5 0.532439 0.596635 0.852873
Si Si6 0.465606 0.167377 0.851085
Si Si7 0.000000 0.742675 0.750000
Si Si8 0.931198 0.712698 0.433297
O O1 0.500000 0.840931 0.750000
O O2 0.601456 0.915848 0.710074
O O3 0.549164 0.824946 0.627030
O O4 0.876822 0.844658 0.898887
O O5 0.389717 0.355248 0.054206
O O6 0.742714 0.334339 0.180290
O O7 0.452519 0.264279 0.026396
O O8 0.015807 0.510178 0.630215
O O9 0.318528 0.571179 0.763694
O O10 0.948654 0.609612 0.592414
O O11 0.985131 0.559274 0.481886
O O12 0.286548 0.554141 0.544410
O O13 0.500000 0.618912 0.750000
O O14 0.601999 0.206067 0.874790
O O15 0.438939 0.189037 0.922415
O O16 0.186254 0.778070 0.821275
#
# Coordination Sequence:
#
# PCOD8135636 Si02
#       8
#     8   8   8   8   8   8   4   8
#     4  12  24  39  60  95 132 164 207 265 318 369
#     4  10  21  36  58  87 123 161 200 257 306 370
#     4   9  19  37  66  87 116 163 212 257 308 382
#     4  10  19  39  61  86 126 163 203 260 315 375
#     4   9  18  35  59  86 118 161 210 253 314 377
#     4  10  20  40  63  90 121 163 216 255 310 378
#     4  10  22  40  66  92 124 160 214 274 312 362
#     4  11  23  42  64  90 127 171 212 253 317 379
#
# _framework density 20.763407000000001
#
# number of rings (size 3 to 8) (size 9 to 14) (size 15 to 20)
#    0.000    1.867    2.667    2.000    0.000    2.133 
#    1.200    6.667    0.000    0.000    0.000    0.000 
#    0.000    0.000    0.000    0.000    0.000    0.000 
#
# Total GULP energy -371845.659201 kJ/mol
# GULP energy per Si atom -12394.855307 kJ/mol
# Density = 2.071615 g / cm^3
# Si number density = 20.763407 Si / 1000 Ang^3
#
#
#
# Elastic Constant Matrix: (Units=GPa)
#
#
# Indices 1 2 3 4 5 6 
#
# 1 75.0764 34.8172 16.0366 0.0000 -12.8842 0.0000
# 2 34.8172 142.0547 26.5956 0.0000 -13.9619 0.0000
# 3 16.0366 26.5956 87.5862 -0.0004 -17.6016 0.0000
# 4 0.0000 0.0000 -0.0004 24.5483 -0.0001 -4.1618
# 5 -12.8842 -13.9619 -17.6016 -0.0001 28.3139 0.0000
# 6 0.0000 0.0000 0.0000 -4.1618 0.0000 31.7555
#
#
#
# Elastic Compliance Matrix: (Units=1/GPa)
#
#
# Indices 1 2 3 4 5 6 
#
# 1 0.015879 -0.003223 -0.000910 0.000000 0.005071 0.000000
# 2 -0.003223 0.008289 -0.001600 0.000000 0.001626 0.000000
# 3 -0.000910 -0.001600 0.013517 0.000000 0.007200 0.000000
# 4 0.000000 0.000000 0.000000 0.041662 0.000000 0.005460
# 5 0.005071 0.001626 0.007200 0.000000 0.042903 0.000000
# 6 0.000000 0.000000 0.000000 0.005460 0.000000 0.032206
#
#
# Mechanical properties :
#
#
# Convention : Reuss Voigt Hill
#
# Bulk Modulus (GPa) = 38.14037 51.06846 44.60442
# Shear Modulus (GPa) = 28.62684 32.07473 30.35079
#
# Velocity S-wave (km/s) = 3.71713 3.93462 3.82742
# Velocity P-wave (km/s) = 6.06891 6.72982 6.40789
#
# Compressibility (1/GPa) = 0.02621894
#
# Stress axis : x y z
#
# Youngs Moduli (GPa) = 62.97586 120.64311 73.98309
#
# Poissons Ratio (x) = 0.38886 0.06729
# Poissons Ratio (y) = 0.20299 0.11837
# Poissons Ratio (z) = 0.05728 0.19303
#
# Static dielectric constant tensor:
#      x y z
#    x 3.713880 0.000000 -0.207950 
#    y 0.000000 3.962100 0.000000 
#    z -0.207950 0.000000 3.852990 
# 
# 
# High freq. dielectric constant tensor:
#      x y z
#    x 1.792780 0.000000 -0.015460 
#    y 0.000000 1.815030 0.000000 
#    z -0.015460 0.000000 1.812540 
# 
# From -- ./inp_files/201260.got.cif
#   From: 2010.06.25/outbox.cif.g09.slc.cpg/sg15_101_cif.got.tgz:201260.got - 2010.06.28 07:06:18.
