data_PCOD8135185
_publ_section_title
;
Structure prediction by ZEFSAII (Michael W. Deem and Ramdas Pophale) SiO2 
 PCOD8135185
Probable space group: C 2/C
;
_chemical_formula_sum "Si O2"
_cell_formula_units_Z 52
_cell_length_a 14.033200
_cell_length_b 15.772276
_cell_length_c 16.905020
_cell_angle_alpha 90.000000
_cell_angle_beta 38.882679
_cell_angle_gamma 90.000000
_cell_volume 2348.757103
_symmetry_space_group_name_H-M "C 2/C"
_symmetry_group_IT_number 15
_symmetry_cell_setting 'monoclinic'
loop_
_space_group_symop_operation_xyz
x,y,z
-x,y,1/2-z
-x,-y,-z
x,-y,1/2+z
1/2+x,1/2+y,z
1/2-x,1/2+y,1/2-z
1/2-x,1/2-y,-z
1/2+x,1/2-y,1/2+z
loop_
_atom_site_type_symbol
_atom_site_label
_atom_site_fract_x
_atom_site_fract_y
_atom_site_fract_z
Si Si1 0.657346 0.535387 0.424518
Si Si2 0.915984 0.209752 0.084676
Si Si3 0.966989 0.549930 0.181007
Si Si4 0.226720 0.991400 0.556573
Si Si5 0.109616 0.809675 0.612691
Si Si6 0.081954 0.741042 0.328553
Si Si7 0.500000 0.371994 0.250000
O O1 0.500000 0.500000 0.500000
O O2 0.645636 0.636022 0.432100
O O3 0.797295 0.512219 0.273848
O O4 0.691728 0.502209 0.487966
O O5 0.763934 0.258719 0.211135
O O6 0.010871 0.174657 0.097795
O O7 0.026582 0.261966 0.955591
O O8 0.970807 0.650867 0.169910
O O9 0.000000 0.528252 0.250000
O O10 0.092040 0.502854 0.045493
O O11 0.171747 0.896607 0.612993
O O12 0.144553 0.065095 0.659221
O O13 0.250000 0.750000 0.500000
O O14 0.000000 0.767107 0.750000
O O15 0.002708 0.813887 0.326595
#
# Coordination Sequence:
#
# PCOD8135185 Si02
#       7
#     8   8   8   8   8   8   4
#     4  10  19  37  64  90 126 171 208 265 319 382
#     4  11  23  41  64  92 128 168 222 264 324 379
#     4   9  20  35  60  98 137 167 208 256 314 400
#     4  11  22  40  62  98 131 170 217 260 326 387
#     4  12  27  48  70  89 123 175 231 286 325 375
#     4  11  22  38  65 101 136 171 205 258 322 398
#     4  12  22  36  68 100 140 170 204 252 332 400
#
# _framework density 22.139368000000001
#
# number of rings (size 3 to 8) (size 9 to 14) (size 15 to 20)
#    0.000    1.231    4.615    1.846    0.000    3.077 
#    2.769    0.000    0.000    4.615    0.000    0.000 
#    0.000    0.000    0.000    0.000    0.000    0.000 
#
# Total GULP energy -322166.770158 kJ/mol
# GULP energy per Si atom -12391.029621 kJ/mol
# Density = 2.208898 g / cm^3
# Si number density = 22.139368 Si / 1000 Ang^3
#
#
#
# Elastic Constant Matrix: (Units=GPa)
#
#
# Indices 1 2 3 4 5 6 
#
# 1 60.3508 17.7753 41.5530 -0.0001 -18.6799 0.0001
# 2 17.7753 72.7169 32.7551 -0.0002 -16.2946 0.0000
# 3 41.5530 32.7551 178.5189 0.0004 -32.8659 -0.0004
# 4 -0.0001 -0.0002 0.0004 34.3344 -0.0003 -7.2900
# 5 -18.6799 -16.2946 -32.8659 -0.0003 40.8345 0.0001
# 6 0.0001 0.0000 -0.0004 -7.2900 0.0001 22.8540
#
#
#
# Elastic Compliance Matrix: (Units=1/GPa)
#
#
# Indices 1 2 3 4 5 6 
#
# 1 0.021536 -0.002332 -0.003454 0.000000 0.006141 0.000000
# 2 -0.002332 0.015957 -0.001654 0.000000 0.003969 0.000000
# 3 -0.003454 -0.001654 0.007392 0.000000 0.003709 0.000000
# 4 0.000000 0.000000 0.000000 0.031241 0.000000 0.009965
# 5 0.006141 0.003969 0.003709 0.000000 0.031867 0.000000
# 6 0.000000 0.000000 0.000000 0.009965 0.000000 0.046935
#
#
# Mechanical properties :
#
#
# Convention : Reuss Voigt Hill
#
# Bulk Modulus (GPa) = 33.33009 55.08370 44.20689
# Shear Modulus (GPa) = 27.80704 34.23811 31.02257
#
# Velocity S-wave (km/s) = 3.54785 3.93680 3.74738
# Velocity P-wave (km/s) = 5.64538 6.75270 6.22372
#
# Compressibility (1/GPa) = 0.03000292
#
# Stress axis : x y z
#
# Youngs Moduli (GPa) = 46.43426 62.67008 135.27953
#
# Poissons Ratio (x) = 0.14616 0.46730
# Poissons Ratio (y) = 0.10830 0.22378
# Poissons Ratio (z) = 0.16040 0.10367
#
# Static dielectric constant tensor:
#      x y z
#    x 3.936660 0.000000 -0.593500 
#    y 0.000000 3.918490 0.000000 
#    z -0.593500 0.000000 4.837730 
# 
# 
# High freq. dielectric constant tensor:
#      x y z
#    x 1.853910 0.000000 -0.018640 
#    y 0.000000 1.853370 0.000000 
#    z -0.018640 0.000000 1.897100 
# 
# From -- ./inp_files/205647.got.cif
#   From: 2010.06.25/outbox.cif.g09.slc.cpg/sg15_103_cif.got.tgz:205647.got - 2010.06.28 07:06:18.
