data_PCOD8135960
_publ_section_title
;
Structure prediction by ZEFSAII (Michael W. Deem and Ramdas Pophale) SiO2 
 PCOD8135960
Probable space group: C 2/C
;
_chemical_formula_sum "Si O2"
_cell_formula_units_Z 48
_cell_length_a 13.658427
_cell_length_b 15.008880
_cell_length_c 29.120766
_cell_angle_alpha 90.000000
_cell_angle_beta 159.037999
_cell_angle_gamma 90.000000
_cell_volume 2135.648849
_symmetry_space_group_name_H-M "C 2/C"
_symmetry_group_IT_number 15
_symmetry_cell_setting 'monoclinic'
loop_
_space_group_symop_operation_xyz
x,y,z
-x,y,1/2-z
-x,-y,-z
x,-y,1/2+z
1/2+x,1/2+y,z
1/2-x,1/2+y,1/2-z
1/2-x,1/2-y,-z
1/2+x,1/2-y,1/2+z
loop_
_atom_site_type_symbol
_atom_site_label
_atom_site_fract_x
_atom_site_fract_y
_atom_site_fract_z
Si Si1 0.272388 0.498460 0.345426
Si Si2 0.545678 0.026369 0.968894
Si Si3 0.144559 0.142045 0.546832
Si Si4 0.988069 0.753170 0.852572
Si Si5 0.283664 0.793287 0.352605
Si Si6 0.644358 0.544808 0.217600
O O1 0.546602 0.556321 0.474255
O O2 0.314376 0.396653 0.383322
O O3 0.208604 0.505768 0.263366
O O4 0.000000 0.538977 0.250000
O O5 0.517568 0.132428 0.955929
O O6 0.323289 0.980804 0.839339
O O7 0.849766 0.996788 0.088186
O O8 0.500000 0.000000 0.000000
O O9 0.433907 0.183448 0.654398
O O10 0.899216 0.213044 0.434890
O O11 0.739867 0.727147 0.778833
O O12 0.901984 0.849673 0.797074
O O13 0.250000 0.750000 0.000000
O O14 0.000000 0.826397 0.250000
#
# Coordination Sequence:
#
# PCOD8135960 Si02
#       6
#     8   8   8   8   8   8
#     4  11  24  37  67 114 144 184 240 302 371 442
#     4  12  27  49  70 104 138 198 256 304 358 434
#     4  10  21  41  65  96 152 186 234 291 376 450
#     4  10  19  41  67 101 137 203 231 286 389 442
#     4  11  21  39  69  95 140 189 242 298 363 430
#     4  12  25  45  77 101 150 191 247 309 370 440
#
# _framework density 22.475605000000002
#
# number of rings (size 3 to 8) (size 9 to 14) (size 15 to 20)
#    0.000    1.000    6.667    2.000    7.000    0.000 
#    3.000    0.000    0.000    4.000    0.000    0.000 
#    0.000    0.000    0.000    0.000    0.000    0.000 
#
# Total GULP energy -297325.213059 kJ/mol
# GULP energy per Si atom -12388.550544 kJ/mol
# Density = 2.242445 g / cm^3
# Si number density = 22.475605 Si / 1000 Ang^3
#
#
#
# Elastic Constant Matrix: (Units=GPa)
#
#
# Indices 1 2 3 4 5 6 
#
# 1 158.8139 62.3369 62.5949 -0.0173 1.8335 0.0022
# 2 62.3369 124.7660 45.0612 0.0112 -20.7791 -0.0006
# 3 62.5949 45.0612 116.3659 -0.0040 -4.4516 0.0058
# 4 -0.0173 0.0112 -0.0040 21.8292 0.0062 -3.6247
# 5 1.8335 -20.7791 -4.4516 0.0062 43.8253 -0.0077
# 6 0.0022 -0.0006 0.0058 -3.6247 -0.0077 45.1322
#
#
#
# Elastic Compliance Matrix: (Units=1/GPa)
#
#
# Indices 1 2 3 4 5 6 
#
# 1 0.009207 -0.003715 -0.003610 0.000009 -0.002513 0.000000
# 2 -0.003715 0.011600 -0.002286 -0.000011 0.005423 0.000001
# 3 -0.003610 -0.002286 0.011430 0.000000 0.000228 -0.000001
# 4 0.000009 -0.000011 0.000000 0.046429 -0.000011 0.003729
# 5 -0.002513 0.005423 0.000228 -0.000011 0.025517 0.000004
# 6 0.000000 0.000001 -0.000001 0.003729 0.000004 0.022457
#
#
# Mechanical properties :
#
#
# Convention : Reuss Voigt Hill
#
# Bulk Modulus (GPa) = 76.83993 82.21464 79.52728
# Shear Modulus (GPa) = 33.28911 37.48755 35.38833
#
# Velocity S-wave (km/s) = 3.85271 4.08845 3.97233
# Velocity P-wave (km/s) = 7.35211 7.67764 7.51664
#
# Compressibility (1/GPa) = 0.01301407
#
# Stress axis : x y z
#
# Youngs Moduli (GPa) = 108.61770 86.20801 87.49253
#
# Poissons Ratio (x) = 0.32023 0.31585
# Poissons Ratio (y) = 0.40347 0.20003
# Poissons Ratio (z) = 0.39212 0.19710
#
# Static dielectric constant tensor:
#      x y z
#    x 5.052230 -0.000140 0.508420 
#    y -0.000140 3.967560 0.000210 
#    z 0.508420 0.000210 4.505600 
# 
# 
# High freq. dielectric constant tensor:
#      x y z
#    x 1.894320 0.000000 0.009890 
#    y 0.000000 1.885970 0.000000 
#    z 0.009890 0.000000 1.870860 
# 
# From -- ./inp_files/314135.got.cif
#   From: 2010.06.25/outbox.cif.g09.slc.cpg/sg15_158_cif.got.tgz:314135.got - 2010.06.28 07:06:18.
