data_PCOD8135235
_publ_section_title
;
Structure prediction by ZEFSAII (Michael W. Deem and Ramdas Pophale) SiO2 
 PCOD8135235
Probable space group: C 2/C
;
_chemical_formula_sum "Si O2"
_cell_formula_units_Z 36
_cell_length_a 9.748425
_cell_length_b 20.903673
_cell_length_c 9.328708
_cell_angle_alpha 90.000000
_cell_angle_beta 63.043181
_cell_angle_gamma 90.000000
_cell_volume 1694.439460
_symmetry_space_group_name_H-M "C 2/C"
_symmetry_group_IT_number 15
_symmetry_cell_setting 'monoclinic'
loop_
_space_group_symop_operation_xyz
x,y,z
-x,y,1/2-z
-x,-y,-z
x,-y,1/2+z
1/2+x,1/2+y,z
1/2-x,1/2+y,1/2-z
1/2-x,1/2-y,-z
1/2+x,1/2-y,1/2+z
loop_
_atom_site_type_symbol
_atom_site_label
_atom_site_fract_x
_atom_site_fract_y
_atom_site_fract_z
Si Si1 0.061328 0.186269 0.563109
Si Si2 0.500000 0.998950 0.750000
Si Si3 0.383709 0.917498 0.551193
Si Si4 0.107115 0.329355 0.561741
Si Si5 0.854499 0.188497 0.414188
O O1 0.103209 0.258746 0.496384
O O2 0.221407 0.147756 0.475998
O O3 0.000000 0.182391 0.750000
O O4 0.927159 0.159315 0.525267
O O5 0.387113 0.957845 0.698922
O O6 0.614011 0.039616 0.593279
O O7 0.542439 0.876914 0.471451
O O8 0.240023 0.868248 0.618227
O O9 0.000000 0.333989 0.750000
O O10 0.750000 0.250000 0.500000
O O11 0.000000 0.210225 0.250000
#
# Coordination Sequence:
#
# PCOD8135235 Si02
#       5
#     8   4   8   8   8
#     4  10  23  36  61 102 135 174 209 266 357 405
#     4  10  26  44  72  96 124 198 238 280 322 404
#     4  11  23  45  71  93 136 178 244 273 337 401
#     4  10  19  37  66  91 137 170 212 276 334 411
#     4  12  27  42  68 110 144 176 217 289 355 416
#
# _framework density 21.245963
#
# number of rings (size 3 to 8) (size 9 to 14) (size 15 to 20)
#    0.000    1.333    3.333    1.333   10.889    0.000 
#    0.000    1.111    0.000    0.000    0.000    0.000 
#    0.000    0.000    0.000    0.000    0.000    0.000 
#
# Total GULP energy -223069.305801 kJ/mol
# GULP energy per Si atom -12392.739211 kJ/mol
# Density = 2.119761 g / cm^3
# Si number density = 21.245963 Si / 1000 Ang^3
#
#
#
# Elastic Constant Matrix: (Units=GPa)
#
#
# Indices 1 2 3 4 5 6 
#
# 1 182.9828 56.4373 66.2190 0.0000 1.3193 0.0000
# 2 56.4373 88.2921 45.9596 0.0000 -4.5062 0.0000
# 3 66.2190 45.9596 114.3088 0.0000 6.4806 0.0000
# 4 0.0000 0.0000 0.0000 21.5172 0.0000 15.3948
# 5 1.3193 -4.5062 6.4806 0.0000 43.3545 0.0000
# 6 0.0000 0.0000 0.0000 15.3948 0.0000 41.2811
#
#
#
# Elastic Compliance Matrix: (Units=1/GPa)
#
#
# Indices 1 2 3 4 5 6 
#
# 1 0.007583 -0.003249 -0.003080 0.000000 -0.000108 0.000000
# 2 -0.003249 0.015962 -0.004675 0.000000 0.002457 0.000000
# 3 -0.003080 -0.004675 0.012541 0.000000 -0.002267 0.000000
# 4 0.000000 0.000000 0.000000 0.063387 0.000000 -0.023639
# 5 -0.000108 0.002457 -0.002267 0.000000 0.023663 0.000000
# 6 0.000000 0.000000 0.000000 -0.023639 0.000000 0.033040
#
#
# Mechanical properties :
#
#
# Convention : Reuss Voigt Hill
#
# Bulk Modulus (GPa) = 71.03784 80.31285 75.67534
# Shear Modulus (GPa) = 27.34112 35.69507 31.51809
#
# Velocity S-wave (km/s) = 3.59121 4.10333 3.85578
# Velocity P-wave (km/s) = 7.12069 7.76745 7.45109
#
# Compressibility (1/GPa) = 0.01407700
#
# Stress axis : x y z
#
# Youngs Moduli (GPa) = 131.88230 62.65022 79.74110
#
# Poissons Ratio (x) = 0.20355 0.24561
# Poissons Ratio (y) = 0.42849 0.37277
# Poissons Ratio (z) = 0.40621 0.29287
#
# Static dielectric constant tensor:
#      x y z
#    x 4.047130 0.000000 0.188200 
#    y 0.000000 4.024690 0.000000 
#    z 0.188200 0.000000 3.725300 
# 
# 
# High freq. dielectric constant tensor:
#      x y z
#    x 1.843690 0.000000 0.016010 
#    y 0.000000 1.809790 0.000000 
#    z 0.016010 0.000000 1.833430 
# 
# From -- ./inp_files/23310.got.cif
#   From: 2010.06.25/outbox.cif.g09.slc.cpg/sg15_12_cif.got.tgz:23310.got - 2010.06.28 07:06:18.
