data_PCOD8135000
_publ_section_title
;
Structure prediction by ZEFSAII (Michael W. Deem and Ramdas Pophale) SiO2 
 PCOD8135000
Probable space group: C 2/C
;
_chemical_formula_sum "Si O2"
_cell_formula_units_Z 64
_cell_length_a 16.182738
_cell_length_b 11.641992
_cell_length_c 16.746847
_cell_angle_alpha 90.000000
_cell_angle_beta 94.973546
_cell_angle_gamma 90.000000
_cell_volume 3143.214899
_symmetry_space_group_name_H-M "C 2/C"
_symmetry_group_IT_number 15
_symmetry_cell_setting 'monoclinic'
loop_
_space_group_symop_operation_xyz
x,y,z
-x,y,1/2-z
-x,-y,-z
x,-y,1/2+z
1/2+x,1/2+y,z
1/2-x,1/2+y,1/2-z
1/2-x,1/2-y,-z
1/2+x,1/2-y,1/2+z
loop_
_atom_site_type_symbol
_atom_site_label
_atom_site_fract_x
_atom_site_fract_y
_atom_site_fract_z
Si Si1 0.589948 0.823286 0.415635
Si Si2 0.840541 0.790099 0.428655
Si Si3 0.307132 0.661492 0.164832
Si Si4 0.269768 0.808887 0.678846
Si Si5 0.072879 0.291625 0.707607
Si Si6 0.953471 0.457902 0.328262
Si Si7 0.727157 0.067387 0.622760
Si Si8 0.268363 0.994926 0.054454
O O1 0.599849 0.777171 0.506036
O O2 0.604959 0.714013 0.357080
O O3 0.499666 0.881344 0.399542
O O4 0.656917 0.922178 0.401282
O O5 0.760245 0.712046 0.404020
O O6 0.891489 0.802364 0.350505
O O7 0.813553 0.914161 0.459745
O O8 0.296959 0.699576 0.255453
O O9 0.295338 0.524389 0.159587
O O10 0.358394 0.837478 0.724850
O O11 0.272797 0.688517 0.633196
O O12 0.244599 0.904986 0.613422
O O13 0.036683 0.404620 0.659254
O O14 0.000000 0.228876 0.750000
O O15 0.855250 0.432312 0.328548
O O16 0.000000 0.420913 0.250000
O O17 0.704523 0.045034 0.528613
#
# Coordination Sequence:
#
# PCOD8135000 Si02
#       8
#     8   8   8   8   8   8   8   8
#     4  11  20  36  64  89 122 159 193 270 329 359
#     4  10  19  37  59  88 121 162 203 257 316 384
#     4  10  20  38  58  92 121 160 215 246 312 384
#     4  11  24  35  63  85 122 169 200 265 311 359
#     4  10  21  37  57  91 119 148 206 262 318 373
#     4  11  22  36  60  95 126 150 204 270 314 371
#     4  12  22  40  60  90 126 161 215 258 304 390
#     4  11  21  38  60  91 124 160 215 254 309 377
#
# _framework density 20.361319999999999
#
# number of rings (size 3 to 8) (size 9 to 14) (size 15 to 20)
#    0.000    1.250    5.000    3.375    5.250    3.000 
#    0.000    0.000    2.750    1.500    0.000    0.000 
#    0.000    0.000    0.000    0.000    0.000    0.000 
#
# Total GULP energy -396691.235535 kJ/mol
# GULP energy per Si atom -12396.601110 kJ/mol
# Density = 2.031498 g / cm^3
# Si number density = 20.361320 Si / 1000 Ang^3
#
#
#
# Elastic Constant Matrix: (Units=GPa)
#
#
# Indices 1 2 3 4 5 6 
#
# 1 68.8949 30.0203 19.5501 0.0000 -13.4457 0.0000
# 2 30.0203 122.8603 38.4961 0.0000 2.5222 0.0000
# 3 19.5501 38.4961 81.8810 0.0000 -11.4331 0.0000
# 4 0.0000 0.0000 0.0000 30.6522 0.0000 -1.5249
# 5 -13.4457 2.5222 -11.4331 0.0000 21.0806 0.0000
# 6 0.0000 0.0000 0.0000 -1.5249 0.0000 24.4163
#
#
#
# Elastic Compliance Matrix: (Units=1/GPa)
#
#
# Indices 1 2 3 4 5 6 
#
# 1 0.019196 -0.004758 -0.000603 0.000000 0.012486 0.000000
# 2 -0.004758 0.011026 -0.005037 0.000000 -0.007086 0.000000
# 3 -0.000603 -0.005037 0.015964 0.000000 0.008876 0.000000
# 4 0.000000 0.000000 0.000000 0.032726 0.000000 0.002044
# 5 0.012486 -0.007086 0.008876 0.000000 0.061063 0.000000
# 6 0.000000 0.000000 0.000000 0.002044 0.000000 0.041084
#
#
# Mechanical properties :
#
#
# Convention : Reuss Voigt Hill
#
# Bulk Modulus (GPa) = 39.38527 49.97437 44.67982
# Shear Modulus (GPa) = 23.77359 27.60111 25.68735
#
# Velocity S-wave (km/s) = 3.42070 3.68580 3.55572
# Velocity P-wave (km/s) = 5.91496 6.53533 6.23287
#
# Compressibility (1/GPa) = 0.02539020
#
# Stress axis : x y z
#
# Youngs Moduli (GPa) = 52.09442 90.69790 62.63947
#
# Poissons Ratio (x) = 0.43152 0.03777
# Poissons Ratio (y) = 0.24786 0.31552
# Poissons Ratio (z) = 0.03141 0.45685
#
# Static dielectric constant tensor:
#      x y z
#    x 3.529420 0.000000 -0.195310 
#    y 0.000000 3.663340 0.000000 
#    z -0.195310 0.000000 3.666030 
# 
# 
# High freq. dielectric constant tensor:
#      x y z
#    x 1.761470 0.000000 -0.020060 
#    y 0.000000 1.786340 0.000000 
#    z -0.020060 0.000000 1.801670 
# 
# From -- ./inp_files/210357.got.cif
#   From: 2010.06.25/outbox.cif.g09.slc.cpg/sg15_106_cif.got.tgz:210357.got - 2010.06.28 07:06:18.
