data_PCOD8135377
_publ_section_title
;
Structure prediction by ZEFSAII (Michael W. Deem and Ramdas Pophale) SiO2 
 PCOD8135377
Probable space group: C 2/C
;
_chemical_formula_sum "Si O2"
_cell_formula_units_Z 48
_cell_length_a 17.750439
_cell_length_b 8.852831
_cell_length_c 21.735356
_cell_angle_alpha 90.000000
_cell_angle_beta 45.414859
_cell_angle_gamma 90.000000
_cell_volume 2432.567774
_symmetry_space_group_name_H-M "C 2/C"
_symmetry_group_IT_number 15
_symmetry_cell_setting 'monoclinic'
loop_
_space_group_symop_operation_xyz
x,y,z
-x,y,1/2-z
-x,-y,-z
x,-y,1/2+z
1/2+x,1/2+y,z
1/2-x,1/2+y,1/2-z
1/2-x,1/2-y,-z
1/2+x,1/2-y,1/2+z
loop_
_atom_site_type_symbol
_atom_site_label
_atom_site_fract_x
_atom_site_fract_y
_atom_site_fract_z
Si Si1 0.500000 0.012820 0.750000
Si Si2 0.088809 0.254153 0.625471
Si Si3 0.646337 0.262502 0.717567
Si Si4 0.357472 0.386482 0.070182
Si Si5 0.194137 0.803900 0.942246
Si Si6 0.500000 0.497623 0.250000
Si Si7 0.077594 0.156673 0.393861
O O1 0.530231 0.909313 0.674613
O O2 0.596839 0.109926 0.719465
O O3 0.115201 0.259946 0.538978
O O4 0.190425 0.237943 0.611900
O O5 0.017180 0.107401 0.680398
O O6 0.773143 0.242314 0.638642
O O7 0.604483 0.401021 0.700493
O O8 0.610881 0.290621 0.807687
O O9 0.303935 0.512076 0.055975
O O10 0.402262 0.476081 0.105252
O O11 0.453899 0.307246 0.978036
O O12 0.149998 0.749430 0.901202
#
# Coordination Sequence:
#
# PCOD8135377 Si02
#       7
#     4   8   8   8   8   4   8
#     4  10  20  38  58  88 122 152 196 248 296 340
#     4  10  19  38  61  83 118 158 196 244 288 359
#     4  11  21  40  59  92 119 156 196 251 297 353
#     4   9  19  39  60  86 120 157 195 245 300 348
#     4   9  18  37  61  82 110 160 198 235 296 351
#     4  10  24  34  58  88 118 154 202 236 300 352
#     4   9  20  38  60  86 117 157 195 244 300 346
#
# _framework density 19.732236
#
# number of rings (size 3 to 8) (size 9 to 14) (size 15 to 20)
#    1.000    1.333    1.667    1.000    0.000    1.333 
#   12.000    3.333    0.000    0.000    0.000    0.000 
#    0.000    0.000    0.000    0.000    0.000    0.000 
#
# Total GULP energy -297418.974452 kJ/mol
# GULP energy per Si atom -12392.457269 kJ/mol
# Density = 1.968732 g / cm^3
# Si number density = 19.732236 Si / 1000 Ang^3
#
#
#
# Elastic Constant Matrix: (Units=GPa)
#
#
# Indices 1 2 3 4 5 6 
#
# 1 57.7974 12.8571 14.9372 0.0000 -1.5010 0.0000
# 2 12.8571 72.7983 16.2482 0.0000 -3.9825 0.0001
# 3 14.9372 16.2482 72.2635 0.0000 -12.6669 0.0000
# 4 0.0000 0.0000 0.0000 22.7665 0.0000 -1.8255
# 5 -1.5010 -3.9825 -12.6669 0.0000 35.2659 0.0000
# 6 0.0000 0.0001 0.0000 -1.8255 0.0000 9.9095
#
#
#
# Elastic Compliance Matrix: (Units=1/GPa)
#
#
# Indices 1 2 3 4 5 6 
#
# 1 0.018742 -0.002586 -0.003419 0.000000 -0.000723 0.000000
# 2 -0.002586 0.014827 -0.002695 0.000000 0.000596 0.000000
# 3 -0.003419 -0.002695 0.016085 0.000000 0.005328 0.000000
# 4 0.000000 0.000000 0.000000 0.044583 0.000000 0.008213
# 5 -0.000723 0.000596 0.005328 0.000000 0.030306 0.000000
# 6 0.000000 0.000000 0.000000 0.008213 0.000000 0.102426
#
#
# Mechanical properties :
#
#
# Convention : Reuss Voigt Hill
#
# Bulk Modulus (GPa) = 31.00431 32.32714 31.66572
# Shear Modulus (GPa) = 19.59851 24.17615 21.88733
#
# Velocity S-wave (km/s) = 3.15496 3.50410 3.33410
# Velocity P-wave (km/s) = 5.38687 5.72626 5.55916
#
# Compressibility (1/GPa) = 0.03225359
#
# Stress axis : x y z
#
# Youngs Moduli (GPa) = 53.35588 67.44241 62.17066
#
# Poissons Ratio (x) = 0.17444 0.21257
# Poissons Ratio (y) = 0.13800 0.16753
# Poissons Ratio (z) = 0.18243 0.18174
#
# Static dielectric constant tensor:
#      x y z
#    x 3.442200 0.000000 -0.137810 
#    y 0.000000 3.362940 0.000000 
#    z -0.137810 0.000000 3.483340 
# 
# 
# High freq. dielectric constant tensor:
#      x y z
#    x 1.760410 0.000000 -0.009850 
#    y 0.000000 1.744220 0.000000 
#    z -0.009850 0.000000 1.771100 
# 
# From -- ./inp_files/279318.got.cif
#   From: 2010.06.25/outbox.cif.g09.slc.cpg/sg15_140_cif.got.tgz:279318.got - 2010.06.28 07:06:18.
