data_PCOD8135705
_publ_section_title
;
Structure prediction by ZEFSAII (Michael W. Deem and Ramdas Pophale) SiO2 
 PCOD8135705
Probable space group: C 2/C
;
_chemical_formula_sum "Si O2"
_cell_formula_units_Z 40
_cell_length_a 8.991949
_cell_length_b 10.400399
_cell_length_c 21.168833
_cell_angle_alpha 90.000000
_cell_angle_beta 92.671120
_cell_angle_gamma 90.000000
_cell_volume 1977.555277
_symmetry_space_group_name_H-M "C 2/C"
_symmetry_group_IT_number 15
_symmetry_cell_setting 'monoclinic'
loop_
_space_group_symop_operation_xyz
x,y,z
-x,y,1/2-z
-x,-y,-z
x,-y,1/2+z
1/2+x,1/2+y,z
1/2-x,1/2+y,1/2-z
1/2-x,1/2-y,-z
1/2+x,1/2-y,1/2+z
loop_
_atom_site_type_symbol
_atom_site_label
_atom_site_fract_x
_atom_site_fract_y
_atom_site_fract_z
Si Si1 0.593668 0.083600 0.647564
Si Si2 0.565177 0.816492 0.609705
Si Si3 0.414654 0.684780 0.121473
Si Si4 0.906668 0.298122 0.479400
Si Si5 0.077382 0.911994 0.317832
O O1 0.474720 0.193409 0.664849
O O2 0.626618 0.089519 0.572305
O O3 0.746205 0.107420 0.688595
O O4 0.533052 0.937974 0.656188
O O5 0.740814 0.794274 0.608133
O O6 0.502389 0.849804 0.539490
O O7 0.484100 0.690865 0.633847
O O8 0.499786 0.686071 0.055451
O O9 0.457205 0.553969 0.157341
O O10 0.750000 0.250000 0.500000
O O11 0.000000 0.889078 0.250000
#
# Coordination Sequence:
#
# PCOD8135705 Si02
#       5
#     8   8   8   8   8
#     4   9  22  40  57  90 121 154 194 244 299 358
#     4  11  20  39  63  92 118 157 198 247 303 358
#     4   9  23  39  60  91 123 154 197 242 303 361
#     4  10  19  39  64  90 130 152 190 248 309 366
#     4  11  24  42  60  84 120 162 209 248 292 353
#
# _framework density 20.226994999999999
#
# number of rings (size 3 to 8) (size 9 to 14) (size 15 to 20)
#    1.200    0.800    2.000    1.200    0.000    7.200 
#    0.000    1.000    0.000    0.000    0.000    0.000 
#    0.000    0.000    0.000    0.000    0.000    0.000 
#
# Total GULP energy -247844.827554 kJ/mol
# GULP energy per Si atom -12392.241378 kJ/mol
# Density = 2.018096 g / cm^3
# Si number density = 20.226995 Si / 1000 Ang^3
#
#
#
# Elastic Constant Matrix: (Units=GPa)
#
#
# Indices 1 2 3 4 5 6 
#
# 1 80.4520 43.8193 11.3557 0.0000 27.1856 0.0000
# 2 43.8193 109.5004 0.1192 0.0000 11.4022 0.0000
# 3 11.3557 0.1192 64.9792 0.0000 32.1961 0.0000
# 4 0.0000 0.0000 0.0000 16.6517 0.0000 12.2004
# 5 27.1856 11.4022 32.1961 0.0000 38.7043 0.0000
# 6 0.0000 0.0000 0.0000 12.2004 0.0000 16.4822
#
#
#
# Elastic Compliance Matrix: (Units=1/GPa)
#
#
# Indices 1 2 3 4 5 6 
#
# 1 0.021044 -0.006697 0.004560 0.000000 -0.016602 0.000000
# 2 -0.006697 0.011761 0.000910 0.000000 0.000483 0.000000
# 3 0.004560 0.000910 0.027747 0.000000 -0.026553 0.000000
# 4 0.000000 0.000000 0.000000 0.131222 0.000000 -0.097133
# 5 -0.016602 0.000483 -0.026553 0.000000 0.059444 0.000000
# 6 0.000000 0.000000 0.000000 -0.097133 0.000000 0.132571
#
#
# Mechanical properties :
#
#
# Convention : Reuss Voigt Hill
#
# Bulk Modulus (GPa) = 17.21231 40.61334 28.91282
# Shear Modulus (GPa) = 12.32714 27.67678 20.00196
#
# Velocity S-wave (km/s) = 2.47136 3.70308 3.14805
# Velocity P-wave (km/s) = 4.08308 6.19726 5.24774
#
# Compressibility (1/GPa) = 0.05809796
#
# Stress axis : x y z
#
# Youngs Moduli (GPa) = 47.52004 85.02469 36.03941
#
# Poissons Ratio (x) = 0.56945 -0.16436
# Poissons Ratio (y) = 0.31826 -0.03279
# Poissons Ratio (z) = -0.21671 -0.07735
#
# Static dielectric constant tensor:
#      x y z
#    x 3.594550 0.000000 0.252900 
#    y 0.000000 3.746440 0.000000 
#    z 0.252900 0.000000 3.487510 
# 
# 
# High freq. dielectric constant tensor:
#      x y z
#    x 1.792780 0.000000 0.024580 
#    y 0.000000 1.795200 0.000000 
#    z 0.024580 0.000000 1.774170 
# 
# From -- ./inp_files/262844.got.cif
#   From: 2010.06.25/outbox.cif.g09.slc.cpg/sg15_132_cif.got.tgz:262844.got - 2010.06.28 07:06:18.
