data_PCOD8135467
_publ_section_title
;
Structure prediction by ZEFSAII (Michael W. Deem and Ramdas Pophale) SiO2 
 PCOD8135467
Probable space group: C 2/C
;
_chemical_formula_sum "Si O2"
_cell_formula_units_Z 40
_cell_length_a 12.167710
_cell_length_b 9.119319
_cell_length_c 14.566041
_cell_angle_alpha 90.000000
_cell_angle_beta 111.671979
_cell_angle_gamma 90.000000
_cell_volume 1502.017295
_symmetry_space_group_name_H-M "C 2/C"
_symmetry_group_IT_number 15
_symmetry_cell_setting 'monoclinic'
loop_
_space_group_symop_operation_xyz
x,y,z
-x,y,1/2-z
-x,-y,-z
x,-y,1/2+z
1/2+x,1/2+y,z
1/2-x,1/2+y,1/2-z
1/2-x,1/2-y,-z
1/2+x,1/2-y,1/2+z
loop_
_atom_site_type_symbol
_atom_site_label
_atom_site_fract_x
_atom_site_fract_y
_atom_site_fract_z
Si Si1 0.659818 0.404543 0.878667
Si Si2 0.715448 0.307648 0.709249
Si Si3 0.911355 0.516517 0.802575
Si Si4 0.925040 0.652329 0.510499
Si Si5 0.419239 0.374583 0.011758
O O1 0.632474 0.389324 0.761479
O O2 0.596511 0.274341 0.915857
O O3 0.802618 0.400104 0.931311
O O4 0.631004 0.568806 0.906126
O O5 0.851427 0.358189 0.766114
O O6 0.696523 0.134741 0.722644
O O7 0.683448 0.350863 0.595600
O O8 0.000000 0.560452 0.750000
O O9 0.991660 0.522212 0.920410
O O10 0.002008 0.729052 0.453298
O O11 0.500000 0.500000 0.000000
#
# Coordination Sequence:
#
# PCOD8135467 Si02
#       5
#     8   8   8   8   8
#     4  10  19  38  63  94 122 170 216 257 317 387
#     4  11  24  39  68  99 126 174 221 259 323 395
#     4  11  22  43  64  94 133 169 215 269 322 375
#     4   9  19  35  62  90 121 168 209 265 317 376
#     4   9  20  34  59  94 125 160 215 262 310 378
#
# _framework density 26.630852999999998
#
# number of rings (size 3 to 8) (size 9 to 14) (size 15 to 20)
#    0.000    2.000    2.000    1.200    5.600    0.800 
#    0.000    7.000    0.000    0.000    0.000    0.000 
#    0.000    0.000    0.000    0.000    0.000    0.000 
#
# Total GULP energy -247843.579729 kJ/mol
# GULP energy per Si atom -12392.178986 kJ/mol
# Density = 2.657024 g / cm^3
# Si number density = 26.630853 Si / 1000 Ang^3
#
#
#
# Elastic Constant Matrix: (Units=GPa)
#
#
# Indices 1 2 3 4 5 6 
#
# 1 77.8919 40.7302 10.6752 0.0000 17.0850 0.0000
# 2 40.7302 97.6874 24.5020 0.0000 19.3246 0.0000
# 3 10.6752 24.5020 67.4619 0.0000 -7.7694 0.0000
# 4 0.0000 0.0000 0.0000 35.3309 0.0000 1.7017
# 5 17.0850 19.3246 -7.7694 0.0000 32.1919 0.0000
# 6 0.0000 0.0000 0.0000 1.7017 0.0000 46.1400
#
#
#
# Elastic Compliance Matrix: (Units=1/GPa)
#
#
# Indices 1 2 3 4 5 6 
#
# 1 0.017338 -0.005666 -0.001393 0.000000 -0.006137 0.000000
# 2 -0.005666 0.015528 -0.005627 0.000000 -0.007673 0.000000
# 3 -0.001393 -0.005627 0.018063 0.000000 0.008476 0.000000
# 4 0.000000 0.000000 0.000000 0.028354 0.000000 -0.001046
# 5 -0.006137 -0.007673 0.008476 0.000000 0.040972 0.000000
# 6 0.000000 0.000000 0.000000 -0.001046 0.000000 0.021712
#
#
# Mechanical properties :
#
#
# Convention : Reuss Voigt Hill
#
# Bulk Modulus (GPa) = 39.12489 43.87292 41.49891
# Shear Modulus (GPa) = 28.43214 33.87480 31.15347
#
# Velocity S-wave (km/s) = 3.27102 3.57040 3.42398
# Velocity P-wave (km/s) = 5.38419 5.78854 5.59003
#
# Compressibility (1/GPa) = 0.02555918
#
# Stress axis : x y z
#
# Youngs Moduli (GPa) = 57.67744 64.39925 55.36055
#
# Poissons Ratio (x) = 0.36487 0.07709
# Poissons Ratio (y) = 0.32678 0.31151
# Poissons Ratio (z) = 0.08032 0.36237
#
# Static dielectric constant tensor:
#      x y z
#    x 5.503850 0.000000 -0.767270 
#    y 0.000000 5.375830 0.000000 
#    z -0.767270 0.000000 5.259320 
# 
# 
# High freq. dielectric constant tensor:
#      x y z
#    x 2.076350 0.000000 -0.010990 
#    y 0.000000 2.073220 0.000000 
#    z -0.010990 0.000000 2.074340 
# 
# From -- ./inp_files/142388.got.cif
#   From: 2010.06.25/outbox.cif.g09.slc.cpg/sg15_72_cif.got.tgz:142388.got - 2010.06.28 07:06:18.
