data_PCOD8135466
_publ_section_title
;
Structure prediction by ZEFSAII (Michael W. Deem and Ramdas Pophale) SiO2 
 PCOD8135466
Probable space group: C 2/C
;
_chemical_formula_sum "Si O2"
_cell_formula_units_Z 64
_cell_length_a 10.662981
_cell_length_b 23.260113
_cell_length_c 21.558717
_cell_angle_alpha 90.000000
_cell_angle_beta 144.122275
_cell_angle_gamma 90.000000
_cell_volume 3133.671837
_symmetry_space_group_name_H-M "C 2/C"
_symmetry_group_IT_number 15
_symmetry_cell_setting 'monoclinic'
loop_
_space_group_symop_operation_xyz
x,y,z
-x,y,1/2-z
-x,-y,-z
x,-y,1/2+z
1/2+x,1/2+y,z
1/2-x,1/2+y,1/2-z
1/2-x,1/2-y,-z
1/2+x,1/2-y,1/2+z
loop_
_atom_site_type_symbol
_atom_site_label
_atom_site_fract_x
_atom_site_fract_y
_atom_site_fract_z
Si Si1 0.514911 0.383199 0.630724
Si Si2 0.616015 0.112292 0.054141
Si Si3 0.353921 0.013698 0.134704
Si Si4 0.217717 0.104551 0.809641
Si Si5 0.044765 0.089666 0.529799
Si Si6 0.704896 0.833794 0.286012
Si Si7 0.265611 0.021172 0.298047
Si Si8 0.712027 0.702276 0.294610
O O1 0.281710 0.376416 0.565883
O O2 0.480415 0.376990 0.544321
O O3 0.622116 0.444608 0.690426
O O4 0.670417 0.331270 0.713598
O O5 0.708007 0.057676 0.128754
O O6 0.602125 0.168459 0.093346
O O7 0.385263 0.101343 0.933044
O O8 0.500000 0.036090 0.250000
O O9 0.499539 0.005738 0.133033
O O10 0.177467 0.059466 0.043461
O O11 0.243695 0.954091 0.108917
O O12 0.322565 0.139513 0.793806
O O13 0.000000 0.133269 0.750000
O O14 0.152847 0.039797 0.764129
O O15 0.090937 0.135776 0.601483
O O16 0.500000 0.841205 0.250000
O O17 0.771476 0.767578 0.304415
O O18 0.500000 0.697356 0.250000
#
# Coordination Sequence:
#
# PCOD8135466 Si02
#       8
#     8   8   8   8   8   8   8   8
#     4  10  19  38  63  94 115 155 202 259 298 363
#     4  10  21  39  62  87 118 158 205 248 300 361
#     4  11  22  38  55  90 126 164 196 252 296 378
#     4  12  26  39  59  91 130 162 199 250 310 368
#     4  11  23  35  62  88 125 161 202 243 317 359
#     4  11  23  42  65  91 121 162 207 261 303 356
#     4  11  21  37  62  85 126 156 201 239 311 364
#     4   8  19  39  66  90 116 152 211 260 300 353
#
# _framework density 20.423324999999998
#
# number of rings (size 3 to 8) (size 9 to 14) (size 15 to 20)
#    0.000    1.500    1.250    5.625    3.500    1.000 
#    0.000    4.375    5.500    0.000    0.000    0.000 
#    0.000    0.000    0.000    0.000    0.000    0.000 
#
# Total GULP energy -396811.125257 kJ/mol
# GULP energy per Si atom -12400.347664 kJ/mol
# Density = 2.037684 g / cm^3
# Si number density = 20.423325 Si / 1000 Ang^3
#
#
#
# Elastic Constant Matrix: (Units=GPa)
#
#
# Indices 1 2 3 4 5 6 
#
# 1 71.5971 5.2313 5.3103 -0.0025 4.8825 -0.0006
# 2 5.2313 123.4810 27.5567 -0.0006 -3.8615 -0.0001
# 3 5.3103 27.5567 85.6931 -0.0097 -4.7328 -0.0023
# 4 -0.0025 -0.0006 -0.0097 -8.7931 -0.0022 -8.1156
# 5 4.8825 -3.8615 -4.7328 -0.0022 31.8077 -0.0007
# 6 -0.0006 -0.0001 -0.0023 -8.1156 -0.0007 19.4604
#
#
#
# Elastic Compliance Matrix: (Units=1/GPa)
#
#
# Indices 1 2 3 4 5 6 
#
# 1 0.014228 -0.000486 -0.000856 -0.000002 -0.002370 -0.000001
# 2 -0.000486 0.008754 -0.002745 0.000002 0.000729 0.000001
# 3 -0.000856 -0.002745 0.012698 -0.000011 0.001688 -0.000003
# 4 -0.000002 0.000002 -0.000011 -0.082118 -0.000008 -0.034246
# 5 -0.002370 0.000729 0.001688 -0.000008 0.032142 -0.000002
# 6 -0.000001 0.000001 -0.000003 -0.034246 -0.000002 0.037105
#
#
# Mechanical properties :
#
#
# Convention : Reuss Voigt Hill
#
# Bulk Modulus (GPa) = 36.35489 39.66308 38.00899
# Shear Modulus (GPa) = 124.52520 24.67319 74.59920
#
# Velocity S-wave (km/s) = 7.81693 3.47953 6.05027
# Velocity P-wave (km/s) = 9.96553 5.96703 8.21332
#
# Compressibility (1/GPa) = 0.02750662
#
# Stress axis : x y z
#
# Youngs Moduli (GPa) = 70.28541 114.22912 78.74949
#
# Poissons Ratio (x) = 0.05549 0.06744
# Poissons Ratio (y) = 0.03414 0.21615
# Poissons Ratio (z) = 0.06019 0.31354
#
# Static dielectric constant tensor:
#      x y z
#    x 3.663010 0.000000 -0.037490 
#    y 0.000000 3.747680 0.000000 
#    z -0.037490 0.000000 3.670320 
# 
# 
# High freq. dielectric constant tensor:
#      x y z
#    x 1.790470 0.000000 -0.008070 
#    y 0.000000 1.785630 0.000000 
#    z -0.008070 0.000000 1.803150 
# 
# From -- ./inp_files/271304.got.cif
#   From: 2010.06.25/outbox.cif.g09.slc.cpg/sg15_136_cif.got.tgz:271304.got - 2010.06.28 07:06:18.
