data_PCOD8135429
_publ_section_title
;
Structure prediction by ZEFSAII (Michael W. Deem and Ramdas Pophale) SiO2 
 PCOD8135429
Probable space group: C 2/C
;
_chemical_formula_sum "Si O2"
_cell_formula_units_Z 56
_cell_length_a 9.516663
_cell_length_b 14.594109
_cell_length_c 19.389494
_cell_angle_alpha 90.000000
_cell_angle_beta 71.040355
_cell_angle_gamma 90.000000
_cell_volume 2546.853836
_symmetry_space_group_name_H-M "C 2/C"
_symmetry_group_IT_number 15
_symmetry_cell_setting 'monoclinic'
loop_
_space_group_symop_operation_xyz
x,y,z
-x,y,1/2-z
-x,-y,-z
x,-y,1/2+z
1/2+x,1/2+y,z
1/2-x,1/2+y,1/2-z
1/2-x,1/2-y,-z
1/2+x,1/2-y,1/2+z
loop_
_atom_site_type_symbol
_atom_site_label
_atom_site_fract_x
_atom_site_fract_y
_atom_site_fract_z
Si Si1 0.270637 0.585636 0.260705
Si Si2 0.990792 0.472130 0.616177
Si Si3 0.505151 0.671053 0.468745
Si Si4 0.687399 0.180574 0.149890
Si Si5 0.058612 0.947588 0.640124
Si Si6 0.505610 0.130620 0.518684
Si Si7 0.342822 0.361680 0.415400
O O1 0.139756 0.517105 0.306413
O O2 0.188053 0.670075 0.233767
O O3 0.363135 0.616016 0.313867
O O4 0.383316 0.539944 0.187020
O O5 0.041702 0.573531 0.583119
O O6 0.123476 0.412364 0.626454
O O7 0.925247 0.421963 0.558061
O O8 0.644232 0.693416 0.398845
O O9 0.410564 0.596406 0.440428
O O10 0.419703 0.768734 0.489049
O O11 0.550072 0.631227 0.535487
O O12 0.605209 0.273184 0.137922
O O13 0.132846 0.047438 0.633154
O O14 0.328251 0.143807 0.533300
#
# Coordination Sequence:
#
# PCOD8135429 Si02
#       7
#     8   8   8   8   8   8   8
#     4  10  22  40  54  82 119 163 194 236 288 357
#     4  11  19  37  59  87 119 149 192 247 294 341
#     4  10  19  38  62  91 114 150 196 250 294 349
#     4  10  20  36  65  86 116 150 201 240 291 352
#     4  10  22  39  60  80 124 159 192 240 302 343
#     4  10  20  34  64  88 116 149 192 246 307 337
#     4  11  18  39  62  93 113 152 202 246 287 355
#
# _framework density 21.987912999999999
#
# number of rings (size 3 to 8) (size 9 to 14) (size 15 to 20)
#    0.000    1.714    4.286    1.714    0.000    0.000 
#    5.143    2.143    9.429    0.000    0.000    0.000 
#    0.000    0.000    0.000    0.000    0.000    0.000 
#
# Total GULP energy -346949.168323 kJ/mol
# GULP energy per Si atom -12391.041726 kJ/mol
# Density = 2.193787 g / cm^3
# Si number density = 21.987913 Si / 1000 Ang^3
#
#
#
# Elastic Constant Matrix: (Units=GPa)
#
#
# Indices 1 2 3 4 5 6 
#
# 1 35.7542 24.8166 18.6627 0.0000 30.2703 0.0000
# 2 24.8166 104.5195 33.6098 0.0000 27.9983 0.0000
# 3 18.6627 33.6098 102.1561 0.0000 29.4460 0.0000
# 4 0.0000 0.0000 0.0000 26.8765 0.0000 6.1473
# 5 30.2703 27.9983 29.4460 0.0000 43.4252 0.0000
# 6 0.0000 0.0000 0.0000 6.1473 0.0000 25.3452
#
#
#
# Elastic Compliance Matrix: (Units=1/GPa)
#
#
# Indices 1 2 3 4 5 6 
#
# 1 0.070257 -0.004718 0.002432 0.000000 -0.047581 0.000000
# 2 -0.004718 0.012241 -0.002285 0.000000 -0.003054 0.000000
# 3 0.002432 -0.002285 0.012629 0.000000 -0.008786 0.000000
# 4 0.000000 0.000000 0.000000 0.039392 0.000000 -0.009554
# 5 -0.047581 -0.003054 -0.008786 0.000000 0.064122 0.000000
# 6 0.000000 0.000000 0.000000 -0.009554 0.000000 0.041773
#
#
# Mechanical properties :
#
#
# Convention : Reuss Voigt Hill
#
# Bulk Modulus (GPa) = 11.62987 44.06756 27.84872
# Shear Modulus (GPa) = 17.97162 30.15210 24.06186
#
# Velocity S-wave (km/s) = 2.86202 3.70713 3.31164
# Velocity P-wave (km/s) = 4.02768 6.19750 5.22643
#
# Compressibility (1/GPa) = 0.08598546
#
# Stress axis : x y z
#
# Youngs Moduli (GPa) = 14.23345 81.69504 79.18423
#
# Poissons Ratio (x) = 0.38541 -0.19259
# Poissons Ratio (y) = 0.06715 0.18094
# Poissons Ratio (z) = -0.03462 0.18667
#
# Static dielectric constant tensor:
#      x y z
#    x 3.825120 0.000000 0.170790 
#    y 0.000000 4.075340 0.000000 
#    z 0.170790 0.000000 4.141750 
# 
# 
# High freq. dielectric constant tensor:
#      x y z
#    x 1.849610 0.000000 0.007110 
#    y 0.000000 1.841070 0.000000 
#    z 0.007110 0.000000 1.866330 
# 
# From -- ./inp_files/197749.got.cif
#   From: 2010.06.25/outbox.cif.g09.slc.cpg/sg15_99_cif.got.tgz:197749.got - 2010.06.28 07:06:18.
