data_PCOD8135344
_publ_section_title
;
Structure prediction by ZEFSAII (Michael W. Deem and Ramdas Pophale) SiO2 
 PCOD8135344
Probable space group: C 2/C
;
_chemical_formula_sum "Si O2"
_cell_formula_units_Z 48
_cell_length_a 14.481329
_cell_length_b 19.083661
_cell_length_c 9.492368
_cell_angle_alpha 90.000000
_cell_angle_beta 101.066099
_cell_angle_gamma 90.000000
_cell_volume 2574.503982
_symmetry_space_group_name_H-M "C 2/C"
_symmetry_group_IT_number 15
_symmetry_cell_setting 'monoclinic'
loop_
_space_group_symop_operation_xyz
x,y,z
-x,y,1/2-z
-x,-y,-z
x,-y,1/2+z
1/2+x,1/2+y,z
1/2-x,1/2+y,1/2-z
1/2-x,1/2-y,-z
1/2+x,1/2-y,1/2+z
loop_
_atom_site_type_symbol
_atom_site_label
_atom_site_fract_x
_atom_site_fract_y
_atom_site_fract_z
Si Si1 0.309223 0.296300 0.116528
Si Si2 0.500000 0.353583 0.750000
Si Si3 0.000000 0.905580 0.250000
Si Si4 0.488166 0.290498 0.447837
Si Si5 0.304043 0.578158 0.212907
Si Si6 0.696960 0.218601 0.116312
Si Si7 0.322705 0.550281 0.545180
O O1 0.418224 0.276809 0.116324
O O2 0.274961 0.274571 0.259146
O O3 0.280342 0.376653 0.085074
O O4 0.250000 0.250000 0.000000
O O5 0.518897 0.307776 0.616262
O O6 0.593000 0.398304 0.807081
O O7 0.058181 0.857122 0.151789
O O8 0.069587 0.953028 0.364450
O O9 0.417039 0.224134 0.434443
O O10 0.228328 0.640483 0.170112
O O11 0.312650 0.548167 0.373717
O O12 0.269351 0.515600 0.099561
O O13 0.750000 0.250000 0.000000
#
# Coordination Sequence:
#
# PCOD8135344 Si02
#       7
#     8   4   4   8   8   8   8
#     4  11  21  43  63  89 118 165 209 264 315 368
#     4  12  21  38  56  94 126 163 208 252 317 382
#     4  10  19  38  60  82 118 171 198 246 323 384
#     4  11  21  37  63  91 122 159 210 258 316 366
#     4  12  26  37  58  90 132 168 204 256 317 387
#     4  12  23  38  62  91 122 164 215 257 304 374
#     4  11  24  38  55  88 127 165 204 253 322 379
#
# _framework density 18.644369999999999
#
# number of rings (size 3 to 8) (size 9 to 14) (size 15 to 20)
#    0.000    0.667   10.000    0.500    4.667    1.333 
#    0.000    0.000    0.000    1.000    0.000    0.000 
#    0.000    0.000    0.000    0.000    0.000    0.000 
#
# Total GULP energy -297322.929731 kJ/mol
# GULP energy per Si atom -12388.455405 kJ/mol
# Density = 1.860193 g / cm^3
# Si number density = 18.644370 Si / 1000 Ang^3
#
#
#
# Elastic Constant Matrix: (Units=GPa)
#
#
# Indices 1 2 3 4 5 6 
#
# 1 59.3433 43.9488 26.1970 0.0000 -5.8314 0.0000
# 2 43.9488 115.0577 41.4459 0.0000 -3.5109 0.0000
# 3 26.1970 41.4459 141.1578 0.0000 -14.2268 0.0000
# 4 0.0000 0.0000 0.0000 37.8096 0.0000 0.4841
# 5 -5.8314 -3.5109 -14.2268 0.0000 26.0139 0.0000
# 6 0.0000 0.0000 0.0000 0.4841 0.0000 26.8525
#
#
#
# Elastic Compliance Matrix: (Units=1/GPa)
#
#
# Indices 1 2 3 4 5 6 
#
# 1 0.024256 -0.008569 -0.001645 0.000000 0.003381 0.000000
# 2 -0.008569 0.012748 -0.002300 0.000000 -0.001458 0.000000
# 3 -0.001645 -0.002300 0.008463 0.000000 0.003949 0.000000
# 4 0.000000 0.000000 0.000000 0.026454 0.000000 -0.000477
# 5 0.003381 -0.001458 0.003949 0.000000 0.041162 0.000000
# 6 0.000000 0.000000 0.000000 -0.000477 0.000000 0.037249
#
#
# Mechanical properties :
#
#
# Convention : Reuss Voigt Hill
#
# Bulk Modulus (GPa) = 48.92504 59.86024 54.39264
# Shear Modulus (GPa) = 27.44640 31.73299 29.58970
#
# Velocity S-wave (km/s) = 3.84096 4.13002 3.98811
# Velocity P-wave (km/s) = 6.78003 7.41072 7.10238
#
# Compressibility (1/GPa) = 0.02043943
#
# Stress axis : x y z
#
# Youngs Moduli (GPa) = 41.22724 78.44069 118.16486
#
# Poissons Ratio (x) = 0.67219 0.19434
# Poissons Ratio (y) = 0.35329 0.27175
# Poissons Ratio (z) = 0.06780 0.18039
#
# Static dielectric constant tensor:
#      x y z
#    x 3.250490 0.000000 0.017090 
#    y 0.000000 3.440400 0.000000 
#    z 0.017090 0.000000 3.706030 
# 
# 
# High freq. dielectric constant tensor:
#      x y z
#    x 1.687470 0.000000 0.001600 
#    y 0.000000 1.707720 0.000000 
#    z 0.001600 0.000000 1.758950 
# 
# From -- ./inp_files/39687.got.cif
#   From: 2010.06.25/outbox.cif.g09.slc.cpg/sg15_20_cif.got.tgz:39687.got - 2010.06.28 07:06:18.
