data_PCOD8135153
_publ_section_title
;
Structure prediction by ZEFSAII (Michael W. Deem and Ramdas Pophale) SiO2 
 PCOD8135153
Probable space group: C 2/C
;
_chemical_formula_sum "Si O2"
_cell_formula_units_Z 48
_cell_length_a 15.604661
_cell_length_b 10.036909
_cell_length_c 28.450063
_cell_angle_alpha 90.000000
_cell_angle_beta 33.278552
_cell_angle_gamma 90.000000
_cell_volume 2445.008410
_symmetry_space_group_name_H-M "C 2/C"
_symmetry_group_IT_number 15
_symmetry_cell_setting 'monoclinic'
loop_
_space_group_symop_operation_xyz
x,y,z
-x,y,1/2-z
-x,-y,-z
x,-y,1/2+z
1/2+x,1/2+y,z
1/2-x,1/2+y,1/2-z
1/2-x,1/2-y,-z
1/2+x,1/2-y,1/2+z
loop_
_atom_site_type_symbol
_atom_site_label
_atom_site_fract_x
_atom_site_fract_y
_atom_site_fract_z
Si Si1 0.324555 0.755338 0.344840
Si Si2 0.681190 0.945249 0.654011
Si Si3 0.337649 0.292458 0.172745
Si Si4 0.200776 0.087453 0.301064
Si Si5 0.685865 0.630530 0.501561
Si Si6 0.346321 0.633180 0.432688
O O1 0.500000 0.767808 0.250000
O O2 0.231647 0.714341 0.340565
O O3 0.311310 0.647555 0.392843
O O4 0.270556 0.904582 0.383308
O O5 0.500000 0.928382 0.750000
O O6 0.787284 0.891870 0.648362
O O7 0.728153 0.859585 0.587668
O O8 0.331645 0.182659 0.216830
O O9 0.252864 0.430682 0.228857
O O10 0.502547 0.349440 0.080639
O O11 0.032127 0.135609 0.358836
O O12 0.750000 0.750000 0.500000
O O13 0.727278 0.500832 0.513199
O O14 0.250000 0.750000 0.500000
#
# Coordination Sequence:
#
# PCOD8135153 Si02
#       6
#     8   8   8   8   8   8
#     4  10  19  37  63  90 115 158 209 252 295 360
#     4  10  21  38  63  86 119 164 204 245 308 373
#     4  10  22  39  64  88 127 157 206 255 304 368
#     4  10  22  38  61  92 117 163 200 256 307 361
#     4  11  24  41  58  89 127 161 199 255 314 363
#     4  11  22  37  63  88 120 155 207 254 297 364
#
# _framework density 19.631834000000001
#
# number of rings (size 3 to 8) (size 9 to 14) (size 15 to 20)
#    0.000    1.667    3.333    1.000    2.333    3.333 
#    3.000    1.667    0.000    0.000    0.000    0.000 
#    0.000    0.000    0.000    0.000    0.000    0.000 
#
# Total GULP energy -297378.778153 kJ/mol
# GULP energy per Si atom -12390.782423 kJ/mol
# Density = 1.958715 g / cm^3
# Si number density = 19.631834 Si / 1000 Ang^3
#
#
#
# Elastic Constant Matrix: (Units=GPa)
#
#
# Indices 1 2 3 4 5 6 
#
# 1 129.7523 67.8926 40.7582 0.0000 31.3791 0.0008
# 2 67.8926 103.7454 52.7295 0.0002 19.1659 0.0008
# 3 40.7582 52.7295 82.9902 0.0007 24.6164 -0.0002
# 4 0.0000 0.0002 0.0007 34.3787 -0.0001 6.3406
# 5 31.3791 19.1659 24.6164 -0.0001 33.0908 0.0000
# 6 0.0008 0.0008 -0.0002 6.3406 0.0000 38.3114
#
#
#
# Elastic Compliance Matrix: (Units=1/GPa)
#
#
# Indices 1 2 3 4 5 6 
#
# 1 0.013680 -0.007718 0.000908 0.000000 -0.009177 0.000000
# 2 -0.007718 0.018689 -0.009039 0.000000 0.003218 0.000000
# 3 0.000908 -0.009039 0.020593 0.000000 -0.010945 0.000000
# 4 0.000000 0.000000 0.000000 0.030004 0.000000 -0.004966
# 5 -0.009177 0.003218 -0.010945 0.000000 0.045200 0.000000
# 6 0.000000 0.000000 0.000000 -0.004966 0.000000 0.026924
#
#
# Mechanical properties :
#
#
# Convention : Reuss Voigt Hill
#
# Bulk Modulus (GPa) = 47.02825 71.02761 59.02793
# Shear Modulus (GPa) = 25.78961 31.49667 28.64314
#
# Velocity S-wave (km/s) = 3.62838 4.00980 3.82385
# Velocity P-wave (km/s) = 6.44675 7.59581 7.04475
#
# Compressibility (1/GPa) = 0.02126381
#
# Stress axis : x y z
#
# Youngs Moduli (GPa) = 73.10061 53.50652 48.55960
#
# Poissons Ratio (x) = 0.41297 -0.04407
# Poissons Ratio (y) = 0.56420 0.43891
# Poissons Ratio (z) = -0.06634 0.48363
#
# Static dielectric constant tensor:
#      x y z
#    x 3.557400 0.000000 -0.077690 
#    y 0.000000 3.846240 0.000010 
#    z -0.077690 0.000010 2.205860 
# 
# 
# High freq. dielectric constant tensor:
#      x y z
#    x 1.773030 0.000000 0.004330 
#    y 0.000000 1.753640 0.000000 
#    z 0.004330 0.000000 1.763370 
# 
# From -- ./inp_files/151964.got.cif
#   From: 2010.06.25/outbox.cif.g09.slc.cpg/sg15_76_cif.got.tgz:151964.got - 2010.06.28 07:06:18.
