data_PCOD8135969
_publ_section_title
;
Structure prediction by ZEFSAII (Michael W. Deem and Ramdas Pophale) SiO2 
 PCOD8135969
Probable space group: C 2/C
;
_chemical_formula_sum "Si O2"
_cell_formula_units_Z 64
_cell_length_a 9.254345
_cell_length_b 16.466375
_cell_length_c 19.217884
_cell_angle_alpha 90.000000
_cell_angle_beta 97.873770
_cell_angle_gamma 90.000000
_cell_volume 2900.917824
_symmetry_space_group_name_H-M "C 2/C"
_symmetry_group_IT_number 15
_symmetry_cell_setting 'monoclinic'
loop_
_space_group_symop_operation_xyz
x,y,z
-x,y,1/2-z
-x,-y,-z
x,-y,1/2+z
1/2+x,1/2+y,z
1/2-x,1/2+y,1/2-z
1/2-x,1/2-y,-z
1/2+x,1/2-y,1/2+z
loop_
_atom_site_type_symbol
_atom_site_label
_atom_site_fract_x
_atom_site_fract_y
_atom_site_fract_z
Si Si1 0.929763 0.547689 0.059388
Si Si2 0.677966 0.336595 0.492703
Si Si3 0.344343 0.665002 0.004405
Si Si4 0.292843 0.117861 0.367322
Si Si5 0.278550 0.074149 0.635920
Si Si6 0.390143 0.338995 0.165924
Si Si7 0.348472 0.496933 0.743509
Si Si8 0.789794 0.781038 0.291269
O O1 0.913692 0.477031 0.115969
O O2 0.039367 0.616233 0.096096
O O3 0.775632 0.592902 0.034933
O O4 0.000000 0.500000 0.000000
O O5 0.750000 0.250000 0.500000
O O6 0.519036 0.324252 0.516674
O O7 0.678023 0.360138 0.411975
O O8 0.307573 0.613074 0.070804
O O9 0.250000 0.750000 0.000000
O O10 0.310534 0.609226 0.935743
O O11 0.247056 0.196427 0.321171
O O12 0.273636 0.044229 0.312253
O O13 0.191668 0.009520 0.678281
O O14 0.325229 0.150645 0.688032
O O15 0.386388 0.417193 0.213013
O O16 0.296935 0.274177 0.207233
O O17 0.553575 0.306847 0.166247
O O18 0.500000 0.445182 0.750000
#
# Coordination Sequence:
#
# PCOD8135969 Si02
#       8
#     8   8   8   8   8   8   8   8
#     4  12  27  44  67 106 147 182 242 306 358 438
#     4  12  26  41  70 107 144 185 242 302 367 432
#     4  12  23  44  75 104 144 194 241 303 373 438
#     4  12  26  44  72 102 142 189 231 305 367 422
#     4  11  23  42  73  99 138 187 240 290 368 430
#     4  10  19  41  67  92 132 181 231 278 348 434
#     4  11  23  44  70 101 139 178 240 296 355 442
#     4  10  20  41  70  93 130 187 230 281 363 435
#
# _framework density 22.061983999999999
#
# number of rings (size 3 to 8) (size 9 to 14) (size 15 to 20)
#    0.000    0.750    6.250    2.250    1.750    4.000 
#    0.000    0.000    2.750    0.000    0.000    0.000 
#    0.000    0.000    0.000    0.000    0.000    0.000 
#
# Total GULP energy -396449.355443 kJ/mol
# GULP energy per Si atom -12389.042358 kJ/mol
# Density = 2.201177 g / cm^3
# Si number density = 22.061984 Si / 1000 Ang^3
#
#
#
# Elastic Constant Matrix: (Units=GPa)
#
#
# Indices 1 2 3 4 5 6 
#
# 1 120.4844 39.1071 50.3825 0.0000 -14.2028 0.0000
# 2 39.1071 80.2069 39.6143 0.0000 -13.8953 0.0000
# 3 50.3825 39.6143 140.7353 0.0000 -21.6751 0.0000
# 4 0.0000 0.0000 0.0000 39.3743 0.0000 -0.1042
# 5 -14.2028 -13.8953 -21.6751 0.0000 35.6672 0.0000
# 6 0.0000 0.0000 0.0000 -0.1042 0.0000 35.5548
#
#
#
# Elastic Compliance Matrix: (Units=1/GPa)
#
#
# Indices 1 2 3 4 5 6 
#
# 1 0.010749 -0.003740 -0.002604 0.000000 0.001241 0.000000
# 2 -0.003740 0.016187 -0.002731 0.000000 0.003157 0.000000
# 3 -0.002604 -0.002731 0.009359 0.000000 0.003586 0.000000
# 4 0.000000 0.000000 0.000000 0.025397 0.000000 0.000074
# 5 0.001241 0.003157 0.003586 0.000000 0.031940 0.000000
# 6 0.000000 0.000000 0.000000 0.000074 0.000000 0.028126
#
#
# Mechanical properties :
#
#
# Convention : Reuss Voigt Hill
#
# Bulk Modulus (GPa) = 55.11343 66.62604 60.86974
# Shear Modulus (GPa) = 34.25649 36.27412 35.26530
#
# Velocity S-wave (km/s) = 3.94476 4.05926 4.00242
# Velocity P-wave (km/s) = 6.76635 7.22739 7.00067
#
# Compressibility (1/GPa) = 0.01814440
#
# Stress axis : x y z
#
# Youngs Moduli (GPa) = 93.03210 61.77747 106.84866
#
# Poissons Ratio (x) = 0.23103 0.27827
# Poissons Ratio (y) = 0.34792 0.29184
# Poissons Ratio (z) = 0.24229 0.16873
#
# Static dielectric constant tensor:
#      x y z
#    x 3.957940 0.000000 -0.471500 
#    y 0.000000 3.963260 0.000000 
#    z -0.471500 0.000000 4.042460 
# 
# 
# High freq. dielectric constant tensor:
#      x y z
#    x 1.850310 0.000000 -0.020450 
#    y 0.000000 1.864860 0.000000 
#    z -0.020450 0.000000 1.886410 
# 
# From -- ./inp_files/232691.got.cif
#   From: 2010.06.25/outbox.cif.g09.slc.cpg/sg15_117_cif.got.tgz:232691.got - 2010.06.28 07:06:18.
