data_PCOD8135896
_publ_section_title
;
Structure prediction by ZEFSAII (Michael W. Deem and Ramdas Pophale) SiO2 
 PCOD8135896
Probable space group: C 2/C
;
_chemical_formula_sum "Si O2"
_cell_formula_units_Z 36
_cell_length_a 16.468488
_cell_length_b 14.597747
_cell_length_c 10.056485
_cell_angle_alpha 90.000000
_cell_angle_beta 39.851285
_cell_angle_gamma 90.000000
_cell_volume 1549.195856
_symmetry_space_group_name_H-M "C 2/C"
_symmetry_group_IT_number 15
_symmetry_cell_setting 'monoclinic'
loop_
_space_group_symop_operation_xyz
x,y,z
-x,y,1/2-z
-x,-y,-z
x,-y,1/2+z
1/2+x,1/2+y,z
1/2-x,1/2+y,1/2-z
1/2-x,1/2-y,-z
1/2+x,1/2-y,1/2+z
loop_
_atom_site_type_symbol
_atom_site_label
_atom_site_fract_x
_atom_site_fract_y
_atom_site_fract_z
Si Si1 0.125903 0.080266 0.140522
Si Si2 0.854411 0.911952 0.581887
Si Si3 0.500000 0.261763 0.250000
Si Si4 0.403920 0.907190 0.262299
Si Si5 0.093425 0.609751 0.302312
O O1 0.109912 0.054049 0.315573
O O2 0.000000 0.137762 0.250000
O O3 0.259893 0.133643 0.950716
O O4 0.119655 0.988684 0.060329
O O5 0.934053 0.821994 0.446106
O O6 0.705863 0.885690 0.768750
O O7 0.603127 0.195821 0.191051
O O8 0.500000 0.864145 0.250000
O O9 0.393773 0.016697 0.299655
O O10 0.458149 0.887388 0.047637
#
# Coordination Sequence:
#
# PCOD8135896 Si02
#       5
#     8   8   4   8   8
#     4  11  23  42  69 101 130 170 230 268 322 389
#     4  11  24  42  69  96 133 177 218 271 327 388
#     4  12  24  42  62  96 142 168 210 274 340 396
#     4  10  19  40  71  90 123 167 224 275 309 377
#     4  10  22  40  65  99 122 169 225 264 330 387
#
# _framework density 23.237863000000001
#
# number of rings (size 3 to 8) (size 9 to 14) (size 15 to 20)
#    0.000    1.333    4.444    1.333    0.000    0.000 
#    4.000    2.222    0.000    0.000    0.000    0.000 
#    0.000    0.000    0.000    0.000    0.000    0.000 
#
# Total GULP energy -223107.828206 kJ/mol
# GULP energy per Si atom -12394.879345 kJ/mol
# Density = 2.318497 g / cm^3
# Si number density = 23.237863 Si / 1000 Ang^3
#
#
#
# Elastic Constant Matrix: (Units=GPa)
#
#
# Indices 1 2 3 4 5 6 
#
# 1 188.6662 10.8770 65.7179 0.0000 -6.8955 0.0000
# 2 10.8770 36.6521 15.0579 0.0000 11.8767 0.0000
# 3 65.7179 15.0579 128.4913 0.0000 -8.4853 0.0000
# 4 0.0000 0.0000 0.0000 14.8652 0.0000 1.3625
# 5 -6.8955 11.8767 -8.4853 0.0000 59.6984 0.0000
# 6 0.0000 0.0000 0.0000 1.3625 0.0000 11.6419
#
#
#
# Elastic Compliance Matrix: (Units=1/GPa)
#
#
# Indices 1 2 3 4 5 6 
#
# 1 0.006472 -0.000753 -0.003193 0.000000 0.000444 0.000000
# 2 -0.000753 0.031254 -0.003729 0.000000 -0.006835 0.000000
# 3 -0.003193 -0.003729 0.009971 0.000000 0.001790 0.000000
# 4 0.000000 0.000000 0.000000 0.068001 0.000000 -0.007959
# 5 0.000444 -0.006835 0.001790 0.000000 0.018416 0.000000
# 6 0.000000 0.000000 0.000000 -0.007959 0.000000 0.086828
#
#
# Mechanical properties :
#
#
# Convention : Reuss Voigt Hill
#
# Bulk Modulus (GPa) = 30.91410 59.67946 45.29678
# Shear Modulus (GPa) = 20.23692 34.71822 27.47757
#
# Velocity S-wave (km/s) = 2.95423 3.86947 3.44240
# Velocity P-wave (km/s) = 4.99689 6.76029 5.94434
#
# Compressibility (1/GPa) = 0.03234770
#
# Stress axis : x y z
#
# Youngs Moduli (GPa) = 154.50976 31.99628 100.29302
#
# Poissons Ratio (x) = 0.02408 0.32021
# Poissons Ratio (y) = 0.11630 0.37399
# Poissons Ratio (z) = 0.49330 0.11931
#
# Static dielectric constant tensor:
#      x y z
#    x 4.563690 0.000000 -0.506040 
#    y 0.000000 3.629550 0.000000 
#    z -0.506040 0.000000 4.324980 
# 
# 
# High freq. dielectric constant tensor:
#      x y z
#    x 1.934590 0.000000 -0.010130 
#    y 0.000000 1.867800 0.000000 
#    z -0.010130 0.000000 1.929650 
# 
# From -- ./inp_files/38880.got.cif
#   From: 2010.06.25/outbox.cif.g09.slc.cpg/sg15_20_cif.got.tgz:38880.got - 2010.06.28 07:06:18.
