data_PCOD8135557
_publ_section_title
;
Structure prediction by ZEFSAII (Michael W. Deem and Ramdas Pophale) SiO2 
 PCOD8135557
Probable space group: C 2/C
;
_chemical_formula_sum "Si O2"
_cell_formula_units_Z 52
_cell_length_a 8.013504
_cell_length_b 25.651719
_cell_length_c 12.163947
_cell_angle_alpha 90.000000
_cell_angle_beta 107.482395
_cell_angle_gamma 90.000000
_cell_volume 2384.926530
_symmetry_space_group_name_H-M "C 2/C"
_symmetry_group_IT_number 15
_symmetry_cell_setting 'monoclinic'
loop_
_space_group_symop_operation_xyz
x,y,z
-x,y,1/2-z
-x,-y,-z
x,-y,1/2+z
1/2+x,1/2+y,z
1/2-x,1/2+y,1/2-z
1/2-x,1/2-y,-z
1/2+x,1/2-y,1/2+z
loop_
_atom_site_type_symbol
_atom_site_label
_atom_site_fract_x
_atom_site_fract_y
_atom_site_fract_z
Si Si1 0.224073 0.613533 0.551084
Si Si2 0.000000 0.068692 0.250000
Si Si3 0.172751 0.996335 0.961982
Si Si4 0.000000 0.756537 0.750000
Si Si5 0.906381 0.585773 0.622233
Si Si6 0.787898 0.814046 0.399309
Si Si7 0.592512 0.339179 0.613170
Si Si8 0.000000 0.833131 0.250000
O O1 0.251182 0.553300 0.533501
O O2 0.262083 0.651515 0.453083
O O3 0.354407 0.629366 0.672002
O O4 0.027078 0.618060 0.558523
O O5 0.139512 0.030835 0.337006
O O6 0.083064 0.105234 0.172378
O O7 0.322700 0.964369 0.051672
O O8 0.000000 0.000000 0.000000
O O9 0.885971 0.721959 0.640450
O O10 0.862358 0.793129 0.791154
O O11 0.759953 0.626004 0.632812
O O12 0.000000 0.564980 0.750000
O O13 0.902512 0.817278 0.533175
O O14 0.913992 0.795914 0.324759
#
# Coordination Sequence:
#
# PCOD8135557 Si02
#       8
#     8   4   8   4   8   8   8   4
#     4  11  22  39  60  97 134 171 219 273 325 401
#     4  11  21  40  66  90 130 172 224 257 323 398
#     4  12  24  41  66  96 131 181 221 260 334 399
#     4  11  22  40  69  94 124 179 222 282 341 388
#     4  12  24  41  65  99 133 167 223 281 327 393
#     4  11  20  42  64  93 127 169 220 279 334 398
#     4  10  23  41  64  93 131 170 220 269 333 403
#     4  10  19  38  67  92 128 175 218 269 340 400
#
# _framework density 21.803605000000001
#
# number of rings (size 3 to 8) (size 9 to 14) (size 15 to 20)
#    0.000    0.923    5.385    2.308    2.154    0.000 
#    0.000    9.231    0.000    0.000    0.000    0.000 
#    0.000    0.000    0.000    0.000    0.000    0.000 
#
# Total GULP energy -322149.999095 kJ/mol
# GULP energy per Si atom -12390.384581 kJ/mol
# Density = 2.175398 g / cm^3
# Si number density = 21.803605 Si / 1000 Ang^3
#
#
#
# Elastic Constant Matrix: (Units=GPa)
#
#
# Indices 1 2 3 4 5 6 
#
# 1 70.4914 -1.3187 17.1150 0.0000 -10.0031 0.0000
# 2 -1.3187 79.2402 23.7697 0.0000 2.7726 0.0000
# 3 17.1150 23.7697 106.6851 0.0000 -1.5976 0.0000
# 4 0.0000 0.0000 0.0000 56.0059 0.0000 -27.6281
# 5 -10.0031 2.7726 -1.5976 0.0000 33.9112 0.0000
# 6 0.0000 0.0000 0.0000 -27.6281 0.0000 39.0335
#
#
#
# Elastic Compliance Matrix: (Units=1/GPa)
#
#
# Indices 1 2 3 4 5 6 
#
# 1 0.015456 0.000888 -0.002612 0.000000 0.004364 0.000000
# 2 0.000888 0.013628 -0.003194 0.000000 -0.001003 0.000000
# 3 -0.002612 -0.003194 0.010504 0.000000 -0.000015 0.000000
# 4 0.000000 0.000000 0.000000 0.027434 0.000000 0.019418
# 5 0.004364 -0.001003 -0.000015 0.000000 0.030857 0.000000
# 6 0.000000 0.000000 0.000000 0.019418 0.000000 0.039363
#
#
# Mechanical properties :
#
#
# Convention : Reuss Voigt Hill
#
# Bulk Modulus (GPa) = 33.61101 37.28318 35.44710
# Shear Modulus (GPa) = 31.84798 40.24682 36.04740
#
# Velocity S-wave (km/s) = 3.82602 4.30103 4.07046
# Velocity P-wave (km/s) = 5.91327 6.46543 6.19551
#
# Compressibility (1/GPa) = 0.02975215
#
# Stress axis : x y z
#
# Youngs Moduli (GPa) = 64.69915 73.37964 95.20374
#
# Poissons Ratio (x) = -0.06517 0.24868
# Poissons Ratio (y) = -0.05746 0.30406
# Poissons Ratio (z) = 0.16900 0.23436
#
# Static dielectric constant tensor:
#      x y z
#    x 4.061740 0.000000 -0.295280 
#    y 0.000000 3.747920 0.000000 
#    z -0.295280 0.000000 4.276470 
# 
# 
# High freq. dielectric constant tensor:
#      x y z
#    x 1.840100 0.000000 -0.011100 
#    y 0.000000 1.855930 0.000000 
#    z -0.011100 0.000000 1.869220 
# 
# From -- ./inp_files/80883.got.cif
#   From: 2010.06.25/outbox.cif.g09.slc.cpg/sg15_41_cif.got.tgz:80883.got - 2010.06.28 07:06:18.
