data_PCOD8135962
_publ_section_title
;
Structure prediction by ZEFSAII (Michael W. Deem and Ramdas Pophale) SiO2 
 PCOD8135962
Probable space group: C 2/C
;
_chemical_formula_sum "Si O2"
_cell_formula_units_Z 40
_cell_length_a 19.074967
_cell_length_b 13.398668
_cell_length_c 8.718181
_cell_angle_alpha 90.000000
_cell_angle_beta 126.241903
_cell_angle_gamma 90.000000
_cell_volume 1797.094181
_symmetry_space_group_name_H-M "C 2/C"
_symmetry_group_IT_number 15
_symmetry_cell_setting 'monoclinic'
loop_
_space_group_symop_operation_xyz
x,y,z
-x,y,1/2-z
-x,-y,-z
x,-y,1/2+z
1/2+x,1/2+y,z
1/2-x,1/2+y,1/2-z
1/2-x,1/2-y,-z
1/2+x,1/2-y,1/2+z
loop_
_atom_site_type_symbol
_atom_site_label
_atom_site_fract_x
_atom_site_fract_y
_atom_site_fract_z
Si Si1 0.793104 0.641258 0.055384
Si Si2 0.038212 0.741503 0.148215
Si Si3 0.590327 0.347618 0.933130
Si Si4 0.762465 0.542948 0.686750
Si Si5 0.076527 0.354418 0.247345
O O1 0.775631 0.579150 0.876975
O O2 0.750000 0.750000 0.000000
O O3 0.895045 0.656069 0.212510
O O4 0.758061 0.576917 0.156464
O O5 0.000000 0.794492 0.250000
O O6 0.081218 0.830135 0.104319
O O7 0.960948 0.685168 0.960792
O O8 0.500000 0.393250 0.750000
O O9 0.610208 0.239692 0.887832
O O10 0.671078 0.417998 0.001656
O O11 0.841963 0.575214 0.678836
O O12 0.000000 0.408202 0.250000
#
# Coordination Sequence:
#
# PCOD8135962 Si02
#       5
#     8   8   8   8   8
#     4  12  28  45  69 107 143 182 240 292 347 421
#     4  10  19  41  67 103 144 176 225 298 354 405
#     4   9  21  42  71 102 136 187 240 289 349 411
#     4  12  25  44  70  99 141 193 232 288 355 421
#     4   9  21  38  69 105 141 180 232 291 355 421
#
# _framework density 22.258154000000001
#
# number of rings (size 3 to 8) (size 9 to 14) (size 15 to 20)
#    0.000    2.000    4.000    0.600    5.600    3.200 
#    0.000    2.000    0.000    0.000    0.000    0.000 
#    0.000    0.000    0.000    0.000    0.000    0.000 
#
# Total GULP energy -247889.996424 kJ/mol
# GULP energy per Si atom -12394.499821 kJ/mol
# Density = 2.220749 g / cm^3
# Si number density = 22.258154 Si / 1000 Ang^3
#
#
#
# Elastic Constant Matrix: (Units=GPa)
#
#
# Indices 1 2 3 4 5 6 
#
# 1 132.6787 59.5534 64.9110 0.0000 0.0334 0.0000
# 2 59.5534 112.0543 41.3641 0.0000 -3.2631 0.0000
# 3 64.9110 41.3641 89.9599 0.0000 -12.8918 0.0000
# 4 0.0000 0.0000 0.0000 21.2018 0.0000 -7.2230
# 5 0.0334 -3.2631 -12.8918 0.0000 45.2242 0.0000
# 6 0.0000 0.0000 0.0000 -7.2230 0.0000 19.1210
#
#
#
# Elastic Compliance Matrix: (Units=1/GPa)
#
#
# Indices 1 2 3 4 5 6 
#
# 1 0.013388 -0.004200 -0.008105 0.000000 -0.002623 0.000000
# 2 -0.004200 0.012085 -0.002503 0.000000 0.000162 0.000000
# 3 -0.008105 -0.002503 0.018861 0.000000 0.005202 0.000000
# 4 0.000000 0.000000 0.000000 0.054132 0.000000 0.020449
# 5 -0.002623 0.000162 0.005202 0.000000 0.023609 0.000000
# 6 0.000000 0.000000 0.000000 0.020449 0.000000 0.060023
#
#
# Mechanical properties :
#
#
# Convention : Reuss Voigt Hill
#
# Bulk Modulus (GPa) = 67.94555 74.03887 70.99221
# Shear Modulus (GPa) = 23.08192 28.36703 25.72447
#
# Velocity S-wave (km/s) = 3.22376 3.57382 3.40329
# Velocity P-wave (km/s) = 6.66702 7.09687 6.88530
#
# Compressibility (1/GPa) = 0.01471767
#
# Stress axis : x y z
#
# Youngs Moduli (GPa) = 74.69357 82.74674 53.02014
#
# Poissons Ratio (x) = 0.34752 0.42973
# Poissons Ratio (y) = 0.31370 0.13272
# Poissons Ratio (z) = 0.60539 0.20714
#
# Static dielectric constant tensor:
#      x y z
#    x 4.141050 0.000000 -0.003190 
#    y 0.000000 3.653110 0.000000 
#    z -0.003190 0.000000 4.220560 
# 
# 
# High freq. dielectric constant tensor:
#      x y z
#    x 1.879930 0.000000 0.002640 
#    y 0.000000 1.842260 0.000000 
#    z 0.002640 0.000000 1.895840 
# 
# From -- ./inp_files/55506.got.cif
#   From: 2010.06.25/outbox.cif.g09.slc.cpg/sg15_28_cif.got.tgz:55506.got - 2010.06.28 07:06:18.
