data_PCOD8135798
_publ_section_title
;
Structure prediction by ZEFSAII (Michael W. Deem and Ramdas Pophale) SiO2 
 PCOD8135798
Probable space group: C 2/C
;
_chemical_formula_sum "Si O2"
_cell_formula_units_Z 56
_cell_length_a 17.343482
_cell_length_b 16.227060
_cell_length_c 18.268787
_cell_angle_alpha 90.000000
_cell_angle_beta 33.788583
_cell_angle_gamma 90.000000
_cell_volume 2859.316210
_symmetry_space_group_name_H-M "C 2/C"
_symmetry_group_IT_number 15
_symmetry_cell_setting 'monoclinic'
loop_
_space_group_symop_operation_xyz
x,y,z
-x,y,1/2-z
-x,-y,-z
x,-y,1/2+z
1/2+x,1/2+y,z
1/2-x,1/2+y,1/2-z
1/2-x,1/2-y,-z
1/2+x,1/2-y,1/2+z
loop_
_atom_site_type_symbol
_atom_site_label
_atom_site_fract_x
_atom_site_fract_y
_atom_site_fract_z
Si Si1 0.099429 0.641065 0.607850
Si Si2 0.961159 0.586403 0.567730
Si Si3 0.341170 0.452239 0.194323
Si Si4 0.054667 0.118898 0.413599
Si Si5 0.598110 0.336163 0.609542
Si Si6 0.088312 0.179539 0.752851
Si Si7 0.608065 0.237401 0.972987
O O1 0.257703 0.613848 0.496780
O O2 0.106122 0.738575 0.610595
O O3 0.000000 0.604030 0.750000
O O4 0.056358 0.608471 0.561899
O O5 0.804360 0.581111 0.721000
O O6 0.967210 0.657433 0.501651
O O7 0.000000 0.500000 0.500000
O O8 0.335337 0.551928 0.204401
O O9 0.378058 0.411797 0.243525
O O10 0.459230 0.425509 0.046778
O O11 0.959755 0.150086 0.424345
O O12 0.131922 0.195529 0.389898
O O13 0.500000 0.372706 0.750000
O O14 0.237161 0.221714 0.618117
O O15 0.000000 0.169716 0.750000
O O16 0.996546 0.232210 0.881996
#
# Coordination Sequence:
#
# PCOD8135798 Si02
#       7
#     8   8   8   8   8   8   8
#     4  10  21  39  57  87 124 154 190 244 304 351
#     4  11  23  39  59  90 124 155 204 250 301 356
#     4   9  22  37  60  86 117 160 192 250 298 348
#     4  10  19  40  61  86 118 155 207 235 298 367
#     4  10  21  33  61  90 113 155 194 244 292 354
#     4  10  21  40  61  89 121 155 204 249 298 348
#     4  10  22  38  65  87 114 165 198 252 293 360
#
# _framework density 19.585101000000002
#
# number of rings (size 3 to 8) (size 9 to 14) (size 15 to 20)
#    0.000    2.000    1.429    1.286    4.000    0.571 
#    2.571    0.714    0.000    0.000    0.000    0.000 
#    0.000    0.000    0.000    0.000    0.000    0.000 
#
# Total GULP energy -347058.586291 kJ/mol
# GULP energy per Si atom -12394.949510 kJ/mol
# Density = 1.954052 g / cm^3
# Si number density = 19.585101 Si / 1000 Ang^3
#
#
#
# Elastic Constant Matrix: (Units=GPa)
#
#
# Indices 1 2 3 4 5 6 
#
# 1 177.9801 62.1502 31.6273 0.0000 -49.4754 0.0000
# 2 62.1502 120.6302 23.5257 -0.0006 -31.4169 0.0003
# 3 31.6273 23.5257 76.3858 -0.0003 -2.5813 0.0001
# 4 0.0000 -0.0006 -0.0003 11.8517 0.0003 7.4237
# 5 -49.4754 -31.4169 -2.5813 0.0003 53.8401 -0.0002
# 6 0.0000 0.0003 0.0001 7.4237 -0.0002 31.2972
#
#
#
# Elastic Compliance Matrix: (Units=1/GPa)
#
#
# Indices 1 2 3 4 5 6 
#
# 1 0.008706 -0.002253 -0.002689 0.000000 0.006556 0.000000
# 2 -0.002253 0.011006 -0.002313 0.000000 0.004241 0.000000
# 3 -0.002689 -0.002313 0.014812 0.000000 -0.003111 0.000000
# 4 0.000000 0.000000 0.000000 0.099100 -0.000001 -0.023507
# 5 0.006556 0.004241 -0.003111 -0.000001 0.026924 0.000000
# 6 0.000000 0.000000 0.000000 -0.023507 0.000000 0.037528
#
#
# Mechanical properties :
#
#
# Convention : Reuss Voigt Hill
#
# Bulk Modulus (GPa) = 49.96853 67.73360 58.85106
# Shear Modulus (GPa) = 22.80410 36.57733 29.69071
#
# Velocity S-wave (km/s) = 3.41597 4.32627 3.89779
# Velocity P-wave (km/s) = 6.41307 7.72107 7.09726
#
# Compressibility (1/GPa) = 0.02001260
#
# Stress axis : x y z
#
# Youngs Moduli (GPa) = 114.86497 90.85571 67.51182
#
# Poissons Ratio (x) = 0.20474 0.18154
# Poissons Ratio (y) = 0.25884 0.15619
# Poissons Ratio (z) = 0.30888 0.21019
#
# Static dielectric constant tensor:
#      x y z
#    x 3.681020 0.000010 -0.044970 
#    y 0.000010 3.424540 0.000020 
#    z -0.044970 0.000020 3.806580 
# 
# 
# High freq. dielectric constant tensor:
#      x y z
#    x 1.763930 0.000000 -0.006100 
#    y 0.000000 1.755180 0.000000 
#    z -0.006100 0.000000 1.772030 
# 
# From -- ./inp_files/249221.got.cif
#   From: 2010.06.25/outbox.cif.g09.slc.cpg/sg15_125_cif.got.tgz:249221.got - 2010.06.28 07:06:18.
