data_PCOD8135595
_publ_section_title
;
Structure prediction by ZEFSAII (Michael W. Deem and Ramdas Pophale) SiO2 
 PCOD8135595
Probable space group: C 2/C
;
_chemical_formula_sum "Si O2"
_cell_formula_units_Z 56
_cell_length_a 28.325957
_cell_length_b 18.158901
_cell_length_c 9.466404
_cell_angle_alpha 90.000000
_cell_angle_beta 36.251883
_cell_angle_gamma 90.000000
_cell_volume 2879.344425
_symmetry_space_group_name_H-M "C 2/C"
_symmetry_group_IT_number 15
_symmetry_cell_setting 'monoclinic'
loop_
_space_group_symop_operation_xyz
x,y,z
-x,y,1/2-z
-x,-y,-z
x,-y,1/2+z
1/2+x,1/2+y,z
1/2-x,1/2+y,1/2-z
1/2-x,1/2-y,-z
1/2+x,1/2-y,1/2+z
loop_
_atom_site_type_symbol
_atom_site_label
_atom_site_fract_x
_atom_site_fract_y
_atom_site_fract_z
Si Si1 0.765476 0.327260 0.294592
Si Si2 0.159432 0.137849 0.825662
Si Si3 0.749999 0.325962 0.824845
Si Si4 0.058501 0.003653 0.487824
Si Si5 0.424966 0.787247 0.018158
Si Si6 0.345255 0.641228 0.192764
Si Si7 0.080934 0.716216 0.631379
O O1 0.723848 0.388186 0.291112
O O2 0.765529 0.254364 0.200229
O O3 0.854643 0.342613 0.134222
O O4 0.712329 0.315740 0.561192
O O5 0.211354 0.168963 0.571423
O O6 0.102804 0.072430 0.912272
O O7 0.102610 0.200478 0.031090
O O8 0.703622 0.382021 0.831046
O O9 0.846240 0.338251 0.592238
O O10 0.000000 0.029653 0.750000
O O11 0.123071 0.067557 0.310061
O O12 0.000000 0.000000 0.500000
O O13 0.412440 0.702402 0.998073
O O14 0.435084 0.790011 0.162567
O O15 0.500000 0.817349 0.750000
O O16 0.000000 0.690456 0.750000
#
# Coordination Sequence:
#
# PCOD8135595 Si02
#       7
#     8   8   8   8   8   8   8
#     4  10  19  39  58  78 113 151 199 241 290 346
#     4  11  23  37  57  81 120 159 192 234 288 349
#     4  10  20  37  55  82 110 155 196 237 295 349
#     4  12  26  40  56  88 122 158 202 233 273 345
#     4  11  22  34  58  89 113 151 190 242 304 343
#     4  11  20  39  58  75 119 161 194 236 276 350
#     4  11  22  34  56  87 121 144 187 249 300 342
#
# _framework density 19.448872000000001
#
# number of rings (size 3 to 8) (size 9 to 14) (size 15 to 20)
#    0.000    1.143    4.286    5.143    8.000    0.000 
#    0.000    0.000    0.000    0.000    0.000    6.000 
#    0.000    0.000    0.000    0.000    0.000    0.000 
#
# Total GULP energy -346936.422148 kJ/mol
# GULP energy per Si atom -12390.586505 kJ/mol
# Density = 1.940461 g / cm^3
# Si number density = 19.448872 Si / 1000 Ang^3
#
#
#
# Elastic Constant Matrix: (Units=GPa)
#
#
# Indices 1 2 3 4 5 6 
#
# 1 185.9749 26.2332 58.9571 0.0000 -10.9921 0.0000
# 2 26.2332 41.1605 10.3142 0.0000 -8.5714 0.0000
# 3 58.9571 10.3142 124.5169 0.0000 2.9619 0.0000
# 4 0.0000 0.0000 0.0000 15.8152 0.0000 -2.4471
# 5 -10.9921 -8.5714 2.9619 0.0000 40.5619 0.0000
# 6 0.0000 0.0000 0.0000 -2.4471 0.0000 29.5775
#
#
#
# Elastic Compliance Matrix: (Units=1/GPa)
#
#
# Indices 1 2 3 4 5 6 
#
# 1 0.006887 -0.003346 -0.003016 0.000000 0.001379 0.000000
# 2 -0.003346 0.027677 -0.000827 0.000000 0.005002 0.000000
# 3 -0.003016 -0.000827 0.009568 0.000000 -0.001691 0.000000
# 4 0.000000 0.000000 0.000000 0.064050 0.000000 0.005299
# 5 0.001379 0.005002 -0.001691 0.000000 0.026208 0.000000
# 6 0.000000 0.000000 0.000000 0.005299 0.000000 0.034248
#
#
# Mechanical properties :
#
#
# Convention : Reuss Voigt Hill
#
# Bulk Modulus (GPa) = 33.61116 60.29570 46.95343
# Shear Modulus (GPa) = 25.91547 34.26745 30.09146
#
# Velocity S-wave (km/s) = 3.65429 4.20208 3.93772
# Velocity P-wave (km/s) = 5.92659 7.39005 6.69840
#
# Compressibility (1/GPa) = 0.02975202
#
# Stress axis : x y z
#
# Youngs Moduli (GPa) = 145.20365 36.13143 104.51447
#
# Poissons Ratio (x) = 0.12090 0.31527
# Poissons Ratio (y) = 0.48587 0.08645
# Poissons Ratio (z) = 0.43801 0.02989
#
# Static dielectric constant tensor:
#      x y z
#    x 4.362110 0.000000 -0.134690 
#    y 0.000000 3.136960 0.000000 
#    z -0.134690 0.000000 3.688400 
# 
# 
# High freq. dielectric constant tensor:
#      x y z
#    x 1.788930 0.000000 0.005170 
#    y 0.000000 1.691210 0.000000 
#    z 0.005170 0.000000 1.770830 
# 
# From -- ./inp_files/67114.got.cif
#   From: 2010.06.25/outbox.cif.g09.slc.cpg/sg15_34_cif.got.tgz:67114.got - 2010.06.28 07:06:18.
