data_PCOD8135624
_publ_section_title
;
Structure prediction by ZEFSAII (Michael W. Deem and Ramdas Pophale) SiO2 
 PCOD8135624
Probable space group: C 2/C
;
_chemical_formula_sum "Si O2"
_cell_formula_units_Z 64
_cell_length_a 9.135147
_cell_length_b 17.590505
_cell_length_c 33.728134
_cell_angle_alpha 90.000000
_cell_angle_beta 143.483394
_cell_angle_gamma 90.000000
_cell_volume 3225.104666
_symmetry_space_group_name_H-M "C 2/C"
_symmetry_group_IT_number 15
_symmetry_cell_setting 'monoclinic'
loop_
_space_group_symop_operation_xyz
x,y,z
-x,y,1/2-z
-x,-y,-z
x,-y,1/2+z
1/2+x,1/2+y,z
1/2-x,1/2+y,1/2-z
1/2-x,1/2-y,-z
1/2+x,1/2-y,1/2+z
loop_
_atom_site_type_symbol
_atom_site_label
_atom_site_fract_x
_atom_site_fract_y
_atom_site_fract_z
Si Si1 0.401892 0.652306 0.605868
Si Si2 0.010643 0.054931 0.557003
Si Si3 0.254835 0.570801 0.171545
Si Si4 0.890103 0.669798 0.617830
Si Si5 0.331616 0.404966 0.174271
Si Si6 0.725883 0.590890 0.076270
Si Si7 0.169612 0.235004 0.324906
Si Si8 0.969472 0.759203 0.517788
O O1 0.406849 0.580850 0.576972
O O2 0.472489 0.624794 0.665772
O O3 0.582590 0.718381 0.630418
O O4 0.121987 0.682273 0.544722
O O5 0.821558 0.077482 0.481006
O O6 0.283250 0.089965 0.609952
O O7 0.055669 0.964418 0.565906
O O8 0.500000 0.566002 0.250000
O O9 0.239695 0.490967 0.144333
O O10 0.263435 0.648335 0.147037
O O11 0.014831 0.577601 0.147530
O O12 0.986469 0.722262 0.674904
O O13 0.655489 0.715708 0.550281
O O14 0.102928 0.652067 0.632498
O O15 0.500000 0.402665 0.250000
O O16 0.655167 0.675781 0.073878
O O17 0.000000 0.231484 0.250000
O O18 0.750000 0.750000 0.500000
#
# Coordination Sequence:
#
# PCOD8135624 Si02
#       8
#     8   8   8   8   8   8   8   8
#     4  11  22  38  60  92 118 150 207 245 294 352
#     4   9  21  35  62  87 113 154 199 240 292 362
#     4  10  21  37  61  85 114 160 204 237 290 362
#     4  10  20  36  59  85 116 154 196 235 307 350
#     4  11  22  39  60  84 121 157 194 246 296 353
#     4  10  19  39  60  83 122 162 191 241 308 351
#     4  10  21  38  60  87 114 154 204 246 286 355
#     4  11  22  37  58  88 123 155 192 255 300 357
#
# _framework density 19.844317
#
# number of rings (size 3 to 8) (size 9 to 14) (size 15 to 20)
#    0.000    1.750    3.750    0.750    1.750    1.500 
#    2.250    1.250    0.000    0.000    0.000    0.000 
#    0.000    0.000    0.000    0.000    0.000    0.000 
#
# Total GULP energy -396634.601586 kJ/mol
# GULP energy per Si atom -12394.831300 kJ/mol
# Density = 1.979915 g / cm^3
# Si number density = 19.844317 Si / 1000 Ang^3
#
#
#
# Elastic Constant Matrix: (Units=GPa)
#
#
# Indices 1 2 3 4 5 6 
#
# 1 109.5859 43.7076 32.4967 0.0000 -3.9531 0.0000
# 2 43.7076 101.5395 29.7408 0.0000 -10.6384 0.0001
# 3 32.4967 29.7408 68.3172 -0.0005 3.8136 0.0000
# 4 0.0000 0.0000 -0.0005 22.3385 -0.0002 3.1479
# 5 -3.9531 -10.6384 3.8136 -0.0002 34.0413 0.0000
# 6 0.0000 0.0001 0.0000 3.1479 0.0000 27.7824
#
#
#
# Elastic Compliance Matrix: (Units=1/GPa)
#
#
# Indices 1 2 3 4 5 6 
#
# 1 0.011880 -0.003878 -0.003997 0.000000 0.000615 0.000000
# 2 -0.003878 0.013154 -0.004111 0.000000 0.004121 0.000000
# 3 -0.003997 -0.004111 0.018542 0.000000 -0.003826 0.000000
# 4 0.000000 0.000000 0.000000 0.045492 0.000000 -0.005155
# 5 0.000615 0.004121 -0.003826 0.000000 0.031164 0.000000
# 6 0.000000 0.000000 0.000000 -0.005155 0.000000 0.036578
#
#
# Mechanical properties :
#
#
# Convention : Reuss Voigt Hill
#
# Bulk Modulus (GPa) = 51.01438 54.59250 52.80344
# Shear Modulus (GPa) = 26.69271 28.39896 27.54584
#
# Velocity S-wave (km/s) = 3.67155 3.78708 3.72976
# Velocity P-wave (km/s) = 6.61338 6.83321 6.72419
#
# Compressibility (1/GPa) = 0.01960231
#
# Stress axis : x y z
#
# Youngs Moduli (GPa) = 84.17840 76.02321 53.93109
#
# Poissons Ratio (x) = 0.29485 0.21555
# Poissons Ratio (y) = 0.32648 0.22174
# Poissons Ratio (z) = 0.33644 0.31257
#
# Static dielectric constant tensor:
#      x y z
#    x 3.423740 0.000000 0.091060 
#    y 0.000000 4.067400 0.000000 
#    z 0.091060 0.000000 3.580170 
# 
# 
# High freq. dielectric constant tensor:
#      x y z
#    x 1.757390 0.000000 0.016600 
#    y 0.000000 1.787120 0.000000 
#    z 0.016600 0.000000 1.759340 
# 
# From -- ./inp_files/232677.got.cif
#   From: 2010.06.25/outbox.cif.g09.slc.cpg/sg15_117_cif.got.tgz:232677.got - 2010.06.28 07:06:18.
