data_PCOD8135942
_publ_section_title
;
Structure prediction by ZEFSAII (Michael W. Deem and Ramdas Pophale) SiO2 
 PCOD8135942
Probable space group: C 2/C
;
_chemical_formula_sum "Si O2"
_cell_formula_units_Z 48
_cell_length_a 26.548879
_cell_length_b 9.782933
_cell_length_c 15.311956
_cell_angle_alpha 90.000000
_cell_angle_beta 33.540795
_cell_angle_gamma 90.000000
_cell_volume 2197.365277
_symmetry_space_group_name_H-M "C 2/C"
_symmetry_group_IT_number 15
_symmetry_cell_setting 'monoclinic'
loop_
_space_group_symop_operation_xyz
x,y,z
-x,y,1/2-z
-x,-y,-z
x,-y,1/2+z
1/2+x,1/2+y,z
1/2-x,1/2+y,1/2-z
1/2-x,1/2-y,-z
1/2+x,1/2-y,1/2+z
loop_
_atom_site_type_symbol
_atom_site_label
_atom_site_fract_x
_atom_site_fract_y
_atom_site_fract_z
Si Si1 0.426841 0.887860 0.638661
Si Si2 0.838803 0.912194 0.063956
Si Si3 0.496195 0.635466 0.057938
Si Si4 0.306034 0.137075 0.468924
Si Si5 0.756201 0.811658 0.695050
Si Si6 0.307748 0.383888 0.910924
O O1 0.475400 0.745040 0.554924
O O2 0.400060 0.901213 0.780929
O O3 0.331257 0.884889 0.724433
O O4 0.500000 0.000000 0.500000
O O5 0.772426 0.785220 0.183188
O O6 0.814215 0.058333 0.145073
O O7 0.835413 0.940377 0.965945
O O8 0.938569 0.868435 0.951864
O O9 0.395774 0.667114 0.233679
O O10 0.500000 0.500000 0.000000
O O11 0.250000 0.250000 0.500000
O O12 0.318327 0.208561 0.545550
O O13 0.245142 0.000780 0.566418
O O14 0.250000 0.250000 0.000000
#
# Coordination Sequence:
#
# PCOD8135942 Si02
#       6
#     8   8   8   8   8   8
#     4  10  20  39  64  92 122 165 212 259 318 385
#     4  11  24  42  64  96 134 167 222 267 325 389
#     4  11  25  40  65  97 130 166 214 272 320 384
#     4  10  19  41  65  90 120 171 217 251 319 383
#     4  10  23  39  66  92 128 170 214 269 316 390
#     4  12  24  40  69  98 129 172 215 268 332 385
#
# _framework density 21.844344
#
# number of rings (size 3 to 8) (size 9 to 14) (size 15 to 20)
#    0.000    1.333    3.333    4.500    4.667    0.000 
#    0.000    0.000    0.000    0.000    0.000    0.000 
#    0.000    0.000    0.000    0.000    0.000    0.000 
#
# Total GULP energy -297429.957799 kJ/mol
# GULP energy per Si atom -12392.914908 kJ/mol
# Density = 2.179463 g / cm^3
# Si number density = 21.844344 Si / 1000 Ang^3
#
#
#
# Elastic Constant Matrix: (Units=GPa)
#
#
# Indices 1 2 3 4 5 6 
#
# 1 32.4995 8.2625 18.2585 0.0000 2.7157 0.0001
# 2 8.2625 107.5995 26.3671 -0.0004 -26.5727 0.0002
# 3 18.2585 26.3671 153.4000 -0.0001 -14.2705 0.0001
# 4 0.0000 -0.0004 -0.0001 48.2370 -0.0002 0.5479
# 5 2.7157 -26.5727 -14.2705 -0.0002 16.5914 0.0001
# 6 0.0001 0.0002 0.0001 0.5479 0.0001 30.1396
#
#
#
# Elastic Compliance Matrix: (Units=1/GPa)
#
#
# Indices 1 2 3 4 5 6 
#
# 1 0.037319 -0.006952 -0.005273 0.000000 -0.021778 0.000000
# 2 -0.006952 0.016691 0.000599 0.000000 0.028385 0.000000
# 3 -0.005273 0.000599 0.007840 0.000000 0.008566 0.000000
# 4 0.000000 0.000000 0.000000 0.020735 0.000001 -0.000377
# 5 -0.021778 0.028385 0.008566 0.000001 0.116667 -0.000001
# 6 0.000000 0.000000 0.000000 -0.000377 -0.000001 0.033186
#
#
# Mechanical properties :
#
#
# Convention : Reuss Voigt Hill
#
# Bulk Modulus (GPa) = 25.90734 44.36392 35.13563
# Shear Modulus (GPa) = 18.61811 35.03433 26.82622
#
# Velocity S-wave (km/s) = 2.92260 4.00911 3.50817
# Velocity P-wave (km/s) = 4.82437 6.46404 5.70344
#
# Compressibility (1/GPa) = 0.03859910
#
# Stress axis : x y z
#
# Youngs Moduli (GPa) = 26.79581 59.91369 127.54356
#
# Poissons Ratio (x) = 0.41651 0.67254
# Poissons Ratio (y) = 0.18628 -0.07642
# Poissons Ratio (z) = 0.14129 -0.03590
#
# Static dielectric constant tensor:
#      x y z
#    x 3.761690 0.000000 0.449290 
#    y 0.000000 4.087700 0.000000 
#    z 0.449290 0.000000 3.802610 
# 
# 
# High freq. dielectric constant tensor:
#      x y z
#    x 1.826760 0.000000 0.012310 
#    y 0.000000 1.878220 0.000000 
#    z 0.012310 0.000000 1.868580 
# 
# From -- ./inp_files/224511.got.cif
#   From: 2010.06.25/outbox.cif.g09.slc.cpg/sg15_113_cif.got.tgz:224511.got - 2010.06.28 07:06:18.
