data_PCOD8135292
_publ_section_title
;
Structure prediction by ZEFSAII (Michael W. Deem and Ramdas Pophale) SiO2 
 PCOD8135292
Probable space group: C 2/C
;
_chemical_formula_sum "Si O2"
_cell_formula_units_Z 48
_cell_length_a 13.637379
_cell_length_b 14.220812
_cell_length_c 20.501346
_cell_angle_alpha 90.000000
_cell_angle_beta 37.966778
_cell_angle_gamma 90.000000
_cell_volume 2446.003948
_symmetry_space_group_name_H-M "C 2/C"
_symmetry_group_IT_number 15
_symmetry_cell_setting 'monoclinic'
loop_
_space_group_symop_operation_xyz
x,y,z
-x,y,1/2-z
-x,-y,-z
x,-y,1/2+z
1/2+x,1/2+y,z
1/2-x,1/2+y,1/2-z
1/2-x,1/2-y,-z
1/2+x,1/2-y,1/2+z
loop_
_atom_site_type_symbol
_atom_site_label
_atom_site_fract_x
_atom_site_fract_y
_atom_site_fract_z
Si Si1 0.398334 0.800522 0.124686
Si Si2 0.846133 0.262015 0.295221
Si Si3 0.547314 0.515115 0.079359
Si Si4 0.653034 0.559847 0.709355
Si Si5 0.986002 0.143337 0.522085
Si Si6 0.787040 0.589132 0.052462
O O1 0.391759 0.740317 0.195378
O O2 0.230295 0.851188 0.203778
O O3 0.425710 0.739037 0.045143
O O4 0.535730 0.879345 0.057975
O O5 0.702284 0.336947 0.370152
O O6 0.804746 0.168887 0.358131
O O7 0.000000 0.308035 0.250000
O O8 0.409409 0.516079 0.205879
O O9 0.566132 0.405719 0.043905
O O10 0.704277 0.564413 0.026637
O O11 0.482864 0.573888 0.053597
O O12 0.500000 0.597282 0.750000
O O13 0.783286 0.507345 0.595855
#
# Coordination Sequence:
#
# PCOD8135292 Si02
#       6
#     8   8   8   8   8   8
#     4  11  21  36  57  86 118 142 194 238 279 333
#     4  11  20  34  57  89 115 145 189 241 282 332
#     4  10  19  38  57  81 111 154 183 231 290 342
#     4  10  20  37  59  79 112 155 191 226 283 344
#     4  10  21  34  58  82 116 150 186 233 289 332
#     4  10  21  35  59  84 112 150 191 231 286 336
#
# _framework density 19.623844999999999
#
# number of rings (size 3 to 8) (size 9 to 14) (size 15 to 20)
#    0.000    1.667    1.667    5.000    0.000    2.667 
#    0.000    3.333    7.333    0.000    0.000    0.000 
#    0.000    0.000    0.000    0.000    0.000    0.000 
#
# Total GULP energy -297457.876206 kJ/mol
# GULP energy per Si atom -12394.078175 kJ/mol
# Density = 1.957918 g / cm^3
# Si number density = 19.623845 Si / 1000 Ang^3
#
#
#
# Elastic Constant Matrix: (Units=GPa)
#
#
# Indices 1 2 3 4 5 6 
#
# 1 104.4539 49.7581 41.8257 -0.0001 2.3009 0.0000
# 2 49.7581 63.1142 15.4575 -0.0002 -14.1341 0.0000
# 3 41.8257 15.4575 77.5762 -0.0009 -7.3863 0.0002
# 4 -0.0001 -0.0002 -0.0009 17.9778 0.0003 8.7277
# 5 2.3009 -14.1341 -7.3863 0.0003 26.6894 0.0000
# 6 0.0000 0.0000 0.0002 8.7277 0.0000 42.2486
#
#
#
# Elastic Compliance Matrix: (Units=1/GPa)
#
#
# Indices 1 2 3 4 5 6 
#
# 1 0.022913 -0.018923 -0.009988 -0.000001 -0.014761 0.000000
# 2 -0.018923 0.034194 0.005411 0.000000 0.021237 0.000000
# 3 -0.009988 0.005411 0.018027 0.000001 0.008716 0.000000
# 4 -0.000001 0.000000 0.000001 0.061825 0.000000 -0.012772
# 5 -0.014761 0.021237 0.008716 0.000000 0.052399 0.000000
# 6 0.000000 0.000000 0.000000 -0.012772 0.000000 0.026308
#
#
# Mechanical properties :
#
#
# Convention : Reuss Voigt Hill
#
# Bulk Modulus (GPa) = 35.54510 51.02520 43.28515
# Shear Modulus (GPa) = 18.37938 26.59003 22.48471
#
# Velocity S-wave (km/s) = 3.06369 3.68501 3.38862
# Velocity P-wave (km/s) = 5.53782 6.64558 6.11683
#
# Compressibility (1/GPa) = 0.02813327
#
# Stress axis : x y z
#
# Youngs Moduli (GPa) = 43.64397 29.24517 55.47092
#
# Poissons Ratio (x) = 0.55341 0.55406
# Poissons Ratio (y) = 0.82589 -0.30017
# Poissons Ratio (z) = 0.43593 -0.15826
#
# Static dielectric constant tensor:
#      x y z
#    x 3.726940 0.000000 0.278040 
#    y 0.000000 3.584560 0.000000 
#    z 0.278040 0.000000 3.613810 
# 
# 
# High freq. dielectric constant tensor:
#      x y z
#    x 1.759600 0.000000 0.019900 
#    y 0.000000 1.752010 0.000000 
#    z 0.019900 0.000000 1.767480 
# 
# From -- ./inp_files/96286.got.cif
#   From: 2010.06.25/outbox.cif.g09.slc.cpg/sg15_49_cif.got.tgz:96286.got - 2010.06.28 07:06:18.
