data_PCOD8135347
_publ_section_title
;
Structure prediction by ZEFSAII (Michael W. Deem and Ramdas Pophale) SiO2 
 PCOD8135347
Probable space group: C 2/C
;
_chemical_formula_sum "Si O2"
_cell_formula_units_Z 56
_cell_length_a 24.718911
_cell_length_b 8.996661
_cell_length_c 15.382052
_cell_angle_alpha 90.000000
_cell_angle_beta 121.541451
_cell_angle_gamma 90.000000
_cell_volume 2915.399384
_symmetry_space_group_name_H-M "C 2/C"
_symmetry_group_IT_number 15
_symmetry_cell_setting 'monoclinic'
loop_
_space_group_symop_operation_xyz
x,y,z
-x,y,1/2-z
-x,-y,-z
x,-y,1/2+z
1/2+x,1/2+y,z
1/2-x,1/2+y,1/2-z
1/2-x,1/2-y,-z
1/2+x,1/2-y,1/2+z
loop_
_atom_site_type_symbol
_atom_site_label
_atom_site_fract_x
_atom_site_fract_y
_atom_site_fract_z
Si Si1 0.935556 0.782494 0.151757
Si Si2 0.364836 0.853910 0.038418
Si Si3 0.116409 0.530932 0.281046
Si Si4 0.167727 0.973862 0.957250
Si Si5 0.260677 0.597947 0.157850
Si Si6 0.515252 0.015035 0.413741
Si Si7 0.260734 0.051664 0.686352
O O1 0.892702 0.692567 0.184672
O O2 0.955890 0.675389 0.088814
O O3 0.000000 0.845624 0.250000
O O4 0.890895 0.913783 0.081681
O O5 0.359236 0.679101 0.030144
O O6 0.355557 0.911828 0.127949
O O7 0.434566 0.888173 0.063599
O O8 0.311249 0.929697 0.933701
O O9 0.170271 0.531326 0.251937
O O10 0.047993 0.476042 0.192060
O O11 0.192297 0.957221 0.879138
O O12 0.223593 0.016435 0.071678
O O13 0.270515 0.771129 0.189192
O O14 0.274410 0.495854 0.253879
O O15 0.500000 0.000000 0.500000
#
# Coordination Sequence:
#
# PCOD8135347 Si02
#       7
#     8   8   8   8   8   8   8
#     4   9  22  39  60  86 117 157 200 245 303 352
#     4  10  19  40  61  83 117 162 198 243 298 355
#     4  10  19  38  60  83 117 157 203 242 291 355
#     4  11  22  42  61  86 131 156 193 251 308 357
#     4  11  23  39  60  91 126 156 199 249 298 358
#     4  10  21  38  60  87 117 155 207 252 289 353
#     4  11  23  39  62  93 120 159 203 245 301 357
#
# _framework density 19.208345000000001
#
# number of rings (size 3 to 8) (size 9 to 14) (size 15 to 20)
#    0.000    1.714    2.857    3.000    2.000    5.143 
#    2.571    0.714    0.000    0.000    0.000    0.000 
#    0.000    0.000    0.000    0.000    0.000    0.000 
#
# Total GULP energy -347119.156793 kJ/mol
# GULP energy per Si atom -12397.112743 kJ/mol
# Density = 1.916463 g / cm^3
# Si number density = 19.208345 Si / 1000 Ang^3
#
#
#
# Elastic Constant Matrix: (Units=GPa)
#
#
# Indices 1 2 3 4 5 6 
#
# 1 114.6614 42.8492 51.7362 0.0000 -0.6382 0.0000
# 2 42.8492 63.2847 41.9143 0.0000 8.8325 0.0000
# 3 51.7362 41.9143 92.5948 0.0000 -4.5685 0.0000
# 4 0.0000 0.0000 0.0000 31.0821 0.0000 7.0589
# 5 -0.6382 8.8325 -4.5685 0.0000 42.9916 0.0000
# 6 0.0000 0.0000 0.0000 7.0589 0.0000 25.3279
#
#
#
# Elastic Compliance Matrix: (Units=1/GPa)
#
#
# Indices 1 2 3 4 5 6 
#
# 1 0.012982 -0.005921 -0.004528 0.000000 0.000928 0.000000
# 2 -0.005921 0.026777 -0.009137 0.000000 -0.006560 0.000000
# 3 -0.004528 -0.009137 0.017647 0.000000 0.003685 0.000000
# 4 0.000000 0.000000 0.000000 0.034347 0.000000 -0.009572
# 5 0.000928 -0.006560 0.003685 0.000000 0.025014 0.000000
# 6 0.000000 0.000000 0.000000 -0.009572 0.000000 0.042150
#
#
# Mechanical properties :
#
#
# Convention : Reuss Voigt Hill
#
# Bulk Modulus (GPa) = 54.83529 60.39338 57.61434
# Shear Modulus (GPa) = 24.48990 28.81640 26.65315
#
# Velocity S-wave (km/s) = 3.57453 3.87745 3.72907
# Velocity P-wave (km/s) = 6.75618 7.18022 6.97143
#
# Compressibility (1/GPa) = 0.01823643
#
# Stress axis : x y z
#
# Youngs Moduli (GPa) = 77.02976 37.34495 56.66623
#
# Poissons Ratio (x) = 0.22111 0.25656
# Poissons Ratio (y) = 0.45607 0.51774
# Poissons Ratio (z) = 0.34876 0.34121
#
# Static dielectric constant tensor:
#      x y z
#    x 3.594170 0.000000 -0.207280 
#    y 0.000000 3.245470 0.000000 
#    z -0.207280 0.000000 3.696700 
# 
# 
# High freq. dielectric constant tensor:
#      x y z
#    x 1.757650 0.000000 0.004080 
#    y 0.000000 1.730090 0.000000 
#    z 0.004080 0.000000 1.752620 
# 
# From -- ./inp_files/172474.got.cif
#   From: 2010.06.25/outbox.cif.g09.slc.cpg/sg15_87_cif.got.tgz:172474.got - 2010.06.28 07:06:18.
