data_PCOD8135287
_publ_section_title
;
Structure prediction by ZEFSAII (Michael W. Deem and Ramdas Pophale) SiO2 
 PCOD8135287
Probable space group: C 2/C
;
_chemical_formula_sum "Si O2"
_cell_formula_units_Z 60
_cell_length_a 6.451519
_cell_length_b 29.182425
_cell_length_c 17.111212
_cell_angle_alpha 90.000000
_cell_angle_beta 76.259103
_cell_angle_gamma 90.000000
_cell_volume 3129.343289
_symmetry_space_group_name_H-M "C 2/C"
_symmetry_group_IT_number 15
_symmetry_cell_setting 'monoclinic'
loop_
_space_group_symop_operation_xyz
x,y,z
-x,y,1/2-z
-x,-y,-z
x,-y,1/2+z
1/2+x,1/2+y,z
1/2-x,1/2+y,1/2-z
1/2-x,1/2-y,-z
1/2+x,1/2-y,1/2+z
loop_
_atom_site_type_symbol
_atom_site_label
_atom_site_fract_x
_atom_site_fract_y
_atom_site_fract_z
Si Si1 0.724282 0.819624 0.411260
Si Si2 0.909916 0.157835 0.049485
Si Si3 0.619641 0.915524 0.372876
Si Si4 0.177920 0.292417 0.957144
Si Si5 0.000000 0.960598 0.250000
Si Si6 0.086625 0.726975 0.157983
Si Si7 0.690886 0.561049 0.484295
Si Si8 0.790253 0.025661 0.612817
O O1 0.912799 0.833992 0.454693
O O2 0.632680 0.860217 0.364713
O O3 0.542583 0.808436 0.488617
O O4 0.801394 0.777064 0.352218
O O5 0.758154 0.190018 0.114319
O O6 0.841153 0.105158 0.068643
O O7 0.149946 0.166705 0.058338
O O8 0.639579 0.930004 0.461934
O O9 0.402909 0.938026 0.358942
O O10 0.817915 0.929809 0.303197
O O11 0.127228 0.274740 0.874855
O O12 0.250000 0.250000 0.000000
O O13 0.109263 0.988761 0.311579
O O14 0.000000 0.714412 0.250000
O O15 0.463003 0.548895 0.541454
O O16 0.788179 0.521048 0.421111
#
# Coordination Sequence:
#
# PCOD8135287 Si02
#       8
#     8   8   8   8   4   8   8   8
#     4  10  20  35  57  83 108 148 189 230 281 339
#     4  10  19  38  58  82 110 145 194 233 275 339
#     4  10  20  35  57  84 112 144 186 234 286 342
#     4  11  18  36  60  77 103 154 190 227 275 333
#     4  10  22  36  52  80 120 148 174 228 288 346
#     4  11  23  36  51  82 121 148 185 237 285 336
#     4   9  20  35  62  84 106 142 193 242 276 336
#     4  10  19  38  56  84 113 145 185 235 293 342
#
# _framework density 19.173352000000001
#
# number of rings (size 3 to 8) (size 9 to 14) (size 15 to 20)
#    0.000    1.867    2.667    2.400    0.933    0.533 
#    0.000    4.000    0.000    0.000    0.000    0.000 
#    0.000    0.000    0.000    0.000    0.000    0.000 
#
# Total GULP energy -371828.423851 kJ/mol
# GULP energy per Si atom -12394.280795 kJ/mol
# Density = 1.912971 g / cm^3
# Si number density = 19.173352 Si / 1000 Ang^3
#
#
#
# Elastic Constant Matrix: (Units=GPa)
#
#
# Indices 1 2 3 4 5 6 
#
# 1 91.2504 19.8275 21.2615 0.0000 13.4117 0.0000
# 2 19.8275 101.7299 19.1662 0.0000 10.9761 0.0000
# 3 21.2615 19.1662 76.7147 0.0000 11.4780 0.0000
# 4 0.0000 0.0000 0.0000 8.4113 0.0000 4.2511
# 5 13.4117 10.9761 11.4780 0.0000 23.5020 0.0000
# 6 0.0000 0.0000 0.0000 4.2511 0.0000 25.7125
#
#
#
# Elastic Compliance Matrix: (Units=1/GPa)
#
#
# Indices 1 2 3 4 5 6 
#
# 1 0.012605 -0.001437 -0.002329 0.000000 -0.005385 0.000000
# 2 -0.001437 0.010811 -0.001802 0.000000 -0.003349 0.000000
# 3 -0.002329 -0.001802 0.014894 0.000000 -0.005104 0.000000
# 4 0.000000 0.000000 0.000000 0.129727 0.000000 -0.021448
# 5 -0.005385 -0.003349 -0.005104 0.000000 0.049679 0.000000
# 6 0.000000 0.000000 0.000000 -0.021448 0.000000 0.042438
#
#
# Mechanical properties :
#
#
# Convention : Reuss Voigt Hill
#
# Bulk Modulus (GPa) = 36.79781 43.35617 40.07699
# Shear Modulus (GPa) = 17.83498 25.48782 21.66140
#
# Velocity S-wave (km/s) = 3.05322 3.64996 3.36485
# Velocity P-wave (km/s) = 5.62702 6.35805 6.00367
#
# Compressibility (1/GPa) = 0.02717553
#
# Stress axis : x y z
#
# Youngs Moduli (GPa) = 79.33253 92.50009 67.13889
#
# Poissons Ratio (x) = 0.13293 0.15635
# Poissons Ratio (y) = 0.11400 0.12096
# Poissons Ratio (z) = 0.18475 0.16665
#
# Static dielectric constant tensor:
#      x y z
#    x 3.966850 0.000000 0.254240 
#    y 0.000000 3.556160 0.000000 
#    z 0.254240 0.000000 3.400200 
# 
# 
# High freq. dielectric constant tensor:
#      x y z
#    x 1.751800 0.000000 0.002590 
#    y 0.000000 1.741810 0.000000 
#    z 0.002590 0.000000 1.727940 
# 
# From -- ./inp_files/186723.got.cif
#   From: 2010.06.25/outbox.cif.g09.slc.cpg/sg15_94_cif.got.tgz:186723.got - 2010.06.28 07:06:18.
