data_PCOD8135563
_publ_section_title
;
Structure prediction by ZEFSAII (Michael W. Deem and Ramdas Pophale) SiO2 
 PCOD8135563
Probable space group: C 2/C
;
_chemical_formula_sum "Si O2"
_cell_formula_units_Z 48
_cell_length_a 11.804152
_cell_length_b 8.614723
_cell_length_c 22.614455
_cell_angle_alpha 90.000000
_cell_angle_beta 73.378896
_cell_angle_gamma 90.000000
_cell_volume 2203.566876
_symmetry_space_group_name_H-M "C 2/C"
_symmetry_group_IT_number 15
_symmetry_cell_setting 'monoclinic'
loop_
_space_group_symop_operation_xyz
x,y,z
-x,y,1/2-z
-x,-y,-z
x,-y,1/2+z
1/2+x,1/2+y,z
1/2-x,1/2+y,1/2-z
1/2-x,1/2-y,-z
1/2+x,1/2-y,1/2+z
loop_
_atom_site_type_symbol
_atom_site_label
_atom_site_fract_x
_atom_site_fract_y
_atom_site_fract_z
Si Si1 0.889279 0.714399 0.986652
Si Si2 0.022582 0.429915 0.919244
Si Si3 0.258255 0.515832 0.831384
Si Si4 0.224416 0.846535 0.787222
Si Si5 0.040969 0.846213 0.638013
Si Si6 0.419939 0.008574 0.819773
O O1 0.958629 0.835013 0.933813
O O2 0.921807 0.535364 0.965611
O O3 0.750000 0.750000 0.000000
O O4 0.939705 0.722509 0.047099
O O5 0.143601 0.527427 0.890429
O O6 0.971154 0.388948 0.861827
O O7 0.269712 0.674100 0.793336
O O8 0.243937 0.378507 0.785623
O O9 0.373635 0.484761 0.853960
O O10 0.287887 0.961843 0.823112
O O11 0.086569 0.876281 0.816637
O O12 0.088711 0.681427 0.653881
O O13 0.500000 0.000181 0.750000
#
# Coordination Sequence:
#
# PCOD8135563 Si02
#       6
#     8   8   8   8   8   8
#     4  10  19  38  68  92 121 173 225 263 314 380
#     4  10  21  38  64  93 123 172 218 260 325 383
#     4  12  22  40  65  94 132 168 211 269 327 390
#     4  12  24  41  62  97 133 166 212 267 325 390
#     4  11  23  41  64  94 127 170 220 266 323 382
#     4  11  21  42  64  90 133 169 209 268 326 385
#
# _framework density 21.782865000000001
#
# number of rings (size 3 to 8) (size 9 to 14) (size 15 to 20)
#    0.000    1.000    6.667    2.500    0.000    1.333 
#    3.000    0.833    0.000    5.000    0.000    0.000 
#    0.000    0.000    0.000    0.000    0.000    0.000 
#
# Total GULP energy -297443.795161 kJ/mol
# GULP energy per Si atom -12393.491465 kJ/mol
# Density = 2.173329 g / cm^3
# Si number density = 21.782865 Si / 1000 Ang^3
#
#
#
# Elastic Constant Matrix: (Units=GPa)
#
#
# Indices 1 2 3 4 5 6 
#
# 1 115.7416 39.0874 15.0100 0.0000 -5.8039 0.0000
# 2 39.0874 48.1014 15.7091 0.0000 -16.4670 0.0000
# 3 15.0100 15.7091 87.7070 0.0000 -7.4399 0.0000
# 4 0.0000 0.0000 0.0000 5.8551 0.0000 7.4788
# 5 -5.8039 -16.4670 -7.4399 0.0000 25.4018 0.0000
# 6 0.0000 0.0000 0.0000 7.4788 0.0000 40.6459
#
#
#
# Elastic Compliance Matrix: (Units=1/GPa)
#
#
# Indices 1 2 3 4 5 6 
#
# 1 0.012351 -0.011525 -0.000455 0.000000 -0.004783 0.000000
# 2 -0.011525 0.038501 -0.003107 0.000000 0.021415 0.000000
# 3 -0.000455 -0.003107 0.012158 0.000000 0.001443 0.000000
# 4 0.000000 0.000000 0.000000 0.223263 0.000000 -0.041080
# 5 -0.004783 0.021415 0.001443 0.000000 0.052580 0.000000
# 6 0.000000 0.000000 0.000000 -0.041080 0.000000 0.032161
#
#
# Mechanical properties :
#
#
# Convention : Reuss Voigt Hill
#
# Bulk Modulus (GPa) = 30.45454 43.46256 36.95855
# Shear Modulus (GPa) = 12.13193 26.49680 19.31436
#
# Velocity S-wave (km/s) = 2.36254 3.49148 2.98094
# Velocity P-wave (km/s) = 4.63178 6.02079 5.37137
#
# Compressibility (1/GPa) = 0.03283583
#
# Stress axis : x y z
#
# Youngs Moduli (GPa) = 80.96227 25.97333 82.24796
#
# Poissons Ratio (x) = 0.29936 0.03744
# Poissons Ratio (y) = 0.93313 0.25553
# Poissons Ratio (z) = 0.03685 0.08069
#
# Static dielectric constant tensor:
#      x y z
#    x 4.223830 0.000000 0.377280 
#    y 0.000000 3.594710 0.000000 
#    z 0.377280 0.000000 4.505870 
# 
# 
# High freq. dielectric constant tensor:
#      x y z
#    x 1.865880 0.000000 0.006250 
#    y 0.000000 1.812220 0.000000 
#    z 0.006250 0.000000 1.874720 
# 
# From -- ./inp_files/268026.got.cif
#   From: 2010.06.25/outbox.cif.g09.slc.cpg/sg15_135_cif.got.tgz:268026.got - 2010.06.28 07:06:18.
