data_PCOD8135893
_publ_section_title
;
Structure prediction by ZEFSAII (Michael W. Deem and Ramdas Pophale) SiO2 
 PCOD8135893
Probable space group: C 2/C
;
_chemical_formula_sum "Si O2"
_cell_formula_units_Z 56
_cell_length_a 30.264311
_cell_length_b 12.053059
_cell_length_c 13.759246
_cell_angle_alpha 90.000000
_cell_angle_beta 30.371209
_cell_angle_gamma 90.000000
_cell_volume 2537.640066
_symmetry_space_group_name_H-M "C 2/C"
_symmetry_group_IT_number 15
_symmetry_cell_setting 'monoclinic'
loop_
_space_group_symop_operation_xyz
x,y,z
-x,y,1/2-z
-x,-y,-z
x,-y,1/2+z
1/2+x,1/2+y,z
1/2-x,1/2+y,1/2-z
1/2-x,1/2-y,-z
1/2+x,1/2-y,1/2+z
loop_
_atom_site_type_symbol
_atom_site_label
_atom_site_fract_x
_atom_site_fract_y
_atom_site_fract_z
Si Si1 0.750914 0.377144 0.031670
Si Si2 0.929092 0.938573 0.196736
Si Si3 0.750346 0.212994 0.766676
Si Si4 0.077665 0.628680 0.024932
Si Si5 0.993716 0.269364 0.022922
Si Si6 0.919402 0.862341 0.834219
Si Si7 0.640858 0.900292 0.844580
O O1 0.661615 0.443137 0.187857
O O2 0.769913 0.376871 0.109986
O O3 0.750000 0.250000 0.000000
O O4 0.823448 0.440447 0.828961
O O5 0.921426 0.003794 0.313501
O O6 0.957271 0.809811 0.149492
O O7 0.000000 0.000000 0.000000
O O8 0.826065 0.166181 0.554996
O O9 0.781485 0.332740 0.747580
O O10 0.656397 0.218039 0.891074
O O11 0.000000 0.646222 0.250000
O O12 0.048730 0.639635 0.966946
O O13 0.113674 0.502807 0.964027
O O14 0.925271 0.201345 0.219303
O O15 0.058909 0.321141 0.978771
O O16 0.000000 0.828040 0.750000
#
# Coordination Sequence:
#
# PCOD8135893 Si02
#       7
#     8   8   8   8   8   8   8
#     4  10  19  40  70  90 133 182 232 277 348 418
#     4  10  20  38  64  99 130 177 229 286 349 413
#     4  11  23  45  69 103 140 181 239 295 349 430
#     4  12  29  45  68 112 143 188 247 299 359 426
#     4  11  23  45  70 101 145 189 233 299 357 427
#     4  11  22  42  72 106 142 184 238 290 365 422
#     4  11  23  46  74  94 140 195 235 290 362 425
#
# _framework density 22.067748000000002
#
# number of rings (size 3 to 8) (size 9 to 14) (size 15 to 20)
#    0.000    1.143    4.286    3.000    4.000    1.143 
#    7.714    0.000    0.000    0.000    0.000    0.000 
#    0.000    0.000    0.000    0.000    0.000    0.000 
#
# Total GULP energy -346982.620581 kJ/mol
# GULP energy per Si atom -12392.236449 kJ/mol
# Density = 2.201752 g / cm^3
# Si number density = 22.067748 Si / 1000 Ang^3
#
#
#
# Elastic Constant Matrix: (Units=GPa)
#
#
# Indices 1 2 3 4 5 6 
#
# 1 82.3428 33.0923 36.8900 0.0000 -1.0614 0.0000
# 2 33.0923 80.2678 23.8317 0.0000 -2.6317 0.0000
# 3 36.8900 23.8317 124.3477 0.0000 0.0103 0.0000
# 4 0.0000 0.0000 0.0000 27.3789 0.0000 -5.7306
# 5 -1.0614 -2.6317 0.0103 0.0000 40.3367 0.0000
# 6 0.0000 0.0000 0.0000 -5.7306 0.0000 34.3250
#
#
#
# Elastic Compliance Matrix: (Units=1/GPa)
#
#
# Indices 1 2 3 4 5 6 
#
# 1 0.016012 -0.005502 -0.003696 0.000000 0.000063 0.000000
# 2 -0.005502 0.015131 -0.001268 0.000000 0.000843 0.000000
# 3 -0.003696 -0.001268 0.009381 0.000000 -0.000182 0.000000
# 4 0.000000 0.000000 0.000000 0.037847 0.000000 0.006319
# 5 0.000063 0.000843 -0.000182 0.000000 0.024848 0.000000
# 6 0.000000 0.000000 0.000000 0.006319 0.000000 0.030188
#
#
# Mechanical properties :
#
#
# Convention : Reuss Voigt Hill
#
# Bulk Modulus (GPa) = 51.03817 52.73182 51.88500
# Shear Modulus (GPa) = 31.08115 33.28440 32.18277
#
# Velocity S-wave (km/s) = 3.75699 3.88787 3.82299
# Velocity P-wave (km/s) = 6.48060 6.64089 6.56123
#
# Compressibility (1/GPa) = 0.01959318
#
# Stress axis : x y z
#
# Youngs Moduli (GPa) = 62.45288 66.09113 106.59442
#
# Poissons Ratio (x) = 0.36363 0.39395
# Poissons Ratio (y) = 0.34362 0.13512
# Poissons Ratio (z) = 0.23081 0.08378
#
# Static dielectric constant tensor:
#      x y z
#    x 6.574090 0.000000 1.364210 
#    y 0.000000 1.382430 0.000000 
#    z 1.364210 0.000000 4.818850 
# 
# 
# High freq. dielectric constant tensor:
#      x y z
#    x 1.854720 0.000000 0.004710 
#    y 0.000000 1.850600 0.000000 
#    z 0.004710 0.000000 1.885250 
# 
# From -- ./inp_files/181917.got.cif
#   From: 2010.06.25/outbox.cif.g09.slc.cpg/sg15_91_cif.got.tgz:181917.got - 2010.06.28 07:06:18.
