data_PCOD8135018
_publ_section_title
;
Structure prediction by ZEFSAII (Michael W. Deem and Ramdas Pophale) SiO2 
 PCOD8135018
Probable space group: C 2/C
;
_chemical_formula_sum "Si O2"
_cell_formula_units_Z 40
_cell_length_a 22.986818
_cell_length_b 15.590070
_cell_length_c 9.293632
_cell_angle_alpha 90.000000
_cell_angle_beta 41.183323
_cell_angle_gamma 90.000000
_cell_volume 2193.050688
_symmetry_space_group_name_H-M "C 2/C"
_symmetry_group_IT_number 15
_symmetry_cell_setting 'monoclinic'
loop_
_space_group_symop_operation_xyz
x,y,z
-x,y,1/2-z
-x,-y,-z
x,-y,1/2+z
1/2+x,1/2+y,z
1/2-x,1/2+y,1/2-z
1/2-x,1/2-y,-z
1/2+x,1/2-y,1/2+z
loop_
_atom_site_type_symbol
_atom_site_label
_atom_site_fract_x
_atom_site_fract_y
_atom_site_fract_z
Si Si1 0.633513 0.411460 0.644356
Si Si2 0.697604 0.176016 0.684633
Si Si3 0.593468 0.221026 0.634797
Si Si4 0.903277 0.920396 0.454149
Si Si5 0.234939 0.217155 0.368578
O O1 0.740770 0.408289 0.427801
O O2 0.590633 0.322623 0.670776
O O3 0.594792 0.485480 0.617816
O O4 0.611989 0.429458 0.848998
O O5 0.750000 0.250000 0.500000
O O6 0.608382 0.166549 0.756582
O O7 0.682242 0.209746 0.875350
O O8 0.500000 0.189489 0.750000
O O9 0.669554 0.197334 0.378208
O O10 0.826869 0.866554 0.516899
O O11 0.000000 0.878218 0.250000
O O12 0.250000 0.250000 0.500000
#
# Coordination Sequence:
#
# PCOD8135018 Si02
#       5
#     8   8   8   8   8
#     4  10  21  36  51  82 113 145 172 222 280 328
#     4   8  16  38  53  69 108 140 180 220 261 318
#     4  10  19  37  60  75 106 148 185 220 276 320
#     4  12  23  34  53  82 119 140 176 222 277 332
#     4  10  21  34  53  82 108 144 185 223 263 323
#
# _framework density 18.239432999999998
#
# number of rings (size 3 to 8) (size 9 to 14) (size 15 to 20)
#    0.000    2.400    6.000    1.200    8.400    0.000 
#    0.000    0.000    0.000    1.200    0.000    1.400 
#    0.000    0.000    0.000    0.000    0.000    0.000 
#
# Total GULP energy -247834.822226 kJ/mol
# GULP energy per Si atom -12391.741111 kJ/mol
# Density = 1.819792 g / cm^3
# Si number density = 18.239433 Si / 1000 Ang^3
#
#
#
# Elastic Constant Matrix: (Units=GPa)
#
#
# Indices 1 2 3 4 5 6 
#
# 1 142.9263 20.0466 54.6472 0.0000 -6.8700 0.0000
# 2 20.0466 41.6026 29.9951 0.0000 -2.2015 0.0000
# 3 54.6472 29.9951 69.5028 0.0000 4.2182 0.0000
# 4 0.0000 0.0000 0.0000 16.3175 0.0000 -0.0034
# 5 -6.8700 -2.2015 4.2182 0.0000 40.1602 0.0000
# 6 0.0000 0.0000 0.0000 -0.0034 0.0000 23.8000
#
#
#
# Elastic Compliance Matrix: (Units=1/GPa)
#
#
# Indices 1 2 3 4 5 6 
#
# 1 0.010350 0.001672 -0.009030 0.000000 0.002811 0.000000
# 2 0.001672 0.035665 -0.016951 0.000000 0.004021 0.000000
# 3 -0.009030 -0.016951 0.029139 0.000000 -0.005534 0.000000
# 4 0.000000 0.000000 0.000000 0.061284 0.000000 0.000009
# 5 0.002811 0.004021 -0.005534 0.000000 0.026183 0.000000
# 6 0.000000 0.000000 0.000000 0.000009 0.000000 0.042017
#
#
# Mechanical properties :
#
#
# Convention : Reuss Voigt Hill
#
# Bulk Modulus (GPa) = 37.68310 51.48996 44.58653
# Shear Modulus (GPa) = 19.07673 26.01173 22.54423
#
# Velocity S-wave (km/s) = 3.23756 3.78051 3.51952
# Velocity P-wave (km/s) = 5.88904 6.88096 6.40423
#
# Compressibility (1/GPa) = 0.02653710
#
# Stress axis : x y z
#
# Youngs Moduli (GPa) = 96.62190 28.03842 34.31861
#
# Poissons Ratio (x) = -0.04688 0.30988
# Poissons Ratio (y) = -0.16154 0.58172
# Poissons Ratio (z) = 0.87246 0.47527
#
# Static dielectric constant tensor:
#      x y z
#    x 4.132350 0.000000 -0.014680 
#    y 0.000000 3.164390 0.000000 
#    z -0.014680 0.000000 3.321960 
# 
# 
# High freq. dielectric constant tensor:
#      x y z
#    x 1.731740 0.000000 0.010480 
#    y 0.000000 1.664620 0.000000 
#    z 0.010480 0.000000 1.690920 
# 
# From -- ./inp_files/61362.got.cif
#   From: 2010.06.25/outbox.cif.g09.slc.cpg/sg15_31_cif.got.tgz:61362.got - 2010.06.28 07:06:18.
