data_PCOD8135877
_publ_section_title
;
Structure prediction by ZEFSAII (Michael W. Deem and Ramdas Pophale) SiO2 
 PCOD8135877
Probable space group: C 2/C
;
_chemical_formula_sum "Si O2"
_cell_formula_units_Z 52
_cell_length_a 19.190727
_cell_length_b 8.329376
_cell_length_c 18.379211
_cell_angle_alpha 90.000000
_cell_angle_beta 117.447963
_cell_angle_gamma 90.000000
_cell_volume 2607.142587
_symmetry_space_group_name_H-M "C 2/C"
_symmetry_group_IT_number 15
_symmetry_cell_setting 'monoclinic'
loop_
_space_group_symop_operation_xyz
x,y,z
-x,y,1/2-z
-x,-y,-z
x,-y,1/2+z
1/2+x,1/2+y,z
1/2-x,1/2+y,1/2-z
1/2-x,1/2-y,-z
1/2+x,1/2-y,1/2+z
loop_
_atom_site_type_symbol
_atom_site_label
_atom_site_fract_x
_atom_site_fract_y
_atom_site_fract_z
Si Si1 0.275527 0.559905 0.816359
Si Si2 0.139944 0.314198 0.727301
Si Si3 0.183532 0.770060 0.024902
Si Si4 0.587419 0.673105 0.074937
Si Si5 0.452336 0.495895 0.583376
Si Si6 0.000000 0.821839 0.250000
Si Si7 0.910993 0.471721 0.938327
O O1 0.191972 0.472208 0.767926
O O2 0.304762 0.655894 0.757814
O O3 0.270537 0.687307 0.878861
O O4 0.338601 0.431478 0.870434
O O5 0.093619 0.346811 0.630304
O O6 0.073783 0.285401 0.757377
O O7 0.134565 0.606216 0.015064
O O8 0.250000 0.750000 0.000000
O O9 0.130271 0.908146 0.964389
O O10 0.520474 0.634891 0.101989
O O11 0.621904 0.852640 0.096676
O O12 0.548226 0.638025 0.977112
O O13 0.465409 0.568155 0.669295
O O14 0.000000 0.500000 0.000000
#
# Coordination Sequence:
#
# PCOD8135877 Si02
#       7
#     8   8   8   8   8   4   8
#     4  10  22  41  64  86 123 169 209 252 319 386
#     4  11  24  41  62  95 130 164 210 269 318 383
#     4  10  23  41  60  92 126 162 210 262 314 381
#     4  10  19  40  68  87 113 172 219 248 309 386
#     4  10  21  40  64  88 125 165 210 260 316 381
#     4  12  24  40  64  98 132 164 210 276 328 368
#     4  11  21  38  66  90 120 167 212 257 309 382
#
# _framework density 19.945207
#
# number of rings (size 3 to 8) (size 9 to 14) (size 15 to 20)
#    0.000    1.538    3.077    1.846    0.000    6.154 
#    2.769    3.077    0.000    0.000    0.000    0.000 
#    0.000    0.000    0.000    0.000    0.000    0.000 
#
# Total GULP energy -322285.236088 kJ/mol
# GULP energy per Si atom -12395.586003 kJ/mol
# Density = 1.989981 g / cm^3
# Si number density = 19.945207 Si / 1000 Ang^3
#
#
#
# Elastic Constant Matrix: (Units=GPa)
#
#
# Indices 1 2 3 4 5 6 
#
# 1 169.3735 57.2957 49.4287 0.0000 -9.8574 0.0000
# 2 57.2957 109.8975 26.5910 0.0000 -6.2263 0.0000
# 3 49.4287 26.5910 81.3050 0.0000 -0.6849 0.0000
# 4 0.0000 0.0000 0.0000 28.4946 0.0000 5.6108
# 5 -9.8574 -6.2263 -0.6849 0.0000 30.5594 0.0000
# 6 0.0000 0.0000 0.0000 5.6108 0.0000 24.8667
#
#
#
# Elastic Compliance Matrix: (Units=1/GPa)
#
#
# Indices 1 2 3 4 5 6 
#
# 1 0.008266 -0.003246 -0.003947 0.000000 0.001916 0.000000
# 2 -0.003246 0.011272 -0.001703 0.000000 0.001212 0.000000
# 3 -0.003947 -0.001703 0.015245 0.000000 -0.001279 0.000000
# 4 0.000000 0.000000 0.000000 0.036726 0.000000 -0.008287
# 5 0.001916 0.001212 -0.001279 0.000000 0.033560 0.000000
# 6 0.000000 0.000000 0.000000 -0.008287 0.000000 0.042084
#
#
# Mechanical properties :
#
#
# Convention : Reuss Voigt Hill
#
# Bulk Modulus (GPa) = 58.85545 69.68963 64.27254
# Shear Modulus (GPa) = 29.30675 31.93484 30.62080
#
# Velocity S-wave (km/s) = 3.83739 4.00575 3.92247
# Velocity P-wave (km/s) = 7.01475 7.51073 7.26697
#
# Compressibility (1/GPa) = 0.01699078
#
# Stress axis : x y z
#
# Youngs Moduli (GPa) = 120.98441 88.71329 65.59354
#
# Poissons Ratio (x) = 0.28793 0.25892
# Poissons Ratio (y) = 0.39267 0.11172
# Poissons Ratio (z) = 0.47757 0.15110
#
# Static dielectric constant tensor:
#      x y z
#    x 3.555050 0.000000 0.043980 
#    y 0.000000 3.674500 0.000000 
#    z 0.043980 0.000000 3.922240 
# 
# 
# High freq. dielectric constant tensor:
#      x y z
#    x 1.775210 0.000000 0.013800 
#    y 0.000000 1.783990 0.000000 
#    z 0.013800 0.000000 1.776560 
# 
# From -- ./inp_files/181066.got.cif
#   From: 2010.06.25/outbox.cif.g09.slc.cpg/sg15_91_cif.got.tgz:181066.got - 2010.06.28 07:06:18.
