data_PCOD8135735
_publ_section_title
;
Structure prediction by ZEFSAII (Michael W. Deem and Ramdas Pophale) SiO2 
 PCOD8135735
Probable space group: C 2/C
;
_chemical_formula_sum "Si O2"
_cell_formula_units_Z 60
_cell_length_a 21.141682
_cell_length_b 23.432896
_cell_length_c 11.058900
_cell_angle_alpha 90.000000
_cell_angle_beta 146.930544
_cell_angle_gamma 90.000000
_cell_volume 2989.481092
_symmetry_space_group_name_H-M "C 2/C"
_symmetry_group_IT_number 15
_symmetry_cell_setting 'monoclinic'
loop_
_space_group_symop_operation_xyz
x,y,z
-x,y,1/2-z
-x,-y,-z
x,-y,1/2+z
1/2+x,1/2+y,z
1/2-x,1/2+y,1/2-z
1/2-x,1/2-y,-z
1/2+x,1/2-y,1/2+z
loop_
_atom_site_type_symbol
_atom_site_label
_atom_site_fract_x
_atom_site_fract_y
_atom_site_fract_z
Si Si1 0.219352 0.957411 0.182038
Si Si2 0.206293 0.576669 0.106711
Si Si3 0.370062 0.863531 0.541941
Si Si4 0.167892 0.166482 0.339022
Si Si5 0.378626 0.787024 0.329145
Si Si6 0.581792 0.144510 0.121406
Si Si7 0.914585 0.450569 0.319104
Si Si8 0.000000 0.106911 0.250000
O O1 0.283292 0.914600 0.374683
O O2 0.283978 0.958222 0.156667
O O3 0.223966 0.022007 0.235249
O O4 0.088970 0.935559 0.958778
O O5 0.305009 0.612997 0.201269
O O6 0.152155 0.616703 0.124737
O O7 0.100159 0.556333 0.849520
O O8 0.500000 0.887990 0.750000
O O9 0.362887 0.807791 0.443403
O O10 0.339433 0.847053 0.632855
O O11 0.282328 0.179981 0.598260
O O12 0.137211 0.219249 0.203034
O O13 0.061727 0.149473 0.255067
O O14 0.508935 0.797178 0.481231
O O15 0.468798 0.104925 0.968626
O O16 0.000000 0.500000 0.500000
#
# Coordination Sequence:
#
# PCOD8135735 Si02
#       8
#     8   8   8   8   8   8   8   4
#     4  12  24  39  68  95 135 184 220 273 335 413
#     4  12  25  39  63 102 138 167 230 283 334 406
#     4  10  19  39  65  98 134 168 209 278 351 397
#     4  11  24  43  65  94 128 180 233 275 320 393
#     4  10  21  41  69  97 128 164 225 287 331 391
#     4  11  21  35  66  99 131 164 206 281 356 392
#     4  12  21  37  61 104 139 169 210 286 346 393
#     4  12  24  48  66  92 134 188 238 256 336 420
#
# _framework density 20.070373
#
# number of rings (size 3 to 8) (size 9 to 14) (size 15 to 20)
#    0.000    0.800    8.000    1.200    0.000    2.667 
#    0.000    0.667   10.267    0.000    0.000    0.000 
#    0.000    0.000    0.000    0.000    0.000    0.000 
#
# Total GULP energy -371760.802937 kJ/mol
# GULP energy per Si atom -12392.026765 kJ/mol
# Density = 2.002469 g / cm^3
# Si number density = 20.070373 Si / 1000 Ang^3
#
#
#
# Elastic Constant Matrix: (Units=GPa)
#
#
# Indices 1 2 3 4 5 6 
#
# 1 125.5871 56.4930 48.3275 0.0000 -7.8396 0.0000
# 2 56.4930 110.7790 45.7255 0.0000 -2.2868 0.0000
# 3 48.3275 45.7255 105.6858 0.0000 -3.8893 0.0000
# 4 0.0000 0.0000 0.0000 33.5132 0.0000 -0.9892
# 5 -7.8396 -2.2868 -3.8893 0.0000 33.7617 0.0000
# 6 0.0000 0.0000 0.0000 -0.9892 0.0000 26.6776
#
#
#
# Elastic Compliance Matrix: (Units=1/GPa)
#
#
# Indices 1 2 3 4 5 6 
#
# 1 0.011291 -0.004402 -0.003186 0.000000 0.001957 0.000000
# 2 -0.004402 0.012707 -0.003506 0.000000 -0.000565 0.000000
# 3 -0.003186 -0.003506 0.012453 0.000000 0.000457 0.000000
# 4 0.000000 0.000000 0.000000 0.029872 0.000000 0.001108
# 5 0.001957 -0.000565 0.000457 0.000000 0.030088 0.000000
# 6 0.000000 0.000000 0.000000 0.001108 0.000000 0.037526
#
#
# Mechanical properties :
#
#
# Convention : Reuss Voigt Hill
#
# Bulk Modulus (GPa) = 70.11511 71.46043 70.78777
# Shear Modulus (GPa) = 31.07909 31.55757 31.31833
#
# Velocity S-wave (km/s) = 3.93938 3.96958 3.95451
# Velocity P-wave (km/s) = 7.46338 7.52943 7.49648
#
# Compressibility (1/GPa) = 0.01426226
#
# Stress axis : x y z
#
# Youngs Moduli (GPa) = 88.56375 78.69444 80.30435
#
# Poissons Ratio (x) = 0.34645 0.25589
# Poissons Ratio (y) = 0.38990 0.28151
# Poissons Ratio (z) = 0.28221 0.27587
#
# Static dielectric constant tensor:
#      x y z
#    x 3.692550 0.000000 -0.197450 
#    y 0.000000 3.793410 0.000000 
#    z -0.197450 0.000000 3.740670 
# 
# 
# High freq. dielectric constant tensor:
#      x y z
#    x 1.781240 0.000000 -0.012500 
#    y 0.000000 1.783370 0.000000 
#    z -0.012500 0.000000 1.774730 
# 
# From -- ./inp_files/114853.got.cif
#   From: 2010.06.25/outbox.cif.g09.slc.cpg/sg15_58_cif.got.tgz:114853.got - 2010.06.28 07:06:18.
