data_PCOD8135109
_publ_section_title
;
Structure prediction by ZEFSAII (Michael W. Deem and Ramdas Pophale) SiO2 
 PCOD8135109
Probable space group: C 2/C
;
_chemical_formula_sum "Si O2"
_cell_formula_units_Z 56
_cell_length_a 15.916038
_cell_length_b 16.219053
_cell_length_c 13.486736
_cell_angle_alpha 90.000000
_cell_angle_beta 125.552775
_cell_angle_gamma 90.000000
_cell_volume 2832.485758
_symmetry_space_group_name_H-M "C 2/C"
_symmetry_group_IT_number 15
_symmetry_cell_setting 'monoclinic'
loop_
_space_group_symop_operation_xyz
x,y,z
-x,y,1/2-z
-x,-y,-z
x,-y,1/2+z
1/2+x,1/2+y,z
1/2-x,1/2+y,1/2-z
1/2-x,1/2-y,-z
1/2+x,1/2-y,1/2+z
loop_
_atom_site_type_symbol
_atom_site_label
_atom_site_fract_x
_atom_site_fract_y
_atom_site_fract_z
Si Si1 0.113730 0.659945 0.852749
Si Si2 0.343375 0.214751 0.826694
Si Si3 0.229097 0.980412 0.067680
Si Si4 0.357682 0.373055 0.328967
Si Si5 0.249338 0.113571 0.241928
Si Si6 0.109599 0.008978 0.293455
Si Si7 0.571807 0.205782 0.036742
O O1 0.152824 0.719149 0.791168
O O2 0.178643 0.576727 0.907551
O O3 0.000000 0.628029 0.750000
O O4 0.116454 0.713791 0.955529
O O5 0.256582 0.147036 0.793300
O O6 0.309581 0.305316 0.838885
O O7 0.449950 0.184278 0.949681
O O8 0.148166 0.926571 0.075197
O O9 0.271498 0.054725 0.164219
O O10 0.171772 0.017349 0.933672
O O11 0.416038 0.425478 0.285168
O O12 0.419237 0.290651 0.397337
O O13 0.362465 0.135033 0.363408
O O14 0.176317 0.071842 0.273807
O O15 0.000000 0.049509 0.250000
#
# Coordination Sequence:
#
# PCOD8135109 Si02
#       7
#     8   8   8   8   8   8   8
#     4   9  18  35  59  90 108 146 187 238 288 327
#     4   9  20  35  60  84 116 145 190 235 283 329
#     4  10  21  38  56  83 121 143 187 240 275 341
#     4   9  22  38  55  87 114 150 191 232 279 335
#     4  10  22  37  58  89 110 151 190 231 288 332
#     4  11  24  37  58  83 116 154 187 228 288 336
#     4  10  19  37  62  82 115 147 189 237 282 328
#
# _framework density 19.770620999999998
#
# number of rings (size 3 to 8) (size 9 to 14) (size 15 to 20)
#    0.000    2.286    1.429    0.000    6.000    3.429 
#    2.571    5.714    0.000    0.000    0.000    0.000 
#    0.000    0.000    0.000    0.000    0.000    0.000 
#
# Total GULP energy -347137.509527 kJ/mol
# GULP energy per Si atom -12397.768197 kJ/mol
# Density = 1.972562 g / cm^3
# Si number density = 19.770621 Si / 1000 Ang^3
#
#
#
# Elastic Constant Matrix: (Units=GPa)
#
#
# Indices 1 2 3 4 5 6 
#
# 1 56.4187 15.8862 22.9314 0.0000 11.0165 0.0000
# 2 15.8862 72.3945 27.6020 0.0000 -6.0811 0.0000
# 3 22.9314 27.6020 91.9864 0.0000 8.6115 0.0000
# 4 0.0000 0.0000 0.0000 26.1198 0.0000 -1.1211
# 5 11.0165 -6.0811 8.6115 0.0000 25.8288 0.0000
# 6 0.0000 0.0000 0.0000 -1.1211 0.0000 19.4394
#
#
#
# Elastic Compliance Matrix: (Units=1/GPa)
#
#
# Indices 1 2 3 4 5 6 
#
# 1 0.022138 -0.004375 -0.003330 0.000000 -0.009362 0.000000
# 2 -0.004375 0.017228 -0.004783 0.000000 0.007517 0.000000
# 3 -0.003330 -0.004783 0.013531 0.000000 -0.004217 0.000000
# 4 0.000000 0.000000 0.000000 0.038380 0.000000 0.002213
# 5 -0.009362 0.007517 -0.004217 0.000000 0.045885 0.000000
# 6 0.000000 0.000000 0.000000 0.002213 0.000000 0.051570
#
#
# Mechanical properties :
#
#
# Convention : Reuss Voigt Hill
#
# Bulk Modulus (GPa) = 35.81287 39.29322 37.55304
# Shear Modulus (GPa) = 22.42011 24.56960 23.49485
#
# Velocity S-wave (km/s) = 3.37116 3.52907 3.45102
# Velocity P-wave (km/s) = 5.77118 6.04346 5.90889
#
# Compressibility (1/GPa) = 0.02792293
#
# Stress axis : x y z
#
# Youngs Moduli (GPa) = 45.17145 58.04465 73.90374
#
# Poissons Ratio (x) = 0.25394 0.24607
# Poissons Ratio (y) = 0.19762 0.35346
# Poissons Ratio (z) = 0.15040 0.27761
#
# Static dielectric constant tensor:
#      x y z
#    x 3.562760 0.000000 0.081650 
#    y 0.000000 3.430490 0.000000 
#    z 0.081650 0.000000 3.607230 
# 
# 
# High freq. dielectric constant tensor:
#      x y z
#    x 1.759210 0.000000 0.012080 
#    y 0.000000 1.759790 0.000000 
#    z 0.012080 0.000000 1.772620 
# 
# From -- ./inp_files/105792.got.cif
#   From: 2010.06.25/outbox.cif.g09.slc.cpg/sg15_53_cif.got.tgz:105792.got - 2010.06.28 07:06:18.
