data_PCOD8135863
_publ_section_title
;
Structure prediction by ZEFSAII (Michael W. Deem and Ramdas Pophale) SiO2 
 PCOD8135863
Probable space group: C 2/C
;
_chemical_formula_sum "Si O2"
_cell_formula_units_Z 60
_cell_length_a 8.596093
_cell_length_b 17.000790
_cell_length_c 19.840855
_cell_angle_alpha 90.000000
_cell_angle_beta 62.930575
_cell_angle_gamma 90.000000
_cell_volume 2581.920971
_symmetry_space_group_name_H-M "C 2/C"
_symmetry_group_IT_number 15
_symmetry_cell_setting 'monoclinic'
loop_
_space_group_symop_operation_xyz
x,y,z
-x,y,1/2-z
-x,-y,-z
x,-y,1/2+z
1/2+x,1/2+y,z
1/2-x,1/2+y,1/2-z
1/2-x,1/2-y,-z
1/2+x,1/2-y,1/2+z
loop_
_atom_site_type_symbol
_atom_site_label
_atom_site_fract_x
_atom_site_fract_y
_atom_site_fract_z
Si Si1 0.143344 0.948975 0.665818
Si Si2 0.918349 0.147865 0.444490
Si Si3 0.506121 0.130015 0.368669
Si Si4 0.807656 0.160978 0.993033
Si Si5 0.369754 0.187535 0.896497
Si Si6 0.080887 0.807629 0.339348
Si Si7 0.000000 0.480325 0.750000
Si Si8 0.710225 0.090929 0.795170
O O1 0.073207 0.930090 0.604463
O O2 0.301768 0.889391 0.645193
O O3 0.000000 0.929149 0.750000
O O4 0.206918 0.039429 0.660461
O O5 0.732763 0.153622 0.518912
O O6 0.943579 0.225456 0.394223
O O7 0.075851 0.143090 0.465017
O O8 0.374724 0.115321 0.458368
O O9 0.510477 0.219722 0.341101
O O10 0.434656 0.074267 0.323671
O O11 0.750000 0.250000 0.000000
O O12 0.919795 0.141450 0.903597
O O13 0.247405 0.190622 0.855577
O O14 0.533690 0.130976 0.854258
O O15 0.143292 0.846487 0.257051
O O16 0.835413 0.532931 0.758429
#
# Coordination Sequence:
#
# PCOD8135863 Si02
#       8
#     8   8   8   8   8   8   4   8
#     4  11  26  44  64  97 140 178 228 288 343 422
#     4  10  22  40  69 100 139 176 236 286 341 412
#     4  10  22  40  68  94 130 181 232 273 345 411
#     4   9  21  40  66 103 134 173 229 290 340 406
#     4  10  20  38  68 101 129 183 226 283 343 413
#     4  10  19  40  67 101 132 174 232 284 339 406
#     4  10  22  38  62  94 130 180 226 268 334 414
#     4  11  23  42  65  95 142 176 228 282 350 408
#
# _framework density 23.238512
#
# number of rings (size 3 to 8) (size 9 to 14) (size 15 to 20)
#    0.000    1.867    2.667    0.000    7.467    0.533 
#    6.000    3.333    0.000    0.000    0.000    0.000 
#    0.000    0.000    0.000    0.000    0.000    0.000 
#
# Total GULP energy -371875.537999 kJ/mol
# GULP energy per Si atom -12395.851267 kJ/mol
# Density = 2.318562 g / cm^3
# Si number density = 23.238512 Si / 1000 Ang^3
#
#
#
# Elastic Constant Matrix: (Units=GPa)
#
#
# Indices 1 2 3 4 5 6 
#
# 1 78.6703 33.9980 32.2206 0.0000 -20.8190 0.0000
# 2 33.9980 99.8885 46.0068 0.0000 -5.8084 0.0000
# 3 32.2206 46.0068 98.6757 0.0000 -33.0090 0.0000
# 4 0.0000 0.0000 0.0000 25.5827 0.0000 8.9482
# 5 -20.8190 -5.8084 -33.0090 0.0000 44.3186 0.0000
# 6 0.0000 0.0000 0.0000 8.9482 0.0000 39.3271
#
#
#
# Elastic Compliance Matrix: (Units=1/GPa)
#
#
# Indices 1 2 3 4 5 6 
#
# 1 0.017006 -0.004914 -0.001072 0.000000 0.006546 0.000000
# 2 -0.004914 0.014633 -0.007124 0.000000 -0.005696 0.000000
# 3 -0.001072 -0.007124 0.017747 0.000000 0.011780 0.000000
# 4 0.000000 0.000000 0.000000 0.042469 0.000000 -0.009663
# 5 0.006546 -0.005696 0.011780 0.000000 0.033667 0.000000
# 6 0.000000 0.000000 0.000000 -0.009663 0.000000 0.027626
#
#
# Mechanical properties :
#
#
# Convention : Reuss Voigt Hill
#
# Bulk Modulus (GPa) = 43.16521 55.74282 49.45402
# Shear Modulus (GPa) = 26.72512 32.84629 29.78571
#
# Velocity S-wave (km/s) = 3.39490 3.76366 3.58402
# Velocity P-wave (km/s) = 5.82943 6.55180 6.20115
#
# Compressibility (1/GPa) = 0.02316681
#
# Stress axis : x y z
#
# Youngs Moduli (GPa) = 58.80171 68.33667 56.34908
#
# Poissons Ratio (x) = 0.33579 0.06042
# Poissons Ratio (y) = 0.28894 0.40142
# Poissons Ratio (z) = 0.06305 0.48681
#
# Static dielectric constant tensor:
#      x y z
#    x 4.232010 0.000000 -0.119630 
#    y 0.000000 4.128570 0.000000 
#    z -0.119630 0.000000 4.288380 
# 
# 
# High freq. dielectric constant tensor:
#      x y z
#    x 1.926940 0.000000 -0.010000 
#    y 0.000000 1.909420 0.000000 
#    z -0.010000 0.000000 1.919460 
# 
# From -- ./inp_files/233063.got.cif
#   From: 2010.06.25/outbox.cif.g09.slc.cpg/sg15_117_cif.got.tgz:233063.got - 2010.06.28 07:06:18.
