data_PCOD8135087
_publ_section_title
;
Structure prediction by ZEFSAII (Michael W. Deem and Ramdas Pophale) SiO2 
 PCOD8135087
Probable space group: C 2/C
;
_chemical_formula_sum "Si O2"
_cell_formula_units_Z 48
_cell_length_a 13.898553
_cell_length_b 15.039338
_cell_length_c 10.644862
_cell_angle_alpha 90.000000
_cell_angle_beta 62.432754
_cell_angle_gamma 90.000000
_cell_volume 1972.429755
_symmetry_space_group_name_H-M "C 2/C"
_symmetry_group_IT_number 15
_symmetry_cell_setting 'monoclinic'
loop_
_space_group_symop_operation_xyz
x,y,z
-x,y,1/2-z
-x,-y,-z
x,-y,1/2+z
1/2+x,1/2+y,z
1/2-x,1/2+y,1/2-z
1/2-x,1/2-y,-z
1/2+x,1/2-y,1/2+z
loop_
_atom_site_type_symbol
_atom_site_label
_atom_site_fract_x
_atom_site_fract_y
_atom_site_fract_z
Si Si1 0.842278 0.328499 0.073060
Si Si2 0.901352 0.503315 0.400299
Si Si3 0.316439 0.521030 0.125315
Si Si4 0.896303 0.841883 0.400941
Si Si5 0.289268 0.138767 0.101694
Si Si6 0.285555 0.667717 0.626726
O O1 0.715533 0.334171 0.107937
O O2 0.832835 0.335824 0.230945
O O3 0.914136 0.407343 0.972899
O O4 0.900714 0.238525 0.997480
O O5 0.794999 0.506798 0.380868
O O6 0.893178 0.421575 0.504109
O O7 0.000000 0.488695 0.250000
O O8 0.292334 0.583573 0.259247
O O9 0.355561 0.419104 0.134695
O O10 0.401570 0.567740 0.980356
O O11 0.000000 0.837617 0.250000
O O12 0.332227 0.233034 0.134208
O O13 0.220367 0.161514 0.019384
#
# Coordination Sequence:
#
# PCOD8135087 Si02
#       6
#     8   8   8   8   8   8
#     4  10  19  37  61  87 121 152 195 256 302 340
#     4  10  21  36  59  92 121 154 202 248 300 360
#     4  10  20  38  62  85 119 162 199 248 299 357
#     4  10  21  37  61  91 116 155 207 247 296 353
#     4  10  20  37  59  84 122 167 193 240 307 358
#     4  10  20  37  61  84 118 163 199 240 301 360
#
# _framework density 24.335467000000001
#
# number of rings (size 3 to 8) (size 9 to 14) (size 15 to 20)
#    0.000    2.000    3.333    0.500    0.000    0.667 
#    0.000    1.667    0.000    0.000    0.000    0.000 
#    0.000    0.000    0.000    0.000    0.000    0.000 
#
# Total GULP energy -297315.571249 kJ/mol
# GULP energy per Si atom -12388.148802 kJ/mol
# Density = 2.428008 g / cm^3
# Si number density = 24.335467 Si / 1000 Ang^3
#
#
#
# Elastic Constant Matrix: (Units=GPa)
#
#
# Indices 1 2 3 4 5 6 
#
# 1 17.3591 1.0526 12.1490 0.0000 -4.4435 0.0000
# 2 1.0526 235.9334 72.2631 0.0000 -5.0493 0.0000
# 3 12.1490 72.2631 183.4269 0.0000 -10.7452 0.0000
# 4 0.0000 0.0000 0.0000 57.4491 0.0000 9.1721
# 5 -4.4435 -5.0493 -10.7452 0.0000 34.1110 0.0000
# 6 0.0000 0.0000 0.0000 9.1721 0.0000 8.3405
#
#
#
# Elastic Compliance Matrix: (Units=1/GPa)
#
#
# Indices 1 2 3 4 5 6 
#
# 1 0.062236 0.001147 -0.004166 0.000000 0.006965 0.000000
# 2 0.001147 0.004842 -0.001969 0.000000 0.000246 0.000000
# 3 -0.004166 -0.001969 0.006576 0.000000 0.001237 0.000000
# 4 0.000000 0.000000 0.000000 0.021114 0.000000 -0.023219
# 5 0.006965 0.000246 0.001237 0.000000 0.030650 0.000000
# 6 0.000000 0.000000 0.000000 -0.023219 0.000000 0.145431
#
#
# Mechanical properties :
#
#
# Convention : Reuss Voigt Hill
#
# Bulk Modulus (GPa) = 15.70408 67.51654 41.61031
# Shear Modulus (GPa) = 16.55359 43.39709 29.97534
#
# Velocity S-wave (km/s) = 2.61094 4.22748 3.51344
# Velocity P-wave (km/s) = 3.94418 7.18562 5.79610
#
# Compressibility (1/GPa) = 0.06367771
#
# Stress axis : x y z
#
# Youngs Moduli (GPa) = 16.06798 206.53826 152.07021
#
# Poissons Ratio (x) = -0.23699 0.63354
# Poissons Ratio (y) = -0.01844 0.29943
# Poissons Ratio (z) = 0.06694 0.40668
#
# Static dielectric constant tensor:
#      x y z
#    x 3.867910 0.000000 0.227920 
#    y 0.000000 5.689120 0.000000 
#    z 0.227920 0.000000 4.675050 
# 
# 
# High freq. dielectric constant tensor:
#      x y z
#    x 1.897320 0.000000 0.021800 
#    y 0.000000 2.001390 0.000000 
#    z 0.021800 0.000000 1.990430 
# 
# From -- ./inp_files/112930.got.cif
#   From: 2010.06.25/outbox.cif.g09.slc.cpg/sg15_57_cif.got.tgz:112930.got - 2010.06.28 07:06:18.
