data_PCOD8135806
_publ_section_title
;
Structure prediction by ZEFSAII (Michael W. Deem and Ramdas Pophale) SiO2 
 PCOD8135806
Probable space group: C 2/C
;
_chemical_formula_sum "Si O2"
_cell_formula_units_Z 48
_cell_length_a 9.838709
_cell_length_b 14.906042
_cell_length_c 18.313850
_cell_angle_alpha 90.000000
_cell_angle_beta 114.029660
_cell_angle_gamma 90.000000
_cell_volume 2453.070930
_symmetry_space_group_name_H-M "C 2/C"
_symmetry_group_IT_number 15
_symmetry_cell_setting 'monoclinic'
loop_
_space_group_symop_operation_xyz
x,y,z
-x,y,1/2-z
-x,-y,-z
x,-y,1/2+z
1/2+x,1/2+y,z
1/2-x,1/2+y,1/2-z
1/2-x,1/2-y,-z
1/2+x,1/2-y,1/2+z
loop_
_atom_site_type_symbol
_atom_site_label
_atom_site_fract_x
_atom_site_fract_y
_atom_site_fract_z
Si Si1 0.000000 0.157938 0.250000
Si Si2 0.134609 0.478086 0.581976
Si Si3 0.000000 0.362300 0.750000
Si Si4 0.822019 0.710940 0.340304
Si Si5 0.049021 0.041032 0.399824
Si Si6 0.639460 0.391536 0.069989
Si Si7 0.948975 0.534692 0.665376
O O1 0.854844 0.220012 0.211717
O O2 0.016128 0.095410 0.182375
O O3 0.143302 0.372535 0.600024
O O4 0.293514 0.507590 0.584331
O O5 0.000000 0.500000 0.500000
O O6 0.096360 0.532978 0.647016
O O7 0.899111 0.297988 0.778002
O O8 0.903813 0.430668 0.676874
O O9 0.883384 0.795760 0.397761
O O10 0.066212 0.107028 0.473614
O O11 0.933130 0.963303 0.391956
O O12 0.813166 0.415362 0.096936
O O13 0.000000 0.587047 0.750000
#
# Coordination Sequence:
#
# PCOD8135806 Si02
#       7
#     4   8   4   8   8   8   8
#     4  10  22  40  62  84 116 158 202 242 302 348
#     4  10  19  40  62  83 115 163 200 237 295 361
#     4   8  18  38  58  82 116 162 190 240 288 356
#     4  10  22  38  61  89 119 151 200 253 290 349
#     4  10  23  39  62  85 122 161 194 247 303 357
#     4  11  22  39  59  90 124 153 198 248 300 348
#     4   9  19  36  63  83 114 162 201 232 293 358
#
# _framework density 19.567311
#
# number of rings (size 3 to 8) (size 9 to 14) (size 15 to 20)
#    0.500    1.667    1.667    1.000    3.500    3.333 
#    0.000    0.833    0.000    0.000    0.000    0.000 
#    0.000    0.000    0.000    0.000    0.000    0.000 
#
# Total GULP energy -297463.866708 kJ/mol
# GULP energy per Si atom -12394.327780 kJ/mol
# Density = 1.952277 g / cm^3
# Si number density = 19.567311 Si / 1000 Ang^3
#
#
#
# Elastic Constant Matrix: (Units=GPa)
#
#
# Indices 1 2 3 4 5 6 
#
# 1 86.6714 19.1984 14.5707 0.0000 -9.3683 0.0000
# 2 19.1984 49.7267 23.0063 0.0000 1.2821 0.0000
# 3 14.5707 23.0063 96.5169 0.0000 -5.9974 0.0000
# 4 0.0000 0.0000 0.0000 26.7736 0.0000 5.4228
# 5 -9.3683 1.2821 -5.9974 0.0000 35.1339 0.0000
# 6 0.0000 0.0000 0.0000 5.4228 0.0000 14.4890
#
#
#
# Elastic Compliance Matrix: (Units=1/GPa)
#
#
# Indices 1 2 3 4 5 6 
#
# 1 0.013104 -0.004876 -0.000594 0.000000 0.003571 0.000000
# 2 -0.004876 0.024526 -0.005303 0.000000 -0.003100 0.000000
# 3 -0.000594 -0.005303 0.011842 0.000000 0.002057 0.000000
# 4 0.000000 0.000000 0.000000 0.040414 0.000000 -0.015126
# 5 0.003571 -0.003100 0.002057 0.000000 0.029879 0.000000
# 6 0.000000 0.000000 0.000000 -0.015126 0.000000 0.074679
#
#
# Mechanical properties :
#
#
# Convention : Reuss Voigt Hill
#
# Bulk Modulus (GPa) = 35.80892 38.49620 37.15256
# Shear Modulus (GPa) = 22.19282 27.02193 24.60738
#
# Velocity S-wave (km/s) = 3.37141 3.72018 3.55008
# Velocity P-wave (km/s) = 5.78751 6.17814 5.98601
#
# Compressibility (1/GPa) = 0.02792600
#
# Stress axis : x y z
#
# Youngs Moduli (GPa) = 76.31387 40.77346 84.44307
#
# Poissons Ratio (x) = 0.19882 0.05016
# Poissons Ratio (y) = 0.37213 0.44777
# Poissons Ratio (z) = 0.04533 0.21620
#
# Static dielectric constant tensor:
#      x y z
#    x 3.818400 0.000000 -0.227140 
#    y 0.000000 3.181540 0.000000 
#    z -0.227140 0.000000 3.642910 
# 
# 
# High freq. dielectric constant tensor:
#      x y z
#    x 1.771460 0.000000 -0.014750 
#    y 0.000000 1.728500 0.000000 
#    z -0.014750 0.000000 1.769620 
# 
# From -- ./inp_files/231384.got.cif
#   From: 2010.06.25/outbox.cif.g09.slc.cpg/sg15_116_cif.got.tgz:231384.got - 2010.06.28 07:06:18.
