data_PCOD8135615
_publ_section_title
;
Structure prediction by ZEFSAII (Michael W. Deem and Ramdas Pophale) SiO2 
 PCOD8135615
Probable space group: C 2/C
;
_chemical_formula_sum "Si O2"
_cell_formula_units_Z 48
_cell_length_a 26.921461
_cell_length_b 9.732599
_cell_length_c 16.409893
_cell_angle_alpha 90.000000
_cell_angle_beta 36.291615
_cell_angle_gamma 90.000000
_cell_volume 2544.942902
_symmetry_space_group_name_H-M "C 2/C"
_symmetry_group_IT_number 15
_symmetry_cell_setting 'monoclinic'
loop_
_space_group_symop_operation_xyz
x,y,z
-x,y,1/2-z
-x,-y,-z
x,-y,1/2+z
1/2+x,1/2+y,z
1/2-x,1/2+y,1/2-z
1/2-x,1/2-y,-z
1/2+x,1/2-y,1/2+z
loop_
_atom_site_type_symbol
_atom_site_label
_atom_site_fract_x
_atom_site_fract_y
_atom_site_fract_z
Si Si1 0.500000 0.867743 0.750000
Si Si2 0.164638 0.792775 0.462301
Si Si3 0.186434 0.802206 0.246020
Si Si4 0.083484 0.865979 0.232693
Si Si5 0.000000 0.905809 0.750000
Si Si6 0.326292 0.008226 0.498253
Si Si7 0.251551 0.451493 0.571598
O O1 0.467685 0.772327 0.718693
O O2 0.575260 0.962612 0.616971
O O3 0.153780 0.809268 0.380518
O O4 0.074904 0.808570 0.623490
O O5 0.199357 0.643393 0.438674
O O6 0.229954 0.904510 0.409470
O O7 0.113278 0.867625 0.286664
O O8 0.202082 0.644485 0.200083
O O9 0.272153 0.887141 0.123692
O O10 0.164022 0.871763 0.066377
O O11 0.025700 0.998606 0.292781
O O12 0.307043 0.022762 0.428295
#
# Coordination Sequence:
#
# PCOD8135615 Si02
#       7
#     4   8   8   8   4   8   8
#     4  11  17  34  62  84 108 150 192 232 270 342
#     4  11  23  36  58  84 122 144 186 240 292 333
#     4  11  20  38  60  88 110 148 196 241 271 336
#     4   9  18  35  62  82 109 150 198 225 274 340
#     4   9  21  38  56  84 116 160 182 226 290 344
#     4  11  21  36  61  84 112 154 190 229 285 339
#     4  10  19  39  59  83 113 152 194 227 279 349
#
# _framework density 18.860932999999999
#
# number of rings (size 3 to 8) (size 9 to 14) (size 15 to 20)
#    0.000    1.667    3.333    3.000    0.000    0.667 
#    0.000    0.833    3.667    0.000    0.000    0.000 
#    0.000    0.000    0.000    0.000    0.000    0.000 
#
# Total GULP energy -297700.060319 kJ/mol
# GULP energy per Si atom -12404.169180 kJ/mol
# Density = 1.881801 g / cm^3
# Si number density = 18.860933 Si / 1000 Ang^3
#
#
#
# Elastic Constant Matrix: (Units=GPa)
#
#
# Indices 1 2 3 4 5 6 
#
# 1 83.3082 44.2365 37.8625 0.0009 -4.0486 -0.0002
# 2 44.2365 109.8982 32.6094 0.0032 5.8443 -0.0008
# 3 37.8625 32.6094 47.0684 0.0051 4.1595 -0.0014
# 4 0.0009 0.0032 0.0051 9.1784 -0.0024 6.7361
# 5 -4.0486 5.8443 4.1595 -0.0024 31.5118 0.0006
# 6 -0.0002 -0.0008 -0.0014 6.7361 0.0006 27.2102
#
#
#
# Elastic Compliance Matrix: (Units=1/GPa)
#
#
# Indices 1 2 3 4 5 6 
#
# 1 0.021243 -0.004567 -0.014409 0.000012 0.005478 -0.000004
# 2 -0.004567 0.012473 -0.004767 -0.000002 -0.002271 0.000001
# 3 -0.014409 -0.004767 0.036652 -0.000025 -0.005805 0.000008
# 4 0.000012 -0.000002 -0.000025 0.133142 0.000016 -0.032960
# 5 0.005478 -0.002271 -0.005805 0.000016 0.033625 -0.000005
# 6 -0.000004 0.000001 0.000008 -0.032960 -0.000005 0.044910
#
#
# Mechanical properties :
#
#
# Convention : Reuss Voigt Hill
#
# Bulk Modulus (GPa) = 43.70043 52.18797 47.94420
# Shear Modulus (GPa) = 14.82983 21.95115 18.39049
#
# Velocity S-wave (km/s) = 2.80710 3.41521 3.12598
# Velocity P-wave (km/s) = 5.80745 6.57887 6.20516
#
# Compressibility (1/GPa) = 0.02288307
#
# Stress axis : x y z
#
# Youngs Moduli (GPa) = 47.07346 80.17427 27.28378
#
# Poissons Ratio (x) = 0.36615 0.39312
# Poissons Ratio (y) = 0.21498 0.13006
# Poissons Ratio (z) = 0.67826 0.38219
#
# Static dielectric constant tensor:
#      x y z
#    x 3.510900 0.000000 -0.173020 
#    y 0.000000 3.528590 0.000000 
#    z -0.173020 0.000000 3.207660 
# 
# 
# High freq. dielectric constant tensor:
#      x y z
#    x 1.734790 0.000000 -0.013600 
#    y 0.000000 1.743480 0.000000 
#    z -0.013600 0.000000 1.708710 
# 
# From -- ./inp_files/176928.got.cif
#   From: 2010.06.25/outbox.cif.g09.slc.cpg/sg15_89_cif.got.tgz:176928.got - 2010.06.28 07:06:18.
