data_PCOD8135589
_publ_section_title
;
Structure prediction by ZEFSAII (Michael W. Deem and Ramdas Pophale) SiO2 
 PCOD8135589
Probable space group: C 2/C
;
_chemical_formula_sum "Si O2"
_cell_formula_units_Z 56
_cell_length_a 22.146524
_cell_length_b 15.571476
_cell_length_c 7.666854
_cell_angle_alpha 90.000000
_cell_angle_beta 85.060324
_cell_angle_gamma 90.000000
_cell_volume 2634.125925
_symmetry_space_group_name_H-M "C 2/C"
_symmetry_group_IT_number 15
_symmetry_cell_setting 'monoclinic'
loop_
_space_group_symop_operation_xyz
x,y,z
-x,y,1/2-z
-x,-y,-z
x,-y,1/2+z
1/2+x,1/2+y,z
1/2-x,1/2+y,1/2-z
1/2-x,1/2-y,-z
1/2+x,1/2-y,1/2+z
loop_
_atom_site_type_symbol
_atom_site_label
_atom_site_fract_x
_atom_site_fract_y
_atom_site_fract_z
Si Si1 0.828933 0.109579 0.807659
Si Si2 0.061806 0.608788 0.539879
Si Si3 0.806014 0.627083 0.616800
Si Si4 0.185961 0.448607 0.009662
Si Si5 0.500000 0.026487 0.250000
Si Si6 0.117782 0.799659 0.897810
Si Si7 0.500000 0.745587 0.250000
Si Si8 0.818177 0.915348 0.906062
O O1 0.764907 0.152698 0.884696
O O2 0.838029 0.115927 0.595772
O O3 0.839153 0.012131 0.866835
O O4 0.878452 0.162705 0.906628
O O5 0.128960 0.603197 0.442014
O O6 0.056772 0.536509 0.694035
O O7 0.046753 0.701431 0.619184
O O8 0.011857 0.588545 0.407956
O O9 0.822475 0.551968 0.475959
O O10 0.854394 0.703736 0.600346
O O11 0.809555 0.576028 0.793287
O O12 0.245745 0.415107 0.896299
O O13 0.046350 0.806448 0.862777
O O14 0.155277 0.852599 0.745473
#
# Coordination Sequence:
#
# PCOD8135589 Si02
#       8
#     8   8   8   8   4   8   4   8
#     4  10  21  43  71  99 129 167 211 272 347 393
#     4  10  19  39  55  86 128 171 219 253 310 379
#     4  10  22  38  61 102 131 168 208 264 319 398
#     4  10  20  37  63  93 133 168 209 254 330 397
#     4   9  20  30  60  80 117 182 220 241 292 396
#     4  12  24  46  65  95 137 168 225 276 322 384
#     4  11  26  44  56  86 133 176 214 289 308 364
#     4  10  22  42  72  99 126 168 212 278 342 393
#
# _framework density 21.259425
#
# number of rings (size 3 to 8) (size 9 to 14) (size 15 to 20)
#    0.000    1.714    2.857    1.286    6.000    2.286 
#    5.143    0.714    0.000    0.000    0.000    0.000 
#    0.000    0.000    0.000    0.000    0.000    0.000 
#
# Total GULP energy -346971.586110 kJ/mol
# GULP energy per Si atom -12391.842361 kJ/mol
# Density = 2.121104 g / cm^3
# Si number density = 21.259425 Si / 1000 Ang^3
#
#
#
# Elastic Constant Matrix: (Units=GPa)
#
#
# Indices 1 2 3 4 5 6 
#
# 1 103.1939 42.4454 26.0799 0.0000 23.8124 0.0000
# 2 42.4454 82.9831 28.5386 0.0000 4.9786 0.0000
# 3 26.0799 28.5386 65.6192 0.0000 2.6751 0.0000
# 4 0.0000 0.0000 0.0000 19.0772 0.0000 -4.3604
# 5 23.8124 4.9786 2.6751 0.0000 22.2054 0.0000
# 6 0.0000 0.0000 0.0000 -4.3604 0.0000 1.3297
#
#
#
# Elastic Compliance Matrix: (Units=1/GPa)
#
#
# Indices 1 2 3 4 5 6 
#
# 1 0.016994 -0.006606 -0.003215 0.000000 -0.016356 0.000000
# 2 -0.006606 0.016871 -0.004871 0.000000 0.003888 0.000000
# 3 -0.003215 -0.004871 0.018541 0.000000 0.002306 0.000000
# 4 0.000000 0.000000 0.000000 0.209301 0.000000 0.686373
# 5 -0.016356 0.003888 0.002306 0.000000 0.061424 0.000000
# 6 0.000000 0.000000 0.000000 0.686373 0.000000 3.002936
#
#
# Mechanical properties :
#
#
# Convention : Reuss Voigt Hill
#
# Bulk Modulus (GPa) = 43.43100 49.54711 46.48906
# Shear Modulus (GPa) = 1.48671 18.83795 10.16233
#
# Velocity S-wave (km/s) = 0.83716 2.97997 2.18873
# Velocity P-wave (km/s) = 4.62686 5.93269 5.32000
#
# Compressibility (1/GPa) = 0.02302503
#
# Stress axis : x y z
#
# Youngs Moduli (GPa) = 58.84429 59.27275 53.93350
#
# Poissons Ratio (x) = 0.39153 0.17337
# Poissons Ratio (y) = 0.38870 0.26269
# Poissons Ratio (z) = 0.18916 0.28870
#
# Static dielectric constant tensor:
#      x y z
#    x 4.676400 0.000000 0.120660 
#    y 0.000000 3.798670 0.000000 
#    z 0.120660 0.000000 3.996210 
# 
# 
# High freq. dielectric constant tensor:
#      x y z
#    x 1.822310 0.000000 0.017460 
#    y 0.000000 1.815740 0.000000 
#    z 0.017460 0.000000 1.839260 
# 
# From -- ./inp_files/55676.got.cif
#   From: 2010.06.25/outbox.cif.g09.slc.cpg/sg15_28_cif.got.tgz:55676.got - 2010.06.28 07:06:18.
