data_PCOD8135730
_publ_section_title
;
Structure prediction by ZEFSAII (Michael W. Deem and Ramdas Pophale) SiO2 
 PCOD8135730
Probable space group: C 2/C
;
_chemical_formula_sum "Si O2"
_cell_formula_units_Z 56
_cell_length_a 8.765953
_cell_length_b 23.529877
_cell_length_c 17.726024
_cell_angle_alpha 90.000000
_cell_angle_beta 48.821413
_cell_angle_gamma 90.000000
_cell_volume 2751.880408
_symmetry_space_group_name_H-M "C 2/C"
_symmetry_group_IT_number 15
_symmetry_cell_setting 'monoclinic'
loop_
_space_group_symop_operation_xyz
x,y,z
-x,y,1/2-z
-x,-y,-z
x,-y,1/2+z
1/2+x,1/2+y,z
1/2-x,1/2+y,1/2-z
1/2-x,1/2-y,-z
1/2+x,1/2-y,1/2+z
loop_
_atom_site_type_symbol
_atom_site_label
_atom_site_fract_x
_atom_site_fract_y
_atom_site_fract_z
Si Si1 0.852985 0.238531 0.228289
Si Si2 0.543107 0.552129 0.147790
Si Si3 0.009692 0.190528 0.611487
Si Si4 0.607916 0.425266 0.135015
Si Si5 0.912243 0.729764 0.547647
Si Si6 0.660634 0.880879 0.762767
Si Si7 0.550456 0.890995 0.964219
O O1 0.714416 0.292906 0.290277
O O2 0.974506 0.253881 0.112540
O O3 0.714256 0.184253 0.259965
O O4 0.000000 0.225739 0.250000
O O5 0.500000 0.556963 0.250000
O O6 0.553180 0.486665 0.118668
O O7 0.355611 0.583971 0.169593
O O8 0.752664 0.583568 0.057994
O O9 0.026348 0.122112 0.603066
O O10 0.050809 0.214831 0.515128
O O11 0.174910 0.213396 0.618116
O O12 0.500000 0.415302 0.250000
O O13 0.851332 0.419928 0.065114
O O14 0.050351 0.677215 0.475397
O O15 0.500000 0.885978 0.750000
O O16 0.562982 0.905780 0.871242
#
# Coordination Sequence:
#
# PCOD8135730 Si02
#       7
#     8   8   8   8   8   8   8
#     4  12  24  39  60  91 125 158 204 264 317 372
#     4   9  20  39  62  91 123 164 214 264 305 369
#     4  10  20  37  59  91 123 160 197 248 309 388
#     4  10  20  36  64  94 126 167 212 250 312 381
#     4  10  21  36  62  89 122 159 202 245 317 379
#     4  11  23  40  63  89 122 162 211 265 316 373
#     4  10  19  39  65  94 123 164 210 257 313 379
#
# _framework density 20.349722
#
# number of rings (size 3 to 8) (size 9 to 14) (size 15 to 20)
#    0.000    1.714    1.429    4.714    4.000    0.571 
#    0.000    1.429    0.000    0.000    0.000    0.000 
#    0.000    0.000    0.000    0.000    0.000    0.000 
#
# Total GULP energy -347243.670811 kJ/mol
# GULP energy per Si atom -12401.559672 kJ/mol
# Density = 2.030341 g / cm^3
# Si number density = 20.349722 Si / 1000 Ang^3
#
#
#
# Elastic Constant Matrix: (Units=GPa)
#
#
# Indices 1 2 3 4 5 6 
#
# 1 126.1033 57.1426 51.6908 0.0000 -5.7234 0.0000
# 2 57.1426 116.1602 32.9786 0.0000 -21.5102 0.0000
# 3 51.6908 32.9786 103.2636 0.0000 -14.6674 0.0000
# 4 0.0000 0.0000 0.0000 30.0116 0.0000 -7.0003
# 5 -5.7234 -21.5102 -14.6674 0.0000 35.6013 0.0000
# 6 0.0000 0.0000 0.0000 -7.0003 0.0000 24.2648
#
#
#
# Elastic Compliance Matrix: (Units=1/GPa)
#
#
# Indices 1 2 3 4 5 6 
#
# 1 0.012125 -0.005171 -0.004870 0.000000 -0.003181 0.000000
# 2 -0.005171 0.012496 -0.000476 0.000000 0.006522 0.000000
# 3 -0.004870 -0.000476 0.012875 0.000000 0.004234 0.000000
# 4 0.000000 0.000000 0.000000 0.035724 0.000000 0.010306
# 5 -0.003181 0.006522 0.004234 0.000000 0.033263 0.000000
# 6 0.000000 0.000000 0.000000 0.010306 0.000000 0.044185
#
#
# Mechanical properties :
#
#
# Convention : Reuss Voigt Hill
#
# Bulk Modulus (GPa) = 60.74535 69.90566 65.32551
# Shear Modulus (GPa) = 28.21848 31.55655 29.88752
#
# Velocity S-wave (km/s) = 3.72785 3.94218 3.83651
# Velocity P-wave (km/s) = 6.96022 7.42615 7.19696
#
# Compressibility (1/GPa) = 0.01646217
#
# Stress axis : x y z
#
# Youngs Moduli (GPa) = 82.47341 80.02867 77.67016
#
# Poissons Ratio (x) = 0.41385 0.37824
# Poissons Ratio (y) = 0.42649 0.03694
# Poissons Ratio (z) = 0.40163 0.03806
#
# Static dielectric constant tensor:
#      x y z
#    x 3.502560 0.000000 -0.175340 
#    y 0.000000 3.813480 0.000000 
#    z -0.175340 0.000000 3.740610 
# 
# 
# High freq. dielectric constant tensor:
#      x y z
#    x 1.770300 0.000000 -0.017940 
#    y 0.000000 1.796160 0.000000 
#    z -0.017940 0.000000 1.798890 
# 
# From -- ./inp_files/137280.got.cif
#   From: 2010.06.25/outbox.cif.g09.slc.cpg/sg15_69_cif.got.tgz:137280.got - 2010.06.28 07:06:18.
