data_PCOD8135619
_publ_section_title
;
Structure prediction by ZEFSAII (Michael W. Deem and Ramdas Pophale) SiO2 
 PCOD8135619
Probable space group: C 2/C
;
_chemical_formula_sum "Si O2"
_cell_formula_units_Z 60
_cell_length_a 20.266263
_cell_length_b 9.072462
_cell_length_c 17.684743
_cell_angle_alpha 90.000000
_cell_angle_beta 102.120082
_cell_angle_gamma 90.000000
_cell_volume 3179.124322
_symmetry_space_group_name_H-M "C 2/C"
_symmetry_group_IT_number 15
_symmetry_cell_setting 'monoclinic'
loop_
_space_group_symop_operation_xyz
x,y,z
-x,y,1/2-z
-x,-y,-z
x,-y,1/2+z
1/2+x,1/2+y,z
1/2-x,1/2+y,1/2-z
1/2-x,1/2-y,-z
1/2+x,1/2-y,1/2+z
loop_
_atom_site_type_symbol
_atom_site_label
_atom_site_fract_x
_atom_site_fract_y
_atom_site_fract_z
Si Si1 0.205343 0.799377 0.675351
Si Si2 0.559911 0.600180 0.113934
Si Si3 0.386493 0.600790 0.618375
Si Si4 0.241116 0.017993 0.328121
Si Si5 0.808518 0.652292 0.479271
Si Si6 0.297163 0.851332 0.562486
Si Si7 0.429163 0.627908 0.003880
Si Si8 0.000000 0.008127 0.750000
O O1 0.129223 0.808860 0.625489
O O2 0.210591 0.886773 0.754047
O O3 0.222819 0.628889 0.693799
O O4 0.257317 0.877917 0.630825
O O5 0.503139 0.682708 0.049161
O O6 0.535745 0.593189 0.195250
O O7 0.570076 0.434265 0.081935
O O8 0.319286 0.521240 0.630653
O O9 0.368292 0.768643 0.592831
O O10 0.410295 0.511962 0.551188
O O11 0.443529 0.609123 0.696710
O O12 0.294214 0.115159 0.388335
O O13 0.750000 0.750000 0.500000
O O14 0.815233 0.504680 0.529169
O O15 0.878997 0.736808 0.500199
O O16 0.250000 0.750000 0.500000
#
# Coordination Sequence:
#
# PCOD8135619 Si02
#       8
#     8   8   8   8   8   8   8   4
#     4  11  23  39  60  87 127 157 199 249 306 363
#     4  10  21  39  61  88 115 163 201 248 294 359
#     4  10  19  39  59  90 117 157 200 239 305 353
#     4  11  24  36  60  91 122 159 195 247 309 354
#     4  12  22  38  63  94 121 155 207 251 298 360
#     4  11  21  38  63  90 122 157 192 252 309 354
#     4  10  22  36  65  88 117 156 207 243 293 357
#     4  10  20  36  66  82 116 158 204 244 284 374
#
# _framework density 18.873123
#
# number of rings (size 3 to 8) (size 9 to 14) (size 15 to 20)
#    0.000    1.333    5.333    1.600    3.733    0.000 
#    0.000    0.667    5.867    0.000    0.000    0.000 
#    0.000    0.000    0.000    0.000    0.000    0.000 
#
# Total GULP energy -372019.841493 kJ/mol
# GULP energy per Si atom -12400.661383 kJ/mol
# Density = 1.883017 g / cm^3
# Si number density = 18.873123 Si / 1000 Ang^3
#
#
#
# Elastic Constant Matrix: (Units=GPa)
#
#
# Indices 1 2 3 4 5 6 
#
# 1 98.4195 47.3265 19.7231 0.0000 24.3176 0.0000
# 2 47.3265 95.9491 32.2405 0.0000 11.3871 0.0000
# 3 19.7231 32.2405 77.9764 0.0000 7.5841 0.0000
# 4 0.0000 0.0000 0.0000 26.3418 0.0000 1.2434
# 5 24.3176 11.3871 7.5841 0.0000 36.6062 0.0000
# 6 0.0000 0.0000 0.0000 1.2434 0.0000 35.0001
#
#
#
# Elastic Compliance Matrix: (Units=1/GPa)
#
#
# Indices 1 2 3 4 5 6 
#
# 1 0.015360 -0.006473 -0.000420 0.000000 -0.008103 0.000000
# 2 -0.006473 0.015116 -0.004668 0.000000 0.000565 0.000000
# 3 -0.000420 -0.004668 0.014994 0.000000 -0.001375 0.000000
# 4 0.000000 0.000000 0.000000 0.038026 0.000000 -0.001351
# 5 -0.008103 0.000565 -0.001375 0.000000 0.032810 0.000000
# 6 0.000000 0.000000 0.000000 -0.001351 0.000000 0.028619
#
#
# Mechanical properties :
#
#
# Convention : Reuss Voigt Hill
#
# Bulk Modulus (GPa) = 44.74737 52.32501 48.53619
# Shear Modulus (GPa) = 28.49040 31.12662 29.80851
#
# Velocity S-wave (km/s) = 3.88954 4.06551 3.97850
# Velocity P-wave (km/s) = 6.62815 7.05851 6.84672
#
# Compressibility (1/GPa) = 0.02234768
#
# Stress axis : x y z
#
# Youngs Moduli (GPa) = 65.10595 66.15314 66.69123
#
# Poissons Ratio (x) = 0.42822 0.02804
# Poissons Ratio (y) = 0.42144 0.31130
# Poissons Ratio (z) = 0.02738 0.30879
#
# Static dielectric constant tensor:
#      x y z
#    x 3.709630 0.000000 0.064590 
#    y 0.000000 2.155150 0.000000 
#    z 0.064590 0.000000 3.725190 
# 
# 
# High freq. dielectric constant tensor:
#      x y z
#    x 1.742970 0.000000 0.001270 
#    y 0.000000 1.706560 0.000000 
#    z 0.001270 0.000000 1.748720 
# 
# From -- ./inp_files/213883.got.cif
#   From: 2010.06.25/outbox.cif.g09.slc.cpg/sg15_107_cif.got.tgz:213883.got - 2010.06.28 07:06:18.
