data_PCOD8135547
_publ_section_title
;
Structure prediction by ZEFSAII (Michael W. Deem and Ramdas Pophale) SiO2 
 PCOD8135547
Probable space group: C 2/C
;
_chemical_formula_sum "Si O2"
_cell_formula_units_Z 64
_cell_length_a 24.096682
_cell_length_b 15.280764
_cell_length_c 10.663412
_cell_angle_alpha 90.000000
_cell_angle_beta 47.481907
_cell_angle_gamma 90.000000
_cell_volume 2894.034343
_symmetry_space_group_name_H-M "C 2/C"
_symmetry_group_IT_number 15
_symmetry_cell_setting 'monoclinic'
loop_
_space_group_symop_operation_xyz
x,y,z
-x,y,1/2-z
-x,-y,-z
x,-y,1/2+z
1/2+x,1/2+y,z
1/2-x,1/2+y,1/2-z
1/2-x,1/2-y,-z
1/2+x,1/2-y,1/2+z
loop_
_atom_site_type_symbol
_atom_site_label
_atom_site_fract_x
_atom_site_fract_y
_atom_site_fract_z
Si Si1 0.133743 0.008260 0.775402
Si Si2 0.184608 0.180243 0.571856
Si Si3 0.450204 0.012993 0.451236
Si Si4 0.509853 0.425578 0.602652
Si Si5 0.400938 0.172749 0.649817
Si Si6 0.121565 0.660941 0.527237
Si Si7 0.296660 0.333394 0.743948
Si Si8 0.452142 0.739855 0.578075
O O1 0.180502 0.918843 0.710758
O O2 0.057411 0.996500 0.808284
O O3 0.186660 0.088946 0.648088
O O4 0.094698 0.032515 0.968392
O O5 0.250000 0.250000 0.500000
O O6 0.185670 0.150418 0.427515
O O7 0.108767 0.232938 0.718748
O O8 0.500000 0.032885 0.250000
O O9 0.387303 0.087339 0.583998
O O10 0.500000 0.000000 0.500000
O O11 0.397047 0.929853 0.511722
O O12 0.500000 0.378837 0.750000
O O13 0.503449 0.351550 0.506091
O O14 0.411290 0.155894 0.782382
O O15 0.338227 0.246130 0.726547
O O16 0.484734 0.194137 0.471798
O O17 0.209427 0.681001 0.400954
O O18 0.085560 0.737412 0.498458
#
# Coordination Sequence:
#
# PCOD8135547 Si02
#       8
#     8   8   8   8   8   8   8   8
#     4  10  23  41  65 103 138 186 238 297 365 441
#     4  11  25  47  70 105 150 194 245 298 383 450
#     4  12  25  47  77 110 147 200 262 327 385 451
#     4  10  19  38  66  98 132 177 236 296 356 426
#     4  12  26  46  74 110 142 192 260 309 380 456
#     4  12  25  47  70 105 152 192 248 317 384 459
#     4  12  27  46  71 105 150 193 245 310 384 457
#     4  11  22  42  74  97 141 190 241 308 364 444
#
# _framework density 22.114457999999999
#
# number of rings (size 3 to 8) (size 9 to 14) (size 15 to 20)
#    0.000    0.750    5.000    2.250    1.750    2.000 
#    0.000    0.000    0.000    0.000    0.000    0.000 
#    0.000    0.000    0.000    0.000    0.000    0.000 
#
# Total GULP energy -396531.353643 kJ/mol
# GULP energy per Si atom -12391.604801 kJ/mol
# Density = 2.206412 g / cm^3
# Si number density = 22.114458 Si / 1000 Ang^3
#
#
#
# Elastic Constant Matrix: (Units=GPa)
#
#
# Indices 1 2 3 4 5 6 
#
# 1 65.7123 39.8214 19.9842 0.0000 -12.7628 0.0000
# 2 39.8214 138.2875 28.7075 0.0000 -12.3206 0.0000
# 3 19.9842 28.7075 98.9939 0.0000 -3.1239 0.0000
# 4 0.0000 0.0000 0.0000 39.5519 0.0000 -2.6763
# 5 -12.7628 -12.3206 -3.1239 0.0000 39.3716 0.0000
# 6 0.0000 0.0000 0.0000 -2.6763 0.0000 38.1838
#
#
#
# Elastic Compliance Matrix: (Units=1/GPa)
#
#
# Indices 1 2 3 4 5 6 
#
# 1 0.019769 -0.004761 -0.002461 0.000000 0.004723 0.000000
# 2 -0.004761 0.009043 -0.001625 0.000000 0.001158 0.000000
# 3 -0.002461 -0.001625 0.011056 0.000000 -0.000429 0.000000
# 4 0.000000 0.000000 0.000000 0.025404 0.000000 0.001781
# 5 0.004723 0.001158 -0.000429 0.000000 0.027258 0.000000
# 6 0.000000 0.000000 0.000000 0.001781 0.000000 0.026314
#
#
# Mechanical properties :
#
#
# Convention : Reuss Voigt Hill
#
# Bulk Modulus (GPa) = 45.09767 53.33554 49.21661
# Shear Modulus (GPa) = 34.73956 37.72017 36.22987
#
# Velocity S-wave (km/s) = 3.96776 4.13447 4.05197
# Velocity P-wave (km/s) = 6.43645 6.85289 6.64793
#
# Compressibility (1/GPa) = 0.02217409
#
# Stress axis : x y z
#
# Youngs Moduli (GPa) = 50.58491 110.58694 90.44807
#
# Poissons Ratio (x) = 0.52649 0.22260
# Poissons Ratio (y) = 0.24083 0.14695
# Poissons Ratio (z) = 0.12449 0.17967
#
# Static dielectric constant tensor:
#      x y z
#    x 3.820590 0.000000 0.076430 
#    y 0.000000 4.276890 0.000000 
#    z 0.076430 0.000000 4.213740 
# 
# 
# High freq. dielectric constant tensor:
#      x y z
#    x 1.848500 0.000000 0.002400 
#    y 0.000000 1.888270 0.000000 
#    z 0.002400 0.000000 1.882970 
# 
# From -- ./inp_files/123517.got.cif
#   From: 2010.06.25/outbox.cif.g09.slc.cpg/sg15_62_cif.got.tgz:123517.got - 2010.06.28 07:06:18.
