data_PCOD8135579
_publ_section_title
;
Structure prediction by ZEFSAII (Michael W. Deem and Ramdas Pophale) SiO2 
 PCOD8135579
Probable space group: C 2/C
;
_chemical_formula_sum "Si O2"
_cell_formula_units_Z 56
_cell_length_a 9.694733
_cell_length_b 18.319093
_cell_length_c 15.134273
_cell_angle_alpha 90.000000
_cell_angle_beta 81.581876
_cell_angle_gamma 90.000000
_cell_volume 2658.868990
_symmetry_space_group_name_H-M "C 2/C"
_symmetry_group_IT_number 15
_symmetry_cell_setting 'monoclinic'
loop_
_space_group_symop_operation_xyz
x,y,z
-x,y,1/2-z
-x,-y,-z
x,-y,1/2+z
1/2+x,1/2+y,z
1/2-x,1/2+y,1/2-z
1/2-x,1/2-y,-z
1/2+x,1/2-y,1/2+z
loop_
_atom_site_type_symbol
_atom_site_label
_atom_site_fract_x
_atom_site_fract_y
_atom_site_fract_z
Si Si1 0.592961 0.610965 0.657670
Si Si2 0.711610 0.994917 0.433327
Si Si3 0.161605 0.304874 0.066295
Si Si4 0.304006 0.768095 0.896804
Si Si5 0.488717 0.891031 0.946760
Si Si6 0.099909 0.097491 0.983492
Si Si7 0.982609 0.190915 0.155770
O O1 0.500000 0.592318 0.750000
O O2 0.731670 0.559832 0.648314
O O3 0.624585 0.696756 0.651162
O O4 0.520409 0.583326 0.574890
O O5 0.622956 0.949487 0.511523
O O6 0.621854 0.061806 0.397565
O O7 0.840304 0.024443 0.479386
O O8 0.081401 0.263471 0.152811
O O9 0.250000 0.250000 0.000000
O O10 0.275448 0.364268 0.085634
O O11 0.038159 0.341805 0.022948
O O12 0.416927 0.834641 0.884634
O O13 0.178301 0.790692 0.845186
O O14 0.250000 0.750000 0.000000
O O15 0.039361 0.143636 0.070309
O O16 0.000000 0.151987 0.250000
#
# Coordination Sequence:
#
# PCOD8135579 Si02
#       7
#     8   8   8   8   8   8   8
#     4  12  25  40  66  97 133 174 224 276 334 404
#     4  10  21  39  66  92 124 170 220 272 335 404
#     4   9  17  33  57  87 124 161 203 258 321 390
#     4  12  20  41  67  94 130 168 222 277 333 395
#     4  10  19  38  70  92 120 167 220 274 335 395
#     4  10  21  39  61  88 128 174 214 258 334 395
#     4  11  22  35  61  95 129 165 215 273 329 388
#
# _framework density 21.061586999999999
#
# number of rings (size 3 to 8) (size 9 to 14) (size 15 to 20)
#    0.000    1.429    4.286    1.286    2.000    0.571 
#    0.000    0.000    0.000    1.714    0.000    0.000 
#    0.000    0.000    0.000    0.000    0.000    0.000 
#
# Total GULP energy -346964.692445 kJ/mol
# GULP energy per Si atom -12391.596159 kJ/mol
# Density = 2.101365 g / cm^3
# Si number density = 21.061587 Si / 1000 Ang^3
#
#
#
# Elastic Constant Matrix: (Units=GPa)
#
#
# Indices 1 2 3 4 5 6 
#
# 1 109.0940 55.2136 41.7947 0.0000 5.4744 0.0000
# 2 55.2136 123.0557 27.1669 0.0000 -4.3130 0.0000
# 3 41.7947 27.1669 92.9189 0.0000 -2.8263 0.0000
# 4 0.0000 0.0000 0.0000 9.4964 0.0000 1.8267
# 5 5.4744 -4.3130 -2.8263 0.0000 26.0727 0.0000
# 6 0.0000 0.0000 0.0000 1.8267 0.0000 40.5177
#
#
#
# Elastic Compliance Matrix: (Units=1/GPa)
#
#
# Indices 1 2 3 4 5 6 
#
# 1 0.013940 -0.005338 -0.004842 0.000000 -0.004335 0.000000
# 2 -0.005338 0.010767 -0.000661 0.000000 0.002830 0.000000
# 3 -0.004842 -0.000661 0.013204 0.000000 0.002339 0.000000
# 4 0.000000 0.000000 0.000000 0.106224 0.000000 -0.004789
# 5 -0.004335 0.002830 0.002339 0.000000 0.039986 0.000000
# 6 0.000000 0.000000 0.000000 -0.004789 0.000000 0.024896
#
#
# Mechanical properties :
#
#
# Convention : Reuss Voigt Hill
#
# Bulk Modulus (GPa) = 61.61223 63.71323 62.66273
# Shear Modulus (GPa) = 21.17675 28.61026 24.89351
#
# Velocity S-wave (km/s) = 3.17435 3.68966 3.44166
# Velocity P-wave (km/s) = 6.53852 6.96190 6.75353
#
# Compressibility (1/GPa) = 0.01623054
#
# Stress axis : x y z
#
# Youngs Moduli (GPa) = 71.73433 92.88040 75.73406
#
# Poissons Ratio (x) = 0.49579 0.36667
# Poissons Ratio (y) = 0.38291 0.05004
# Poissons Ratio (z) = 0.34730 0.06137
#
# Static dielectric constant tensor:
#      x y z
#    x 4.296710 0.000000 -0.056700 
#    y 0.000000 4.134190 0.000000 
#    z -0.056700 0.000000 3.278860 
# 
# 
# High freq. dielectric constant tensor:
#      x y z
#    x 1.851970 0.000000 -0.004980 
#    y 0.000000 1.840080 0.000000 
#    z -0.004980 0.000000 1.768810 
# 
# From -- ./inp_files/136429.got.cif
#   From: 2010.06.25/outbox.cif.g09.slc.cpg/sg15_69_cif.got.tgz:136429.got - 2010.06.28 07:06:18.
