data_PCOD8135484
_publ_section_title
;
Structure prediction by ZEFSAII (Michael W. Deem and Ramdas Pophale) SiO2 
 PCOD8135484
Probable space group: C 2/C
;
_chemical_formula_sum "Si O2"
_cell_formula_units_Z 48
_cell_length_a 22.868618
_cell_length_b 7.800080
_cell_length_c 16.763729
_cell_angle_alpha 90.000000
_cell_angle_beta 123.949730
_cell_angle_gamma 90.000000
_cell_volume 2480.507781
_symmetry_space_group_name_H-M "C 2/C"
_symmetry_group_IT_number 15
_symmetry_cell_setting 'monoclinic'
loop_
_space_group_symop_operation_xyz
x,y,z
-x,y,1/2-z
-x,-y,-z
x,-y,1/2+z
1/2+x,1/2+y,z
1/2-x,1/2+y,1/2-z
1/2-x,1/2-y,-z
1/2+x,1/2-y,1/2+z
loop_
_atom_site_type_symbol
_atom_site_label
_atom_site_fract_x
_atom_site_fract_y
_atom_site_fract_z
Si Si1 0.329964 0.879824 0.006895
Si Si2 0.980442 0.221811 0.848513
Si Si3 0.536785 0.165206 0.995832
Si Si4 0.886047 0.695552 0.134851
Si Si5 0.174938 0.936794 0.885953
Si Si6 0.962795 0.845705 0.798460
O O1 0.386873 0.880013 0.980064
O O2 0.332343 0.689012 0.044214
O O3 0.340969 0.023976 0.084415
O O4 0.253661 0.920986 0.910204
O O5 0.920735 0.314377 0.749244
O O6 0.054921 0.315194 0.890263
O O7 0.997749 0.031702 0.831662
O O8 0.955471 0.211707 0.921257
O O9 0.481334 0.237943 0.890025
O O10 0.500000 0.000000 0.000000
O O11 0.839717 0.869327 0.095226
O O12 0.121094 0.871300 0.776396
O O13 0.000000 0.755853 0.750000
#
# Coordination Sequence:
#
# PCOD8135484 Si02
#       6
#     8   8   8   8   8   8
#     4  11  22  38  62  88 126 155 203 252 307 363
#     4  10  20  37  62  93 117 155 211 253 300 362
#     4  12  24  35  59  95 124 154 203 257 309 361
#     4  10  19  38  64  87 119 160 207 247 299 362
#     4  10  22  39  62  90 113 165 208 246 302 366
#     4  11  20  40  64  84 120 163 209 253 299 368
#
# _framework density 19.350876
#
# number of rings (size 3 to 8) (size 9 to 14) (size 15 to 20)
#    0.000    1.333    6.667    1.000    2.333    0.000 
#    0.000    3.333    0.000    0.000    0.000    0.000 
#    0.000    0.000    0.000    0.000    0.000    0.000 
#
# Total GULP energy -297511.421326 kJ/mol
# GULP energy per Si atom -12396.309222 kJ/mol
# Density = 1.930683 g / cm^3
# Si number density = 19.350876 Si / 1000 Ang^3
#
#
#
# Elastic Constant Matrix: (Units=GPa)
#
#
# Indices 1 2 3 4 5 6 
#
# 1 117.5529 26.3458 58.5209 0.0000 2.0617 0.0000
# 2 26.3458 67.9463 30.5199 0.0000 0.9758 0.0000
# 3 58.5209 30.5199 112.0246 0.0000 -4.6631 0.0000
# 4 0.0000 0.0000 0.0000 28.4125 0.0000 -3.0211
# 5 2.0617 0.9758 -4.6631 0.0000 40.2380 0.0000
# 6 0.0000 0.0000 0.0000 -3.0211 0.0000 24.8709
#
#
#
# Elastic Compliance Matrix: (Units=1/GPa)
#
#
# Indices 1 2 3 4 5 6 
#
# 1 0.011800 -0.002013 -0.005666 0.000000 -0.001212 0.000000
# 2 -0.002013 0.017148 -0.003651 0.000000 -0.000736 0.000000
# 3 -0.005666 -0.003651 0.012960 0.000000 0.001881 0.000000
# 4 0.000000 0.000000 0.000000 0.035656 0.000000 0.004331
# 5 -0.001212 -0.000736 0.001881 0.000000 0.025150 0.000000
# 6 0.000000 0.000000 0.000000 0.004331 0.000000 0.040734
#
#
# Mechanical properties :
#
#
# Convention : Reuss Voigt Hill
#
# Bulk Modulus (GPa) = 51.95420 58.69968 55.32694
# Shear Modulus (GPa) = 28.98137 30.84678 29.91407
#
# Velocity S-wave (km/s) = 3.87418 3.99692 3.93603
# Velocity P-wave (km/s) = 6.84976 7.19032 7.02210
#
# Compressibility (1/GPa) = 0.01924772
#
# Stress axis : x y z
#
# Youngs Moduli (GPa) = 84.74548 58.31414 77.16243
#
# Poissons Ratio (x) = 0.11737 0.43723
# Poissons Ratio (y) = 0.17057 0.28173
# Poissons Ratio (z) = 0.48020 0.21291
#
# Static dielectric constant tensor:
#      x y z
#    x 3.417700 0.000000 0.406550 
#    y 0.000000 3.659740 0.000000 
#    z 0.406550 0.000000 3.132240 
# 
# 
# High freq. dielectric constant tensor:
#      x y z
#    x 1.737010 0.000000 0.011820 
#    y 0.000000 1.767280 0.000000 
#    z 0.011820 0.000000 1.746350 
# 
# From -- ./inp_files/218380.got.cif
#   From: 2010.06.25/outbox.cif.g09.slc.cpg/sg15_110_cif.got.tgz:218380.got - 2010.06.28 07:06:18.
