data_PCOD8135978
_publ_section_title
;
Structure prediction by ZEFSAII (Michael W. Deem and Ramdas Pophale) SiO2 
 PCOD8135978
Probable space group: C 2/C
;
_chemical_formula_sum "Si O2"
_cell_formula_units_Z 64
_cell_length_a 19.228162
_cell_length_b 11.413882
_cell_length_c 21.360389
_cell_angle_alpha 90.000000
_cell_angle_beta 41.502394
_cell_angle_gamma 90.000000
_cell_volume 3106.457310
_symmetry_space_group_name_H-M "C 2/C"
_symmetry_group_IT_number 15
_symmetry_cell_setting 'monoclinic'
loop_
_space_group_symop_operation_xyz
x,y,z
-x,y,1/2-z
-x,-y,-z
x,-y,1/2+z
1/2+x,1/2+y,z
1/2-x,1/2+y,1/2-z
1/2-x,1/2-y,-z
1/2+x,1/2-y,1/2+z
loop_
_atom_site_type_symbol
_atom_site_label
_atom_site_fract_x
_atom_site_fract_y
_atom_site_fract_z
Si Si1 0.103918 0.718507 0.411330
Si Si2 0.888756 0.934057 0.355851
Si Si3 0.706718 0.144007 0.896005
Si Si4 0.447883 0.953115 0.449042
Si Si5 0.769745 0.385349 0.483762
Si Si6 0.818736 0.503760 0.205269
Si Si7 0.308515 0.443639 0.091286
Si Si8 0.078836 0.152567 0.530044
O O1 0.036455 0.633792 0.502190
O O2 0.188608 0.633702 0.320413
O O3 0.163752 0.809318 0.414678
O O4 0.033654 0.790723 0.409433
O O5 0.820530 0.863413 0.351273
O O6 0.905558 0.851339 0.405440
O O7 0.000000 0.968608 0.250000
O O8 0.823466 0.051884 0.414559
O O9 0.717529 0.100874 0.816893
O O10 0.670325 0.277301 0.931504
O O11 0.615800 0.068307 0.989610
O O12 0.385951 0.897895 0.433223
O O13 0.563327 0.986902 0.349080
O O14 0.750000 0.250000 0.500000
O O15 0.771991 0.439375 0.412572
O O16 0.742628 0.504765 0.314910
O O17 0.411707 0.519362 0.002645
#
# Coordination Sequence:
#
# PCOD8135978 Si02
#       8
#     8   8   8   8   8   8   8   8
#     4  11  21  41  64  91 127 171 207 256 320 375
#     4  10  24  40  62  95 124 166 212 256 323 383
#     4  10  20  41  65  88 125 171 206 252 317 376
#     4  10  19  41  69  85 119 174 211 251 311 383
#     4  10  21  45  64  86 131 167 209 262 317 378
#     4  11  23  39  65  95 124 162 222 257 305 382
#     4  11  26  38  60 101 126 165 209 266 322 367
#     4  11  22  41  64  88 134 164 209 262 319 379
#
# _framework density 20.602246999999998
#
# number of rings (size 3 to 8) (size 9 to 14) (size 15 to 20)
#    0.000    1.500    3.750    1.500    3.500    0.500 
#    2.250    0.000    0.000    0.000    0.000    0.000 
#    0.000    0.000    0.000    0.000    0.000    0.000 
#
# Total GULP energy -396726.562712 kJ/mol
# GULP energy per Si atom -12397.705085 kJ/mol
# Density = 2.055536 g / cm^3
# Si number density = 20.602247 Si / 1000 Ang^3
#
#
#
# Elastic Constant Matrix: (Units=GPa)
#
#
# Indices 1 2 3 4 5 6 
#
# 1 109.5890 10.5033 18.7638 0.0000 5.2264 0.0000
# 2 10.5033 84.3104 8.1937 0.0000 6.8393 0.0000
# 3 18.7638 8.1937 68.1614 0.0000 8.1133 0.0000
# 4 0.0000 0.0000 0.0000 15.0232 0.0000 0.1038
# 5 5.2264 6.8393 8.1133 0.0000 30.2127 0.0000
# 6 0.0000 0.0000 0.0000 0.1038 0.0000 36.3858
#
#
#
# Elastic Compliance Matrix: (Units=1/GPa)
#
#
# Indices 1 2 3 4 5 6 
#
# 1 0.009671 -0.000900 -0.002458 0.000000 -0.000809 0.000000
# 2 -0.000900 0.012257 -0.000944 0.000000 -0.002365 0.000000
# 3 -0.002458 -0.000944 0.015893 0.000000 -0.003629 0.000000
# 4 0.000000 0.000000 0.000000 0.066565 0.000000 -0.000190
# 5 -0.000809 -0.002365 -0.003629 0.000000 0.034749 0.000000
# 6 0.000000 0.000000 0.000000 -0.000190 0.000000 0.027484
#
#
# Mechanical properties :
#
#
# Convention : Reuss Voigt Hill
#
# Bulk Modulus (GPa) = 34.22716 37.44250 35.83483
# Shear Modulus (GPa) = 27.03279 31.29766 29.16522
#
# Velocity S-wave (km/s) = 3.62626 3.90184 3.76657
# Velocity P-wave (km/s) = 5.84657 6.20585 6.02889
#
# Compressibility (1/GPa) = 0.02921657
#
# Stress axis : x y z
#
# Youngs Moduli (GPa) = 103.40536 81.58798 62.92054
#
# Poissons Ratio (x) = 0.07345 0.15464
# Poissons Ratio (y) = 0.09309 0.05940
# Poissons Ratio (z) = 0.25414 0.07702
#
# Static dielectric constant tensor:
#      x y z
#    x 4.067850 0.000000 0.050340 
#    y 0.000000 3.875970 0.000000 
#    z 0.050340 0.000000 3.398450 
# 
# 
# High freq. dielectric constant tensor:
#      x y z
#    x 1.820340 0.000000 0.004810 
#    y 0.000000 1.813330 0.000000 
#    z 0.004810 0.000000 1.778350 
# 
# From -- ./inp_files/279894.got.cif
#   From: 2010.06.25/outbox.cif.g09.slc.cpg/sg15_140_cif.got.tgz:279894.got - 2010.06.28 07:06:18.
