data_PCOD8135492
_publ_section_title
;
Structure prediction by ZEFSAII (Michael W. Deem and Ramdas Pophale) SiO2 
 PCOD8135492
Probable space group: C 2/C
;
_chemical_formula_sum "Si O2"
_cell_formula_units_Z 40
_cell_length_a 13.392929
_cell_length_b 15.501883
_cell_length_c 15.101096
_cell_angle_alpha 90.000000
_cell_angle_beta 40.749197
_cell_angle_gamma 90.000000
_cell_volume 2046.514353
_symmetry_space_group_name_H-M "C 2/C"
_symmetry_group_IT_number 15
_symmetry_cell_setting 'monoclinic'
loop_
_space_group_symop_operation_xyz
x,y,z
-x,y,1/2-z
-x,-y,-z
x,-y,1/2+z
1/2+x,1/2+y,z
1/2-x,1/2+y,1/2-z
1/2-x,1/2-y,-z
1/2+x,1/2-y,1/2+z
loop_
_atom_site_type_symbol
_atom_site_label
_atom_site_fract_x
_atom_site_fract_y
_atom_site_fract_z
Si Si1 0.915532 0.072384 0.506235
Si Si2 0.370174 0.647301 0.268085
Si Si3 0.354291 0.273363 0.160743
Si Si4 0.827617 0.980750 0.391156
Si Si5 0.307634 0.799009 0.047164
O O1 0.831100 0.130218 0.636972
O O2 0.043212 0.136629 0.382462
O O3 0.815107 0.025160 0.497365
O O4 0.000000 0.000000 0.500000
O O5 0.500000 0.676369 0.250000
O O6 0.242783 0.718630 0.343775
O O7 0.287397 0.557425 0.350244
O O8 0.295154 0.272447 0.300476
O O9 0.520524 0.230109 0.049332
O O10 0.708941 0.901982 0.461099
O O11 0.000000 0.948357 0.250000
O O12 0.250000 0.750000 0.000000
#
# Coordination Sequence:
#
# PCOD8135492 Si02
#       5
#     8   8   8   8   8
#     4  10  19  38  64  89 124 172 215 246 328 390
#     4   9  21  40  63  93 127 165 216 263 320 387
#     4  12  23  40  69  94 127 167 217 267 319 387
#     4   9  20  38  62  89 130 169 208 263 322 387
#     4  12  24  41  63  97 128 167 214 269 325 380
#
# _framework density 19.545427
#
# number of rings (size 3 to 8) (size 9 to 14) (size 15 to 20)
#    0.000    2.000    2.000    5.400    0.000    4.000 
#    0.000    0.000    0.000    0.000    0.000    0.000 
#    0.000    0.000    0.000    0.000    0.000    0.000 
#
# Total GULP energy -247805.440683 kJ/mol
# GULP energy per Si atom -12390.272034 kJ/mol
# Density = 1.950094 g / cm^3
# Si number density = 19.545427 Si / 1000 Ang^3
#
#
#
# Elastic Constant Matrix: (Units=GPa)
#
#
# Indices 1 2 3 4 5 6 
#
# 1 103.7760 72.0339 46.3501 -0.0003 0.4386 0.0000
# 2 72.0339 131.4286 41.0959 -0.0002 -3.3902 0.0000
# 3 46.3501 41.0959 101.1538 -0.0005 14.2637 -0.0001
# 4 -0.0003 -0.0002 -0.0005 14.9888 0.0003 -0.7387
# 5 0.4386 -3.3902 14.2637 0.0003 29.5454 0.0000
# 6 0.0000 0.0000 -0.0001 -0.7387 0.0000 38.5739
#
#
#
# Elastic Compliance Matrix: (Units=1/GPa)
#
#
# Indices 1 2 3 4 5 6 
#
# 1 0.017319 -0.007936 -0.004879 0.000000 0.001188 0.000000
# 2 -0.007936 0.012592 -0.001824 0.000000 0.002443 0.000000
# 3 -0.004879 -0.001824 0.013823 0.000000 -0.006810 0.000000
# 4 0.000000 0.000000 0.000000 0.066780 -0.000001 0.001279
# 5 0.001188 0.002443 -0.006810 -0.000001 0.037397 0.000000
# 6 0.000000 0.000000 0.000000 0.001279 0.000000 0.025949
#
#
# Mechanical properties :
#
#
# Convention : Reuss Voigt Hill
#
# Bulk Modulus (GPa) = 69.17676 72.81314 70.99495
# Shear Modulus (GPa) = 24.04375 28.41351 26.22863
#
# Velocity S-wave (km/s) = 3.51115 3.81690 3.66721
# Velocity P-wave (km/s) = 7.20467 7.53387 7.37110
#
# Compressibility (1/GPa) = 0.01445572
#
# Stress axis : x y z
#
# Youngs Moduli (GPa) = 57.74050 79.41852 72.34410
#
# Poissons Ratio (x) = 0.63026 0.35297
# Poissons Ratio (y) = 0.45822 0.13193
# Poissons Ratio (z) = 0.28172 0.14484
#
# Static dielectric constant tensor:
#      x y z
#    x 3.261260 0.000000 0.056210 
#    y 0.000000 3.529280 0.000000 
#    z 0.056210 0.000000 3.670680 
# 
# 
# High freq. dielectric constant tensor:
#      x y z
#    x 1.757690 0.000000 0.030680 
#    y 0.000000 1.772960 0.000000 
#    z 0.030680 0.000000 1.753000 
# 
# From -- ./inp_files/38024.got.cif
#   From: 2010.06.25/outbox.cif.g09.slc.cpg/sg15_20_cif.got.tgz:38024.got - 2010.06.28 07:06:18.
