data_PCOD8135503
_publ_section_title
;
Structure prediction by ZEFSAII (Michael W. Deem and Ramdas Pophale) SiO2 
 PCOD8135503
Probable space group: C 2/C
;
_chemical_formula_sum "Si O2"
_cell_formula_units_Z 44
_cell_length_a 28.526799
_cell_length_b 12.712880
_cell_length_c 17.608839
_cell_angle_alpha 90.000000
_cell_angle_beta 159.708448
_cell_angle_gamma 90.000000
_cell_volume 2214.641815
_symmetry_space_group_name_H-M "C 2/C"
_symmetry_group_IT_number 15
_symmetry_cell_setting 'monoclinic'
loop_
_space_group_symop_operation_xyz
x,y,z
-x,y,1/2-z
-x,-y,-z
x,-y,1/2+z
1/2+x,1/2+y,z
1/2-x,1/2+y,1/2-z
1/2-x,1/2-y,-z
1/2+x,1/2-y,1/2+z
loop_
_atom_site_type_symbol
_atom_site_label
_atom_site_fract_x
_atom_site_fract_y
_atom_site_fract_z
Si Si1 0.600719 0.217629 0.184881
Si Si2 0.324098 0.377430 0.611910
Si Si3 0.000000 0.463194 0.250000
Si Si4 0.427488 0.781710 0.027489
Si Si5 0.203740 0.265016 0.299341
Si Si6 0.225526 0.586398 0.505096
O O1 0.618936 0.180755 0.125943
O O2 0.690353 0.321150 0.329550
O O3 0.643050 0.126688 0.306762
O O4 0.443920 0.243227 0.961222
O O5 0.220348 0.362681 0.383517
O O6 0.257852 0.336209 0.590235
O O7 0.337397 0.502120 0.644678
O O8 0.460384 0.311093 0.804662
O O9 0.030479 0.388967 0.367980
O O10 0.124032 0.538650 0.413690
O O11 0.305097 0.725056 0.883950
#
# Coordination Sequence:
#
# PCOD8135503 Si02
#       6
#     8   8   4   8   8   8
#     4  10  26  42  62  87 140 163 213 253 319 366
#     4  10  19  38  67  90 128 158 207 259 315 360
#     4  12  22  40  72  88 126 166 220 252 324 372
#     4  11  21  41  65 100 122 165 206 271 305 381
#     4  10  19  38  64  94 123 162 207 264 307 374
#     4  11  24  45  59  94 128 178 201 263 308 383
#
# _framework density 19.867771999999999
#
# number of rings (size 3 to 8) (size 9 to 14) (size 15 to 20)
#    0.000    1.455    3.636    2.182    2.545    5.818 
#    0.000    1.818    0.000    0.000    0.000    0.000 
#    0.000    0.000    0.000    0.000    0.000    0.000 
#
# Total GULP energy -272649.756621 kJ/mol
# GULP energy per Si atom -12393.170755 kJ/mol
# Density = 1.982255 g / cm^3
# Si number density = 19.867772 Si / 1000 Ang^3
#
#
#
# Elastic Constant Matrix: (Units=GPa)
#
#
# Indices 1 2 3 4 5 6 
#
# 1 112.0930 59.8516 67.6941 0.0000 3.0303 0.0000
# 2 59.8516 93.4404 30.8928 0.0000 8.8396 0.0000
# 3 67.6941 30.8928 101.9544 0.0000 -0.6636 0.0000
# 4 0.0000 0.0000 0.0000 14.3653 0.0000 4.0456
# 5 3.0303 8.8396 -0.6636 0.0000 36.0083 0.0000
# 6 0.0000 0.0000 0.0000 4.0456 0.0000 20.7920
#
#
#
# Elastic Compliance Matrix: (Units=1/GPa)
#
#
# Indices 1 2 3 4 5 6 
#
# 1 0.020524 -0.009651 -0.010700 0.000000 0.000445 0.000000
# 2 -0.009651 0.016761 0.001308 0.000000 -0.003278 0.000000
# 3 -0.010700 0.001308 0.016522 0.000000 0.000884 0.000000
# 4 0.000000 0.000000 0.000000 0.073648 0.000000 -0.014330
# 5 0.000445 -0.003278 0.000884 0.000000 0.028555 0.000000
# 6 0.000000 0.000000 0.000000 -0.014330 0.000000 0.050884
#
#
# Mechanical properties :
#
#
# Convention : Reuss Voigt Hill
#
# Bulk Modulus (GPa) = 63.60791 69.37386 66.49088
# Shear Modulus (GPa) = 19.98229 24.16972 22.07601
#
# Velocity S-wave (km/s) = 3.17482 3.49166 3.33700
# Velocity P-wave (km/s) = 6.74718 7.15885 6.95606
#
# Compressibility (1/GPa) = 0.01572132
#
# Stress axis : x y z
#
# Youngs Moduli (GPa) = 48.72347 59.66062 60.52419
#
# Poissons Ratio (x) = 0.57577 0.64761
# Poissons Ratio (y) = 0.47022 -0.07914
# Poissons Ratio (z) = 0.52134 -0.07801
#
# Static dielectric constant tensor:
#      x y z
#    x 3.803670 0.000000 -0.037800 
#    y 0.000000 3.496710 0.000000 
#    z -0.037800 0.000000 3.606460 
# 
# 
# High freq. dielectric constant tensor:
#      x y z
#    x 1.785660 0.000000 0.000750 
#    y 0.000000 1.762530 0.000000 
#    z 0.000750 0.000000 1.776070 
# 
# From -- ./inp_files/196444.got.cif
#   From: 2010.06.25/outbox.cif.g09.slc.cpg/sg15_99_cif.got.tgz:196444.got - 2010.06.28 07:06:18.
