data_PCOD8135708
_publ_section_title
;
Structure prediction by ZEFSAII (Michael W. Deem and Ramdas Pophale) SiO2 
 PCOD8135708
Probable space group: C 2/C
;
_chemical_formula_sum "Si O2"
_cell_formula_units_Z 64
_cell_length_a 22.152215
_cell_length_b 18.707880
_cell_length_c 13.890961
_cell_angle_alpha 90.000000
_cell_angle_beta 147.918804
_cell_angle_gamma 90.000000
_cell_volume 3057.504581
_symmetry_space_group_name_H-M "C 2/C"
_symmetry_group_IT_number 15
_symmetry_cell_setting 'monoclinic'
loop_
_space_group_symop_operation_xyz
x,y,z
-x,y,1/2-z
-x,-y,-z
x,-y,1/2+z
1/2+x,1/2+y,z
1/2-x,1/2+y,1/2-z
1/2-x,1/2-y,-z
1/2+x,1/2-y,1/2+z
loop_
_atom_site_type_symbol
_atom_site_label
_atom_site_fract_x
_atom_site_fract_y
_atom_site_fract_z
Si Si1 0.904372 0.173999 0.040038
Si Si2 0.590267 0.664115 0.785340
Si Si3 0.304904 0.907323 0.667614
Si Si4 0.542721 0.026313 0.703463
Si Si5 0.160800 0.353477 0.248693
Si Si6 0.090337 0.059694 0.613938
Si Si7 0.302027 0.985306 0.316614
Si Si8 0.441017 0.777335 0.914718
O O1 0.000000 0.185612 0.250000
O O2 0.786261 0.177496 0.940700
O O3 0.921112 0.099414 0.004957
O O4 0.899228 0.235571 0.952507
O O5 0.500000 0.664576 0.750000
O O6 0.558574 0.608401 0.660462
O O7 0.589379 0.740074 0.728747
O O8 0.713956 0.642499 0.990954
O O9 0.243280 0.965909 0.653786
O O10 0.382248 0.854471 0.835513
O O11 0.383735 0.953176 0.700808
O O12 0.500000 0.041845 0.750000
O O13 0.614957 0.095848 0.771924
O O14 0.426268 0.020224 0.487021
O O15 0.176682 0.402350 0.176576
O O16 0.076772 0.288315 0.109474
O O17 0.215092 0.020208 0.789366
O O18 0.000000 0.000000 0.500000
#
# Coordination Sequence:
#
# PCOD8135708 Si02
#       8
#     8   8   8   8   8   8   8   8
#     4  10  25  43  65  92 128 173 216 261 326 387
#     4  11  25  40  60  97 129 173 220 253 322 393
#     4  11  21  40  62  93 131 163 212 273 321 386
#     4  11  21  36  64 100 122 162 218 272 336 380
#     4  10  21  43  64  88 129 165 211 269 325 375
#     4  10  22  41  65  93 131 166 212 271 326 387
#     4  10  19  39  64  92 125 165 210 272 334 373
#     4  11  23  43  64  91 131 173 215 264 319 385
#
# _framework density 20.932103000000001
#
# number of rings (size 3 to 8) (size 9 to 14) (size 15 to 20)
#    0.000    1.500    2.500    2.625    1.750    6.000 
#    2.250    0.000    0.000    0.000    0.000    0.000 
#    0.000    0.000    0.000    0.000    0.000    0.000 
#
# Total GULP energy -396465.697382 kJ/mol
# GULP energy per Si atom -12389.553043 kJ/mol
# Density = 2.088446 g / cm^3
# Si number density = 20.932103 Si / 1000 Ang^3
#
#
#
# Elastic Constant Matrix: (Units=GPa)
#
#
# Indices 1 2 3 4 5 6 
#
# 1 131.5031 42.8257 37.4019 0.0000 16.8914 0.0000
# 2 42.8257 89.1538 33.6710 0.0000 13.2905 0.0000
# 3 37.4019 33.6710 97.9051 0.0000 13.4646 0.0000
# 4 0.0000 0.0000 0.0000 37.9281 0.0000 9.0519
# 5 16.8914 13.2905 13.4646 0.0000 33.3395 0.0000
# 6 0.0000 0.0000 0.0000 9.0519 0.0000 18.9518
#
#
#
# Elastic Compliance Matrix: (Units=1/GPa)
#
#
# Indices 1 2 3 4 5 6 
#
# 1 0.009678 -0.003441 -0.002147 0.000000 -0.002664 0.000000
# 2 -0.003441 0.014522 -0.003307 0.000000 -0.002710 0.000000
# 3 -0.002147 -0.003307 0.012537 0.000000 -0.002657 0.000000
# 4 0.000000 0.000000 0.000000 0.029758 0.000000 -0.014213
# 5 -0.002664 -0.002710 -0.002657 0.000000 0.033498 0.000000
# 6 0.000000 0.000000 0.000000 -0.014213 0.000000 0.059554
#
#
# Mechanical properties :
#
#
# Convention : Reuss Voigt Hill
#
# Bulk Modulus (GPa) = 52.77970 60.70659 56.74314
# Shear Modulus (GPa) = 27.22519 31.68812 29.45665
#
# Velocity S-wave (km/s) = 3.61036 3.89505 3.75540
# Velocity P-wave (km/s) = 6.53062 7.02091 6.78020
#
# Compressibility (1/GPa) = 0.01894668
#
# Stress axis : x y z
#
# Youngs Moduli (GPa) = 103.32836 68.85900 79.76271
#
# Poissons Ratio (x) = 0.23692 0.17129
# Poissons Ratio (y) = 0.35551 0.26380
# Poissons Ratio (z) = 0.22189 0.22774
#
# Static dielectric constant tensor:
#      x y z
#    x 3.040620 0.000000 0.001450 
#    y 0.000000 3.977450 0.000000 
#    z 0.001450 0.000000 3.513790 
# 
# 
# High freq. dielectric constant tensor:
#      x y z
#    x 1.823250 0.000000 0.014980 
#    y 0.000000 1.823530 0.000000 
#    z 0.014980 0.000000 1.814300 
# 
# From -- ./inp_files/174255.got.cif
#   From: 2010.06.25/outbox.cif.g09.slc.cpg/sg15_88_cif.got.tgz:174255.got - 2010.06.28 07:06:18.
