data_PCOD8135021
_publ_section_title
;
Structure prediction by ZEFSAII (Michael W. Deem and Ramdas Pophale) SiO2 
 PCOD8135021
Probable space group: C 2/C
;
_chemical_formula_sum "Si O2"
_cell_formula_units_Z 64
_cell_length_a 25.893266
_cell_length_b 12.023090
_cell_length_c 15.463555
_cell_angle_alpha 90.000000
_cell_angle_beta 139.904385
_cell_angle_gamma 90.000000
_cell_volume 3100.573506
_symmetry_space_group_name_H-M "C 2/C"
_symmetry_group_IT_number 15
_symmetry_cell_setting 'monoclinic'
loop_
_space_group_symop_operation_xyz
x,y,z
-x,y,1/2-z
-x,-y,-z
x,-y,1/2+z
1/2+x,1/2+y,z
1/2-x,1/2+y,1/2-z
1/2-x,1/2-y,-z
1/2+x,1/2-y,1/2+z
loop_
_atom_site_type_symbol
_atom_site_label
_atom_site_fract_x
_atom_site_fract_y
_atom_site_fract_z
Si Si1 0.689552 0.547327 0.085308
Si Si2 0.653974 0.224928 0.463583
Si Si3 0.588186 0.001633 0.895934
Si Si4 0.171168 0.648031 0.141320
Si Si5 0.905917 0.010062 0.381893
Si Si6 0.659624 0.700349 0.783937
Si Si7 0.695877 0.290890 0.809856
Si Si8 0.717274 0.082871 0.931202
O O1 0.771632 0.554677 0.244886
O O2 0.626717 0.477645 0.063586
O O3 0.716842 0.494470 0.030615
O O4 0.645554 0.664413 0.009937
O O5 0.625258 0.246661 0.328114
O O6 0.745627 0.186402 0.585900
O O7 0.598063 0.128517 0.434359
O O8 0.500000 0.029962 0.750000
O O9 0.650323 0.013994 0.896090
O O10 0.605441 0.085022 0.998002
O O11 0.131904 0.721622 0.167633
O O12 0.228790 0.726511 0.157912
O O13 0.876406 0.136369 0.323486
O O14 0.872893 0.923871 0.269393
O O15 0.000000 0.000000 0.500000
O O16 0.670294 0.166000 0.804643
O O17 0.725558 0.351225 0.932701
#
# Coordination Sequence:
#
# PCOD8135021 Si02
#       8
#     8   8   8   8   8   8   8   8
#     4  10  20  37  62  84 107 151 201 242 289 348
#     4  10  20  37  61  85 112 153 203 248 291 351
#     4  11  23  37  55  86 124 154 189 245 307 363
#     4   9  19  35  58  84 109 150 199 243 288 343
#     4  11  23  36  54  87 124 150 182 240 304 361
#     4  10  19  37  62  84 112 154 205 247 288 352
#     4   9  19  35  56  81 109 147 196 242 284 340
#     4  10  19  37  60  79 105 148 200 241 280 345
#
# _framework density 20.641342999999999
#
# number of rings (size 3 to 8) (size 9 to 14) (size 15 to 20)
#    0.000    2.000    0.000    6.000    0.000    4.000 
#    0.000    4.375    0.000    0.000    0.000    0.000 
#    0.000    0.000    0.000    0.000    0.000    0.000 
#
# Total GULP energy -396633.885152 kJ/mol
# GULP energy per Si atom -12394.808911 kJ/mol
# Density = 2.059436 g / cm^3
# Si number density = 20.641343 Si / 1000 Ang^3
#
#
#
# Elastic Constant Matrix: (Units=GPa)
#
#
# Indices 1 2 3 4 5 6 
#
# 1 66.0628 21.4216 38.1039 0.0000 -6.2372 0.0000
# 2 21.4216 83.0999 37.0214 0.0000 -0.0587 0.0000
# 3 38.1039 37.0214 93.3335 0.0000 -7.5474 0.0000
# 4 0.0000 0.0000 0.0000 27.7771 0.0000 -5.1218
# 5 -6.2372 -0.0587 -7.5474 0.0000 27.4298 0.0000
# 6 0.0000 0.0000 0.0000 -5.1218 0.0000 20.7370
#
#
#
# Elastic Compliance Matrix: (Units=1/GPa)
#
#
# Indices 1 2 3 4 5 6 
#
# 1 0.020208 -0.001974 -0.007257 0.000000 0.002594 0.000000
# 2 -0.001974 0.014878 -0.005246 0.000000 -0.001861 0.000000
# 3 -0.007257 -0.005246 0.015979 0.000000 0.002735 0.000000
# 4 0.000000 0.000000 0.000000 0.037719 0.000000 0.009316
# 5 0.002594 -0.001861 0.002735 0.000000 0.037795 0.000000
# 6 0.000000 0.000000 0.000000 0.009316 0.000000 0.050524
#
#
# Mechanical properties :
#
#
# Convention : Reuss Voigt Hill
#
# Bulk Modulus (GPa) = 45.22732 48.39888 46.81310
# Shear Modulus (GPa) = 23.42704 24.91874 24.17289
#
# Velocity S-wave (km/s) = 3.37257 3.47828 3.42583
# Velocity P-wave (km/s) = 6.09296 6.29521 6.19491
#
# Compressibility (1/GPa) = 0.02211053
#
# Stress axis : x y z
#
# Youngs Moduli (GPa) = 49.48535 67.21112 62.58169
#
# Poissons Ratio (x) = 0.13270 0.45416
# Poissons Ratio (y) = 0.09770 0.32831
# Poissons Ratio (z) = 0.35912 0.35260
#
# Static dielectric constant tensor:
#      x y z
#    x 3.761770 0.000000 -0.454910 
#    y 0.000000 3.928960 0.000000 
#    z -0.454910 0.000000 3.716340 
# 
# 
# High freq. dielectric constant tensor:
#      x y z
#    x 1.789870 0.000000 -0.032260 
#    y 0.000000 1.812830 0.000000 
#    z -0.032260 0.000000 1.792240 
# 
# From -- ./inp_files/177837.got.cif
#   From: 2010.06.25/outbox.cif.g09.slc.cpg/sg15_89_cif.got.tgz:177837.got - 2010.06.28 07:06:18.
