data_PCOD8135483
_publ_section_title
;
Structure prediction by ZEFSAII (Michael W. Deem and Ramdas Pophale) SiO2 
 PCOD8135483
Probable space group: C 2/C
;
_chemical_formula_sum "Si O2"
_cell_formula_units_Z 48
_cell_length_a 8.829289
_cell_length_b 16.821768
_cell_length_c 18.931133
_cell_angle_alpha 90.000000
_cell_angle_beta 55.660625
_cell_angle_gamma 90.000000
_cell_volume 2321.677858
_symmetry_space_group_name_H-M "C 2/C"
_symmetry_group_IT_number 15
_symmetry_cell_setting 'monoclinic'
loop_
_space_group_symop_operation_xyz
x,y,z
-x,y,1/2-z
-x,-y,-z
x,-y,1/2+z
1/2+x,1/2+y,z
1/2-x,1/2+y,1/2-z
1/2-x,1/2-y,-z
1/2+x,1/2-y,1/2+z
loop_
_atom_site_type_symbol
_atom_site_label
_atom_site_fract_x
_atom_site_fract_y
_atom_site_fract_z
Si Si1 0.064917 0.267532 0.152745
Si Si2 0.059504 0.337659 0.569650
Si Si3 0.824049 0.030357 0.955224
Si Si4 0.880919 0.221333 0.067989
Si Si5 0.360564 0.400566 0.052758
Si Si6 0.821392 0.104798 0.344882
O O1 0.193294 0.343544 0.115155
O O2 0.163427 0.183259 0.109447
O O3 0.000000 0.263479 0.250000
O O4 0.902563 0.270615 0.135999
O O5 0.174354 0.400614 0.493328
O O6 0.026377 0.266930 0.522572
O O7 0.168131 0.301221 0.608709
O O8 0.869817 0.377963 0.647045
O O9 0.027542 0.070345 0.906804
O O10 0.803609 0.977364 0.891082
O O11 0.780155 0.978028 0.035937
O O12 0.995106 0.139170 0.039866
O O13 0.000000 0.096965 0.250000
#
# Coordination Sequence:
#
# PCOD8135483 Si02
#       6
#     8   8   8   8   8   8
#     4  11  22  38  62  89 122 167 205 247 314 379
#     4  10  21  37  66  94 116 157 216 255 309 363
#     4  10  21  37  63  91 120 157 208 260 303 361
#     4  10  19  38  67  89 117 155 211 263 289 370
#     4  10  19  38  64  87 117 159 211 252 297 369
#     4  11  22  39  60  89 127 164 199 253 320 376
#
# _framework density 20.674703000000001
#
# number of rings (size 3 to 8) (size 9 to 14) (size 15 to 20)
#    0.000    1.667    3.333    2.000    0.000    0.000 
#    6.000    3.333    0.000    0.000    0.000    0.000 
#    0.000    0.000    0.000    0.000    0.000    0.000 
#
# Total GULP energy -297338.347469 kJ/mol
# GULP energy per Si atom -12389.097811 kJ/mol
# Density = 2.062765 g / cm^3
# Si number density = 20.674703 Si / 1000 Ang^3
#
#
#
# Elastic Constant Matrix: (Units=GPa)
#
#
# Indices 1 2 3 4 5 6 
#
# 1 152.0791 40.0617 57.2222 0.0001 -1.4033 -0.0001
# 2 40.0617 96.0898 15.9751 0.0000 -3.0902 0.0000
# 3 57.2222 15.9751 56.0609 0.0000 -1.2333 -0.0001
# 4 0.0001 0.0000 0.0000 20.1365 -0.0001 -3.1329
# 5 -1.4033 -3.0902 -1.2333 -0.0001 26.6458 0.0001
# 6 -0.0001 0.0000 -0.0001 -3.1329 0.0001 35.7663
#
#
#
# Elastic Compliance Matrix: (Units=1/GPa)
#
#
# Indices 1 2 3 4 5 6 
#
# 1 0.011429 -0.002973 -0.010824 0.000000 -0.000244 0.000000
# 2 -0.002973 0.011732 -0.000282 0.000000 0.001191 0.000000
# 3 -0.010824 -0.000282 0.028983 0.000000 0.000739 0.000000
# 4 0.000000 0.000000 0.000000 0.050347 0.000000 0.004410
# 5 -0.000244 0.001191 0.000739 0.000000 0.037689 0.000000
# 6 0.000000 0.000000 0.000000 0.004410 0.000000 0.028346
#
#
# Mechanical properties :
#
#
# Convention : Reuss Voigt Hill
#
# Bulk Modulus (GPa) = 41.69287 58.97198 50.33242
# Shear Modulus (GPa) = 24.42846 29.24109 26.83477
#
# Velocity S-wave (km/s) = 3.44112 3.76485 3.60662
# Velocity P-wave (km/s) = 5.99986 6.89090 6.46076
#
# Compressibility (1/GPa) = 0.02398492
#
# Stress axis : x y z
#
# Youngs Moduli (GPa) = 87.49436 85.23871 34.50334
#
# Poissons Ratio (x) = 0.25345 0.37347
# Poissons Ratio (y) = 0.26016 0.00973
# Poissons Ratio (z) = 0.94705 0.02403
#
# Static dielectric constant tensor:
#      x y z
#    x 4.000050 0.000000 0.015820 
#    y 0.000000 4.049550 0.000000 
#    z 0.015820 0.000000 3.107210 
# 
# 
# High freq. dielectric constant tensor:
#      x y z
#    x 1.825000 0.000000 0.001680 
#    y 0.000000 1.829040 0.000000 
#    z 0.001680 0.000000 1.748550 
# 
# From -- ./inp_files/190246.got.cif
#   From: 2010.06.25/outbox.cif.g09.slc.cpg/sg15_96_cif.got.tgz:190246.got - 2010.06.28 07:06:18.
