data_PCOD8135618
_publ_section_title
;
Structure prediction by ZEFSAII (Michael W. Deem and Ramdas Pophale) SiO2 
 PCOD8135618
Probable space group: C 2/C
;
_chemical_formula_sum "Si O2"
_cell_formula_units_Z 60
_cell_length_a 12.035839
_cell_length_b 15.790382
_cell_length_c 15.416826
_cell_angle_alpha 90.000000
_cell_angle_beta 80.540015
_cell_angle_gamma 90.000000
_cell_volume 2890.129598
_symmetry_space_group_name_H-M "C 2/C"
_symmetry_group_IT_number 15
_symmetry_cell_setting 'monoclinic'
loop_
_space_group_symop_operation_xyz
x,y,z
-x,y,1/2-z
-x,-y,-z
x,-y,1/2+z
1/2+x,1/2+y,z
1/2-x,1/2+y,1/2-z
1/2-x,1/2-y,-z
1/2+x,1/2-y,1/2+z
loop_
_atom_site_type_symbol
_atom_site_label
_atom_site_fract_x
_atom_site_fract_y
_atom_site_fract_z
Si Si1 0.557444 0.140999 0.936176
Si Si2 0.602226 0.934257 0.174071
Si Si3 0.025194 0.131703 0.630840
Si Si4 0.368988 0.883752 0.893072
Si Si5 0.405095 0.538690 0.202173
Si Si6 0.500000 0.225352 0.250000
Si Si7 0.753096 0.919349 0.304325
Si Si8 0.632644 0.327585 0.940099
O O1 0.441354 0.125236 0.898716
O O2 0.655428 0.077356 0.889318
O O3 0.597020 0.236176 0.910759
O O4 0.538127 0.122768 0.041178
O O5 0.500000 0.961643 0.250000
O O6 0.696785 0.885531 0.220295
O O7 0.656639 0.018799 0.125608
O O8 0.957656 0.213718 0.675930
O O9 0.140196 0.133335 0.673975
O O10 0.050875 0.142311 0.526824
O O11 0.952909 0.047433 0.652200
O O12 0.403471 0.835246 0.800954
O O13 0.263728 0.833267 0.950440
O O14 0.500000 0.580673 0.250000
O O15 0.297279 0.514369 0.275835
O O16 0.371828 0.606834 0.137206
#
# Coordination Sequence:
#
# PCOD8135618 Si02
#       8
#     8   8   8   8   8   4   8   8
#     4  11  23  37  62  89 130 163 205 261 314 370
#     4  10  22  39  59  87 127 167 196 255 321 378
#     4  11  21  40  65  91 123 158 206 265 313 365
#     4  12  22  38  63  94 120 161 214 259 309 377
#     4  10  22  38  64  89 124 161 204 258 313 375
#     4  12  22  36  64  92 116 154 208 262 302 360
#     4  10  19  39  59  88 117 164 204 238 317 369
#     4  12  23  39  64  95 119 163 218 259 303 383
#
# _framework density 20.760314000000001
#
# number of rings (size 3 to 8) (size 9 to 14) (size 15 to 20)
#    0.000    1.067    6.667    2.000    0.000    1.600 
#    0.000    0.000    0.000    3.200    0.000    0.000 
#    0.000    0.000    0.000    0.000    0.000    0.000 
#
# Total GULP energy -371746.974190 kJ/mol
# GULP energy per Si atom -12391.565806 kJ/mol
# Density = 2.071306 g / cm^3
# Si number density = 20.760314 Si / 1000 Ang^3
#
#
#
# Elastic Constant Matrix: (Units=GPa)
#
#
# Indices 1 2 3 4 5 6 
#
# 1 53.7125 16.6095 10.3646 0.0000 13.1699 0.0000
# 2 16.6095 92.7974 31.3527 0.0000 3.7234 0.0000
# 3 10.3646 31.3527 92.9663 0.0000 0.1611 0.0000
# 4 0.0000 0.0000 0.0000 26.8528 0.0000 -0.5143
# 5 13.1699 3.7234 0.1611 0.0000 36.2467 0.0000
# 6 0.0000 0.0000 0.0000 -0.5143 0.0000 19.9256
#
#
#
# Elastic Compliance Matrix: (Units=1/GPa)
#
#
# Indices 1 2 3 4 5 6 
#
# 1 0.021697 -0.003123 -0.001353 0.000000 -0.007557 0.000000
# 2 -0.003123 0.012667 -0.003923 0.000000 -0.000149 0.000000
# 3 -0.001353 -0.003923 0.012229 0.000000 0.000840 0.000000
# 4 0.000000 0.000000 0.000000 0.037259 0.000000 0.000962
# 5 -0.007557 -0.000149 0.000840 0.000000 0.030346 0.000000
# 6 0.000000 0.000000 0.000000 0.000962 0.000000 0.050211
#
#
# Mechanical properties :
#
#
# Convention : Reuss Voigt Hill
#
# Bulk Modulus (GPa) = 33.56313 39.56997 36.56655
# Shear Modulus (GPa) = 26.15899 28.68166 27.42032
#
# Velocity S-wave (km/s) = 3.55357 3.72097 3.63823
# Velocity P-wave (km/s) = 5.74797 6.12883 5.94145
#
# Compressibility (1/GPa) = 0.02979460
#
# Stress axis : x y z
#
# Youngs Moduli (GPa) = 46.08871 78.94699 81.77247
#
# Poissons Ratio (x) = 0.24658 0.11060
# Poissons Ratio (y) = 0.14395 0.32082
# Poissons Ratio (z) = 0.06234 0.30974
#
# Static dielectric constant tensor:
#      x y z
#    x 3.890490 0.000000 0.020450 
#    y 0.000000 3.623080 0.000000 
#    z 0.020450 0.000000 3.888880 
# 
# 
# High freq. dielectric constant tensor:
#      x y z
#    x 1.797570 0.000000 0.002720 
#    y 0.000000 1.796180 0.000000 
#    z 0.002720 0.000000 1.822620 
# 
# From -- ./inp_files/145648.got.cif
#   From: 2010.06.25/outbox.cif.g09.slc.cpg/sg15_73_cif.got.tgz:145648.got - 2010.06.28 07:06:18.
