data_PCOD8135387
_publ_section_title
;
Structure prediction by ZEFSAII (Michael W. Deem and Ramdas Pophale) SiO2 
 PCOD8135387
Probable space group: C 2/C
;
_chemical_formula_sum "Si O2"
_cell_formula_units_Z 56
_cell_length_a 13.589577
_cell_length_b 32.189689
_cell_length_c 11.093540
_cell_angle_alpha 90.000000
_cell_angle_beta 32.675116
_cell_angle_gamma 90.000000
_cell_volume 2619.907302
_symmetry_space_group_name_H-M "C 2/C"
_symmetry_group_IT_number 15
_symmetry_cell_setting 'monoclinic'
loop_
_space_group_symop_operation_xyz
x,y,z
-x,y,1/2-z
-x,-y,-z
x,-y,1/2+z
1/2+x,1/2+y,z
1/2-x,1/2+y,1/2-z
1/2-x,1/2-y,-z
1/2+x,1/2-y,1/2+z
loop_
_atom_site_type_symbol
_atom_site_label
_atom_site_fract_x
_atom_site_fract_y
_atom_site_fract_z
Si Si1 0.057478 0.873628 0.884418
Si Si2 0.210957 0.430405 0.539839
Si Si3 0.793997 0.801091 0.163786
Si Si4 0.099967 0.283371 0.866547
Si Si5 0.508500 0.544898 0.548082
Si Si6 0.201643 0.320458 0.006725
Si Si7 0.310189 0.343425 0.506353
O O1 0.168342 0.860767 0.648636
O O2 0.181758 0.864606 0.871724
O O3 0.875423 0.846723 0.092396
O O4 0.012697 0.922501 0.931571
O O5 0.311849 0.448830 0.554206
O O6 0.321137 0.447962 0.312737
O O7 0.217898 0.379850 0.522378
O O8 0.000000 0.445034 0.750000
O O9 0.913346 0.766905 0.113697
O O10 0.598782 0.803066 0.428092
O O11 0.779708 0.791831 0.034643
O O12 0.212542 0.294236 0.872352
O O13 0.194396 0.300933 0.647106
O O14 0.500000 0.500000 0.500000
O O15 0.000000 0.336087 0.250000
O O16 0.500000 0.330192 0.250000
#
# Coordination Sequence:
#
# PCOD8135387 Si02
#       7
#     8   8   8   8   8   8   8
#     4  10  20  37  59  84 116 161 202 249 321 377
#     4  10  21  41  71  97 125 173 209 253 327 391
#     4  11  21  36  52  85 120 160 205 261 313 371
#     4  10  21  33  57  84 118 163 217 254 305 375
#     4  10  22  44  67  96 131 161 209 270 325 392
#     4   9  19  35  55  81 116 159 200 251 311 378
#     4  10  19  38  61  86 120 161 209 261 305 367
#
# _framework density 21.374803
#
# number of rings (size 3 to 8) (size 9 to 14) (size 15 to 20)
#    0.000    2.000    2.857    2.571    2.000    2.857 
#    5.143    3.571    0.000    0.000    0.000    0.000 
#    0.000    0.000    0.000    0.000    0.000    0.000 
#
# Total GULP energy -346980.614563 kJ/mol
# GULP energy per Si atom -12392.164806 kJ/mol
# Density = 2.132615 g / cm^3
# Si number density = 21.374803 Si / 1000 Ang^3
#
#
#
# Elastic Constant Matrix: (Units=GPa)
#
#
# Indices 1 2 3 4 5 6 
#
# 1 39.0800 32.0198 37.0552 0.0000 -10.2591 0.0000
# 2 32.0198 149.9593 68.1891 0.0000 1.9937 0.0000
# 3 37.0552 68.1891 152.9132 0.0000 -3.6990 0.0000
# 4 0.0000 0.0000 0.0000 22.6760 0.0000 13.7827
# 5 -10.2591 1.9937 -3.6990 0.0000 33.1738 0.0000
# 6 0.0000 0.0000 0.0000 13.7827 0.0000 25.5708
#
#
#
# Elastic Compliance Matrix: (Units=1/GPa)
#
#
# Indices 1 2 3 4 5 6 
#
# 1 0.039748 -0.005513 -0.006887 0.000000 0.011856 0.000000
# 2 -0.005513 0.009157 -0.002810 0.000000 -0.002569 0.000000
# 3 -0.006887 -0.002810 0.009440 0.000000 -0.000908 0.000000
# 4 0.000000 0.000000 0.000000 0.065586 0.000000 -0.035351
# 5 0.011856 -0.002569 -0.000908 0.000000 0.033864 0.000000
# 6 0.000000 0.000000 0.000000 -0.035351 0.000000 0.058161
#
#
# Mechanical properties :
#
#
# Convention : Reuss Voigt Hill
#
# Bulk Modulus (GPa) = 35.80955 68.49786 52.15370
# Shear Modulus (GPa) = 19.55536 29.93000 24.74268
#
# Velocity S-wave (km/s) = 3.02798 3.74605 3.40599
# Velocity P-wave (km/s) = 5.38650 7.12925 6.31825
#
# Compressibility (1/GPa) = 0.02792551
#
# Stress axis : x y z
#
# Youngs Moduli (GPa) = 25.15853 109.20053 105.93771
#
# Poissons Ratio (x) = 0.60204 0.72957
# Poissons Ratio (y) = 0.13870 0.29766
# Poissons Ratio (z) = 0.17326 0.30683
#
# Static dielectric constant tensor:
#      x y z
#    x 3.902810 0.000000 0.089200 
#    y 0.000000 3.805920 0.000000 
#    z 0.089200 0.000000 3.992130 
# 
# 
# High freq. dielectric constant tensor:
#      x y z
#    x 1.825470 0.000000 0.001450 
#    y 0.000000 1.810430 0.000000 
#    z 0.001450 0.000000 1.847840 
# 
# From -- ./inp_files/101740.got.cif
#   From: 2010.06.25/outbox.cif.g09.slc.cpg/sg15_51_cif.got.tgz:101740.got - 2010.06.28 07:06:18.
