data_PCOD8135431
_publ_section_title
;
Structure prediction by ZEFSAII (Michael W. Deem and Ramdas Pophale) SiO2 
 PCOD8135431
Probable space group: C 2/C
;
_chemical_formula_sum "Si O2"
_cell_formula_units_Z 56
_cell_length_a 23.834456
_cell_length_b 9.003994
_cell_length_c 13.593941
_cell_angle_alpha 90.000000
_cell_angle_beta 65.671518
_cell_angle_gamma 90.000000
_cell_volume 2658.268620
_symmetry_space_group_name_H-M "C 2/C"
_symmetry_group_IT_number 15
_symmetry_cell_setting 'monoclinic'
loop_
_space_group_symop_operation_xyz
x,y,z
-x,y,1/2-z
-x,-y,-z
x,-y,1/2+z
1/2+x,1/2+y,z
1/2-x,1/2+y,1/2-z
1/2-x,1/2-y,-z
1/2+x,1/2-y,1/2+z
loop_
_atom_site_type_symbol
_atom_site_label
_atom_site_fract_x
_atom_site_fract_y
_atom_site_fract_z
Si Si1 0.847211 0.597209 0.976016
Si Si2 0.431743 0.209174 0.756564
Si Si3 0.428848 0.518855 0.824994
Si Si4 0.568680 0.999842 0.912893
Si Si5 0.630009 0.256183 0.264902
Si Si6 0.149942 0.918813 0.446774
Si Si7 0.237102 0.388916 0.576660
O O1 0.879855 0.505412 0.039794
O O2 0.828228 0.762448 0.022244
O O3 0.894033 0.597815 0.851853
O O4 0.787573 0.512337 0.981217
O O5 0.500000 0.209497 0.750000
O O6 0.406698 0.377279 0.776820
O O7 0.424319 0.153666 0.650814
O O8 0.500000 0.551555 0.750000
O O9 0.390278 0.662821 0.820799
O O10 0.411662 0.479998 0.951751
O O11 0.576664 0.856501 0.837319
O O12 0.500000 0.000000 0.000000
O O13 0.637449 0.385072 0.341529
O O14 0.691484 0.160927 0.197867
O O15 0.202626 0.042990 0.415939
O O16 0.250000 0.250000 0.500000
#
# Coordination Sequence:
#
# PCOD8135431 Si02
#       7
#     8   8   8   8   8   8   8
#     4  10  22  40  64  92 130 170 213 270 334 384
#     4  10  19  38  62  91 130 172 212 257 324 394
#     4  10  23  43  66  95 135 174 209 266 335 398
#     4  11  22  39  65 100 130 167 219 271 324 395
#     4  11  25  43  66 102 131 170 225 272 328 398
#     4  10  24  46  66  94 132 173 222 273 333 389
#     4  12  24  44  68  93 131 172 228 276 321 388
#
# _framework density 21.066344000000001
#
# number of rings (size 3 to 8) (size 9 to 14) (size 15 to 20)
#    0.000    1.429    4.286    0.429    2.000    5.714 
#    5.143    0.000    0.000    0.000    0.000    0.000 
#    0.000    0.000    0.000    0.000    0.000    0.000 
#
# Total GULP energy -347112.645402 kJ/mol
# GULP energy per Si atom -12396.880193 kJ/mol
# Density = 2.101840 g / cm^3
# Si number density = 21.066344 Si / 1000 Ang^3
#
#
#
# Elastic Constant Matrix: (Units=GPa)
#
#
# Indices 1 2 3 4 5 6 
#
# 1 57.9398 26.8289 24.9088 0.0000 -10.7134 0.0000
# 2 26.8289 65.9787 30.7950 0.0000 -10.5213 0.0000
# 3 24.9088 30.7950 109.8265 0.0000 -8.4555 0.0000
# 4 0.0000 0.0000 0.0000 37.9850 0.0000 -4.5827
# 5 -10.7134 -10.5213 -8.4555 0.0000 28.4847 0.0000
# 6 0.0000 0.0000 0.0000 -4.5827 0.0000 33.1782
#
#
#
# Elastic Compliance Matrix: (Units=1/GPa)
#
#
# Indices 1 2 3 4 5 6 
#
# 1 0.022684 -0.007128 -0.002755 0.000000 0.005081 0.000000
# 2 -0.007128 0.020436 -0.003826 0.000000 0.003732 0.000000
# 3 -0.002755 -0.003826 0.010863 0.000000 0.000775 0.000000
# 4 0.000000 0.000000 0.000000 0.026772 0.000000 0.003698
# 5 0.005081 0.003732 0.000775 0.000000 0.038626 0.000000
# 6 0.000000 0.000000 0.000000 0.003698 0.000000 0.030651
#
#
# Mechanical properties :
#
#
# Convention : Reuss Voigt Hill
#
# Bulk Modulus (GPa) = 37.64467 44.31227 40.97847
# Shear Modulus (GPa) = 26.83788 30.01040 28.42414
#
# Velocity S-wave (km/s) = 3.57314 3.77844 3.67722
# Velocity P-wave (km/s) = 5.91029 6.33370 6.12565
#
# Compressibility (1/GPa) = 0.02656419
#
# Stress axis : x y z
#
# Youngs Moduli (GPa) = 44.08462 48.93394 92.05886
#
# Poissons Ratio (x) = 0.34879 0.25361
# Poissons Ratio (y) = 0.31423 0.35224
# Poissons Ratio (z) = 0.12145 0.18723
#
# Static dielectric constant tensor:
#      x y z
#    x 3.542430 0.000000 -0.066450 
#    y 0.000000 4.266870 0.000000 
#    z -0.066450 0.000000 4.075650 
# 
# 
# High freq. dielectric constant tensor:
#      x y z
#    x 1.799950 0.000000 -0.007500 
#    y 0.000000 1.836270 0.000000 
#    z -0.007500 0.000000 1.839130 
# 
# From -- ./inp_files/172254.got.cif
#   From: 2010.06.25/outbox.cif.g09.slc.cpg/sg15_87_cif.got.tgz:172254.got - 2010.06.28 07:06:18.
