data_PCOD8135790
_publ_section_title
;
Structure prediction by ZEFSAII (Michael W. Deem and Ramdas Pophale) SiO2 
 PCOD8135790
Probable space group: C 2/C
;
_chemical_formula_sum "Si O2"
_cell_formula_units_Z 64
_cell_length_a 17.740380
_cell_length_b 12.378015
_cell_length_c 14.599032
_cell_angle_alpha 90.000000
_cell_angle_beta 94.525226
_cell_angle_gamma 90.000000
_cell_volume 3195.818009
_symmetry_space_group_name_H-M "C 2/C"
_symmetry_group_IT_number 15
_symmetry_cell_setting 'monoclinic'
loop_
_space_group_symop_operation_xyz
x,y,z
-x,y,1/2-z
-x,-y,-z
x,-y,1/2+z
1/2+x,1/2+y,z
1/2-x,1/2+y,1/2-z
1/2-x,1/2-y,-z
1/2+x,1/2-y,1/2+z
loop_
_atom_site_type_symbol
_atom_site_label
_atom_site_fract_x
_atom_site_fract_y
_atom_site_fract_z
Si Si1 0.305319 0.028559 0.669290
Si Si2 0.577519 0.891275 0.559509
Si Si3 0.890298 0.808944 0.938905
Si Si4 0.410354 0.101965 0.055161
Si Si5 0.642827 0.252776 0.773144
Si Si6 0.563293 0.312079 0.938046
Si Si7 0.687278 0.474540 0.007876
Si Si8 0.731237 0.905664 0.662109
O O1 0.358761 0.124800 0.709647
O O2 0.357544 0.933100 0.633669
O O3 0.244210 0.070693 0.590170
O O4 0.259061 0.982086 0.749856
O O5 0.495828 0.877565 0.600347
O O6 0.583937 0.807028 0.476696
O O7 0.644095 0.871448 0.638579
O O8 0.587053 0.011445 0.522620
O O9 0.869834 0.777579 0.833728
O O10 0.837379 0.904276 0.970171
O O11 0.977501 0.845232 0.949428
O O12 0.876047 0.708836 0.005308
O O13 0.578583 0.309771 0.830036
O O14 0.723772 0.295600 0.815397
O O15 0.614244 0.398740 0.995989
O O16 0.733990 0.473697 0.918315
#
# Coordination Sequence:
#
# PCOD8135790 Si02
#       8
#     8   8   8   8   8   8   8   8
#     4  12  23  40  62  96 125 166 208 257 317 373
#     4  10  19  40  59  90 120 160 206 253 315 368
#     4  11  23  41  63  94 129 166 209 263 318 371
#     4  10  22  37  62  88 125 161 201 257 317 369
#     4  11  22  38  63  94 123 162 215 261 304 372
#     4  10  21  40  67  90 123 168 214 263 306 369
#     4  11  23  41  63  92 129 168 213 254 316 375
#     4  11  23  39  62  89 124 165 207 261 308 370
#
# _framework density 20.026171999999999
#
# number of rings (size 3 to 8) (size 9 to 14) (size 15 to 20)
#    0.000    1.250    3.750    2.250    0.000    4.000 
#    2.250    0.000    0.000    1.500    0.000    0.000 
#    0.000    0.000    0.000    0.000    0.000    0.000 
#
# Total GULP energy -396886.501210 kJ/mol
# GULP energy per Si atom -12402.703163 kJ/mol
# Density = 1.998059 g / cm^3
# Si number density = 20.026172 Si / 1000 Ang^3
#
#
#
# Elastic Constant Matrix: (Units=GPa)
#
#
# Indices 1 2 3 4 5 6 
#
# 1 99.6643 35.6519 52.4105 0.0000 9.8489 0.0000
# 2 35.6519 94.4513 38.9152 0.0000 -2.0402 0.0000
# 3 52.4105 38.9152 120.6504 0.0000 -4.3549 0.0000
# 4 0.0000 0.0000 0.0000 31.3721 0.0000 -1.1855
# 5 9.8489 -2.0402 -4.3549 0.0000 20.2892 0.0000
# 6 0.0000 0.0000 0.0000 -1.1855 0.0000 30.0948
#
#
#
# Elastic Compliance Matrix: (Units=1/GPa)
#
#
# Indices 1 2 3 4 5 6 
#
# 1 0.015247 -0.003560 -0.005800 0.000000 -0.009004 0.000000
# 2 -0.003560 0.013044 -0.002571 0.000000 0.002488 0.000000
# 3 -0.005800 -0.002571 0.011821 0.000000 0.005094 0.000000
# 4 0.000000 0.000000 0.000000 0.031923 0.000000 0.001258
# 5 -0.009004 0.002488 0.005094 0.000000 0.055002 0.000000
# 6 0.000000 0.000000 0.000000 0.001258 0.000000 0.033278
#
#
# Mechanical properties :
#
#
# Convention : Reuss Voigt Hill
#
# Bulk Modulus (GPa) = 61.53791 63.19125 62.36458
# Shear Modulus (GPa) = 26.37208 28.87043 27.62126
#
# Velocity S-wave (km/s) = 3.63282 3.80101 3.71787
# Velocity P-wave (km/s) = 6.95643 7.13347 7.04551
#
# Compressibility (1/GPa) = 0.01625015
#
# Stress axis : x y z
#
# Youngs Moduli (GPa) = 65.58643 76.66177 84.59431
#
# Poissons Ratio (x) = 0.27292 0.49065
# Poissons Ratio (y) = 0.23349 0.21750
# Poissons Ratio (z) = 0.38041 0.19711
#
# Static dielectric constant tensor:
#      x y z
#    x 3.854800 0.000000 0.037240 
#    y 0.000000 3.552690 0.000000 
#    z 0.037240 0.000000 3.547590 
# 
# 
# High freq. dielectric constant tensor:
#      x y z
#    x 1.793190 0.000000 0.002510 
#    y 0.000000 1.777130 0.000000 
#    z 0.002510 0.000000 1.776150 
# 
# From -- ./inp_files/161343.got.cif
#   From: 2010.06.25/outbox.cif.g09.slc.cpg/sg15_81_cif.got.tgz:161343.got - 2010.06.28 07:06:18.
