data_PCOD8135222
_publ_section_title
;
Structure prediction by ZEFSAII (Michael W. Deem and Ramdas Pophale) SiO2 
 PCOD8135222
Probable space group: C 2/C
;
_chemical_formula_sum "Si O2"
_cell_formula_units_Z 44
_cell_length_a 14.983735
_cell_length_b 8.814590
_cell_length_c 14.996008
_cell_angle_alpha 90.000000
_cell_angle_beta 114.336356
_cell_angle_gamma 90.000000
_cell_volume 1804.612318
_symmetry_space_group_name_H-M "C 2/C"
_symmetry_group_IT_number 15
_symmetry_cell_setting 'monoclinic'
loop_
_space_group_symop_operation_xyz
x,y,z
-x,y,1/2-z
-x,-y,-z
x,-y,1/2+z
1/2+x,1/2+y,z
1/2-x,1/2+y,1/2-z
1/2-x,1/2-y,-z
1/2+x,1/2-y,1/2+z
loop_
_atom_site_type_symbol
_atom_site_label
_atom_site_fract_x
_atom_site_fract_y
_atom_site_fract_z
Si Si1 0.969863 0.144901 0.431814
Si Si2 0.855933 0.691331 0.421334
Si Si3 0.825621 0.386188 0.174911
Si Si4 0.800336 0.635116 0.873354
Si Si5 0.110754 0.707971 0.274155
Si Si6 0.500000 0.679138 0.250000
O O1 0.867872 0.218159 0.425901
O O2 0.050653 0.274814 0.479467
O O3 0.963742 0.090104 0.324551
O O4 0.000000 0.000000 0.500000
O O5 0.773864 0.819530 0.409034
O O6 0.823578 0.520530 0.435735
O O7 0.881430 0.694005 0.328215
O O8 0.819373 0.388596 0.277899
O O9 0.854158 0.556753 0.158841
O O10 0.912125 0.280075 0.176573
O O11 0.685247 0.665509 0.842894
O O12 0.000000 0.754964 0.250000
#
# Coordination Sequence:
#
# PCOD8135222 Si02
#       6
#     8   8   8   8   8   4
#     4  11  23  43  68  95 131 176 224 279 333 398
#     4  10  21  39  64  95 136 178 219 276 331 385
#     4   9  18  37  64  94 128 177 223 267 322 397
#     4   9  20  38  62  95 136 177 217 274 336 386
#     4  10  19  37  65  98 136 181 220 269 327 388
#     4  10  22  40  68  96 128 172 230 270 332 400
#
# _framework density 24.381967
#
# number of rings (size 3 to 8) (size 9 to 14) (size 15 to 20)
#    0.000    2.182    0.909    1.636    0.000    5.091 
#    6.545    0.909    0.000    1.091    0.000    0.000 
#    0.000    0.000    0.000    0.000    0.000    0.000 
#
# Total GULP energy -272639.757357 kJ/mol
# GULP energy per Si atom -12392.716244 kJ/mol
# Density = 2.432647 g / cm^3
# Si number density = 24.381967 Si / 1000 Ang^3
#
#
#
# Elastic Constant Matrix: (Units=GPa)
#
#
# Indices 1 2 3 4 5 6 
#
# 1 131.2747 41.0277 35.7762 0.0000 41.2832 0.0000
# 2 41.0277 115.0544 39.6026 0.0000 6.0538 0.0000
# 3 35.7762 39.6026 78.2332 0.0000 13.1873 0.0000
# 4 0.0000 0.0000 0.0000 28.2059 0.0000 7.1867
# 5 41.2832 6.0538 13.1873 0.0000 41.5178 0.0000
# 6 0.0000 0.0000 0.0000 7.1867 0.0000 20.0284
#
#
#
# Elastic Compliance Matrix: (Units=1/GPa)
#
#
# Indices 1 2 3 4 5 6 
#
# 1 0.012905 -0.003189 -0.002327 0.000000 -0.011628 0.000000
# 2 -0.003189 0.011315 -0.004782 0.000000 0.003040 0.000000
# 3 -0.002327 -0.004782 0.016651 0.000000 -0.002278 0.000000
# 4 0.000000 0.000000 0.000000 0.039021 0.000000 -0.014002
# 5 -0.011628 0.003040 -0.002278 0.000000 0.035929 0.000000
# 6 0.000000 0.000000 0.000000 -0.014002 0.000000 0.054953
#
#
# Mechanical properties :
#
#
# Convention : Reuss Voigt Hill
#
# Bulk Modulus (GPa) = 49.32159 61.93058 55.62608
# Shear Modulus (GPa) = 25.23612 31.82747 28.53180
#
# Velocity S-wave (km/s) = 3.22068 3.61691 3.42453
# Velocity P-wave (km/s) = 5.83978 6.54966 6.20488
#
# Compressibility (1/GPa) = 0.02027510
#
# Stress axis : x y z
#
# Youngs Moduli (GPa) = 77.48697 88.38065 60.05646
#
# Poissons Ratio (x) = 0.28186 0.13976
# Poissons Ratio (y) = 0.24711 0.28717
# Poissons Ratio (z) = 0.18033 0.42261
#
# Static dielectric constant tensor:
#      x y z
#    x 4.523910 0.000000 0.264070 
#    y 0.000000 4.577580 0.000000 
#    z 0.264070 0.000000 4.209810 
# 
# 
# High freq. dielectric constant tensor:
#      x y z
#    x 1.968180 0.000000 0.016470 
#    y 0.000000 1.965170 0.000000 
#    z 0.016470 0.000000 1.957920 
# 
# From -- ./inp_files/203084.got.cif
#   From: 2010.06.25/outbox.cif.g09.slc.cpg/sg15_102_cif.got.tgz:203084.got - 2010.06.28 07:06:18.
