data_PCOD8135653
_publ_section_title
;
Structure prediction by ZEFSAII (Michael W. Deem and Ramdas Pophale) SiO2 
 PCOD8135653
Probable space group: C 2/C
;
_chemical_formula_sum "Si O2"
_cell_formula_units_Z 64
_cell_length_a 14.060307
_cell_length_b 25.854435
_cell_length_c 12.535532
_cell_angle_alpha 90.000000
_cell_angle_beta 43.922625
_cell_angle_gamma 90.000000
_cell_volume 3161.081885
_symmetry_space_group_name_H-M "C 2/C"
_symmetry_group_IT_number 15
_symmetry_cell_setting 'monoclinic'
loop_
_space_group_symop_operation_xyz
x,y,z
-x,y,1/2-z
-x,-y,-z
x,-y,1/2+z
1/2+x,1/2+y,z
1/2-x,1/2+y,1/2-z
1/2-x,1/2-y,-z
1/2+x,1/2-y,1/2+z
loop_
_atom_site_type_symbol
_atom_site_label
_atom_site_fract_x
_atom_site_fract_y
_atom_site_fract_z
Si Si1 0.339278 0.959930 0.398833
Si Si2 0.083227 0.715824 0.787166
Si Si3 0.825531 0.714297 0.121855
Si Si4 0.343244 0.924879 0.847177
Si Si5 0.321177 0.106610 0.718033
Si Si6 0.853181 0.123460 0.835939
Si Si7 0.858765 0.757303 0.321977
Si Si8 0.129974 0.404828 0.916520
O O1 0.500000 0.954675 0.250000
O O2 0.269761 0.924899 0.363202
O O3 0.298712 0.939383 0.549135
O O4 0.292551 0.019159 0.428374
O O5 0.193453 0.760395 0.670554
O O6 0.167369 0.667333 0.764707
O O7 0.000000 0.698133 0.750000
O O8 0.970616 0.737132 0.962593
O O9 0.811022 0.725301 0.258336
O O10 0.824441 0.653675 0.098222
O O11 0.500000 0.913314 0.750000
O O12 0.319203 0.922971 0.739919
O O13 0.250300 0.881864 0.980351
O O14 0.209046 0.095225 0.717419
O O15 0.466584 0.087174 0.554869
O O16 0.874730 0.182490 0.783270
O O17 0.000000 0.099088 0.750000
O O18 0.750000 0.750000 0.500000
O O19 0.000000 0.733038 0.250000
#
# Coordination Sequence:
#
# PCOD8135653 Si02
#       8
#     8   8   8   8   8   8   8   8
#     4   9  21  36  63  95 118 152 196 259 306 346
#     4  11  22  38  61  88 120 160 201 241 291 355
#     4  11  22  37  59  88 120 160 195 243 292 351
#     4  11  22  37  67  92 117 154 201 257 298 350
#     4  10  19  39  62  87 124 159 196 245 304 355
#     4  11  24  40  58  89 126 163 196 241 303 364
#     4  11  23  37  58  86 123 158 199 241 290 354
#     4  10  21  37  61  94 123 147 203 252 299 350
#
# _framework density 20.246231999999999
#
# number of rings (size 3 to 8) (size 9 to 14) (size 15 to 20)
#    0.000    1.500    2.500    3.750    3.500    3.500 
#    0.000    0.625    0.000    0.000    0.000    0.000 
#    0.000    0.000    0.000    0.000    0.000    0.000 
#
# Total GULP energy -396873.064910 kJ/mol
# GULP energy per Si atom -12402.283278 kJ/mol
# Density = 2.020015 g / cm^3
# Si number density = 20.246232 Si / 1000 Ang^3
#
#
#
# Elastic Constant Matrix: (Units=GPa)
#
#
# Indices 1 2 3 4 5 6 
#
# 1 119.6118 22.1315 41.2988 0.0000 10.8441 0.0000
# 2 22.1315 58.7297 16.7211 0.0000 -5.3393 0.0000
# 3 41.2988 16.7211 84.2959 0.0000 7.5072 0.0000
# 4 0.0000 0.0000 0.0000 31.3162 0.0000 8.1933
# 5 10.8441 -5.3393 7.5072 0.0000 39.3431 0.0000
# 6 0.0000 0.0000 0.0000 8.1933 0.0000 20.0259
#
#
#
# Elastic Compliance Matrix: (Units=1/GPa)
#
#
# Indices 1 2 3 4 5 6 
#
# 1 0.010663 -0.002991 -0.004408 0.000000 -0.002504 0.000000
# 2 -0.002991 0.019287 -0.002713 0.000000 0.003959 0.000000
# 3 -0.004408 -0.002713 0.014736 0.000000 -0.001965 0.000000
# 4 0.000000 0.000000 0.000000 0.035760 0.000000 -0.014631
# 5 -0.002504 0.003959 -0.001965 0.000000 0.027020 0.000000
# 6 0.000000 0.000000 0.000000 -0.014631 0.000000 0.055921
#
#
# Mechanical properties :
#
#
# Convention : Reuss Voigt Hill
#
# Bulk Modulus (GPa) = 40.88014 46.99335 43.93674
# Shear Modulus (GPa) = 26.07386 30.30278 28.18832
#
# Velocity S-wave (km/s) = 3.59254 3.87293 3.73537
# Velocity P-wave (km/s) = 6.11913 6.57729 6.35234
#
# Compressibility (1/GPa) = 0.02446176
#
# Stress axis : x y z
#
# Youngs Moduli (GPa) = 93.78585 51.84950 67.86296
#
# Poissons Ratio (x) = 0.15507 0.29912
# Poissons Ratio (y) = 0.28049 0.18412
# Poissons Ratio (z) = 0.41338 0.14067
#
# Static dielectric constant tensor:
#      x y z
#    x 3.748830 0.000000 0.164360 
#    y 0.000000 3.751660 0.000000 
#    z 0.164360 0.000000 3.679940 
# 
# 
# High freq. dielectric constant tensor:
#      x y z
#    x 1.787910 0.000000 0.024240 
#    y 0.000000 1.782290 0.000000 
#    z 0.024240 0.000000 1.780140 
# 
# From -- ./inp_files/101310.got.cif
#   From: 2010.06.25/outbox.cif.g09.slc.cpg/sg15_51_cif.got.tgz:101310.got - 2010.06.28 07:06:18.
