data_PCOD8135357
_publ_section_title
;
Structure prediction by ZEFSAII (Michael W. Deem and Ramdas Pophale) SiO2 
 PCOD8135357
Probable space group: C 2/C
;
_chemical_formula_sum "Si O2"
_cell_formula_units_Z 48
_cell_length_a 7.543120
_cell_length_b 29.284222
_cell_length_c 14.734658
_cell_angle_alpha 90.000000
_cell_angle_beta 130.982117
_cell_angle_gamma 90.000000
_cell_volume 2457.097701
_symmetry_space_group_name_H-M "C 2/C"
_symmetry_group_IT_number 15
_symmetry_cell_setting 'monoclinic'
loop_
_space_group_symop_operation_xyz
x,y,z
-x,y,1/2-z
-x,-y,-z
x,-y,1/2+z
1/2+x,1/2+y,z
1/2-x,1/2+y,1/2-z
1/2-x,1/2-y,-z
1/2+x,1/2-y,1/2+z
loop_
_atom_site_type_symbol
_atom_site_label
_atom_site_fract_x
_atom_site_fract_y
_atom_site_fract_z
Si Si1 0.727633 0.169908 0.667913
Si Si2 0.018338 0.754224 0.859931
Si Si3 0.952648 0.608443 0.445060
Si Si4 0.500000 0.339881 0.750000
Si Si5 0.281730 0.553135 0.977898
Si Si6 0.298733 0.953472 0.611096
Si Si7 0.000000 0.387657 0.250000
O O1 0.680172 0.224667 0.654939
O O2 0.594653 0.149955 0.536615
O O3 0.631425 0.144459 0.723570
O O4 0.000000 0.160366 0.750000
O O5 0.980431 0.808770 0.835532
O O6 0.000000 0.734107 0.750000
O O7 0.250000 0.750000 0.000000
O O8 0.727091 0.629005 0.320523
O O9 0.865283 0.570399 0.485971
O O10 0.125039 0.586424 0.430433
O O11 0.243357 0.499150 0.960296
O O12 0.195083 0.579648 0.859675
O O13 0.560542 0.562343 0.082077
O O14 0.500000 0.963954 0.750000
#
# Coordination Sequence:
#
# PCOD8135357 Si02
#       7
#     8   8   8   4   8   8   4
#     4  11  21  37  64  92 119 156 209 253 308 372
#     4  10  20  41  64  88 126 166 201 257 319 375
#     4  11  22  39  61  90 122 159 206 258 309 371
#     4  10  21  38  66  88 122 166 202 252 321 370
#     4  10  22  38  60  83 121 160 202 249 315 360
#     4  11  22  39  57  87 121 159 208 255 302 373
#     4  10  19  38  60  86 118 162 192 252 305 362
#
# _framework density 19.535242
#
# number of rings (size 3 to 8) (size 9 to 14) (size 15 to 20)
#    0.500    1.000    3.333    2.500    0.000    0.000 
#    0.000    5.833    0.000    0.000    0.000    0.000 
#    0.000    0.000    0.000    0.000    0.000    0.000 
#
# Total GULP energy -297423.478095 kJ/mol
# GULP energy per Si atom -12392.644921 kJ/mol
# Density = 1.949078 g / cm^3
# Si number density = 19.535242 Si / 1000 Ang^3
#
#
#
# Elastic Constant Matrix: (Units=GPa)
#
#
# Indices 1 2 3 4 5 6 
#
# 1 84.2167 21.2415 33.2129 0.0000 17.3721 0.0000
# 2 21.2415 69.9708 16.6096 0.0000 1.0117 0.0000
# 3 33.2129 16.6096 117.9595 0.0000 17.1965 0.0000
# 4 0.0000 0.0000 0.0000 9.3437 0.0000 12.8568
# 5 17.3721 1.0117 17.1965 0.0000 33.6487 0.0000
# 6 0.0000 0.0000 0.0000 12.8568 0.0000 28.6500
#
#
#
# Elastic Compliance Matrix: (Units=1/GPa)
#
#
# Indices 1 2 3 4 5 6 
#
# 1 0.015272 -0.003872 -0.002833 0.000000 -0.006320 0.000000
# 2 -0.003872 0.015782 -0.001463 0.000000 0.002272 0.000000
# 3 -0.002833 -0.001463 0.010007 0.000000 -0.003607 0.000000
# 4 0.000000 0.000000 0.000000 0.279784 0.000000 -0.125554
# 5 -0.006320 0.002272 -0.003607 0.000000 0.034757 0.000000
# 6 0.000000 0.000000 0.000000 -0.125554 0.000000 0.091247
#
#
# Mechanical properties :
#
#
# Convention : Reuss Voigt Hill
#
# Bulk Modulus (GPa) = 40.44790 46.03056 43.23923
# Shear Modulus (GPa) = 10.60608 27.73402 19.17005
#
# Velocity S-wave (km/s) = 2.33259 3.77197 3.13598
# Velocity P-wave (km/s) = 5.29195 6.52566 5.94092
#
# Compressibility (1/GPa) = 0.02472317
#
# Stress axis : x y z
#
# Youngs Moduli (GPa) = 65.47972 63.36464 99.92808
#
# Poissons Ratio (x) = 0.24536 0.28314
# Poissons Ratio (y) = 0.25355 0.14621
# Poissons Ratio (z) = 0.18553 0.09271
#
# Static dielectric constant tensor:
#      x y z
#    x 3.397440 0.000000 0.106120 
#    y 0.000000 3.678010 0.000000 
#    z 0.106120 0.000000 3.751690 
# 
# 
# High freq. dielectric constant tensor:
#      x y z
#    x 1.742210 0.000000 0.009270 
#    y 0.000000 1.772920 0.000000 
#    z 0.009270 0.000000 1.773950 
# 
# From -- ./inp_files/130971.got.cif
#   From: 2010.06.25/outbox.cif.g09.slc.cpg/sg15_66_cif.got.tgz:130971.got - 2010.06.28 07:06:18.
