data_PCOD8135476
_publ_section_title
;
Structure prediction by ZEFSAII (Michael W. Deem and Ramdas Pophale) SiO2 
 PCOD8135476
Probable space group: C 2/C
;
_chemical_formula_sum "Si O2"
_cell_formula_units_Z 60
_cell_length_a 25.185979
_cell_length_b 9.829603
_cell_length_c 14.130068
_cell_angle_alpha 90.000000
_cell_angle_beta 63.349418
_cell_angle_gamma 90.000000
_cell_volume 3126.506232
_symmetry_space_group_name_H-M "C 2/C"
_symmetry_group_IT_number 15
_symmetry_cell_setting 'monoclinic'
loop_
_space_group_symop_operation_xyz
x,y,z
-x,y,1/2-z
-x,-y,-z
x,-y,1/2+z
1/2+x,1/2+y,z
1/2-x,1/2+y,1/2-z
1/2-x,1/2-y,-z
1/2+x,1/2-y,1/2+z
loop_
_atom_site_type_symbol
_atom_site_label
_atom_site_fract_x
_atom_site_fract_y
_atom_site_fract_z
Si Si1 0.001570 0.148931 0.541977
Si Si2 0.000000 0.068062 0.750000
Si Si3 0.629364 0.281492 0.952162
Si Si4 0.316377 0.997241 0.625001
Si Si5 0.874378 0.769411 0.148810
Si Si6 0.288617 0.513318 0.654480
Si Si7 0.871477 0.930018 0.346941
Si Si8 0.257918 0.408681 0.981496
O O1 0.942577 0.229717 0.556608
O O2 0.002033 0.159724 0.655129
O O3 0.063903 0.210110 0.457788
O O4 0.000000 0.000000 0.500000
O O5 0.064033 0.989680 0.703317
O O6 0.676371 0.372139 0.855198
O O7 0.642660 0.124946 0.926963
O O8 0.633628 0.333654 0.056902
O O9 0.350710 0.884246 0.659633
O O10 0.256588 0.041507 0.725479
O O11 0.298313 0.948142 0.535991
O O12 0.867000 0.829840 0.260359
O O13 0.836229 0.864420 0.109239
O O14 0.252358 0.512485 0.585328
O O15 0.820773 0.045497 0.383533
O O16 0.250000 0.250000 0.000000
#
# Coordination Sequence:
#
# PCOD8135476 Si02
#       8
#     8   4   8   8   8   8   8   8
#     4  10  19  38  64  85 115 153 203 246 291 355
#     4   8  18  34  58  92 106 146 202 250 276 346
#     4  10  23  39  60  87 117 159 199 247 298 357
#     4  12  25  37  58  90 124 154 195 248 302 353
#     4  11  21  38  63  89 115 157 199 248 291 357
#     4  11  22  39  58  84 119 156 201 235 299 359
#     4   9  20  38  62  83 116 158 203 237 295 356
#     4  11  23  37  58  87 123 157 194 249 295 347
#
# _framework density 19.190750000000001
#
# number of rings (size 3 to 8) (size 9 to 14) (size 15 to 20)
#    0.000    1.600    4.000    0.800    1.867    1.600 
#    0.000    0.000    0.000    0.000    0.000    0.000 
#    0.000    0.000    0.000    0.000    0.000    0.000 
#
# Total GULP energy -371707.237040 kJ/mol
# GULP energy per Si atom -12390.241235 kJ/mol
# Density = 1.914707 g / cm^3
# Si number density = 19.190750 Si / 1000 Ang^3
#
#
#
# Elastic Constant Matrix: (Units=GPa)
#
#
# Indices 1 2 3 4 5 6 
#
# 1 131.8094 68.6288 40.8253 0.0000 -17.7057 0.0000
# 2 68.6288 132.1895 31.9544 0.0000 -16.8637 0.0000
# 3 40.8253 31.9544 65.4298 0.0000 -0.8750 0.0000
# 4 0.0000 0.0000 0.0000 22.1682 0.0000 -1.3603
# 5 -17.7057 -16.8637 -0.8750 0.0000 26.5166 0.0000
# 6 0.0000 0.0000 0.0000 -1.3603 0.0000 26.2640
#
#
#
# Elastic Compliance Matrix: (Units=1/GPa)
#
#
# Indices 1 2 3 4 5 6 
#
# 1 0.012252 -0.004382 -0.005435 0.000000 0.005215 0.000000
# 2 -0.004382 0.010966 -0.002569 0.000000 0.003964 0.000000
# 3 -0.005435 -0.002569 0.019868 0.000000 -0.004607 0.000000
# 4 0.000000 0.000000 0.000000 0.045253 0.000000 0.002344
# 5 0.005215 0.003964 -0.004607 0.000000 0.043563 0.000000
# 6 0.000000 0.000000 0.000000 0.002344 0.000000 0.038196
#
#
# Mechanical properties :
#
#
# Convention : Reuss Voigt Hill
#
# Bulk Modulus (GPa) = 54.59981 68.02731 61.31356
# Shear Modulus (GPa) = 24.87873 27.52446 26.20159
#
# Velocity S-wave (km/s) = 3.60445 3.79127 3.69904
# Velocity P-wave (km/s) = 6.77020 7.39526 7.08962
#
# Compressibility (1/GPa) = 0.01831508
#
# Stress axis : x y z
#
# Youngs Moduli (GPa) = 81.61879 91.18779 50.33310
#
# Poissons Ratio (x) = 0.39957 0.27356
# Poissons Ratio (y) = 0.35764 0.12929
# Poissons Ratio (z) = 0.44360 0.23423
#
# Static dielectric constant tensor:
#      x y z
#    x 4.135590 0.000000 -0.019950 
#    y 0.000000 3.253170 0.000000 
#    z -0.019950 0.000000 3.638830 
# 
# 
# High freq. dielectric constant tensor:
#      x y z
#    x 1.768990 0.000000 0.000460 
#    y 0.000000 1.711010 0.000000 
#    z 0.000460 0.000000 1.748390 
# 
# From -- ./inp_files/172353.got.cif
#   From: 2010.06.25/outbox.cif.g09.slc.cpg/sg15_87_cif.got.tgz:172353.got - 2010.06.28 07:06:18.
