data_PCOD8135946
_publ_section_title
;
Structure prediction by ZEFSAII (Michael W. Deem and Ramdas Pophale) SiO2 
 PCOD8135946
Probable space group: C 2/C
;
_chemical_formula_sum "Si O2"
_cell_formula_units_Z 44
_cell_length_a 10.048662
_cell_length_b 9.934061
_cell_length_c 33.667542
_cell_angle_alpha 90.000000
_cell_angle_beta 141.611220
_cell_angle_gamma 90.000000
_cell_volume 2087.055922
_symmetry_space_group_name_H-M "C 2/C"
_symmetry_group_IT_number 15
_symmetry_cell_setting 'monoclinic'
loop_
_space_group_symop_operation_xyz
x,y,z
-x,y,1/2-z
-x,-y,-z
x,-y,1/2+z
1/2+x,1/2+y,z
1/2-x,1/2+y,1/2-z
1/2-x,1/2-y,-z
1/2+x,1/2-y,1/2+z
loop_
_atom_site_type_symbol
_atom_site_label
_atom_site_fract_x
_atom_site_fract_y
_atom_site_fract_z
Si Si1 0.249484 0.235366 0.088345
Si Si2 0.000000 0.554944 0.250000
Si Si3 0.079326 0.777598 0.633525
Si Si4 0.246269 0.004289 0.945786
Si Si5 0.928169 0.454878 0.150764
Si Si6 0.032516 0.101302 0.971973
O O1 0.089644 0.242588 0.088425
O O2 0.360203 0.381280 0.108463
O O3 0.410751 0.108525 0.129712
O O4 0.122130 0.232049 0.015800
O O5 0.207018 0.648359 0.302468
O O6 0.967389 0.461126 0.281105
O O7 0.069482 0.634508 0.653871
O O8 0.866965 0.864448 0.593076
O O9 0.200562 0.038562 0.980899
O O10 0.500000 0.000000 0.000000
O O11 0.697640 0.382476 0.102891
O O12 0.000000 0.000000 0.000000
#
# Coordination Sequence:
#
# PCOD8135946 Si02
#       6
#     8   4   8   8   8   8
#     4  10  23  40  66  97 140 167 218 267 334 399
#     4  10  22  46  64  92 126 178 228 280 320 400
#     4  11  24  45  67  97 130 179 217 283 335 387
#     4  12  24  38  68 106 138 173 221 266 329 410
#     4  10  22  43  71  86 133 175 219 271 339 380
#     4  10  19  41  65  95 135 179 202 265 337 391
#
# _framework density 21.082329000000001
#
# number of rings (size 3 to 8) (size 9 to 14) (size 15 to 20)
#    0.000    1.455    5.455    1.636    5.091    4.364 
#    0.000    0.000    0.000    0.000    0.000    0.000 
#    0.000    0.000    0.000    0.000    0.000    0.000 
#
# Total GULP energy -272589.959242 kJ/mol
# GULP energy per Si atom -12390.452693 kJ/mol
# Density = 2.103434 g / cm^3
# Si number density = 21.082329 Si / 1000 Ang^3
#
#
#
# Elastic Constant Matrix: (Units=GPa)
#
#
# Indices 1 2 3 4 5 6 
#
# 1 130.6213 55.3718 42.6559 0.0000 -8.6192 0.0000
# 2 55.3718 124.0346 25.4378 0.0000 -23.4758 0.0000
# 3 42.6559 25.4378 94.0148 0.0000 -11.4213 0.0000
# 4 0.0000 0.0000 0.0000 20.3561 0.0000 -3.9842
# 5 -8.6192 -23.4758 -11.4213 0.0000 32.3160 0.0000
# 6 0.0000 0.0000 0.0000 -3.9842 0.0000 42.8066
#
#
#
# Elastic Compliance Matrix: (Units=1/GPa)
#
#
# Indices 1 2 3 4 5 6 
#
# 1 0.010613 -0.004253 -0.003862 0.000000 -0.001624 0.000000
# 2 -0.004253 0.011346 -0.000289 0.000000 0.007006 0.000000
# 3 -0.003862 -0.000289 0.012869 0.000000 0.003308 0.000000
# 4 0.000000 0.000000 0.000000 0.050037 0.000000 0.004657
# 5 -0.001624 0.007006 0.003308 0.000000 0.036770 0.000000
# 6 0.000000 0.000000 0.000000 0.004657 0.000000 0.023794
#
#
# Mechanical properties :
#
#
# Convention : Reuss Voigt Hill
#
# Bulk Modulus (GPa) = 55.49421 66.17795 60.83608
# Shear Modulus (GPa) = 29.71893 34.10943 31.91418
#
# Velocity S-wave (km/s) = 3.75862 4.02670 3.89496
# Velocity P-wave (km/s) = 6.72429 7.28543 7.01047
#
# Compressibility (1/GPa) = 0.01801990
#
# Stress axis : x y z
#
# Youngs Moduli (GPa) = 94.22831 88.13509 77.70727
#
# Poissons Ratio (x) = 0.37484 0.30007
# Poissons Ratio (y) = 0.40076 0.02247
# Poissons Ratio (z) = 0.36387 0.02549
#
# Static dielectric constant tensor:
#      x y z
#    x 3.855740 0.000000 -0.126140 
#    y 0.000000 4.741110 0.000000 
#    z -0.126140 0.000000 5.020140 
# 
# 
# High freq. dielectric constant tensor:
#      x y z
#    x 1.824960 0.000000 -0.016900 
#    y 0.000000 1.834210 0.000000 
#    z -0.016900 0.000000 1.808580 
# 
# From -- ./inp_files/307322.got.cif
#   From: 2010.06.25/outbox.cif.g09.slc.cpg/sg15_154_cif.got.tgz:307322.got - 2010.06.28 07:06:18.
