data_PCOD8135673
_publ_section_title
;
Structure prediction by ZEFSAII (Michael W. Deem and Ramdas Pophale) SiO2 
 PCOD8135673
Probable space group: C 2/C
;
_chemical_formula_sum "Si O2"
_cell_formula_units_Z 64
_cell_length_a 23.002273
_cell_length_b 14.638645
_cell_length_c 17.979474
_cell_angle_alpha 90.000000
_cell_angle_beta 148.675195
_cell_angle_gamma 90.000000
_cell_volume 3147.452821
_symmetry_space_group_name_H-M "C 2/C"
_symmetry_group_IT_number 15
_symmetry_cell_setting 'monoclinic'
loop_
_space_group_symop_operation_xyz
x,y,z
-x,y,1/2-z
-x,-y,-z
x,-y,1/2+z
1/2+x,1/2+y,z
1/2-x,1/2+y,1/2-z
1/2-x,1/2-y,-z
1/2+x,1/2-y,1/2+z
loop_
_atom_site_type_symbol
_atom_site_label
_atom_site_fract_x
_atom_site_fract_y
_atom_site_fract_z
Si Si1 0.104097 0.085319 0.262922
Si Si2 0.198074 0.249146 0.281721
Si Si3 0.453011 0.971546 0.555806
Si Si4 0.704095 0.235316 0.266437
Si Si5 0.794252 0.435138 0.632258
Si Si6 0.002980 0.647057 0.974247
Si Si7 0.260426 0.409367 0.093379
Si Si8 0.354564 0.608123 0.020742
O O1 0.179052 0.147653 0.291046
O O2 0.130006 0.116611 0.374677
O O3 0.971030 0.091765 0.104539
O O4 0.140947 0.982069 0.285605
O O5 0.207434 0.250189 0.202464
O O6 0.086485 0.306034 0.177740
O O7 0.304336 0.296449 0.436616
O O8 0.574233 0.958370 0.725979
O O9 0.438907 0.907226 0.469046
O O10 0.359159 0.946715 0.512153
O O11 0.430315 0.075628 0.504837
O O12 0.735577 0.141590 0.340793
O O13 0.703813 0.317529 0.325256
O O14 0.582739 0.224626 0.095814
O O15 0.751792 0.394025 0.507938
O O16 0.728568 0.524779 0.587436
#
# Coordination Sequence:
#
# PCOD8135673 Si02
#       8
#     8   8   8   8   8   8   8   8
#     4  10  24  40  64  93 124 163 207 252 316 379
#     4  12  21  40  63  91 123 161 204 256 314 374
#     4  10  19  39  63  89 118 161 209 259 306 358
#     4  11  24  37  60  93 127 165 206 256 314 373
#     4  10  22  41  66  89 122 167 214 258 310 369
#     4  10  21  36  60  88 122 157 205 256 308 364
#     4  11  22  41  61  91 129 166 209 260 307 375
#     4  10  22  44  64  90 125 162 204 259 315 376
#
# _framework density 20.333902999999999
#
# number of rings (size 3 to 8) (size 9 to 14) (size 15 to 20)
#    0.000    1.500    2.500    2.625    0.000    2.000 
#    0.000    3.125    0.000    0.000    0.000    0.000 
#    0.000    0.000    0.000    0.000    0.000    0.000 
#
# Total GULP energy -396851.650186 kJ/mol
# GULP energy per Si atom -12401.614068 kJ/mol
# Density = 2.028762 g / cm^3
# Si number density = 20.333903 Si / 1000 Ang^3
#
#
#
# Elastic Constant Matrix: (Units=GPa)
#
#
# Indices 1 2 3 4 5 6 
#
# 1 64.4829 41.1316 16.6562 0.0000 7.9868 0.0000
# 2 41.1316 71.9456 46.3718 0.0000 -0.9354 0.0000
# 3 16.6562 46.3718 96.5580 0.0000 13.3452 0.0000
# 4 0.0000 0.0000 0.0000 33.2125 0.0000 -3.8780
# 5 7.9868 -0.9354 13.3452 0.0000 31.9295 0.0000
# 6 0.0000 0.0000 0.0000 -3.8780 0.0000 29.8355
#
#
#
# Elastic Compliance Matrix: (Units=1/GPa)
#
#
# Indices 1 2 3 4 5 6 
#
# 1 0.028051 -0.020223 0.006288 0.000000 -0.010237 0.000000
# 2 -0.020223 0.035464 -0.015268 0.000000 0.012479 0.000000
# 3 0.006288 -0.015268 0.017918 0.000000 -0.009509 0.000000
# 4 0.000000 0.000000 0.000000 0.030573 0.000000 0.003974
# 5 -0.010237 0.012479 -0.009509 0.000000 0.038220 0.000000
# 6 0.000000 0.000000 0.000000 0.003974 0.000000 0.034034
#
#
# Mechanical properties :
#
#
# Convention : Reuss Voigt Hill
#
# Bulk Modulus (GPa) = 43.42482 49.03398 46.22940
# Shear Modulus (GPa) = 19.97272 27.58398 23.77835
#
# Velocity S-wave (km/s) = 3.13747 3.68713 3.42335
# Velocity P-wave (km/s) = 5.87598 6.50333 6.19760
#
# Compressibility (1/GPa) = 0.02302830
#
# Stress axis : x y z
#
# Youngs Moduli (GPa) = 35.64888 28.19769 55.80879
#
# Poissons Ratio (x) = 0.57025 -0.35094
# Poissons Ratio (y) = 0.72093 0.85207
# Poissons Ratio (z) = -0.22417 0.43051
#
# Static dielectric constant tensor:
#      x y z
#    x 3.635150 0.000000 -0.009370 
#    y 0.000000 3.702570 0.000000 
#    z -0.009370 0.000000 3.704050 
# 
# 
# High freq. dielectric constant tensor:
#      x y z
#    x 1.792040 0.000000 0.000750 
#    y 0.000000 1.799620 0.000000 
#    z 0.000750 0.000000 1.799050 
# 
# From -- ./inp_files/219751.got.cif
#   From: 2010.06.25/outbox.cif.g09.slc.cpg/sg15_110_cif.got.tgz:219751.got - 2010.06.28 07:06:18.
