data_PCOD8135001
_publ_section_title
;
Structure prediction by ZEFSAII (Michael W. Deem and Ramdas Pophale) SiO2 
 PCOD8135001
Probable space group: C 2/C
;
_chemical_formula_sum "Si O2"
_cell_formula_units_Z 52
_cell_length_a 20.910935
_cell_length_b 17.205923
_cell_length_c 8.706842
_cell_angle_alpha 90.000000
_cell_angle_beta 49.281534
_cell_angle_gamma 90.000000
_cell_volume 2374.312204
_symmetry_space_group_name_H-M "C 2/C"
_symmetry_group_IT_number 15
_symmetry_cell_setting 'monoclinic'
loop_
_space_group_symop_operation_xyz
x,y,z
-x,y,1/2-z
-x,-y,-z
x,-y,1/2+z
1/2+x,1/2+y,z
1/2-x,1/2+y,1/2-z
1/2-x,1/2-y,-z
1/2+x,1/2-y,1/2+z
loop_
_atom_site_type_symbol
_atom_site_label
_atom_site_fract_x
_atom_site_fract_y
_atom_site_fract_z
Si Si1 0.882657 0.765930 0.694180
Si Si2 0.414657 0.091575 0.177217
Si Si3 0.154924 0.077416 0.877210
Si Si4 0.738865 0.137300 0.538613
Si Si5 0.237154 0.966808 0.958745
Si Si6 0.500000 0.782539 0.750000
Si Si7 0.500000 0.967062 0.250000
Si Si8 0.000000 0.152067 0.250000
O O1 0.851151 0.679476 0.794347
O O2 0.930759 0.766863 0.454332
O O3 0.947019 0.793737 0.721853
O O4 0.798818 0.820634 0.817348
O O5 0.314231 0.091444 0.304280
O O6 0.447114 0.169178 0.207479
O O7 0.434805 0.020209 0.258296
O O8 0.453868 0.086845 0.946263
O O9 0.211089 0.142503 0.876399
O O10 0.172986 0.078990 0.669077
O O11 0.057015 0.094570 0.058301
O O12 0.182172 0.991446 0.896876
O O13 0.725273 0.046333 0.519956
#
# Coordination Sequence:
#
# PCOD8135001 Si02
#       8
#     8   8   8   8   8   4   4   4
#     4  10  20  43  60  79 116 159 203 230 285 332
#     4  10  20  34  56  87 125 149 193 224 304 338
#     4   9  20  37  61  87 118 141 192 239 301 336
#     4   8  20  38  64  78 114 161 190 228 285 361
#     4  10  19  37  59  89 115 153 181 241 293 355
#     4  11  24  36  56  90 120 154 189 258 270 351
#     4   9  20  31  50  88 121 156 173 234 282 361
#     4  10  22  43  58  84 109 160 196 248 278 344
#
# _framework density 21.901077999999998
#
# number of rings (size 3 to 8) (size 9 to 14) (size 15 to 20)
#    0.923    1.538    0.000    1.846    6.462    1.231 
#    5.538    0.000    0.000    3.692    0.000    0.000 
#    0.000    0.000    0.000    0.000    0.000    0.000 
#
# Total GULP energy -322152.315807 kJ/mol
# GULP energy per Si atom -12390.473685 kJ/mol
# Density = 2.185123 g / cm^3
# Si number density = 21.901078 Si / 1000 Ang^3
#
#
#
# Elastic Constant Matrix: (Units=GPa)
#
#
# Indices 1 2 3 4 5 6 
#
# 1 60.5972 -1.4012 31.5788 0.0000 -9.7738 0.0000
# 2 -1.4012 26.5116 12.0278 0.0000 -2.4951 0.0000
# 3 31.5788 12.0278 150.0557 0.0000 -2.4185 0.0000
# 4 0.0000 0.0000 0.0000 29.8216 0.0000 -2.9346
# 5 -9.7738 -2.4951 -2.4185 0.0000 35.8884 0.0000
# 6 0.0000 0.0000 0.0000 -2.9346 0.0000 11.2248
#
#
#
# Elastic Compliance Matrix: (Units=1/GPa)
#
#
# Indices 1 2 3 4 5 6 
#
# 1 0.019704 0.003512 -0.004343 0.000000 0.005318 0.000000
# 2 0.003512 0.039996 -0.003889 0.000000 0.003475 0.000000
# 3 -0.004343 -0.003889 0.007875 0.000000 -0.000922 0.000000
# 4 0.000000 0.000000 0.000000 0.034418 0.000000 0.008998
# 5 0.005318 0.003475 -0.000922 0.000000 0.029492 0.000000
# 6 0.000000 0.000000 0.000000 0.008998 0.000000 0.091441
#
#
# Mechanical properties :
#
#
# Convention : Reuss Voigt Hill
#
# Bulk Modulus (GPa) = 17.20085 35.73058 26.46572
# Shear Modulus (GPa) = 19.86138 28.38423 24.12280
#
# Velocity S-wave (km/s) = 3.01469 3.60393 3.32240
# Velocity P-wave (km/s) = 4.47088 5.80239 5.17960
#
# Compressibility (1/GPa) = 0.05813665
#
# Stress axis : x y z
#
# Youngs Moduli (GPa) = 50.75021 25.00225 126.98538
#
# Poissons Ratio (x) = -0.08781 0.55144
# Poissons Ratio (y) = -0.17824 0.49385
# Poissons Ratio (z) = 0.22038 0.09723
#
# Static dielectric constant tensor:
#      x y z
#    x 3.632480 0.000000 -0.079840 
#    y 0.000000 3.606700 0.000000 
#    z -0.079840 0.000000 3.978650 
# 
# 
# High freq. dielectric constant tensor:
#      x y z
#    x 1.842900 0.000000 -0.007440 
#    y 0.000000 1.829350 0.000000 
#    z -0.007440 0.000000 1.872630 
# 
# From -- ./inp_files/63378.got.cif
#   From: 2010.06.25/outbox.cif.g09.slc.cpg/sg15_32_cif.got.tgz:63378.got - 2010.06.28 07:06:18.
