data_PCOD8135659
_publ_section_title
;
Structure prediction by ZEFSAII (Michael W. Deem and Ramdas Pophale) SiO2 
 PCOD8135659
Probable space group: C 2/C
;
_chemical_formula_sum "Si O2"
_cell_formula_units_Z 40
_cell_length_a 5.733603
_cell_length_b 18.658831
_cell_length_c 20.945968
_cell_angle_alpha 90.000000
_cell_angle_beta 59.026205
_cell_angle_gamma 90.000000
_cell_volume 1921.309668
_symmetry_space_group_name_H-M "C 2/C"
_symmetry_group_IT_number 15
_symmetry_cell_setting 'monoclinic'
loop_
_space_group_symop_operation_xyz
x,y,z
-x,y,1/2-z
-x,-y,-z
x,-y,1/2+z
1/2+x,1/2+y,z
1/2-x,1/2+y,1/2-z
1/2-x,1/2-y,-z
1/2+x,1/2-y,1/2+z
loop_
_atom_site_type_symbol
_atom_site_label
_atom_site_fract_x
_atom_site_fract_y
_atom_site_fract_z
Si Si1 0.630372 0.338898 0.492106
Si Si2 0.500000 0.218279 0.750000
Si Si3 0.181947 0.285919 0.906530
Si Si4 0.378279 0.932250 0.097571
Si Si5 0.659821 0.071325 0.043484
Si Si6 0.500000 0.366239 0.250000
O O1 0.618803 0.298255 0.561259
O O2 0.514479 0.286258 0.452081
O O3 0.461497 0.412130 0.526326
O O4 0.929563 0.362695 0.427241
O O5 0.355817 0.271110 0.819634
O O6 0.256094 0.175440 0.747224
O O7 0.001012 0.355199 0.920368
O O8 0.118455 0.917163 0.178007
O O9 0.526219 0.005495 0.100742
O O10 0.294684 0.947258 0.036859
#
# Coordination Sequence:
#
# PCOD8135659 Si02
#       6
#     8   4   8   8   8   4
#     4  10  19  39  62  93 122 172 213 268 322 397
#     4  12  26  43  68  95 136 168 224 270 338 382
#     4  10  22  36  62  95 125 170 214 273 321 392
#     4  10  22  39  63  93 127 168 224 261 333 388
#     4  10  21  38  65  92 129 166 220 272 321 392
#     4  12  26  45  66  97 128 178 212 274 326 406
#
# _framework density 20.819133999999998
#
# number of rings (size 3 to 8) (size 9 to 14) (size 15 to 20)
#    0.000    1.600    2.000    2.400    2.800    0.800 
#    0.000    0.000    0.000    0.000    0.000    0.000 
#    0.000    0.000    0.000    0.000    0.000    0.000 
#
# Total GULP energy -247767.607070 kJ/mol
# GULP energy per Si atom -12388.380353 kJ/mol
# Density = 2.077175 g / cm^3
# Si number density = 20.819134 Si / 1000 Ang^3
#
#
#
# Elastic Constant Matrix: (Units=GPa)
#
#
# Indices 1 2 3 4 5 6 
#
# 1 65.7238 11.6209 25.2910 0.0000 -6.4781 0.0000
# 2 11.6209 88.4857 43.0243 0.0000 -1.5666 0.0000
# 3 25.2910 43.0243 145.4794 0.0000 -3.1059 0.0000
# 4 0.0000 0.0000 0.0000 33.2893 0.0000 -1.6120
# 5 -6.4781 -1.5666 -3.1059 0.0000 18.2487 0.0000
# 6 0.0000 0.0000 0.0000 -1.6120 0.0000 24.3909
#
#
#
# Elastic Compliance Matrix: (Units=1/GPa)
#
#
# Indices 1 2 3 4 5 6 
#
# 1 0.016896 -0.000877 -0.002561 0.000000 0.005487 0.000000
# 2 -0.000877 0.013249 -0.003762 0.000000 0.000186 0.000000
# 3 -0.002561 -0.003762 0.008436 0.000000 0.000204 0.000000
# 4 0.000000 0.000000 0.000000 0.030136 0.000000 0.001992
# 5 0.005487 0.000186 0.000204 0.000000 0.056797 0.000000
# 6 0.000000 0.000000 0.000000 0.001992 0.000000 0.041131
#
#
# Mechanical properties :
#
#
# Convention : Reuss Voigt Hill
#
# Bulk Modulus (GPa) = 41.35268 51.06237 46.20752
# Shear Modulus (GPa) = 26.44041 29.83597 28.13819
#
# Velocity S-wave (km/s) = 3.56758 3.78974 3.68034
# Velocity P-wave (km/s) = 6.07257 6.61282 6.34845
#
# Compressibility (1/GPa) = 0.02418223
#
# Stress axis : x y z
#
# Youngs Moduli (GPa) = 59.18388 75.47856 118.54070
#
# Poissons Ratio (x) = 0.06617 0.30358
# Poissons Ratio (y) = 0.05189 0.44593
# Poissons Ratio (z) = 0.15157 0.28394
#
# Static dielectric constant tensor:
#      x y z
#    x 3.827790 0.000000 0.002650 
#    y 0.000000 4.072810 0.000000 
#    z 0.002650 0.000000 3.667160 
# 
# 
# High freq. dielectric constant tensor:
#      x y z
#    x 1.806960 0.000000 -0.006430 
#    y 0.000000 1.829250 0.000000 
#    z -0.006430 0.000000 1.804530 
# 
# From -- ./inp_files/184271.got.cif
#   From: 2010.06.25/outbox.cif.g09.slc.cpg/sg15_93_cif.got.tgz:184271.got - 2010.06.28 07:06:18.
