data_PCOD8135635
_publ_section_title
;
Structure prediction by ZEFSAII (Michael W. Deem and Ramdas Pophale) SiO2 
 PCOD8135635
Probable space group: C 2/C
;
_chemical_formula_sum "Si O2"
_cell_formula_units_Z 48
_cell_length_a 9.007636
_cell_length_b 16.209655
_cell_length_c 28.239252
_cell_angle_alpha 90.000000
_cell_angle_beta 36.214189
_cell_angle_gamma 90.000000
_cell_volume 2436.028192
_symmetry_space_group_name_H-M "C 2/C"
_symmetry_group_IT_number 15
_symmetry_cell_setting 'monoclinic'
loop_
_space_group_symop_operation_xyz
x,y,z
-x,y,1/2-z
-x,-y,-z
x,-y,1/2+z
1/2+x,1/2+y,z
1/2-x,1/2+y,1/2-z
1/2-x,1/2-y,-z
1/2+x,1/2-y,1/2+z
loop_
_atom_site_type_symbol
_atom_site_label
_atom_site_fract_x
_atom_site_fract_y
_atom_site_fract_z
Si Si1 0.871341 0.147515 0.351824
Si Si2 0.714257 0.725422 0.580903
Si Si3 0.558457 0.918355 0.014404
Si Si4 0.896178 0.378432 0.674874
Si Si5 0.722419 0.969368 0.076000
Si Si6 0.136072 0.190446 0.912736
O O1 0.787793 0.122682 0.426142
O O2 0.670169 0.117220 0.364056
O O3 0.867316 0.246326 0.347046
O O4 0.148894 0.114290 0.270683
O O5 0.545525 0.794421 0.651415
O O6 0.537890 0.680576 0.588213
O O7 0.827596 0.647212 0.580272
O O8 0.949818 0.777203 0.501220
O O9 0.628991 0.941513 0.048960
O O10 0.500000 0.000000 0.000000
O O11 0.058118 0.459648 0.642859
O O12 0.723299 0.893687 0.111844
O O13 0.000000 0.000000 0.000000
#
# Coordination Sequence:
#
# PCOD8135635 Si02
#       6
#     8   8   8   8   8   8
#     4   9  20  38  61  83 120 160 198 235 306 355
#     4   9  18  36  62  81 114 154 196 230 293 361
#     4  11  21  37  61  91 113 157 203 244 284 359
#     4  10  19  39  61  86 120 160 192 249 301 354
#     4  12  22  36  63  91 120 150 204 251 294 345
#     4   9  18  35  59  87 111 154 193 237 286 362
#
# _framework density 19.704205999999999
#
# number of rings (size 3 to 8) (size 9 to 14) (size 15 to 20)
#    0.000    2.000    3.333    2.000    0.000    2.667 
#    3.000    0.833    3.667    0.000    0.000    0.000 
#    0.000    0.000    0.000    0.000    0.000    0.000 
#
# Total GULP energy -297380.476948 kJ/mol
# GULP energy per Si atom -12390.853206 kJ/mol
# Density = 1.965936 g / cm^3
# Si number density = 19.704206 Si / 1000 Ang^3
#
#
#
# Elastic Constant Matrix: (Units=GPa)
#
#
# Indices 1 2 3 4 5 6 
#
# 1 63.2824 54.1909 26.7156 -0.0099 -19.3158 0.0000
# 2 54.1909 148.2216 42.7067 0.0073 -26.2867 0.0001
# 3 26.7156 42.7067 83.8158 -0.0184 -21.5450 0.0071
# 4 -0.0099 0.0073 -0.0184 27.6579 0.0139 -7.3840
# 5 -19.3158 -26.2867 -21.5450 0.0139 22.3933 -0.0029
# 6 0.0000 0.0001 0.0071 -7.3840 -0.0029 43.8424
#
#
#
# Elastic Compliance Matrix: (Units=1/GPa)
#
#
# Indices 1 2 3 4 5 6 
#
# 1 0.026343 -0.006851 -0.001504 0.000004 0.013234 0.000002
# 2 -0.006851 0.010666 -0.002061 -0.000009 0.004628 -0.000001
# 3 -0.001504 -0.002061 0.016614 0.000005 0.012267 -0.000001
# 4 0.000004 -0.000009 0.000005 0.037858 -0.000026 0.006376
# 5 0.013234 0.004628 0.012267 -0.000026 0.073306 -0.000001
# 6 0.000002 -0.000001 -0.000001 0.006376 -0.000001 0.023883
#
#
# Mechanical properties :
#
#
# Convention : Reuss Voigt Hill
#
# Bulk Modulus (GPa) = 30.49685 60.28291 45.38988
# Shear Modulus (GPa) = 22.68254 30.22584 26.45419
#
# Velocity S-wave (km/s) = 3.39654 3.92085 3.66808
# Velocity P-wave (km/s) = 5.55814 7.15247 6.40511
#
# Compressibility (1/GPa) = 0.03279027
#
# Stress axis : x y z
#
# Youngs Moduli (GPa) = 37.96048 93.75506 60.18982
#
# Poissons Ratio (x) = 0.64231 0.09054
# Poissons Ratio (y) = 0.26006 0.12408
# Poissons Ratio (z) = 0.05710 0.19327
#
# Static dielectric constant tensor:
#      x y z
#    x 3.668550 0.000000 -0.132150 
#    y 0.000000 3.777750 0.000010 
#    z -0.132150 0.000010 3.372510 
# 
# 
# High freq. dielectric constant tensor:
#      x y z
#    x 1.749450 0.000000 -0.020010 
#    y 0.000000 1.785010 0.000000 
#    z -0.020010 0.000000 1.745170 
# 
# From -- ./inp_files/307920.got.cif
#   From: 2010.06.25/outbox.cif.g09.slc.cpg/sg15_154_cif.got.tgz:307920.got - 2010.06.28 07:06:18.
