data_PCOD8135215
_publ_section_title
;
Structure prediction by ZEFSAII (Michael W. Deem and Ramdas Pophale) SiO2 
 PCOD8135215
Probable space group: C 2/C
;
_chemical_formula_sum "Si O2"
_cell_formula_units_Z 56
_cell_length_a 27.862772
_cell_length_b 10.295902
_cell_length_c 18.578995
_cell_angle_alpha 90.000000
_cell_angle_beta 25.777242
_cell_angle_gamma 90.000000
_cell_volume 2317.788691
_symmetry_space_group_name_H-M "C 2/C"
_symmetry_group_IT_number 15
_symmetry_cell_setting 'monoclinic'
loop_
_space_group_symop_operation_xyz
x,y,z
-x,y,1/2-z
-x,-y,-z
x,-y,1/2+z
1/2+x,1/2+y,z
1/2-x,1/2+y,1/2-z
1/2-x,1/2-y,-z
1/2+x,1/2-y,1/2+z
loop_
_atom_site_type_symbol
_atom_site_label
_atom_site_fract_x
_atom_site_fract_y
_atom_site_fract_z
Si Si1 0.858280 0.615970 0.302784
Si Si2 0.183570 0.142092 0.737649
Si Si3 0.360073 0.866791 0.213829
Si Si4 0.707843 0.548458 0.094398
Si Si5 0.907574 0.429342 0.995478
Si Si6 0.137264 0.228576 0.073679
Si Si7 0.443446 0.774719 0.466089
O O1 0.843774 0.753154 0.285241
O O2 0.874189 0.516648 0.215134
O O3 0.752014 0.580743 0.493930
O O4 0.970585 0.604971 0.199267
O O5 0.315621 0.127473 0.566688
O O6 0.128180 0.172259 0.889886
O O7 0.148401 0.002318 0.748376
O O8 0.399166 0.847226 0.080307
O O9 0.235381 0.820653 0.389345
O O10 0.434178 0.776817 0.166283
O O11 0.820632 0.633142 0.952684
O O12 0.620870 0.624183 0.160707
O O13 0.887362 0.582820 0.039095
O O14 0.039386 0.237247 0.143532
#
# Coordination Sequence:
#
# PCOD8135215 Si02
#       7
#     8   8   8   8   8   8   8
#     4  10  21  39  60  87 125 158 206 262 303 378
#     4  12  21  35  66  92 125 161 204 258 329 362
#     4  10  19  37  65  92 121 155 207 266 307 360
#     4  10  23  40  59  88 125 168 201 251 321 366
#     4  11  20  36  63  97 119 158 213 259 310 373
#     4  10  21  41  63  87 126 162 214 260 298 376
#     4  11  20  37  65  93 119 165 214 260 307 368
#
# _framework density 24.160959999999999
#
# number of rings (size 3 to 8) (size 9 to 14) (size 15 to 20)
#    0.000    1.429    5.714    1.286    0.000    0.571 
#    2.571    2.857   12.571    0.000    0.000    0.000 
#    0.000    0.000    0.000    0.000    0.000    0.000 
#
# Total GULP energy -347021.094037 kJ/mol
# GULP energy per Si atom -12393.610501 kJ/mol
# Density = 2.410597 g / cm^3
# Si number density = 24.160960 Si / 1000 Ang^3
#
#
#
# Elastic Constant Matrix: (Units=GPa)
#
#
# Indices 1 2 3 4 5 6 
#
# 1 151.1104 56.1798 32.4805 -0.0001 0.3018 0.0000
# 2 56.1798 81.6432 29.4322 -0.0011 14.8368 0.0003
# 3 32.4805 29.4322 40.3262 -0.0007 15.1212 0.0002
# 4 -0.0001 -0.0011 -0.0007 38.1862 0.0005 4.7719
# 5 0.3018 14.8368 15.1212 0.0005 37.9714 -0.0001
# 6 0.0000 0.0003 0.0002 4.7719 -0.0001 32.1711
#
#
#
# Elastic Compliance Matrix: (Units=1/GPa)
#
#
# Indices 1 2 3 4 5 6 
#
# 1 0.009865 -0.005596 -0.005469 0.000000 0.004286 0.000000
# 2 -0.005596 0.019920 -0.008382 0.000000 -0.004401 0.000000
# 3 -0.005469 -0.008382 0.040057 0.000001 -0.012633 0.000000
# 4 0.000000 0.000000 0.000001 0.026682 -0.000001 -0.003958
# 5 0.004286 -0.004401 -0.012633 -0.000001 0.033052 0.000000
# 6 0.000000 0.000000 0.000000 -0.003958 0.000000 0.031671
#
#
# Mechanical properties :
#
#
# Convention : Reuss Voigt Hill
#
# Bulk Modulus (GPa) = 32.30977 56.58501 44.44739
# Shear Modulus (GPa) = 23.75797 31.99821 27.87809
#
# Velocity S-wave (km/s) = 3.13920 3.64315 3.40052
# Velocity P-wave (km/s) = 5.15181 6.41619 5.81845
#
# Compressibility (1/GPa) = 0.03095039
#
# Stress axis : x y z
#
# Youngs Moduli (GPa) = 101.36923 50.20041 24.96443
#
# Poissons Ratio (x) = 0.28090 0.13652
# Poissons Ratio (y) = 0.56722 0.20924
# Poissons Ratio (z) = 0.55437 0.42076
#
# Static dielectric constant tensor:
#      x y z
#    x 4.533770 0.000000 0.019520 
#    y 0.000000 4.227570 0.000000 
#    z 0.019520 0.000000 4.483740 
# 
# 
# High freq. dielectric constant tensor:
#      x y z
#    x 1.974540 0.000000 0.007300 
#    y 0.000000 1.941640 0.000000 
#    z 0.007300 0.000000 1.963900 
# 
# From -- ./inp_files/258970.got.cif
#   From: 2010.06.25/outbox.cif.g09.slc.cpg/sg15_130_cif.got.tgz:258970.got - 2010.06.28 07:06:18.
