data_PCOD8135461
_publ_section_title
;
Structure prediction by ZEFSAII (Michael W. Deem and Ramdas Pophale) SiO2 
 PCOD8135461
Probable space group: C 2/C
;
_chemical_formula_sum "Si O2"
_cell_formula_units_Z 60
_cell_length_a 29.529444
_cell_length_b 9.830966
_cell_length_c 12.675685
_cell_angle_alpha 90.000000
_cell_angle_beta 127.527668
_cell_angle_gamma 90.000000
_cell_volume 2918.290710
_symmetry_space_group_name_H-M "C 2/C"
_symmetry_group_IT_number 15
_symmetry_cell_setting 'monoclinic'
loop_
_space_group_symop_operation_xyz
x,y,z
-x,y,1/2-z
-x,-y,-z
x,-y,1/2+z
1/2+x,1/2+y,z
1/2-x,1/2+y,1/2-z
1/2-x,1/2-y,-z
1/2+x,1/2-y,1/2+z
loop_
_atom_site_type_symbol
_atom_site_label
_atom_site_fract_x
_atom_site_fract_y
_atom_site_fract_z
Si Si1 0.119079 0.272190 0.748798
Si Si2 0.652171 0.615500 0.996064
Si Si3 0.000000 0.299720 0.250000
Si Si4 0.644158 0.875824 0.117354
Si Si5 0.833431 0.404008 0.018283
Si Si6 0.610639 0.670918 0.506511
Si Si7 0.722523 0.976176 0.884675
Si Si8 0.430060 0.949524 0.309786
O O1 0.105152 0.186883 0.624132
O O2 0.180282 0.346737 0.830075
O O3 0.069569 0.386062 0.692007
O O4 0.118009 0.170364 0.846112
O O5 0.652365 0.721724 0.092306
O O6 0.716174 0.579615 0.055603
O O7 0.620436 0.484549 0.994458
O O8 0.946542 0.210474 0.137774
O O9 0.986867 0.393043 0.334703
O O10 0.582798 0.896521 0.089253
O O11 0.641373 0.971945 0.012157
O O12 0.699982 0.920756 0.263133
O O13 0.834663 0.263740 0.953626
O O14 0.774648 0.446652 0.995526
O O15 0.876407 0.383836 0.175279
#
# Coordination Sequence:
#
# PCOD8135461 Si02
#       8
#     8   8   4   8   8   8   8   8
#     4  10  21  42  62  96 130 171 222 267 318 385
#     4  12  25  38  65  97 140 172 210 274 322 388
#     4  10  24  46  70  94 126 168 222 276 338 384
#     4  10  19  38  63  91 129 167 218 255 311 383
#     4   9  17  38  61  86 128 165 213 263 302 382
#     4  11  24  42  65  94 133 169 214 281 338 379
#     4  10  22  35  66  94 132 177 220 259 307 392
#     4   9  19  39  69  90 119 164 220 275 308 390
#
# _framework density 20.559979999999999
#
# number of rings (size 3 to 8) (size 9 to 14) (size 15 to 20)
#    0.000    2.133    5.333    0.400    1.867    4.267 
#    0.000    3.333    0.000    0.000    0.000    0.000 
#    0.000    0.000    0.000    0.000    0.000    0.000 
#
# Total GULP energy -371730.383065 kJ/mol
# GULP energy per Si atom -12391.012769 kJ/mol
# Density = 2.051318 g / cm^3
# Si number density = 20.559980 Si / 1000 Ang^3
#
#
#
# Elastic Constant Matrix: (Units=GPa)
#
#
# Indices 1 2 3 4 5 6 
#
# 1 87.3224 54.5085 29.0229 0.0000 -15.6972 0.0000
# 2 54.5085 164.3819 43.1563 0.0000 -18.8150 0.0000
# 3 29.0229 43.1563 68.4652 0.0000 -22.3545 0.0000
# 4 0.0000 0.0000 0.0000 6.6181 0.0000 -6.9458
# 5 -15.6972 -18.8150 -22.3545 0.0000 24.0919 0.0000
# 6 0.0000 0.0000 0.0000 -6.9458 0.0000 24.1611
#
#
#
# Elastic Compliance Matrix: (Units=1/GPa)
#
#
# Indices 1 2 3 4 5 6 
#
# 1 0.015632 -0.003966 -0.002600 0.000000 0.004675 0.000000
# 2 -0.003966 0.008367 -0.003304 0.000000 0.000885 0.000000
# 3 -0.002600 -0.003304 0.023521 0.000000 0.017550 0.000000
# 4 0.000000 0.000000 0.000000 0.216389 0.000000 0.062207
# 5 0.004675 0.000885 0.017550 0.000000 0.061529 0.000000
# 6 0.000000 0.000000 0.000000 0.062207 0.000000 0.059272
#
#
# Mechanical properties :
#
#
# Convention : Reuss Voigt Hill
#
# Bulk Modulus (GPa) = 35.99694 63.72722 49.86208
# Shear Modulus (GPa) = 12.08572 23.87300 17.97936
#
# Velocity S-wave (km/s) = 2.42715 3.41125 2.96037
# Velocity P-wave (km/s) = 5.03994 6.82485 5.99915
#
# Compressibility (1/GPa) = 0.02778014
#
# Stress axis : x y z
#
# Youngs Moduli (GPa) = 63.97141 119.51507 42.51459
#
# Poissons Ratio (x) = 0.47396 0.11055
# Poissons Ratio (y) = 0.25369 0.14048
# Poissons Ratio (z) = 0.16634 0.39490
#
# Static dielectric constant tensor:
#      x y z
#    x 3.908390 0.000000 -0.494760 
#    y 0.000000 3.729680 0.000000 
#    z -0.494760 0.000000 3.815470 
# 
# 
# High freq. dielectric constant tensor:
#      x y z
#    x 1.790160 0.000000 -0.030950 
#    y 0.000000 1.796000 0.000000 
#    z -0.030950 0.000000 1.805580 
# 
# From -- ./inp_files/125960.got.cif
#   From: 2010.06.25/outbox.cif.g09.slc.cpg/sg15_63_cif.got.tgz:125960.got - 2010.06.28 07:06:18.
