data_PCOD8135935
_publ_section_title
;
Structure prediction by ZEFSAII (Michael W. Deem and Ramdas Pophale) SiO2 
 PCOD8135935
Probable space group: C 2/C
;
_chemical_formula_sum "Si O2"
_cell_formula_units_Z 56
_cell_length_a 9.210915
_cell_length_b 13.413086
_cell_length_c 22.745828
_cell_angle_alpha 90.000000
_cell_angle_beta 76.953999
_cell_angle_gamma 90.000000
_cell_volume 2737.641151
_symmetry_space_group_name_H-M "C 2/C"
_symmetry_group_IT_number 15
_symmetry_cell_setting 'monoclinic'
loop_
_space_group_symop_operation_xyz
x,y,z
-x,y,1/2-z
-x,-y,-z
x,-y,1/2+z
1/2+x,1/2+y,z
1/2-x,1/2+y,1/2-z
1/2-x,1/2-y,-z
1/2+x,1/2-y,1/2+z
loop_
_atom_site_type_symbol
_atom_site_label
_atom_site_fract_x
_atom_site_fract_y
_atom_site_fract_z
Si Si1 0.840001 0.289733 0.247966
Si Si2 0.296556 0.613546 0.169745
Si Si3 0.733034 0.844478 0.861418
Si Si4 0.396594 0.811780 0.912619
Si Si5 0.678222 0.481718 0.229586
Si Si6 0.147131 0.119064 0.519717
Si Si7 0.441720 0.592471 0.435757
O O1 0.876124 0.200673 0.199659
O O2 0.756062 0.245334 0.312994
O O3 0.737684 0.368905 0.222785
O O4 0.000000 0.336906 0.250000
O O5 0.156141 0.657034 0.147535
O O6 0.244385 0.528352 0.219402
O O7 0.413981 0.563174 0.115434
O O8 0.567028 0.843294 0.901483
O O9 0.838284 0.830304 0.909238
O O10 0.770375 0.953704 0.831155
O O11 0.371668 0.693239 0.923373
O O12 0.304238 0.866216 0.972463
O O13 0.500000 0.483497 0.250000
O O14 0.005146 0.141085 0.489908
O O15 0.150398 0.007018 0.542571
#
# Coordination Sequence:
#
# PCOD8135935 Si02
#       7
#     8   8   8   8   8   8   8
#     4  11  24  40  59  95 122 158 199 250 294 378
#     4  10  21  40  62  85 130 157 199 243 308 357
#     4  11  23  39  63  90 128 156 203 240 316 352
#     4  10  23  39  60  95 118 162 200 269 286 363
#     4  11  24  40  62  92 121 161 200 245 300 381
#     4   9  22  41  63  86 119 154 224 244 311 342
#     4  10  19  41  65  82 116 171 195 262 294 369
#
# _framework density 20.455566999999999
#
# number of rings (size 3 to 8) (size 9 to 14) (size 15 to 20)
#    0.000    1.714    2.857    0.857    8.000    2.286 
#    0.000    0.000    0.000    0.000    0.000    0.000 
#    0.000    0.000    0.000    0.000    0.000    0.000 
#
# Total GULP energy -347195.456357 kJ/mol
# GULP energy per Si atom -12399.837727 kJ/mol
# Density = 2.040901 g / cm^3
# Si number density = 20.455567 Si / 1000 Ang^3
#
#
#
# Elastic Constant Matrix: (Units=GPa)
#
#
# Indices 1 2 3 4 5 6 
#
# 1 101.3363 19.0488 33.6940 0.0000 -13.0486 0.0000
# 2 19.0488 73.3471 19.5858 0.0000 -13.4124 0.0000
# 3 33.6940 19.5858 64.7995 0.0000 -0.7684 0.0000
# 4 0.0000 0.0000 0.0000 22.8336 0.0000 2.7944
# 5 -13.0486 -13.4124 -0.7684 0.0000 36.3656 0.0000
# 6 0.0000 0.0000 0.0000 2.7944 0.0000 33.1861
#
#
#
# Elastic Compliance Matrix: (Units=1/GPa)
#
#
# Indices 1 2 3 4 5 6 
#
# 1 0.012639 -0.000863 -0.006262 0.000000 0.004084 0.000000
# 2 -0.000863 0.016021 -0.004328 0.000000 0.005508 0.000000
# 3 -0.006262 -0.004328 0.019956 0.000000 -0.003422 0.000000
# 4 0.000000 0.000000 0.000000 0.044251 0.000000 -0.003726
# 5 0.004084 0.005508 -0.003422 0.000000 0.030923 0.000000
# 6 0.000000 0.000000 0.000000 -0.003726 0.000000 0.030447
#
#
# Mechanical properties :
#
#
# Convention : Reuss Voigt Hill
#
# Bulk Modulus (GPa) = 38.89845 42.68226 40.79035
# Shear Modulus (GPa) = 26.92321 29.62067 28.27194
#
# Velocity S-wave (km/s) = 3.63186 3.80945 3.72171
# Velocity P-wave (km/s) = 6.05347 6.34511 6.20100
#
# Compressibility (1/GPa) = 0.02570797
#
# Stress axis : x y z
#
# Youngs Moduli (GPa) = 79.12325 62.41850 50.11005
#
# Poissons Ratio (x) = 0.05388 0.31381
# Poissons Ratio (y) = 0.06830 0.21689
# Poissons Ratio (z) = 0.49550 0.27016
#
# Static dielectric constant tensor:
#      x y z
#    x 3.691320 0.000000 0.205710 
#    y 0.000000 3.522030 0.000000 
#    z 0.205710 0.000000 3.771260 
# 
# 
# High freq. dielectric constant tensor:
#      x y z
#    x 1.801770 0.000000 0.007510 
#    y 0.000000 1.783440 0.000000 
#    z 0.007510 0.000000 1.802750 
# 
# From -- ./inp_files/231605.got.cif
#   From: 2010.06.25/outbox.cif.g09.slc.cpg/sg15_116_cif.got.tgz:231605.got - 2010.06.28 07:06:18.
