data_PCOD8135774
_publ_section_title
;
Structure prediction by ZEFSAII (Michael W. Deem and Ramdas Pophale) SiO2 
 PCOD8135774
Probable space group: C 2/C
;
_chemical_formula_sum "Si O2"
_cell_formula_units_Z 56
_cell_length_a 21.153332
_cell_length_b 8.181871
_cell_length_c 16.893321
_cell_angle_alpha 90.000000
_cell_angle_beta 120.087597
_cell_angle_gamma 90.000000
_cell_volume 2529.840012
_symmetry_space_group_name_H-M "C 2/C"
_symmetry_group_IT_number 15
_symmetry_cell_setting 'monoclinic'
loop_
_space_group_symop_operation_xyz
x,y,z
-x,y,1/2-z
-x,-y,-z
x,-y,1/2+z
1/2+x,1/2+y,z
1/2-x,1/2+y,1/2-z
1/2-x,1/2-y,-z
1/2+x,1/2-y,1/2+z
loop_
_atom_site_type_symbol
_atom_site_label
_atom_site_fract_x
_atom_site_fract_y
_atom_site_fract_z
Si Si1 0.721622 0.385187 0.174417
Si Si2 0.152888 0.180238 0.205916
Si Si3 0.277316 0.062820 0.079183
Si Si4 0.374779 0.687377 0.568445
Si Si5 0.339473 0.843883 0.994829
Si Si6 0.428890 0.109783 0.969360
Si Si7 0.081789 0.852474 0.827849
O O1 0.766299 0.259632 0.257499
O O2 0.660815 0.491576 0.182413
O O3 0.784688 0.495897 0.172935
O O4 0.683938 0.304526 0.074547
O O5 0.135483 0.176341 0.287839
O O6 0.091277 0.282277 0.120412
O O7 0.348429 0.177552 0.115365
O O8 0.275449 0.922125 0.009139
O O9 0.198596 0.151295 0.027681
O O10 0.436023 0.763438 0.547645
O O11 0.410215 0.535699 0.634810
O O12 0.402199 0.778409 0.093263
O O13 0.364880 0.984819 0.950877
O O14 0.500000 0.000000 0.000000
O O15 0.000000 0.822563 0.750000
#
# Coordination Sequence:
#
# PCOD8135774 Si02
#       7
#     8   8   8   8   8   8   8
#     4  12  23  41  67  97 132 159 215 279 340 372
#     4  12  26  41  65 105 131 164 218 285 325 374
#     4  10  19  39  69  90 122 163 216 267 318 394
#     4  10  22  41  67  92 122 172 217 257 330 392
#     4  11  22  43  68  91 126 181 211 260 334 396
#     4  11  24  45  65  91 132 177 217 258 321 391
#     4  12  25  43  63  94 134 175 221 259 315 399
#
# _framework density 22.135786
#
# number of rings (size 3 to 8) (size 9 to 14) (size 15 to 20)
#    0.000    0.857    4.286    3.000    2.000    1.143 
#    2.571    4.286    0.000    0.000    0.000    0.000 
#    0.000    0.000    0.000    0.000    0.000    0.000 
#
# Total GULP energy -347094.945416 kJ/mol
# GULP energy per Si atom -12396.248051 kJ/mol
# Density = 2.208540 g / cm^3
# Si number density = 22.135786 Si / 1000 Ang^3
#
#
#
# Elastic Constant Matrix: (Units=GPa)
#
#
# Indices 1 2 3 4 5 6 
#
# 1 71.9248 29.1109 21.6234 0.0000 -1.2295 0.0000
# 2 29.1109 108.6023 35.0805 0.0000 -4.1207 0.0000
# 3 21.6234 35.0805 71.7272 0.0000 4.7351 0.0000
# 4 0.0000 0.0000 0.0000 36.7286 0.0000 -4.7100
# 5 -1.2295 -4.1207 4.7351 0.0000 28.7214 0.0000
# 6 0.0000 0.0000 0.0000 -4.7100 0.0000 42.9972
#
#
#
# Elastic Compliance Matrix: (Units=1/GPa)
#
#
# Indices 1 2 3 4 5 6 
#
# 1 0.016238 -0.003236 -0.003364 0.000000 0.000785 0.000000
# 2 -0.003236 0.011758 -0.004931 0.000000 0.002361 0.000000
# 3 -0.003364 -0.004931 0.017615 0.000000 -0.003756 0.000000
# 4 0.000000 0.000000 0.000000 0.027615 0.000000 0.003025
# 5 0.000785 0.002361 -0.003756 0.000000 0.035809 0.000000
# 6 0.000000 0.000000 0.000000 0.003025 0.000000 0.023589
#
#
# Mechanical properties :
#
#
# Convention : Reuss Voigt Hill
#
# Bulk Modulus (GPa) = 44.34845 47.09822 45.72334
# Shear Modulus (GPa) = 30.63688 32.78541 31.71115
#
# Velocity S-wave (km/s) = 3.72431 3.85269 3.78904
# Velocity P-wave (km/s) = 6.21065 6.41203 6.31214
#
# Compressibility (1/GPa) = 0.02254870
#
# Stress axis : x y z
#
# Youngs Moduli (GPa) = 61.58372 85.05089 56.76838
#
# Poissons Ratio (x) = 0.27523 0.19099
# Poissons Ratio (y) = 0.19929 0.27991
# Poissons Ratio (z) = 0.20719 0.41937
#
# Static dielectric constant tensor:
#      x y z
#    x 3.928840 0.000000 -0.310060 
#    y 0.000000 4.421060 0.000000 
#    z -0.310060 0.000000 3.700840 
# 
# 
# High freq. dielectric constant tensor:
#      x y z
#    x 1.859240 0.000000 -0.025870 
#    y 0.000000 1.895500 0.000000 
#    z -0.025870 0.000000 1.853650 
# 
# From -- ./inp_files/214005.got.cif
#   From: 2010.06.25/outbox.cif.g09.slc.cpg/sg15_108_cif.got.tgz:214005.got - 2010.06.28 07:06:18.
