data_PCOD8135063
_publ_section_title
;
Structure prediction by ZEFSAII (Michael W. Deem and Ramdas Pophale) SiO2 
 PCOD8135063
Probable space group: C 2/C
;
_chemical_formula_sum "Si O2"
_cell_formula_units_Z 48
_cell_length_a 11.332738
_cell_length_b 15.453462
_cell_length_c 19.333321
_cell_angle_alpha 90.000000
_cell_angle_beta 41.127554
_cell_angle_gamma 90.000000
_cell_volume 2226.997578
_symmetry_space_group_name_H-M "C 2/C"
_symmetry_group_IT_number 15
_symmetry_cell_setting 'monoclinic'
loop_
_space_group_symop_operation_xyz
x,y,z
-x,y,1/2-z
-x,-y,-z
x,-y,1/2+z
1/2+x,1/2+y,z
1/2-x,1/2+y,1/2-z
1/2-x,1/2-y,-z
1/2+x,1/2-y,1/2+z
loop_
_atom_site_type_symbol
_atom_site_label
_atom_site_fract_x
_atom_site_fract_y
_atom_site_fract_z
Si Si1 0.069420 0.989038 0.548008
Si Si2 0.122013 0.872601 0.754967
Si Si3 0.329934 0.028275 0.620231
Si Si4 0.335390 0.349284 0.404991
Si Si5 0.535984 0.010142 0.659466
Si Si6 0.491256 0.181804 0.142645
O O1 0.274728 0.958870 0.453328
O O2 0.968760 0.913158 0.635240
O O3 0.064721 0.082110 0.588561
O O4 0.000000 0.000000 0.500000
O O5 0.286828 0.811076 0.705145
O O6 0.000000 0.823555 0.750000
O O7 0.196357 0.948732 0.674380
O O8 0.212945 0.108927 0.647142
O O9 0.385063 0.046823 0.674830
O O10 0.500000 0.000000 0.500000
O O11 0.465981 0.268169 0.332485
O O12 0.138853 0.318657 0.516911
O O13 0.500000 0.051465 0.750000
O O14 0.518242 0.906000 0.674088
#
# Coordination Sequence:
#
# PCOD8135063 Si02
#       6
#     8   8   8   8   8   8
#     4  11  21  34  59  91 126 162 216 267 317 375
#     4  11  19  33  60  93 123 171 211 259 324 382
#     4  11  17  35  60  88 123 160 220 264 304 376
#     4  10  19  37  60  93 123 167 219 263 313 387
#     4  10  20  37  60  92 126 166 213 269 320 378
#     4   9  20  35  60  88 131 165 210 265 327 379
#
# _framework density 21.553682999999999
#
# number of rings (size 3 to 8) (size 9 to 14) (size 15 to 20)
#    0.000    1.667    6.667    2.000    0.000    0.000 
#    3.000    0.000    3.667    8.000    0.000    0.000 
#    0.000    0.000    0.000    0.000    0.000    0.000 
#
# Total GULP energy -297335.331209 kJ/mol
# GULP energy per Si atom -12388.972134 kJ/mol
# Density = 2.150463 g / cm^3
# Si number density = 21.553683 Si / 1000 Ang^3
#
#
#
# Elastic Constant Matrix: (Units=GPa)
#
#
# Indices 1 2 3 4 5 6 
#
# 1 178.3785 66.9399 46.5538 0.0002 2.8614 0.0000
# 2 66.9399 89.0676 30.0605 -0.0003 -5.4207 0.0001
# 3 46.5538 30.0605 76.4397 0.0003 -2.2854 -0.0002
# 4 0.0002 -0.0003 0.0003 18.3140 -0.0001 -11.4386
# 5 2.8614 -5.4207 -2.2854 -0.0001 44.1336 0.0000
# 6 0.0000 0.0001 -0.0002 -11.4386 0.0000 39.9308
#
#
#
# Elastic Compliance Matrix: (Units=1/GPa)
#
#
# Indices 1 2 3 4 5 6 
#
# 1 0.008456 -0.005404 -0.003066 0.000000 -0.001371 0.000000
# 2 -0.005404 0.016477 -0.003123 0.000000 0.002213 0.000000
# 3 -0.003066 -0.003123 0.016197 0.000000 0.000654 0.000000
# 4 0.000000 0.000000 0.000000 0.066501 0.000000 0.019050
# 5 -0.001371 0.002213 0.000654 0.000000 0.023053 0.000000
# 6 0.000000 0.000000 0.000000 0.019050 0.000000 0.030500
#
#
# Mechanical properties :
#
#
# Convention : Reuss Voigt Hill
#
# Bulk Modulus (GPa) = 55.72367 70.11045 62.91706
# Shear Modulus (GPa) = 26.26716 33.83113 30.04914
#
# Velocity S-wave (km/s) = 3.49475 3.96614 3.73789
# Velocity P-wave (km/s) = 6.49569 7.31933 6.91978
#
# Compressibility (1/GPa) = 0.01794569
#
# Stress axis : x y z
#
# Youngs Moduli (GPa) = 118.25746 60.68925 61.74028
#
# Poissons Ratio (x) = 0.32797 0.18928
# Poissons Ratio (y) = 0.63906 0.19279
# Poissons Ratio (z) = 0.36256 0.18950
#
# Static dielectric constant tensor:
#      x y z
#    x 4.496380 0.000000 -0.541710 
#    y 0.000000 3.738520 0.000010 
#    z -0.541710 0.000010 5.013100 
# 
# 
# High freq. dielectric constant tensor:
#      x y z
#    x 1.861100 0.000000 -0.008330 
#    y 0.000000 1.796210 0.000000 
#    z -0.008330 0.000000 1.861260 
# 
# From -- ./inp_files/238945.got.cif
#   From: 2010.06.25/outbox.cif.g09.slc.cpg/sg15_120_cif.got.tgz:238945.got - 2010.06.28 07:06:18.
