data_PCOD8135226
_publ_section_title
;
Structure prediction by ZEFSAII (Michael W. Deem and Ramdas Pophale) SiO2 
 PCOD8135226
Probable space group: C 2/C
;
_chemical_formula_sum "Si O2"
_cell_formula_units_Z 56
_cell_length_a 17.154409
_cell_length_b 14.067973
_cell_length_c 12.206755
_cell_angle_alpha 90.000000
_cell_angle_beta 111.151707
_cell_angle_gamma 90.000000
_cell_volume 2747.363295
_symmetry_space_group_name_H-M "C 2/C"
_symmetry_group_IT_number 15
_symmetry_cell_setting 'monoclinic'
loop_
_space_group_symop_operation_xyz
x,y,z
-x,y,1/2-z
-x,-y,-z
x,-y,1/2+z
1/2+x,1/2+y,z
1/2-x,1/2+y,1/2-z
1/2-x,1/2-y,-z
1/2+x,1/2-y,1/2+z
loop_
_atom_site_type_symbol
_atom_site_label
_atom_site_fract_x
_atom_site_fract_y
_atom_site_fract_z
Si Si1 0.027920 0.392012 0.529140
Si Si2 0.284446 0.827425 0.217629
Si Si3 0.212020 0.113803 0.060989
Si Si4 0.289682 0.132609 0.318556
Si Si5 0.925984 0.246412 0.136704
Si Si6 0.355086 0.817492 0.481853
Si Si7 0.309381 0.416110 0.514571
O O1 0.112762 0.394185 0.642585
O O2 0.044406 0.332118 0.426376
O O3 0.000000 0.500000 0.500000
O O4 0.951730 0.341352 0.553999
O O5 0.215917 0.745664 0.204781
O O6 0.357269 0.784305 0.182770
O O7 0.322090 0.865521 0.351358
O O8 0.240294 0.908991 0.125447
O O9 0.234301 0.082605 0.196583
O O10 0.150086 0.203291 0.027551
O O11 0.300449 0.140134 0.051276
O O12 0.165343 0.027666 0.973112
O O13 0.254199 0.105050 0.419210
O O14 0.888924 0.154428 0.054103
O O15 0.000000 0.207739 0.250000
#
# Coordination Sequence:
#
# PCOD8135226 Si02
#       7
#     8   8   8   8   8   8   8
#     4  12  23  37  59  92 125 154 196 251 311 362
#     4  10  19  37  66  86 120 160 198 256 301 355
#     4  10  24  41  63  84 124 168 206 243 298 375
#     4  10  21  40  60  91 119 156 207 251 297 360
#     4  11  21  39  63  95 126 153 201 266 307 346
#     4  10  23  42  58  87 128 163 195 245 318 362
#     4  11  21  38  68  93 115 161 214 250 300 362
#
# _framework density 20.383178999999998
#
# number of rings (size 3 to 8) (size 9 to 14) (size 15 to 20)
#    0.000    1.429    4.286    1.714    4.000    0.571 
#    0.000    0.714    9.429    0.000    0.000    0.000 
#    0.000    0.000    0.000    0.000    0.000    0.000 
#
# Total GULP energy -347074.829900 kJ/mol
# GULP energy per Si atom -12395.529639 kJ/mol
# Density = 2.033679 g / cm^3
# Si number density = 20.383179 Si / 1000 Ang^3
#
#
#
# Elastic Constant Matrix: (Units=GPa)
#
#
# Indices 1 2 3 4 5 6 
#
# 1 93.6212 50.5901 6.2979 0.0000 12.0096 0.0000
# 2 50.5901 106.0456 35.6601 0.0000 13.1034 0.0000
# 3 6.2979 35.6601 57.9621 0.0000 -1.2990 0.0000
# 4 0.0000 0.0000 0.0000 27.3666 0.0000 -0.6045
# 5 12.0096 13.1034 -1.2990 0.0000 28.3407 0.0000
# 6 0.0000 0.0000 0.0000 -0.6045 0.0000 24.9683
#
#
#
# Elastic Compliance Matrix: (Units=1/GPa)
#
#
# Indices 1 2 3 4 5 6 
#
# 1 0.015098 -0.007961 0.003200 0.000000 -0.002570 0.000000
# 2 -0.007961 0.017138 -0.009791 0.000000 -0.004999 0.000000
# 3 0.003200 -0.009791 0.023023 0.000000 0.004226 0.000000
# 4 0.000000 0.000000 0.000000 0.036560 0.000000 0.000885
# 5 -0.002570 -0.004999 0.004226 0.000000 0.038879 0.000000
# 6 0.000000 0.000000 0.000000 0.000885 0.000000 0.040072
#
#
# Mechanical properties :
#
#
# Convention : Reuss Voigt Hill
#
# Bulk Modulus (GPa) = 38.23373 49.19168 43.71270
# Shear Modulus (GPa) = 23.97022 27.14053 25.55537
#
# Velocity S-wave (km/s) = 3.43298 3.65295 3.54467
# Velocity P-wave (km/s) = 5.87469 6.47904 6.18425
#
# Compressibility (1/GPa) = 0.02615492
#
# Stress axis : x y z
#
# Youngs Moduli (GPa) = 66.23560 58.35087 43.43439
#
# Poissons Ratio (x) = 0.46452 -0.13898
# Poissons Ratio (y) = 0.52729 0.42525
# Poissons Ratio (z) = -0.21193 0.57130
#
# Static dielectric constant tensor:
#      x y z
#    x 3.698910 0.000000 -0.073650 
#    y 0.000000 3.791670 0.000000 
#    z -0.073650 0.000000 3.082320 
# 
# 
# High freq. dielectric constant tensor:
#      x y z
#    x 1.783030 0.000000 -0.003470 
#    y 0.000000 1.799120 0.000000 
#    z -0.003470 0.000000 1.795450 
# 
# From -- ./inp_files/105428.got.cif
#   From: 2010.06.25/outbox.cif.g09.slc.cpg/sg15_53_cif.got.tgz:105428.got - 2010.06.28 07:06:18.
