data_PCOD8135324
_publ_section_title
;
Structure prediction by ZEFSAII (Michael W. Deem and Ramdas Pophale) SiO2 
 PCOD8135324
Probable space group: C 2/C
;
_chemical_formula_sum "Si O2"
_cell_formula_units_Z 52
_cell_length_a 14.541008
_cell_length_b 29.096653
_cell_length_c 9.367876
_cell_angle_alpha 90.000000
_cell_angle_beta 43.820139
_cell_angle_gamma 90.000000
_cell_volume 2744.313669
_symmetry_space_group_name_H-M "C 2/C"
_symmetry_group_IT_number 15
_symmetry_cell_setting 'monoclinic'
loop_
_space_group_symop_operation_xyz
x,y,z
-x,y,1/2-z
-x,-y,-z
x,-y,1/2+z
1/2+x,1/2+y,z
1/2-x,1/2+y,1/2-z
1/2-x,1/2-y,-z
1/2+x,1/2-y,1/2+z
loop_
_atom_site_type_symbol
_atom_site_label
_atom_site_fract_x
_atom_site_fract_y
_atom_site_fract_z
Si Si1 0.494028 0.937459 0.596031
Si Si2 0.616456 0.527201 0.211892
Si Si3 0.500000 0.616502 0.250000
Si Si4 0.121701 0.720854 0.517108
Si Si5 0.984129 0.333639 0.930398
Si Si6 0.268561 0.681333 0.603723
Si Si7 0.718285 0.008317 0.730489
O O1 0.500000 0.955181 0.750000
O O2 0.456093 0.884452 0.627135
O O3 0.640305 0.946403 0.368819
O O4 0.378511 0.964699 0.642799
O O5 0.500000 0.502195 0.250000
O O6 0.579206 0.581872 0.270224
O O7 0.647124 0.502165 0.328155
O O8 0.748123 0.520088 0.969741
O O9 0.396925 0.647976 0.454980
O O10 0.206069 0.683537 0.514022
O O11 0.200521 0.766413 0.386141
O O12 0.000000 0.737597 0.750000
O O13 0.076722 0.698648 0.420517
O O14 0.000000 0.315832 0.750000
O O15 0.833637 0.335355 0.159705
#
# Coordination Sequence:
#
# PCOD8135324 Si02
#       7
#     8   8   4   8   8   8   8
#     4  10  21  36  59  80 114 147 187 243 284 328
#     4  10  23  35  57  82 114 150 191 230 281 347
#     4  10  22  34  60  90 108 154 194 242 274 338
#     4   9  19  36  62  84 109 152 188 235 289 333
#     4  10  22  37  56  88 114 149 187 237 286 338
#     4  10  19  38  59  83 117 144 191 237 282 341
#     4  11  20  40  55  81 111 152 190 234 286 336
#
# _framework density 18.948271999999999
#
# number of rings (size 3 to 8) (size 9 to 14) (size 15 to 20)
#    0.462    1.538    2.308    1.385    2.154    0.615 
#    2.769    0.000    0.000    0.000    0.000    0.000 
#    0.000    0.000    0.000    0.000    0.000    0.000 
#
# Total GULP energy -322230.480650 kJ/mol
# GULP energy per Si atom -12393.480025 kJ/mol
# Density = 1.890515 g / cm^3
# Si number density = 18.948272 Si / 1000 Ang^3
#
#
#
# Elastic Constant Matrix: (Units=GPa)
#
#
# Indices 1 2 3 4 5 6 
#
# 1 92.7398 31.8608 27.5529 0.0000 5.2520 0.0000
# 2 31.8608 56.5232 23.5544 0.0000 5.7474 0.0000
# 3 27.5529 23.5544 87.4116 0.0000 5.4793 0.0000
# 4 0.0000 0.0000 0.0000 27.9406 0.0000 -5.8108
# 5 5.2520 5.7474 5.4793 0.0000 31.6965 0.0000
# 6 0.0000 0.0000 0.0000 -5.8108 0.0000 23.5516
#
#
#
# Elastic Compliance Matrix: (Units=1/GPa)
#
#
# Indices 1 2 3 4 5 6 
#
# 1 0.013872 -0.006701 -0.002526 0.000000 -0.000647 0.000000
# 2 -0.006701 0.023400 -0.004041 0.000000 -0.002434 0.000000
# 3 -0.002526 -0.004041 0.013398 0.000000 -0.001165 0.000000
# 4 0.000000 0.000000 0.000000 0.037726 0.000000 0.009308
# 5 -0.000647 -0.002434 -0.001165 0.000000 0.032299 0.000000
# 6 0.000000 0.000000 0.000000 0.009308 0.000000 0.044757
#
#
# Mechanical properties :
#
#
# Convention : Reuss Voigt Hill
#
# Bulk Modulus (GPa) = 41.43415 44.73454 43.08435
# Shear Modulus (GPa) = 24.99578 26.88484 25.94031
#
# Velocity S-wave (km/s) = 3.63596 3.77085 3.70402
# Velocity P-wave (km/s) = 6.28820 6.52833 6.40939
#
# Compressibility (1/GPa) = 0.02413468
#
# Stress axis : x y z
#
# Youngs Moduli (GPa) = 72.08683 42.73434 74.63593
#
# Poissons Ratio (x) = 0.28636 0.18856
# Poissons Ratio (y) = 0.48304 0.30159
# Poissons Ratio (z) = 0.18212 0.17268
#
# Static dielectric constant tensor:
#      x y z
#    x 3.423360 0.000000 -0.102330 
#    y 0.000000 3.276640 0.000000 
#    z -0.102330 0.000000 3.460310 
# 
# 
# High freq. dielectric constant tensor:
#      x y z
#    x 1.727380 0.000000 -0.011420 
#    y 0.000000 1.729190 0.000000 
#    z -0.011420 0.000000 1.738380 
# 
# From -- ./inp_files/44217.got.cif
#   From: 2010.06.25/outbox.cif.g09.slc.cpg/sg15_23_cif.got.tgz:44217.got - 2010.06.28 07:06:18.
