data_PCOD8135889
_publ_section_title
;
Structure prediction by ZEFSAII (Michael W. Deem and Ramdas Pophale) SiO2 
 PCOD8135889
Probable space group: C 2/C
;
_chemical_formula_sum "Si O2"
_cell_formula_units_Z 64
_cell_length_a 17.829491
_cell_length_b 11.865762
_cell_length_c 30.848336
_cell_angle_alpha 90.000000
_cell_angle_beta 150.166948
_cell_angle_gamma 90.000000
_cell_volume 3246.662259
_symmetry_space_group_name_H-M "C 2/C"
_symmetry_group_IT_number 15
_symmetry_cell_setting 'monoclinic'
loop_
_space_group_symop_operation_xyz
x,y,z
-x,y,1/2-z
-x,-y,-z
x,-y,1/2+z
1/2+x,1/2+y,z
1/2-x,1/2+y,1/2-z
1/2-x,1/2-y,-z
1/2+x,1/2-y,1/2+z
loop_
_atom_site_type_symbol
_atom_site_label
_atom_site_fract_x
_atom_site_fract_y
_atom_site_fract_z
Si Si1 0.446152 0.014400 0.040735
Si Si2 0.754402 0.513558 0.862704
Si Si3 0.595259 0.372126 0.591112
Si Si4 0.331777 0.732221 0.168887
Si Si5 0.901055 0.240063 0.740882
Si Si6 0.425602 0.768008 0.583598
Si Si7 0.648781 0.768951 0.490418
Si Si8 0.578024 0.364273 0.083738
O O1 0.454160 0.104114 0.083191
O O2 0.605626 0.011306 0.097647
O O3 0.416497 0.893563 0.046431
O O4 0.314962 0.047596 0.940787
O O5 0.657113 0.399734 0.814166
O O6 0.650143 0.611716 0.792144
O O7 0.760762 0.321857 0.676782
O O8 0.490757 0.318382 0.576427
O O9 0.528028 0.340142 0.510617
O O10 0.607836 0.504373 0.605121
O O11 0.500000 0.782213 0.250000
O O12 0.237808 0.800651 0.158063
O O13 0.252726 0.750246 0.083688
O O14 0.000000 0.282658 0.750000
O O15 0.000583 0.244878 0.833420
O O16 0.250000 0.750000 0.500000
O O17 0.493852 0.680818 0.583576
O O18 0.750000 0.750000 0.500000
#
# Coordination Sequence:
#
# PCOD8135889 Si02
#       8
#     8   8   8   8   8   8   8   8
#     4  10  20  40  69  92 121 164 208 260 314 368
#     4  10  19  40  69  92 122 158 209 264 312 362
#     4  10  22  43  65  88 125 170 207 252 316 371
#     4  10  21  39  64  94 122 162 204 254 311 366
#     4  12  25  42  63  92 127 164 210 261 314 372
#     4  12  26  41  63  94 127 164 212 260 312 375
#     4  10  22  40  64  93 125 161 205 255 311 368
#     4  10  22  43  65  89 126 166 209 255 309 376
#
# _framework density 19.712551999999999
#
# number of rings (size 3 to 8) (size 9 to 14) (size 15 to 20)
#    0.000    1.500    2.500    2.625    1.750    3.500 
#    4.500    0.000    0.000    0.000    0.000    0.000 
#    0.000    0.000    0.000    0.000    0.000    0.000 
#
# Total GULP energy -396920.527873 kJ/mol
# GULP energy per Si atom -12403.766496 kJ/mol
# Density = 1.966769 g / cm^3
# Si number density = 19.712552 Si / 1000 Ang^3
#
#
#
# Elastic Constant Matrix: (Units=GPa)
#
#
# Indices 1 2 3 4 5 6 
#
# 1 142.8023 62.9864 58.6023 0.0001 8.3861 0.0000
# 2 62.9864 104.0812 63.5422 0.0000 3.0951 0.0000
# 3 58.6023 63.5422 111.1376 0.0003 15.1397 0.0001
# 4 0.0001 0.0000 0.0003 20.7772 0.0000 6.4219
# 5 8.3861 3.0951 15.1397 0.0000 34.0652 0.0000
# 6 0.0000 0.0000 0.0001 6.4219 0.0000 7.0571
#
#
#
# Elastic Compliance Matrix: (Units=1/GPa)
#
#
# Indices 1 2 3 4 5 6 
#
# 1 0.010119 -0.004478 -0.002652 0.000000 -0.000905 0.000000
# 2 -0.004478 0.016955 -0.007742 0.000000 0.003002 0.000000
# 3 -0.002652 -0.007742 0.015581 0.000000 -0.005568 0.000000
# 4 0.000000 0.000000 0.000000 0.066964 0.000000 -0.060936
# 5 -0.000905 0.003002 -0.005568 0.000000 0.031780 0.000000
# 6 0.000000 0.000000 0.000000 -0.060936 0.000000 0.197153
#
#
# Mechanical properties :
#
#
# Convention : Reuss Voigt Hill
#
# Bulk Modulus (GPa) = 77.44894 80.92031 79.18463
# Shear Modulus (GPa) = 13.41922 23.90592 18.66257
#
# Velocity S-wave (km/s) = 2.61194 3.48620 3.08024
# Velocity P-wave (km/s) = 6.96209 7.57258 7.27375
#
# Compressibility (1/GPa) = 0.01291173
#
# Stress axis : x y z
#
# Youngs Moduli (GPa) = 98.82082 58.98090 64.17933
#
# Poissons Ratio (x) = 0.26409 0.17023
# Poissons Ratio (y) = 0.44248 0.49686
# Poissons Ratio (z) = 0.26212 0.45661
#
# Static dielectric constant tensor:
#      x y z
#    x 4.044340 -0.000020 0.348190 
#    y -0.000020 4.143470 -0.000010 
#    z 0.348190 -0.000010 3.767180 
# 
# 
# High freq. dielectric constant tensor:
#      x y z
#    x 1.778200 0.000000 0.015000 
#    y 0.000000 1.778390 0.000000 
#    z 0.015000 0.000000 1.763200 
# 
# From -- ./inp_files/316182.got.cif
#   From: 2010.06.25/outbox.cif.g09.slc.cpg/sg15_159_cif.got.tgz:316182.got - 2010.06.28 07:06:18.
