data_PCOD8135448
_publ_section_title
;
Structure prediction by ZEFSAII (Michael W. Deem and Ramdas Pophale) SiO2 
 PCOD8135448
Probable space group: C 2/C
;
_chemical_formula_sum "Si O2"
_cell_formula_units_Z 52
_cell_length_a 13.092804
_cell_length_b 11.869144
_cell_length_c 15.709765
_cell_angle_alpha 90.000000
_cell_angle_beta 108.627764
_cell_angle_gamma 90.000000
_cell_volume 2313.412633
_symmetry_space_group_name_H-M "C 2/C"
_symmetry_group_IT_number 15
_symmetry_cell_setting 'monoclinic'
loop_
_space_group_symop_operation_xyz
x,y,z
-x,y,1/2-z
-x,-y,-z
x,-y,1/2+z
1/2+x,1/2+y,z
1/2-x,1/2+y,1/2-z
1/2-x,1/2-y,-z
1/2+x,1/2-y,1/2+z
loop_
_atom_site_type_symbol
_atom_site_label
_atom_site_fract_x
_atom_site_fract_y
_atom_site_fract_z
Si Si1 0.141454 0.782487 0.165865
Si Si2 0.534279 0.312571 0.507997
Si Si3 0.299821 0.087101 0.594536
Si Si4 0.500000 0.562193 0.750000
Si Si5 0.388768 0.515672 0.065549
Si Si6 0.383910 0.934909 0.752103
Si Si7 0.026900 0.411902 0.081977
O O1 0.247961 0.827255 0.147858
O O2 0.177953 0.671989 0.226247
O O3 0.079909 0.870549 0.209546
O O4 0.057257 0.748751 0.070596
O O5 0.613926 0.385977 0.470163
O O6 0.484380 0.407000 0.555814
O O7 0.588349 0.203531 0.568591
O O8 0.415445 0.131439 0.595102
O O9 0.226726 0.067781 0.490854
O O10 0.314039 0.972429 0.652311
O O11 0.585584 0.488041 0.827186
O O12 0.500000 0.893918 0.750000
O O13 0.396633 0.032643 0.826479
O O14 0.000000 0.500000 0.000000
#
# Coordination Sequence:
#
# PCOD8135448 Si02
#       7
#     8   8   8   4   8   8   8
#     4  10  19  38  63  86 120 162 202 249 307 365
#     4   9  19  39  63  86 124 159 196 252 312 359
#     4  10  24  39  58  95 124 153 211 260 292 362
#     4  10  20  38  66  90 114 168 198 246 322 370
#     4   9  20  39  62  93 120 154 205 259 301 359
#     4  10  21  40  61  85 127 168 198 242 313 372
#     4  11  22  40  63  89 121 171 201 241 313 367
#
# _framework density 22.477616000000001
#
# number of rings (size 3 to 8) (size 9 to 14) (size 15 to 20)
#    0.000    2.154    2.308    0.923    0.000    4.923 
#    6.923    1.538    0.000    0.000    0.000    0.000 
#    0.000    0.000    0.000    0.000    0.000    0.000 
#
# Total GULP energy -322177.451709 kJ/mol
# GULP energy per Si atom -12391.440450 kJ/mol
# Density = 2.242646 g / cm^3
# Si number density = 22.477616 Si / 1000 Ang^3
#
#
#
# Elastic Constant Matrix: (Units=GPa)
#
#
# Indices 1 2 3 4 5 6 
#
# 1 41.8123 5.5585 16.0517 0.0000 -2.0433 0.0000
# 2 5.5585 101.2966 29.7143 0.0000 -6.3007 0.0000
# 3 16.0517 29.7143 128.4773 0.0000 1.9990 0.0000
# 4 0.0000 0.0000 0.0000 30.6634 0.0000 -5.2254
# 5 -2.0433 -6.3007 1.9990 0.0000 27.4255 0.0000
# 6 0.0000 0.0000 0.0000 -5.2254 0.0000 11.6815
#
#
#
# Elastic Compliance Matrix: (Units=1/GPa)
#
#
# Indices 1 2 3 4 5 6 
#
# 1 0.025254 -0.000349 -0.003106 0.000000 0.002028 0.000000
# 2 -0.000349 0.010786 -0.002492 0.000000 0.002634 0.000000
# 3 -0.003106 -0.002492 0.008770 0.000000 -0.001443 0.000000
# 4 0.000000 0.000000 0.000000 0.035303 0.000000 0.015792
# 5 0.002028 0.002634 -0.001443 0.000000 0.037324 0.000000
# 6 0.000000 0.000000 0.000000 0.015792 0.000000 0.092669
#
#
# Mechanical properties :
#
#
# Convention : Reuss Voigt Hill
#
# Bulk Modulus (GPa) = 30.37921 41.58168 35.98044
# Shear Modulus (GPa) = 21.46173 28.63820 25.04997
#
# Velocity S-wave (km/s) = 3.09334 3.57329 3.34195
# Velocity P-wave (km/s) = 5.12865 5.96355 5.56178
#
# Compressibility (1/GPa) = 0.03291725
#
# Stress axis : x y z
#
# Youngs Moduli (GPa) = 39.59720 92.71329 114.02036
#
# Poissons Ratio (x) = 0.03231 0.35417
# Poissons Ratio (y) = 0.01380 0.28414
# Poissons Ratio (z) = 0.12300 0.23104
#
# Static dielectric constant tensor:
#      x y z
#    x 3.724250 0.000000 -0.159810 
#    y 0.000000 3.911040 0.000000 
#    z -0.159810 0.000000 4.374420 
# 
# 
# High freq. dielectric constant tensor:
#      x y z
#    x 1.854180 0.000000 -0.012830 
#    y 0.000000 1.882730 0.000000 
#    z -0.012830 0.000000 1.895550 
# 
# From -- ./inp_files/152565.got.cif
#   From: 2010.06.25/outbox.cif.g09.slc.cpg/sg15_77_cif.got.tgz:152565.got - 2010.06.28 07:06:18.
