data_PCOD8135313
_publ_section_title
;
Structure prediction by ZEFSAII (Michael W. Deem and Ramdas Pophale) SiO2 
 PCOD8135313
Probable space group: C 2/C
;
_chemical_formula_sum "Si O2"
_cell_formula_units_Z 56
_cell_length_a 20.900240
_cell_length_b 24.954095
_cell_length_c 12.053712
_cell_angle_alpha 90.000000
_cell_angle_beta 152.621254
_cell_angle_gamma 90.000000
_cell_volume 2891.008574
_symmetry_space_group_name_H-M "C 2/C"
_symmetry_group_IT_number 15
_symmetry_cell_setting 'monoclinic'
loop_
_space_group_symop_operation_xyz
x,y,z
-x,y,1/2-z
-x,-y,-z
x,-y,1/2+z
1/2+x,1/2+y,z
1/2-x,1/2+y,1/2-z
1/2-x,1/2-y,-z
1/2+x,1/2-y,1/2+z
loop_
_atom_site_type_symbol
_atom_site_label
_atom_site_fract_x
_atom_site_fract_y
_atom_site_fract_z
Si Si1 0.594932 0.358775 0.179367
Si Si2 0.583576 0.718369 0.989178
Si Si3 0.983515 0.579569 0.434168
Si Si4 0.598718 0.549853 0.129585
Si Si5 0.606392 0.019137 0.821255
Si Si6 0.130397 0.666756 0.530569
Si Si7 0.697687 0.386838 0.579532
O O1 0.525476 0.299600 0.082406
O O2 0.736886 0.353889 0.332317
O O3 0.614932 0.382604 0.335607
O O4 0.486720 0.399136 0.952452
O O5 0.500000 0.730107 0.750000
O O6 0.659087 0.775047 0.132892
O O7 0.689028 0.668896 0.134448
O O8 0.915440 0.545271 0.227487
O O9 0.860671 0.607130 0.312427
O O10 0.075857 0.542717 0.654422
O O11 0.094467 0.623686 0.567776
O O12 0.738535 0.536381 0.410633
O O13 0.638844 0.563254 0.062558
O O14 0.500000 0.500000 0.000000
O O15 0.500000 0.040836 0.750000
O O16 0.000000 0.670516 0.250000
#
# Coordination Sequence:
#
# PCOD8135313 Si02
#       7
#     8   8   8   8   8   8   8
#     4  10  21  37  57  91 128 149 198 244 298 361
#     4   8  19  32  54  89 122 153 191 240 303 350
#     4  11  23  37  61  87 119 153 203 244 284 357
#     4  11  23  38  62  83 116 159 195 247 297 351
#     4  11  24  41  58  85 118 156 202 237 295 353
#     4  11  21  33  61  89 123 159 191 247 300 349
#     4  10  19  38  58  88 120 155 196 242 295 357
#
# _framework density 19.370403
#
# number of rings (size 3 to 8) (size 9 to 14) (size 15 to 20)
#    0.000    1.714    2.857    2.571    4.000    1.714 
#    0.000    2.143    0.000    3.429    7.429    0.000 
#    0.000    0.000    0.000    0.000    0.000    0.000 
#
# Total GULP energy -346943.025439 kJ/mol
# GULP energy per Si atom -12390.822337 kJ/mol
# Density = 1.932632 g / cm^3
# Si number density = 19.370403 Si / 1000 Ang^3
#
#
#
# Elastic Constant Matrix: (Units=GPa)
#
#
# Indices 1 2 3 4 5 6 
#
# 1 126.2268 67.8413 42.5345 0.0000 32.3000 0.0000
# 2 67.8413 138.2724 47.3444 0.0000 11.4388 0.0000
# 3 42.5345 47.3444 102.5641 0.0000 22.1653 0.0000
# 4 0.0000 0.0000 0.0000 18.9972 0.0000 7.8413
# 5 32.3000 11.4388 22.1653 0.0000 31.7477 0.0000
# 6 0.0000 0.0000 0.0000 7.8413 0.0000 30.3884
#
#
#
# Elastic Compliance Matrix: (Units=1/GPa)
#
#
# Indices 1 2 3 4 5 6 
#
# 1 0.014356 -0.005820 -0.000664 0.000000 -0.012045 0.000000
# 2 -0.005820 0.010953 -0.003615 0.000000 0.004498 0.000000
# 3 -0.000664 -0.003615 0.013268 0.000000 -0.007286 0.000000
# 4 0.000000 0.000000 0.000000 0.058914 0.000000 -0.015202
# 5 -0.012045 0.004498 -0.007286 0.000000 0.047219 0.000000
# 6 0.000000 0.000000 0.000000 -0.015202 0.000000 0.036830
#
#
# Mechanical properties :
#
#
# Convention : Reuss Voigt Hill
#
# Bulk Modulus (GPa) = 54.40475 75.83374 65.11925
# Shear Modulus (GPa) = 24.05412 30.18287 27.11849
#
# Velocity S-wave (km/s) = 3.52774 3.95168 3.74571
# Velocity P-wave (km/s) = 6.68885 7.74954 7.23865
#
# Compressibility (1/GPa) = 0.01838075
#
# Stress axis : x y z
#
# Youngs Moduli (GPa) = 69.65643 91.29911 75.36687
#
# Poissons Ratio (x) = 0.53134 0.05005
# Poissons Ratio (y) = 0.40539 0.27242
# Poissons Ratio (z) = 0.04626 0.33001
#
# Static dielectric constant tensor:
#      x y z
#    x 3.560170 0.000000 0.165900 
#    y 0.000000 4.062770 0.000000 
#    z 0.165900 0.000000 3.110180 
# 
# 
# High freq. dielectric constant tensor:
#      x y z
#    x 1.751970 0.000000 0.033240 
#    y 0.000000 1.764840 0.000000 
#    z 0.033240 0.000000 1.722710 
# 
# From -- ./inp_files/114765.got.cif
#   From: 2010.06.25/outbox.cif.g09.slc.cpg/sg15_58_cif.got.tgz:114765.got - 2010.06.28 07:06:18.
