data_PCOD8135906
_publ_section_title
;
Structure prediction by ZEFSAII (Michael W. Deem and Ramdas Pophale) SiO2 
 PCOD8135906
Probable space group: C 2/C
;
_chemical_formula_sum "Si O2"
_cell_formula_units_Z 48
_cell_length_a 20.792481
_cell_length_b 16.064301
_cell_length_c 9.420552
_cell_angle_alpha 90.000000
_cell_angle_beta 132.137689
_cell_angle_gamma 90.000000
_cell_volume 2333.328909
_symmetry_space_group_name_H-M "C 2/C"
_symmetry_group_IT_number 15
_symmetry_cell_setting 'monoclinic'
loop_
_space_group_symop_operation_xyz
x,y,z
-x,y,1/2-z
-x,-y,-z
x,-y,1/2+z
1/2+x,1/2+y,z
1/2-x,1/2+y,1/2-z
1/2-x,1/2-y,-z
1/2+x,1/2-y,1/2+z
loop_
_atom_site_type_symbol
_atom_site_label
_atom_site_fract_x
_atom_site_fract_y
_atom_site_fract_z
Si Si1 0.084993 0.349345 0.297107
Si Si2 0.418483 0.825863 0.537494
Si Si3 0.240171 0.125009 0.914600
Si Si4 0.820263 0.800486 0.440149
Si Si5 0.235400 0.066480 0.421682
Si Si6 0.685588 0.679691 0.127934
O O1 0.101432 0.255409 0.382638
O O2 0.163181 0.412006 0.450805
O O3 0.000000 0.384400 0.250000
O O4 0.066896 0.352110 0.102800
O O5 0.500000 0.855057 0.750000
O O6 0.333160 0.869543 0.476138
O O7 0.406959 0.724834 0.532295
O O8 0.166694 0.165134 0.701857
O O9 0.219322 0.030193 0.922443
O O10 0.238646 0.175446 0.059758
O O11 0.804186 0.883209 0.506290
O O12 0.735038 0.741069 0.314013
O O13 0.181282 0.090743 0.198663
#
# Coordination Sequence:
#
# PCOD8135906 Si02
#       6
#     8   8   8   8   8   8
#     4  11  23  38  62  83 117 162 195 233 289 349
#     4  11  23  39  57  88 121 152 197 241 284 348
#     4  11  23  35  63  93 117 147 192 248 297 340
#     4  10  19  41  60  81 115 154 206 236 272 349
#     4  11  20  40  61  88 118 153 193 242 295 344
#     4  10  20  37  62  84 113 158 198 240 279 340
#
# _framework density 20.571467999999999
#
# number of rings (size 3 to 8) (size 9 to 14) (size 15 to 20)
#    0.000    1.333    5.000    4.000    7.000    0.667 
#    0.000    1.667    0.000    6.000    0.000    0.000 
#    0.000    0.000    0.000    0.000    0.000    0.000 
#
# Total GULP energy -297444.827103 kJ/mol
# GULP energy per Si atom -12393.534463 kJ/mol
# Density = 2.052465 g / cm^3
# Si number density = 20.571468 Si / 1000 Ang^3
#
#
#
# Elastic Constant Matrix: (Units=GPa)
#
#
# Indices 1 2 3 4 5 6 
#
# 1 40.9785 -15.8074 5.1538 0.0000 -23.0450 0.0000
# 2 -15.8074 35.6433 11.8073 0.0000 1.0366 0.0000
# 3 5.1538 11.8073 89.5947 0.0000 -27.3791 0.0000
# 4 0.0000 0.0000 0.0000 23.7603 0.0000 -7.8076
# 5 -23.0450 1.0366 -27.3791 0.0000 28.6242 0.0000
# 6 0.0000 0.0000 0.0000 -7.8076 0.0000 21.9756
#
#
#
# Elastic Compliance Matrix: (Units=1/GPa)
#
#
# Indices 1 2 3 4 5 6 
#
# 1 0.072060 0.025234 0.014100 0.000000 0.070588 0.000000
# 2 0.025234 0.039119 -0.001175 0.000000 0.017775 0.000000
# 3 0.014100 -0.001175 0.019764 0.000000 0.030299 0.000000
# 4 0.000000 0.000000 0.000000 0.047650 0.000000 0.016929
# 5 0.070588 0.017775 0.030299 0.000000 0.120102 0.000000
# 6 0.000000 0.000000 0.000000 0.016929 0.000000 0.051520
#
#
# Mechanical properties :
#
#
# Convention : Reuss Voigt Hill
#
# Bulk Modulus (GPa) = 4.82483 18.72490 11.77487
# Shear Modulus (GPa) = 14.57793 25.87619 20.22706
#
# Velocity S-wave (km/s) = 2.66493 3.55049 3.13910
# Velocity P-wave (km/s) = 3.43797 5.09216 4.34452
#
# Compressibility (1/GPa) = 0.20726101
#
# Stress axis : x y z
#
# Youngs Moduli (GPa) = 13.87731 25.56304 50.59680
#
# Poissons Ratio (x) = -0.64506 -0.71342
# Poissons Ratio (y) = -0.35018 0.05946
# Poissons Ratio (z) = -0.19567 0.03004
#
# Static dielectric constant tensor:
#      x y z
#    x 3.370490 0.000000 -0.187710 
#    y 0.000000 3.711900 0.000000 
#    z -0.187710 0.000000 3.974400 
# 
# 
# High freq. dielectric constant tensor:
#      x y z
#    x 1.772350 0.000000 -0.034950 
#    y 0.000000 1.797470 0.000000 
#    z -0.034950 0.000000 1.812940 
# 
# From -- ./inp_files/56256.got.cif
#   From: 2010.06.25/outbox.cif.g09.slc.cpg/sg15_29_cif.got.tgz:56256.got - 2010.06.28 07:06:18.
