data_PCOD8135614
_publ_section_title
;
Structure prediction by ZEFSAII (Michael W. Deem and Ramdas Pophale) SiO2 
 PCOD8135614
Probable space group: C 2/C
;
_chemical_formula_sum "Si O2"
_cell_formula_units_Z 56
_cell_length_a 20.394286
_cell_length_b 17.063448
_cell_length_c 9.299779
_cell_angle_alpha 90.000000
_cell_angle_beta 111.637550
_cell_angle_gamma 90.000000
_cell_volume 3008.248348
_symmetry_space_group_name_H-M "C 2/C"
_symmetry_group_IT_number 15
_symmetry_cell_setting 'monoclinic'
loop_
_space_group_symop_operation_xyz
x,y,z
-x,y,1/2-z
-x,-y,-z
x,-y,1/2+z
1/2+x,1/2+y,z
1/2-x,1/2+y,1/2-z
1/2-x,1/2-y,-z
1/2+x,1/2-y,1/2+z
loop_
_atom_site_type_symbol
_atom_site_label
_atom_site_fract_x
_atom_site_fract_y
_atom_site_fract_z
Si Si1 0.643362 0.342826 0.568450
Si Si2 0.369812 0.320939 0.441194
Si Si3 0.318085 0.241525 0.650383
Si Si4 0.732793 0.084186 0.803304
Si Si5 0.004648 0.917643 0.581643
Si Si6 0.672965 0.229641 0.373131
Si Si7 0.769685 0.429283 0.534649
O O1 0.691823 0.300424 0.725493
O O2 0.578227 0.380587 0.596281
O O3 0.618215 0.275345 0.434408
O O4 0.691254 0.407409 0.527482
O O5 0.381668 0.269334 0.596747
O O6 0.310713 0.388189 0.415317
O O7 0.443609 0.362342 0.467570
O O8 0.341576 0.262095 0.296607
O O9 0.250000 0.250000 0.500000
O O10 0.324983 0.152789 0.714708
O O11 0.733913 0.059919 0.638469
O O12 0.707679 0.010797 0.876879
O O13 0.000000 0.927747 0.750000
O O14 0.000000 0.000000 0.500000
O O15 0.750000 0.250000 0.500000
O O16 0.670098 0.135067 0.373832
#
# Coordination Sequence:
#
# PCOD8135614 Si02
#       7
#     8   8   8   8   8   8   8
#     4  11  21  40  59  76 120 159 195 239 281 346
#     4  11  22  39  60  82 116 158 199 234 285 347
#     4  10  20  36  59  81 111 153 195 243 294 344
#     4  11  22  34  54  88 117 148 185 240 296 345
#     4  12  28  42  57  87 122 162 203 236 278 343
#     4  10  19  39  59  83 112 152 195 243 293 350
#     4  11  22  34  55  87 119 146 185 238 298 344
#
# _framework density 18.615483999999999
#
# number of rings (size 3 to 8) (size 9 to 14) (size 15 to 20)
#    0.000    1.143    5.714    3.429    8.000    2.286 
#    0.000    0.000    0.000    0.000    0.000    6.000 
#    0.000    0.000    0.000    0.000    0.000    0.000 
#
# Total GULP energy -347025.944213 kJ/mol
# GULP energy per Si atom -12393.783722 kJ/mol
# Density = 1.857311 g / cm^3
# Si number density = 18.615484 Si / 1000 Ang^3
#
#
#
# Elastic Constant Matrix: (Units=GPa)
#
#
# Indices 1 2 3 4 5 6 
#
# 1 68.5201 47.5583 26.3700 0.0000 -19.8546 0.0000
# 2 47.5583 135.8532 53.0933 0.0000 -16.7659 0.0000
# 3 26.3700 53.0933 100.4986 0.0000 -28.4517 0.0000
# 4 0.0000 0.0000 0.0000 38.2984 0.0000 -11.2508
# 5 -19.8546 -16.7659 -28.4517 0.0000 33.6877 0.0000
# 6 0.0000 0.0000 0.0000 -11.2508 0.0000 27.1498
#
#
#
# Elastic Compliance Matrix: (Units=1/GPa)
#
#
# Indices 1 2 3 4 5 6 
#
# 1 0.021916 -0.006673 0.000646 0.000000 0.010141 0.000000
# 2 -0.006673 0.011318 -0.004925 0.000000 -0.002459 0.000000
# 3 0.000646 -0.004925 0.015503 0.000000 0.011023 0.000000
# 4 0.000000 0.000000 0.000000 0.029730 0.000000 0.012320
# 5 0.010141 -0.002459 0.011023 0.000000 0.043747 0.000000
# 6 0.000000 0.000000 0.000000 0.012320 0.000000 0.041938
#
#
# Mechanical properties :
#
#
# Convention : Reuss Voigt Hill
#
# Bulk Modulus (GPa) = 37.26671 62.10169 49.68420
# Shear Modulus (GPa) = 25.64095 31.68386 28.66241
#
# Velocity S-wave (km/s) = 3.71536 4.13003 3.92817
# Velocity P-wave (km/s) = 6.20225 7.49503 6.87907
#
# Compressibility (1/GPa) = 0.02683360
#
# Stress axis : x y z
#
# Youngs Moduli (GPa) = 45.62930 88.35500 64.50204
#
# Poissons Ratio (x) = 0.58959 -0.04165
# Poissons Ratio (y) = 0.30448 0.31764
# Poissons Ratio (z) = -0.02946 0.43511
#
# Static dielectric constant tensor:
#      x y z
#    x 3.745280 0.000000 -0.523980 
#    y 0.000000 4.066840 0.000000 
#    z -0.523980 0.000000 3.589010 
# 
# 
# High freq. dielectric constant tensor:
#      x y z
#    x 1.689010 0.000000 -0.039380 
#    y 0.000000 1.729500 0.000000 
#    z -0.039380 0.000000 1.731510 
# 
# From -- ./inp_files/56483.got.cif
#   From: 2010.06.25/outbox.cif.g09.slc.cpg/sg15_29_cif.got.tgz:56483.got - 2010.06.28 07:06:18.
