data_PCOD8135042
_publ_section_title
;
Structure prediction by ZEFSAII (Michael W. Deem and Ramdas Pophale) SiO2 
 PCOD8135042
Probable space group: C 2/C
;
_chemical_formula_sum "Si O2"
_cell_formula_units_Z 40
_cell_length_a 13.625710
_cell_length_b 11.921831
_cell_length_c 13.688570
_cell_angle_alpha 90.000000
_cell_angle_beta 117.774215
_cell_angle_gamma 90.000000
_cell_volume 1967.436707
_symmetry_space_group_name_H-M "C 2/C"
_symmetry_group_IT_number 15
_symmetry_cell_setting 'monoclinic'
loop_
_space_group_symop_operation_xyz
x,y,z
-x,y,1/2-z
-x,-y,-z
x,-y,1/2+z
1/2+x,1/2+y,z
1/2-x,1/2+y,1/2-z
1/2-x,1/2-y,-z
1/2+x,1/2-y,1/2+z
loop_
_atom_site_type_symbol
_atom_site_label
_atom_site_fract_x
_atom_site_fract_y
_atom_site_fract_z
Si Si1 0.395745 0.334150 0.597425
Si Si2 0.510109 0.428349 0.143727
Si Si3 0.769308 0.929993 0.373433
Si Si4 0.189001 0.827383 0.549046
Si Si5 0.881896 0.266117 0.287796
O O1 0.463610 0.447493 0.609671
O O2 0.296517 0.337822 0.472062
O O3 0.486079 0.232779 0.626112
O O4 0.354215 0.326934 0.690236
O O5 0.500000 0.385918 0.250000
O O6 0.635201 0.429041 0.163968
O O7 0.437870 0.345200 0.043195
O O8 0.656578 0.888150 0.269279
O O9 0.749475 0.052351 0.411077
O O10 0.250000 0.750000 0.500000
O O11 0.191859 0.764475 0.653372
#
# Coordination Sequence:
#
# PCOD8135042 Si02
#       5
#     8   8   8   8   8
#     4  10  19  37  60  85 116 156 210 237 283 354
#     4  11  18  36  62  90 118 156 204 247 286 352
#     4  11  21  36  62  92 116 156 208 239 298 352
#     4  11  22  37  59  92 123 150 196 255 303 345
#     4  11  20  36  61  87 117 156 198 251 289 352
#
# _framework density 20.331022000000001
#
# number of rings (size 3 to 8) (size 9 to 14) (size 15 to 20)
#    0.000    1.200    6.000    3.000    0.000    1.600 
#    0.000    0.000   13.200    6.000    0.000    0.000 
#    0.000    0.000    0.000    0.000    0.000    0.000 
#
# Total GULP energy -247917.054138 kJ/mol
# GULP energy per Si atom -12395.852707 kJ/mol
# Density = 2.028475 g / cm^3
# Si number density = 20.331022 Si / 1000 Ang^3
#
#
#
# Elastic Constant Matrix: (Units=GPa)
#
#
# Indices 1 2 3 4 5 6 
#
# 1 84.7151 43.5394 34.2393 0.0000 -26.5182 0.0000
# 2 43.5394 94.6848 45.2523 0.0000 0.6904 0.0000
# 3 34.2393 45.2523 99.7189 0.0000 -13.4832 0.0000
# 4 0.0000 0.0000 0.0000 34.8301 0.0000 -1.8035
# 5 -26.5182 0.6904 -13.4832 0.0000 42.5652 0.0000
# 6 0.0000 0.0000 0.0000 -1.8035 0.0000 26.6189
#
#
#
# Elastic Compliance Matrix: (Units=1/GPa)
#
#
# Indices 1 2 3 4 5 6 
#
# 1 0.021066 -0.009135 -0.001351 0.000000 0.012844 0.000000
# 2 -0.009135 0.017658 -0.005939 0.000000 -0.007859 0.000000
# 3 -0.001351 -0.005939 0.013672 0.000000 0.003585 0.000000
# 4 0.000000 0.000000 0.000000 0.028812 0.000000 0.001952
# 5 0.012844 -0.007859 0.003585 0.000000 0.032758 0.000000
# 6 0.000000 0.000000 0.000000 0.001952 0.000000 0.037700
#
#
# Mechanical properties :
#
#
# Convention : Reuss Voigt Hill
#
# Bulk Modulus (GPa) = 51.16248 58.35342 54.75795
# Shear Modulus (GPa) = 26.17391 31.20871 28.69131
#
# Velocity S-wave (km/s) = 3.59191 3.92220 3.76068
# Velocity P-wave (km/s) = 6.51320 7.01965 6.77116
#
# Compressibility (1/GPa) = 0.01954557
#
# Stress axis : x y z
#
# Youngs Moduli (GPa) = 47.47064 56.63305 73.14196
#
# Poissons Ratio (x) = 0.51732 0.09882
# Poissons Ratio (y) = 0.43363 0.43440
# Poissons Ratio (z) = 0.06414 0.33635
#
# Static dielectric constant tensor:
#      x y z
#    x 3.613470 0.000000 -0.066510 
#    y 0.000000 3.551360 0.000000 
#    z -0.066510 0.000000 4.228010 
# 
# 
# High freq. dielectric constant tensor:
#      x y z
#    x 1.782120 0.000000 -0.020970 
#    y 0.000000 1.764790 0.000000 
#    z -0.020970 0.000000 1.810210 
# 
# From -- ./inp_files/151204.got.cif
#   From: 2010.06.25/outbox.cif.g09.slc.cpg/sg15_76_cif.got.tgz:151204.got - 2010.06.28 07:06:18.
