data_PCOD8135819
_publ_section_title
;
Structure prediction by ZEFSAII (Michael W. Deem and Ramdas Pophale) SiO2 
 PCOD8135819
Probable space group: C 2/C
;
_chemical_formula_sum "Si O2"
_cell_formula_units_Z 56
_cell_length_a 17.313858
_cell_length_b 17.401910
_cell_length_c 8.906028
_cell_angle_alpha 90.000000
_cell_angle_beta 85.417273
_cell_angle_gamma 90.000000
_cell_volume 2674.755978
_symmetry_space_group_name_H-M "C 2/C"
_symmetry_group_IT_number 15
_symmetry_cell_setting 'monoclinic'
loop_
_space_group_symop_operation_xyz
x,y,z
-x,y,1/2-z
-x,-y,-z
x,-y,1/2+z
1/2+x,1/2+y,z
1/2-x,1/2+y,1/2-z
1/2-x,1/2-y,-z
1/2+x,1/2-y,1/2+z
loop_
_atom_site_type_symbol
_atom_site_label
_atom_site_fract_x
_atom_site_fract_y
_atom_site_fract_z
Si Si1 0.366791 0.744549 0.780398
Si Si2 0.792995 0.803638 0.777314
Si Si3 0.575294 0.292739 0.534034
Si Si4 0.158106 0.032765 0.339521
Si Si5 0.500000 0.170555 0.750000
Si Si6 0.000000 0.083268 0.250000
Si Si7 0.633942 0.167860 0.926680
Si Si8 0.291737 0.410149 0.375479
O O1 0.296840 0.782895 0.696954
O O2 0.430732 0.719022 0.645933
O O3 0.337740 0.669228 0.870054
O O4 0.396482 0.804730 0.903128
O O5 0.834242 0.801262 0.933328
O O6 0.798759 0.889446 0.714151
O O7 0.837665 0.745356 0.659602
O O8 0.539579 0.218167 0.612819
O O9 0.527026 0.365675 0.602808
O O10 0.068983 0.029948 0.299907
O O11 0.166124 0.030816 0.517696
O O12 0.202579 0.955489 0.282105
O O13 0.566707 0.126029 0.835329
O O14 0.702371 0.106054 0.931877
#
# Coordination Sequence:
#
# PCOD8135819 Si02
#       8
#     8   8   8   8   4   4   8   8
#     4  11  19  35  61  91 115 156 208 250 294 347
#     4   9  17  36  59  84 123 150 198 250 298 348
#     4   9  19  32  57  89 117 158 187 245 301 358
#     4  11  22  41  57  84 124 168 197 242 298 351
#     4   9  20  38  56  88 124 143 188 258 320 351
#     4   9  22  40  56  78 136 163 198 236 286 363
#     4  10  19  40  63  86 118 154 200 263 305 348
#     4  11  24  38  60  86 120 164 208 246 292 360
#
# _framework density 20.936488000000001
#
# number of rings (size 3 to 8) (size 9 to 14) (size 15 to 20)
#    0.000    2.000    2.857    2.143    4.000    1.143 
#    0.000    0.000    0.000    0.857    0.000    0.000 
#    0.000    0.000    0.000    0.000    0.000    0.000 
#
# Total GULP energy -346948.290964 kJ/mol
# GULP energy per Si atom -12391.010392 kJ/mol
# Density = 2.088884 g / cm^3
# Si number density = 20.936488 Si / 1000 Ang^3
#
#
#
# Elastic Constant Matrix: (Units=GPa)
#
#
# Indices 1 2 3 4 5 6 
#
# 1 83.0803 22.9882 48.9051 0.0000 9.7475 0.0000
# 2 22.9882 44.8428 7.4432 0.0000 7.4501 0.0000
# 3 48.9051 7.4432 113.5929 0.0000 4.2258 0.0000
# 4 0.0000 0.0000 0.0000 13.9398 0.0000 -2.2653
# 5 9.7475 7.4501 4.2258 0.0000 26.2475 0.0000
# 6 0.0000 0.0000 0.0000 -2.2653 0.0000 13.6266
#
#
#
# Elastic Compliance Matrix: (Units=1/GPa)
#
#
# Indices 1 2 3 4 5 6 
#
# 1 0.019119 -0.007941 -0.007576 0.000000 -0.003626 0.000000
# 2 -0.007941 0.026893 0.001842 0.000000 -0.004981 0.000000
# 3 -0.007576 0.001842 0.011931 0.000000 0.000370 0.000000
# 4 0.000000 0.000000 0.000000 0.073729 0.000000 0.012257
# 5 -0.003626 -0.004981 0.000370 0.000000 0.040800 0.000000
# 6 0.000000 0.000000 0.000000 0.012257 0.000000 0.075424
#
#
# Mechanical properties :
#
#
# Convention : Reuss Voigt Hill
#
# Bulk Modulus (GPa) = 32.68818 44.46544 38.57681
# Shear Modulus (GPa) = 17.51668 21.57474 19.54571
#
# Velocity S-wave (km/s) = 2.89564 3.21360 3.05875
# Velocity P-wave (km/s) = 5.17944 5.92064 5.56240
#
# Compressibility (1/GPa) = 0.03059209
#
# Stress axis : x y z
#
# Youngs Moduli (GPa) = 52.30415 37.18465 83.81805
#
# Poissons Ratio (x) = 0.29529 0.63501
# Poissons Ratio (y) = 0.41536 -0.15440
# Poissons Ratio (z) = 0.39626 -0.06850
#
# Static dielectric constant tensor:
#      x y z
#    x 3.986890 0.000000 0.309930 
#    y 0.000000 3.315450 0.000000 
#    z 0.309930 0.000000 3.999590 
# 
# 
# High freq. dielectric constant tensor:
#      x y z
#    x 1.812880 0.000000 0.013170 
#    y 0.000000 1.773600 0.000000 
#    z 0.013170 0.000000 1.830400 
# 
# From -- ./inp_files/49769.got.cif
#   From: 2010.06.25/outbox.cif.g09.slc.cpg/sg15_25_cif.got.tgz:49769.got - 2010.06.28 07:06:18.
