data_PCOD8135508
_publ_section_title
;
Structure prediction by ZEFSAII (Michael W. Deem and Ramdas Pophale) SiO2 
 PCOD8135508
Probable space group: C 2/C
;
_chemical_formula_sum "Si O2"
_cell_formula_units_Z 44
_cell_length_a 10.477463
_cell_length_b 14.858312
_cell_length_c 15.597300
_cell_angle_alpha 90.000000
_cell_angle_beta 50.382111
_cell_angle_gamma 90.000000
_cell_volume 1870.436340
_symmetry_space_group_name_H-M "C 2/C"
_symmetry_group_IT_number 15
_symmetry_cell_setting 'monoclinic'
loop_
_space_group_symop_operation_xyz
x,y,z
-x,y,1/2-z
-x,-y,-z
x,-y,1/2+z
1/2+x,1/2+y,z
1/2-x,1/2+y,1/2-z
1/2-x,1/2-y,-z
1/2+x,1/2-y,1/2+z
loop_
_atom_site_type_symbol
_atom_site_label
_atom_site_fract_x
_atom_site_fract_y
_atom_site_fract_z
Si Si1 0.500000 0.281729 0.250000
Si Si2 0.127985 0.669118 0.454751
Si Si3 0.123672 0.896437 0.769126
Si Si4 0.059123 0.088039 0.871460
Si Si5 0.662299 0.701832 0.425437
Si Si6 0.332215 0.848672 0.371981
O O1 0.404118 0.341243 0.220461
O O2 0.357081 0.221496 0.355969
O O3 0.191467 0.599401 0.353381
O O4 0.261033 0.749077 0.397490
O O5 0.134764 0.620399 0.544152
O O6 0.947053 0.708586 0.508634
O O7 0.123138 0.823640 0.844503
O O8 0.000000 0.859901 0.750000
O O9 0.050781 0.990167 0.834081
O O10 0.201045 0.084989 0.882828
O O11 0.886999 0.119214 0.990442
O O12 0.500000 0.857728 0.250000
#
# Coordination Sequence:
#
# PCOD8135508 Si02
#       6
#     4   8   8   8   8   8
#     4  12  24  46  68  98 136 186 230 278 338 422
#     4  10  20  37  69 101 123 171 235 282 330 407
#     4  12  23  42  68  99 139 177 224 287 352 399
#     4  11  24  41  64  99 142 179 218 286 352 403
#     4  11  24  43  73  97 132 184 239 275 337 413
#     4  10  19  38  64  96 131 169 226 280 334 404
#
# _framework density 23.523923
#
# number of rings (size 3 to 8) (size 9 to 14) (size 15 to 20)
#    0.000    1.091    0.909    9.273    0.000    0.000 
#    1.636    3.636    4.000    0.000    0.000    0.000 
#    0.000    0.000    0.000    0.000    0.000    0.000 
#
# Total GULP energy -272764.050021 kJ/mol
# GULP energy per Si atom -12398.365910 kJ/mol
# Density = 2.347038 g / cm^3
# Si number density = 23.523923 Si / 1000 Ang^3
#
#
#
# Elastic Constant Matrix: (Units=GPa)
#
#
# Indices 1 2 3 4 5 6 
#
# 1 79.7222 35.2191 39.9590 0.0000 -13.6542 0.0000
# 2 35.2191 50.8580 32.6626 0.0000 -8.1227 0.0000
# 3 39.9590 32.6626 152.5045 -0.0001 -13.8639 0.0000
# 4 0.0000 0.0000 -0.0001 22.8486 0.0001 7.1739
# 5 -13.6542 -8.1227 -13.8639 0.0001 54.2682 0.0000
# 6 0.0000 0.0000 0.0000 7.1739 0.0000 13.6448
#
#
#
# Elastic Compliance Matrix: (Units=1/GPa)
#
#
# Indices 1 2 3 4 5 6 
#
# 1 0.019179 -0.011361 -0.002363 0.000000 0.002521 0.000000
# 2 -0.011361 0.029792 -0.003336 0.000000 0.000748 0.000000
# 3 -0.002363 -0.003336 0.007977 0.000000 0.000944 0.000000
# 4 0.000000 0.000000 0.000000 0.052420 0.000000 -0.027560
# 5 0.002521 0.000748 0.000944 0.000000 0.019415 0.000000
# 6 0.000000 0.000000 0.000000 -0.027560 0.000000 0.087778
#
#
# Mechanical properties :
#
#
# Convention : Reuss Voigt Hill
#
# Bulk Modulus (GPa) = 43.80594 55.41846 49.61220
# Shear Modulus (GPa) = 19.35823 29.83523 24.59673
#
# Velocity S-wave (km/s) = 2.87176 3.56517 3.23709
# Velocity P-wave (km/s) = 5.44595 6.36842 5.92516
#
# Compressibility (1/GPa) = 0.02282796
#
# Stress axis : x y z
#
# Youngs Moduli (GPa) = 52.14120 33.56602 125.36783
#
# Poissons Ratio (x) = 0.38135 0.29621
# Poissons Ratio (y) = 0.59238 0.41821
# Poissons Ratio (z) = 0.12319 0.11197
#
# Static dielectric constant tensor:
#      x y z
#    x 4.187510 0.000000 0.177460 
#    y 0.000000 3.767090 0.000000 
#    z 0.177460 0.000000 4.876900 
# 
# 
# High freq. dielectric constant tensor:
#      x y z
#    x 1.921980 0.000000 0.011160 
#    y 0.000000 1.886900 0.000000 
#    z 0.011160 0.000000 1.964290 
# 
# From -- ./inp_files/145449.got.cif
#   From: 2010.06.25/outbox.cif.g09.slc.cpg/sg15_73_cif.got.tgz:145449.got - 2010.06.28 07:06:18.
