data_PCOD8135417
_publ_section_title
;
Structure prediction by ZEFSAII (Michael W. Deem and Ramdas Pophale) SiO2 
 PCOD8135417
Probable space group: C 2/C
;
_chemical_formula_sum "Si O2"
_cell_formula_units_Z 56
_cell_length_a 28.423166
_cell_length_b 13.926087
_cell_length_c 9.441823
_cell_angle_alpha 90.000000
_cell_angle_beta 130.864330
_cell_angle_gamma 90.000000
_cell_volume 2826.370418
_symmetry_space_group_name_H-M "C 2/C"
_symmetry_group_IT_number 15
_symmetry_cell_setting 'monoclinic'
loop_
_space_group_symop_operation_xyz
x,y,z
-x,y,1/2-z
-x,-y,-z
x,-y,1/2+z
1/2+x,1/2+y,z
1/2-x,1/2+y,1/2-z
1/2-x,1/2-y,-z
1/2+x,1/2-y,1/2+z
loop_
_atom_site_type_symbol
_atom_site_label
_atom_site_fract_x
_atom_site_fract_y
_atom_site_fract_z
Si Si1 0.321895 0.310676 0.750547
Si Si2 0.380385 0.926364 0.637374
Si Si3 0.059836 0.289949 0.959953
Si Si4 0.054289 0.385343 0.243605
Si Si5 0.258477 0.977770 0.792627
Si Si6 0.282331 0.322319 0.366575
Si Si7 0.844433 0.668363 0.337502
O O1 0.290618 0.414114 0.715623
O O2 0.320061 0.290677 0.579795
O O3 0.286404 0.223996 0.761174
O O4 0.394034 0.302525 0.941064
O O5 0.402490 0.878596 0.534796
O O6 0.380592 0.845600 0.761410
O O7 0.431909 0.005855 0.780584
O O8 0.312271 0.974241 0.494199
O O9 0.000000 0.260330 0.750000
O O10 0.038377 0.321434 0.074791
O O11 0.114813 0.347081 0.442707
O O12 0.000000 0.381175 0.250000
O O13 0.289037 0.910663 0.732871
O O14 0.219239 0.063235 0.645396
O O15 0.316690 0.276097 0.296571
#
# Coordination Sequence:
#
# PCOD8135417 Si02
#       7
#     8   8   8   8   8   8   8
#     4  10  21  38  60  90 122 166 206 251 315 368
#     4  11  22  36  58  97 127 157 200 256 309 371
#     4  12  24  40  61  88 130 166 207 255 304 370
#     4  11  22  39  60  85 119 166 207 242 308 369
#     4  10  20  35  61  90 126 157 203 260 308 362
#     4  10  19  38  62  86 121 164 204 253 312 368
#     4  10  21  35  58  89 123 158 198 248 305 373
#
# _framework density 19.813396000000001
#
# number of rings (size 3 to 8) (size 9 to 14) (size 15 to 20)
#    0.000    1.429    2.857    3.857    2.000    2.286 
#    2.571    0.000    0.000    1.714    0.000    0.000 
#    0.000    0.000    0.000    0.000    0.000    0.000 
#
# Total GULP energy -347098.985211 kJ/mol
# GULP energy per Si atom -12396.392329 kJ/mol
# Density = 1.976830 g / cm^3
# Si number density = 19.813396 Si / 1000 Ang^3
#
#
#
# Elastic Constant Matrix: (Units=GPa)
#
#
# Indices 1 2 3 4 5 6 
#
# 1 116.1193 48.5514 52.8182 0.0000 -5.0105 0.0000
# 2 48.5514 88.0779 19.9264 0.0000 11.0975 0.0000
# 3 52.8182 19.9264 86.2633 0.0000 10.1985 0.0000
# 4 0.0000 0.0000 0.0000 21.1183 0.0000 1.7924
# 5 -5.0105 11.0975 10.1985 0.0000 33.6845 0.0000
# 6 0.0000 0.0000 0.0000 1.7924 0.0000 28.6701
#
#
#
# Elastic Compliance Matrix: (Units=1/GPa)
#
#
# Indices 1 2 3 4 5 6 
#
# 1 0.016458 -0.007989 -0.009160 0.000000 0.007853 0.000000
# 2 -0.007989 0.016205 0.001991 0.000000 -0.007130 0.000000
# 3 -0.009160 0.001991 0.017610 0.000000 -0.007350 0.000000
# 4 0.000000 0.000000 0.000000 0.047605 0.000000 -0.002976
# 5 0.007853 -0.007130 -0.007350 0.000000 0.035430 0.000000
# 6 0.000000 0.000000 0.000000 -0.002976 0.000000 0.035066
#
#
# Mechanical properties :
#
#
# Convention : Reuss Voigt Hill
#
# Bulk Modulus (GPa) = 50.10664 59.22805 54.66734
# Shear Modulus (GPa) = 24.34976 27.97222 26.16099
#
# Velocity S-wave (km/s) = 3.50945 3.76145 3.63763
# Velocity P-wave (km/s) = 6.46265 6.98731 6.73009
#
# Compressibility (1/GPa) = 0.01995744
#
# Stress axis : x y z
#
# Youngs Moduli (GPa) = 60.76243 61.70804 56.78638
#
# Poissons Ratio (x) = 0.49300 0.52015
# Poissons Ratio (y) = 0.48544 -0.11308
# Poissons Ratio (z) = 0.55657 -0.12288
#
# Static dielectric constant tensor:
#      x y z
#    x 3.570280 0.000000 0.048940 
#    y 0.000000 3.394990 0.000000 
#    z 0.048940 0.000000 3.492560 
# 
# 
# High freq. dielectric constant tensor:
#      x y z
#    x 1.770180 0.000000 -0.007650 
#    y 0.000000 1.744750 0.000000 
#    z -0.007650 0.000000 1.767820 
# 
# From -- ./inp_files/69984.got.cif
#   From: 2010.06.25/outbox.cif.g09.slc.cpg/sg15_35_cif.got.tgz:69984.got - 2010.06.28 07:06:18.
