data_PCOD8135992
_publ_section_title
;
Structure prediction by ZEFSAII (Michael W. Deem and Ramdas Pophale) SiO2 
 PCOD8135992
Probable space group: C 2/C
;
_chemical_formula_sum "Si O2"
_cell_formula_units_Z 56
_cell_length_a 13.226110
_cell_length_b 25.287236
_cell_length_c 9.221375
_cell_angle_alpha 90.000000
_cell_angle_beta 63.856509
_cell_angle_gamma 90.000000
_cell_volume 2768.580760
_symmetry_space_group_name_H-M "C 2/C"
_symmetry_group_IT_number 15
_symmetry_cell_setting 'monoclinic'
loop_
_space_group_symop_operation_xyz
x,y,z
-x,y,1/2-z
-x,-y,-z
x,-y,1/2+z
1/2+x,1/2+y,z
1/2-x,1/2+y,1/2-z
1/2-x,1/2-y,-z
1/2+x,1/2-y,1/2+z
loop_
_atom_site_type_symbol
_atom_site_label
_atom_site_fract_x
_atom_site_fract_y
_atom_site_fract_z
Si Si1 0.500000 0.588884 0.250000
Si Si2 0.022263 0.173869 0.444833
Si Si3 0.969816 0.291977 0.434501
Si Si4 0.711861 0.544374 0.263361
Si Si5 0.897357 0.355952 0.912585
Si Si6 0.273437 0.839707 0.718763
Si Si7 0.000000 0.883446 0.250000
Si Si8 0.777048 0.056192 0.912110
O O1 0.451669 0.628221 0.406151
O O2 0.592820 0.550807 0.258503
O O3 0.144360 0.177940 0.289785
O O4 0.037725 0.155814 0.599076
O O5 0.962047 0.229663 0.468742
O O6 0.844638 0.313262 0.545441
O O7 0.000000 0.305342 0.250000
O O8 0.061137 0.318131 0.484279
O O9 0.787201 0.596656 0.192210
O O10 0.693955 0.535659 0.445356
O O11 0.766737 0.492258 0.159164
O O12 0.819931 0.322696 0.848683
O O13 0.000000 0.378833 0.750000
O O14 0.826519 0.403243 0.027483
O O15 0.891585 0.918455 0.274892
#
# Coordination Sequence:
#
# PCOD8135992 Si02
#       8
#     4   8   8   8   8   8   4   8
#     4  10  19  42  56  86 132 162 183 250 312 358
#     4  11  23  40  62  92 126 163 197 250 309 364
#     4  11  24  40  63  93 119 162 207 251 305 357
#     4  10  22  39  61  86 129 160 200 249 311 358
#     4   9  20  43  64  83 124 161 207 254 295 363
#     4   9  21  45  58  86 126 158 203 255 301 361
#     4  12  23  38  64  98 126 152 217 242 294 396
#     4  11  23  40  61  96 117 165 203 253 308 359
#
# _framework density 20.226967999999999
#
# number of rings (size 3 to 8) (size 9 to 14) (size 15 to 20)
#    0.000    1.714    5.000    0.429    5.000    4.571 
#    2.571    7.143    0.000    0.000    0.000    0.000 
#    0.000    0.000    0.000    0.000    0.000    0.000 
#
# Total GULP energy -347130.030556 kJ/mol
# GULP energy per Si atom -12397.501091 kJ/mol
# Density = 2.018093 g / cm^3
# Si number density = 20.226968 Si / 1000 Ang^3
#
#
#
# Elastic Constant Matrix: (Units=GPa)
#
#
# Indices 1 2 3 4 5 6 
#
# 1 38.4648 1.7443 13.8604 0.0000 3.7298 0.0000
# 2 1.7443 82.6402 44.7028 0.0000 -7.7040 0.0000
# 3 13.8604 44.7028 101.6610 0.0000 2.3560 0.0000
# 4 0.0000 0.0000 0.0000 25.5190 0.0000 3.3294
# 5 3.7298 -7.7040 2.3560 0.0000 36.0069 0.0000
# 6 0.0000 0.0000 0.0000 3.3294 0.0000 25.8565
#
#
#
# Elastic Compliance Matrix: (Units=1/GPa)
#
#
# Indices 1 2 3 4 5 6 
#
# 1 0.027741 0.001605 -0.004436 0.000000 -0.002240 0.000000
# 2 0.001605 0.016524 -0.007575 0.000000 0.003865 0.000000
# 3 -0.004436 -0.007575 0.013820 0.000000 -0.002065 0.000000
# 4 0.000000 0.000000 0.000000 0.039856 0.000000 -0.005132
# 5 -0.002240 0.003865 -0.002065 0.000000 0.028967 0.000000
# 6 0.000000 0.000000 0.000000 -0.005132 0.000000 0.039336
#
#
# Mechanical properties :
#
#
# Convention : Reuss Voigt Hill
#
# Bulk Modulus (GPa) = 26.82814 38.15344 32.49079
# Shear Modulus (GPa) = 25.06527 28.30705 26.68616
#
# Velocity S-wave (km/s) = 3.52405 3.74501 3.63621
# Velocity P-wave (km/s) = 5.46360 6.13219 5.80752
#
# Compressibility (1/GPa) = 0.03727430
#
# Stress axis : x y z
#
# Youngs Moduli (GPa) = 36.04810 60.51647 72.35858
#
# Poissons Ratio (x) = -0.09715 0.32099
# Poissons Ratio (y) = -0.05787 0.54809
# Poissons Ratio (z) = 0.15991 0.45839
#
# Static dielectric constant tensor:
#      x y z
#    x 3.704980 0.000000 0.139220 
#    y 0.000000 3.599670 0.000000 
#    z 0.139220 0.000000 3.718510 
# 
# 
# High freq. dielectric constant tensor:
#      x y z
#    x 1.786240 0.000000 0.012690 
#    y 0.000000 1.785120 0.000000 
#    z 0.012690 0.000000 1.789750 
# 
# From -- ./inp_files/43483.got.cif
#   From: 2010.06.25/outbox.cif.g09.slc.cpg/sg15_22_cif.got.tgz:43483.got - 2010.06.28 07:06:18.
