data_PCOD8135236
_publ_section_title
;
Structure prediction by ZEFSAII (Michael W. Deem and Ramdas Pophale) SiO2 
 PCOD8135236
Probable space group: C 2/C
;
_chemical_formula_sum "Si O2"
_cell_formula_units_Z 64
_cell_length_a 9.408639
_cell_length_b 21.764819
_cell_length_c 15.691817
_cell_angle_alpha 90.000000
_cell_angle_beta 83.950442
_cell_angle_gamma 90.000000
_cell_volume 3195.433640
_symmetry_space_group_name_H-M "C 2/C"
_symmetry_group_IT_number 15
_symmetry_cell_setting 'monoclinic'
loop_
_space_group_symop_operation_xyz
x,y,z
-x,y,1/2-z
-x,-y,-z
x,-y,1/2+z
1/2+x,1/2+y,z
1/2-x,1/2+y,1/2-z
1/2-x,1/2-y,-z
1/2+x,1/2-y,1/2+z
loop_
_atom_site_type_symbol
_atom_site_label
_atom_site_fract_x
_atom_site_fract_y
_atom_site_fract_z
Si Si1 0.797095 0.945709 0.519905
Si Si2 0.884340 0.925972 0.944276
Si Si3 0.337900 0.348621 0.783537
Si Si4 0.634786 0.365196 0.388140
Si Si5 0.174226 0.857408 0.133170
Si Si6 0.152936 0.566595 0.198628
Si Si7 0.668507 0.788214 0.238480
Si Si8 0.146346 0.966411 0.266365
O O1 0.767914 0.888072 0.458049
O O2 0.664614 0.946168 0.595942
O O3 0.943989 0.936859 0.564801
O O4 0.803012 0.009225 0.465644
O O5 0.822595 0.896393 0.862126
O O6 0.843998 0.871476 0.012660
O O7 0.500000 0.341982 0.750000
O O8 0.246340 0.373155 0.710199
O O9 0.284035 0.278724 0.798849
O O10 0.485939 0.331131 0.372717
O O11 0.769379 0.333481 0.336714
O O12 0.623137 0.437571 0.361682
O O13 0.271224 0.803408 0.169173
O O14 0.169147 0.909711 0.203669
O O15 0.217825 0.509462 0.246268
O O16 0.000000 0.577105 0.250000
O O17 0.500000 0.798466 0.250000
O O18 0.000000 0.003221 0.250000
#
# Coordination Sequence:
#
# PCOD8135236 Si02
#       8
#     8   8   8   8   8   8   8   8
#     4  10  20  37  62  94 120 149 204 244 297 360
#     4  10  19  37  66  92 115 153 202 252 286 357
#     4  11  23  41  62  82 118 164 208 241 289 365
#     4   9  18  36  63  91 112 151 204 248 292 352
#     4   9  19  37  63  86 112 156 205 248 283 352
#     4  12  24  37  55  89 126 161 190 245 312 355
#     4  10  22  39  60  85 119 159 201 252 301 347
#     4   9  17  33  58  85 115 153 197 235 293 362
#
# _framework density 20.028580000000002
#
# number of rings (size 3 to 8) (size 9 to 14) (size 15 to 20)
#    0.000    2.000    2.500    2.250    1.750    3.500 
#    2.250    1.875    0.000    0.000    0.000    0.000 
#    0.000    0.000    0.000    0.000    0.000    0.000 
#
# Total GULP energy -396501.983376 kJ/mol
# GULP energy per Si atom -12390.686981 kJ/mol
# Density = 1.998299 g / cm^3
# Si number density = 20.028580 Si / 1000 Ang^3
#
#
#
# Elastic Constant Matrix: (Units=GPa)
#
#
# Indices 1 2 3 4 5 6 
#
# 1 67.1686 31.2836 19.9011 0.0000 -6.0323 0.0000
# 2 31.2836 88.9059 35.2455 0.0000 4.0664 0.0000
# 3 19.9011 35.2455 91.4171 0.0000 -6.8439 0.0000
# 4 0.0000 0.0000 0.0000 21.4541 0.0000 -7.5305
# 5 -6.0323 4.0664 -6.8439 0.0000 29.8347 0.0000
# 6 0.0000 0.0000 0.0000 -7.5305 0.0000 -15.7057
#
#
#
# Elastic Compliance Matrix: (Units=1/GPa)
#
#
# Indices 1 2 3 4 5 6 
#
# 1 0.018554 -0.006198 -0.001328 0.000000 0.004292 0.000000
# 2 -0.006198 0.015624 -0.005014 0.000000 -0.004533 0.000000
# 3 -0.001328 -0.005014 0.013423 0.000000 0.003494 0.000000
# 4 0.000000 0.000000 0.000000 0.039897 0.000000 -0.019129
# 5 0.004292 -0.004533 0.003494 0.000000 0.035805 0.000000
# 6 0.000000 0.000000 0.000000 -0.019129 0.000000 -0.054499
#
#
# Mechanical properties :
#
#
# Convention : Reuss Voigt Hill
#
# Bulk Modulus (GPa) = 44.40516 46.70578 45.55547
# Shear Modulus (GPa) = 49.31484 17.85403 33.58444
#
# Velocity S-wave (km/s) = 4.96746 2.98892 4.09935
# Velocity P-wave (km/s) = 7.42428 5.93984 6.72316
#
# Compressibility (1/GPa) = 0.02251990
#
# Stress axis : x y z
#
# Youngs Moduli (GPa) = 53.89773 64.00492 74.50148
#
# Poissons Ratio (x) = 0.39672 0.09894
# Poissons Ratio (y) = 0.33408 0.37353
# Poissons Ratio (z) = 0.07158 0.32090
#
# Static dielectric constant tensor:
#      x y z
#    x 3.495730 0.000000 0.111900 
#    y 0.000000 3.706350 0.000000 
#    z 0.111900 0.000000 3.977330 
# 
# 
# High freq. dielectric constant tensor:
#      x y z
#    x 1.753680 0.000000 0.000680 
#    y 0.000000 1.769950 0.000000 
#    z 0.000680 0.000000 1.789890 
# 
# From -- ./inp_files/137851.got.cif
#   From: 2010.06.25/outbox.cif.g09.slc.cpg/sg15_69_cif.got.tgz:137851.got - 2010.06.28 07:06:18.
