data_PCOD8135200
_publ_section_title
;
Structure prediction by ZEFSAII (Michael W. Deem and Ramdas Pophale) SiO2 
 PCOD8135200
Probable space group: C 2/C
;
_chemical_formula_sum "Si O2"
_cell_formula_units_Z 56
_cell_length_a 17.956977
_cell_length_b 8.706888
_cell_length_c 16.357408
_cell_angle_alpha 90.000000
_cell_angle_beta 100.399749
_cell_angle_gamma 90.000000
_cell_volume 2515.457263
_symmetry_space_group_name_H-M "C 2/C"
_symmetry_group_IT_number 15
_symmetry_cell_setting 'monoclinic'
loop_
_space_group_symop_operation_xyz
x,y,z
-x,y,1/2-z
-x,-y,-z
x,-y,1/2+z
1/2+x,1/2+y,z
1/2-x,1/2+y,1/2-z
1/2-x,1/2-y,-z
1/2+x,1/2-y,1/2+z
loop_
_atom_site_type_symbol
_atom_site_label
_atom_site_fract_x
_atom_site_fract_y
_atom_site_fract_z
Si Si1 0.478779 0.129820 0.601948
Si Si2 0.746365 0.068522 0.008571
Si Si3 0.361153 0.890127 0.615173
Si Si4 0.580305 0.281864 0.230989
Si Si5 0.103876 0.892138 0.475721
Si Si6 0.895880 0.590193 0.421179
Si Si7 0.466176 0.447278 0.867978
O O1 0.436394 0.166690 0.508092
O O2 0.493719 0.289236 0.652569
O O3 0.427495 0.014707 0.645057
O O4 0.560630 0.058692 0.601575
O O5 0.715588 0.984004 0.919557
O O6 0.750000 0.250000 0.000000
O O7 0.688987 0.037152 0.072363
O O8 0.828177 0.999178 0.043553
O O9 0.355402 0.775409 0.691990
O O10 0.379910 0.787432 0.538808
O O11 0.500000 0.221286 0.250000
O O12 0.604021 0.218594 0.147860
O O13 0.576712 0.468074 0.216568
O O14 0.091714 0.912878 0.569706
O O15 0.029743 0.931807 0.408916
#
# Coordination Sequence:
#
# PCOD8135200 Si02
#       7
#     8   8   8   8   8   8   8
#     4  10  19  37  64  95 122 167 224 268 308 384
#     4  11  23  40  64  96 128 174 227 268 314 391
#     4  11  23  41  65  95 136 172 214 273 339 389
#     4  12  22  41  60  95 133 168 203 270 342 389
#     4  11  21  39  65  96 126 175 219 268 317 382
#     4  10  20  38  63  90 132 171 213 263 327 388
#     4  11  21  36  66  96 128 162 222 271 316 386
#
# _framework density 22.262352
#
# number of rings (size 3 to 8) (size 9 to 14) (size 15 to 20)
#    0.000    1.143    2.857    7.286    0.000    0.000 
#    2.571    2.857    0.000    0.000    0.000    0.000 
#    0.000    0.000    0.000    0.000    0.000    0.000 
#
# Total GULP energy -347104.635572 kJ/mol
# GULP energy per Si atom -12396.594128 kJ/mol
# Density = 2.221168 g / cm^3
# Si number density = 22.262352 Si / 1000 Ang^3
#
#
#
# Elastic Constant Matrix: (Units=GPa)
#
#
# Indices 1 2 3 4 5 6 
#
# 1 78.2016 22.7689 9.3463 0.0000 -6.1935 0.0000
# 2 22.7689 143.2434 45.1358 0.0000 15.2036 0.0000
# 3 9.3463 45.1358 77.9491 0.0000 12.2195 0.0000
# 4 0.0000 0.0000 0.0000 46.3841 0.0000 5.0401
# 5 -6.1935 15.2036 12.2195 0.0000 17.7781 0.0000
# 6 0.0000 0.0000 0.0000 5.0401 0.0000 37.1484
#
#
#
# Elastic Compliance Matrix: (Units=1/GPa)
#
#
# Indices 1 2 3 4 5 6 
#
# 1 0.014415 -0.002716 -0.001465 0.000000 0.008351 0.000000
# 2 -0.002716 0.009366 -0.004140 0.000000 -0.006110 0.000000
# 3 -0.001465 -0.004140 0.016729 0.000000 -0.008469 0.000000
# 4 0.000000 0.000000 0.000000 0.021882 0.000000 -0.002969
# 5 0.008351 -0.006110 -0.008469 0.000000 0.070205 0.000000
# 6 0.000000 0.000000 0.000000 -0.002969 0.000000 0.027322
#
#
# Mechanical properties :
#
#
# Convention : Reuss Voigt Hill
#
# Bulk Modulus (GPa) = 41.89612 50.43290 46.16451
# Shear Modulus (GPa) = 27.09805 35.07166 31.08485
#
# Velocity S-wave (km/s) = 3.49264 3.97341 3.74076
# Velocity P-wave (km/s) = 5.92662 6.61466 6.28007
#
# Compressibility (1/GPa) = 0.02386856
#
# Stress axis : x y z
#
# Youngs Moduli (GPa) = 69.37325 106.77142 59.77607
#
# Poissons Ratio (x) = 0.29000 0.08756
# Poissons Ratio (y) = 0.18843 0.24745
# Poissons Ratio (z) = 0.10162 0.44199
#
# Static dielectric constant tensor:
#      x y z
#    x 3.971280 0.000000 -0.102990 
#    y 0.000000 4.161810 0.000000 
#    z -0.102990 0.000000 3.817360 
# 
# 
# High freq. dielectric constant tensor:
#      x y z
#    x 1.854180 0.000000 -0.010740 
#    y 0.000000 1.895790 0.000000 
#    z -0.010740 0.000000 1.847330 
# 
# From -- ./inp_files/213404.got.cif
#   From: 2010.06.25/outbox.cif.g09.slc.cpg/sg15_107_cif.got.tgz:213404.got - 2010.06.28 07:06:18.
