data_PCOD8135486
_publ_section_title
;
Structure prediction by ZEFSAII (Michael W. Deem and Ramdas Pophale) SiO2 
 PCOD8135486
Probable space group: C 2/C
;
_chemical_formula_sum "Si O2"
_cell_formula_units_Z 56
_cell_length_a 16.878469
_cell_length_b 10.177724
_cell_length_c 20.920226
_cell_angle_alpha 90.000000
_cell_angle_beta 127.830537
_cell_angle_gamma 90.000000
_cell_volume 2838.459805
_symmetry_space_group_name_H-M "C 2/C"
_symmetry_group_IT_number 15
_symmetry_cell_setting 'monoclinic'
loop_
_space_group_symop_operation_xyz
x,y,z
-x,y,1/2-z
-x,-y,-z
x,-y,1/2+z
1/2+x,1/2+y,z
1/2-x,1/2+y,1/2-z
1/2-x,1/2-y,-z
1/2+x,1/2-y,1/2+z
loop_
_atom_site_type_symbol
_atom_site_label
_atom_site_fract_x
_atom_site_fract_y
_atom_site_fract_z
Si Si1 0.795549 0.074182 0.855115
Si Si2 0.572255 0.969784 0.726790
Si Si3 0.778272 0.290033 0.944594
Si Si4 0.341378 0.310752 0.246966
Si Si5 0.392601 0.589769 0.225826
Si Si6 0.368658 0.694632 0.356504
Si Si7 0.517639 0.915854 0.446622
O O1 0.812432 0.155877 0.927352
O O2 0.845785 0.159759 0.824216
O O3 0.677499 0.046692 0.783675
O O4 0.857514 0.938818 0.891703
O O5 0.500000 0.008332 0.750000
O O6 0.589602 0.813821 0.734858
O O7 0.519230 0.009773 0.634816
O O8 0.687922 0.358174 0.863475
O O9 0.750000 0.250000 0.000000
O O10 0.864251 0.396917 0.995536
O O11 0.381957 0.433132 0.226436
O O12 0.225770 0.285494 0.172538
O O13 0.500000 0.626996 0.250000
O O14 0.373165 0.661726 0.283344
O O15 0.466608 0.772492 0.427027
O O16 0.500000 0.000000 0.500000
#
# Coordination Sequence:
#
# PCOD8135486 Si02
#       7
#     8   8   8   8   8   8   8
#     4  10  21  39  64  84 118 163 217 249 301 377
#     4  11  22  39  63  92 120 164 214 258 309 375
#     4  12  24  38  59  91 130 161 199 262 327 372
#     4  10  19  38  64  88 116 157 217 257 293 360
#     4  11  22  39  64  91 121 162 217 256 302 373
#     4  10  21  39  64  87 117 164 210 256 301 378
#     4  12  24  38  62  92 128 159 203 259 326 377
#
# _framework density 19.729009000000001
#
# number of rings (size 3 to 8) (size 9 to 14) (size 15 to 20)
#    0.000    1.143    2.857    3.857    2.000    1.714 
#    0.000    2.857    0.000    7.714    0.000    0.000 
#    0.000    0.000    0.000    0.000    0.000    0.000 
#
# Total GULP energy -347244.734358 kJ/mol
# GULP energy per Si atom -12401.597656 kJ/mol
# Density = 1.968410 g / cm^3
# Si number density = 19.729009 Si / 1000 Ang^3
#
#
#
# Elastic Constant Matrix: (Units=GPa)
#
#
# Indices 1 2 3 4 5 6 
#
# 1 107.9603 30.3423 46.6396 0.0000 -2.0446 0.0000
# 2 30.3423 89.3556 46.6830 0.0000 -3.2183 0.0000
# 3 46.6396 46.6830 103.4760 0.0000 -9.8710 0.0000
# 4 0.0000 0.0000 0.0000 21.1592 0.0000 3.2135
# 5 -2.0446 -3.2183 -9.8710 0.0000 39.3626 0.0000
# 6 0.0000 0.0000 0.0000 3.2135 0.0000 32.2323
#
#
#
# Elastic Compliance Matrix: (Units=1/GPa)
#
#
# Indices 1 2 3 4 5 6 
#
# 1 0.011690 -0.001580 -0.004621 0.000000 -0.000681 0.000000
# 2 -0.001580 0.014864 -0.006030 0.000000 -0.000379 0.000000
# 3 -0.004621 -0.006030 0.014750 0.000000 0.002966 0.000000
# 4 0.000000 0.000000 0.000000 0.047987 0.000000 -0.004784
# 5 -0.000681 -0.000379 0.002966 0.000000 0.026082 0.000000
# 6 0.000000 0.000000 0.000000 -0.004784 0.000000 0.031502
#
#
# Mechanical properties :
#
#
# Convention : Reuss Voigt Hill
#
# Bulk Modulus (GPa) = 59.37337 60.90241 60.13789
# Shear Modulus (GPa) = 28.25605 30.35929 29.30767
#
# Velocity S-wave (km/s) = 3.78856 3.92703 3.85841
# Velocity P-wave (km/s) = 7.02121 7.17625 7.09915
#
# Compressibility (1/GPa) = 0.01684257
#
# Stress axis : x y z
#
# Youngs Moduli (GPa) = 85.54163 67.27464 67.79435
#
# Poissons Ratio (x) = 0.10628 0.31330
# Poissons Ratio (y) = 0.13514 0.40881
# Poissons Ratio (z) = 0.39532 0.40568
#
# Static dielectric constant tensor:
#      x y z
#    x 3.703970 0.000000 -0.014080 
#    y 0.000000 3.838320 0.000000 
#    z -0.014080 0.000000 3.346940 
# 
# 
# High freq. dielectric constant tensor:
#      x y z
#    x 1.779620 0.000000 -0.000030 
#    y 0.000000 1.787570 0.000000 
#    z -0.000030 0.000000 1.755460 
# 
# From -- ./inp_files/204520.got.cif
#   From: 2010.06.25/outbox.cif.g09.slc.cpg/sg15_103_cif.got.tgz:204520.got - 2010.06.28 07:06:18.
