data_PCOD8135866
_publ_section_title
;
Structure prediction by ZEFSAII (Michael W. Deem and Ramdas Pophale) SiO2 
 PCOD8135866
Probable space group: C 2/C
;
_chemical_formula_sum "Si O2"
_cell_formula_units_Z 44
_cell_length_a 16.092050
_cell_length_b 11.083016
_cell_length_c 27.065473
_cell_angle_alpha 90.000000
_cell_angle_beta 157.028190
_cell_angle_gamma 90.000000
_cell_volume 1883.906010
_symmetry_space_group_name_H-M "C 2/C"
_symmetry_group_IT_number 15
_symmetry_cell_setting 'monoclinic'
loop_
_space_group_symop_operation_xyz
x,y,z
-x,y,1/2-z
-x,-y,-z
x,-y,1/2+z
1/2+x,1/2+y,z
1/2-x,1/2+y,1/2-z
1/2-x,1/2-y,-z
1/2+x,1/2-y,1/2+z
loop_
_atom_site_type_symbol
_atom_site_label
_atom_site_fract_x
_atom_site_fract_y
_atom_site_fract_z
Si Si1 0.500000 0.049762 0.750000
Si Si2 0.465367 0.483255 0.785942
Si Si3 0.681681 0.850622 0.018136
Si Si4 0.959372 0.335537 0.798761
Si Si5 0.797520 0.239349 0.083311
Si Si6 0.891597 0.646234 0.912002
O O1 0.679427 0.136343 0.873467
O O2 0.421390 0.965729 0.752039
O O3 0.500000 0.539221 0.750000
O O4 0.666672 0.545501 0.923677
O O5 0.481115 0.337686 0.793816
O O6 0.240821 0.532757 0.683832
O O7 0.828897 0.730463 0.106775
O O8 0.569993 0.881052 0.009073
O O9 0.488217 0.839053 0.873689
O O10 0.739520 0.267571 0.668648
O O11 0.750000 0.250000 0.000000
O O12 0.618650 0.154781 0.010177
#
# Coordination Sequence:
#
# PCOD8135866 Si02
#       6
#     4   8   8   8   8   8
#     4  12  24  44  66  94 154 174 218 304 354 404
#     4   9  19  43  66  92 126 178 231 288 333 407
#     4   9  18  37  72  97 131 175 241 278 327 426
#     4  10  19  40  67 104 134 182 223 277 352 419
#     4  12  27  45  63 104 145 181 231 293 351 412
#     4  10  22  43  72  95 134 181 237 283 341 416
#
# _framework density 23.355730999999999
#
# number of rings (size 3 to 8) (size 9 to 14) (size 15 to 20)
#    0.000    1.818    2.727    2.182    0.000    5.091 
#    6.545    0.000    0.000    0.000    0.000    0.000 
#    0.000    0.000    0.000    0.000    0.000    0.000 
#
# Total GULP energy -272591.270201 kJ/mol
# GULP energy per Si atom -12390.512282 kJ/mol
# Density = 2.330257 g / cm^3
# Si number density = 23.355731 Si / 1000 Ang^3
#
#
#
# Elastic Constant Matrix: (Units=GPa)
#
#
# Indices 1 2 3 4 5 6 
#
# 1 96.8005 24.7993 36.3718 0.0007 -6.3607 -0.0002
# 2 24.7993 145.1244 45.9448 0.0026 2.5957 0.0001
# 3 36.3718 45.9448 89.8827 0.0356 -7.2042 -0.0009
# 4 0.0007 0.0026 0.0356 39.2965 -0.0041 -1.1517
# 5 -6.3607 2.5957 -7.2042 -0.0041 30.8105 -0.0005
# 6 -0.0002 0.0001 -0.0009 -1.1517 -0.0005 28.4511
#
#
#
# Elastic Compliance Matrix: (Units=1/GPa)
#
#
# Indices 1 2 3 4 5 6 
#
# 1 0.012301 -0.000708 -0.004492 0.000004 0.001549 0.000000
# 2 -0.000708 0.008351 -0.004128 0.000003 -0.001815 0.000000
# 3 -0.004492 -0.004128 0.015293 -0.000013 0.002996 0.000000
# 4 0.000004 0.000003 -0.000013 0.025478 0.000001 0.001031
# 5 0.001549 -0.001815 0.002996 0.000001 0.033630 0.000001
# 6 0.000000 0.000000 0.000000 0.001031 0.000001 0.035190
#
#
# Mechanical properties :
#
#
# Convention : Reuss Voigt Hill
#
# Bulk Modulus (GPa) = 57.83394 60.67102 59.25248
# Shear Modulus (GPa) = 32.32868 34.69107 33.50987
#
# Velocity S-wave (km/s) = 3.72450 3.85818 3.79193
# Velocity P-wave (km/s) = 6.58117 6.77353 6.67805
#
# Compressibility (1/GPa) = 0.01729089
#
# Stress axis : x y z
#
# Youngs Moduli (GPa) = 81.29142 119.74869 65.38757
#
# Poissons Ratio (x) = 0.08475 0.29372
# Poissons Ratio (y) = 0.05753 0.26990
# Poissons Ratio (z) = 0.36516 0.49429
#
# Static dielectric constant tensor:
#      x y z
#    x 3.907380 0.000000 -0.338800 
#    y 0.000000 4.278220 -0.000010 
#    z -0.338800 -0.000010 4.244670 
# 
# 
# High freq. dielectric constant tensor:
#      x y z
#    x 1.895710 0.000000 -0.021190 
#    y 0.000000 1.932950 0.000000 
#    z -0.021190 0.000000 1.926460 
# 
# From -- ./inp_files/316270.got.cif
#   From: 2010.06.25/outbox.cif.g09.slc.cpg/sg15_159_cif.got.tgz:316270.got - 2010.06.28 07:06:18.
