data_PCOD8135330
_publ_section_title
;
Structure prediction by ZEFSAII (Michael W. Deem and Ramdas Pophale) SiO2 
 PCOD8135330
Probable space group: C 2/C
;
_chemical_formula_sum "Si O2"
_cell_formula_units_Z 48
_cell_length_a 17.759913
_cell_length_b 11.842821
_cell_length_c 13.571060
_cell_angle_alpha 90.000000
_cell_angle_beta 49.935935
_cell_angle_gamma 90.000000
_cell_volume 2184.518882
_symmetry_space_group_name_H-M "C 2/C"
_symmetry_group_IT_number 15
_symmetry_cell_setting 'monoclinic'
loop_
_space_group_symop_operation_xyz
x,y,z
-x,y,1/2-z
-x,-y,-z
x,-y,1/2+z
1/2+x,1/2+y,z
1/2-x,1/2+y,1/2-z
1/2-x,1/2-y,-z
1/2+x,1/2-y,1/2+z
loop_
_atom_site_type_symbol
_atom_site_label
_atom_site_fract_x
_atom_site_fract_y
_atom_site_fract_z
Si Si1 0.698456 0.840364 0.113690
Si Si2 0.297441 0.727026 0.101489
Si Si3 0.361771 0.305788 0.128206
Si Si4 0.935244 0.025086 0.716999
Si Si5 0.741928 0.062146 0.983629
Si Si6 0.043621 0.781731 0.866674
O O1 0.774114 0.863742 0.139689
O O2 0.592552 0.797072 0.241994
O O3 0.750000 0.750000 0.000000
O O4 0.675379 0.958755 0.078566
O O5 0.190213 0.728387 0.245145
O O6 0.319844 0.845955 0.026784
O O7 0.382456 0.703105 0.105879
O O8 0.297309 0.624346 0.026090
O O9 0.431998 0.397364 0.122531
O O10 0.437560 0.233917 0.994709
O O11 0.823455 0.005507 0.845569
O O12 0.000000 0.082116 0.750000
O O13 0.982701 0.904143 0.654465
#
# Coordination Sequence:
#
# PCOD8135330 Si02
#       6
#     8   8   8   8   8   8
#     4  11  22  38  61  85 119 159 192 248 292 350
#     4   9  21  38  62  83 116 160 190 245 285 351
#     4  10  22  37  58  91 119 150 199 243 297 347
#     4  11  20  33  62  93 117 147 190 260 306 338
#     4  10  19  38  59  85 116 152 203 232 294 347
#     4  11  21  36  58  87 121 149 191 241 301 347
#
# _framework density 21.972801
#
# number of rings (size 3 to 8) (size 9 to 14) (size 15 to 20)
#    0.000    1.667    1.667    3.500    0.000    0.000 
#    0.000    0.833    3.667    0.000    0.000    0.000 
#    0.000    0.000    0.000    0.000    0.000    0.000 
#
# Total GULP energy -297563.036672 kJ/mol
# GULP energy per Si atom -12398.459861 kJ/mol
# Density = 2.192279 g / cm^3
# Si number density = 21.972801 Si / 1000 Ang^3
#
#
#
# Elastic Constant Matrix: (Units=GPa)
#
#
# Indices 1 2 3 4 5 6 
#
# 1 47.0146 8.1970 8.0418 0.0000 3.4925 0.0000
# 2 8.1970 85.9701 36.3915 0.0000 2.5631 0.0000
# 3 8.0418 36.3915 132.5583 0.0000 -10.4312 0.0000
# 4 0.0000 0.0000 0.0000 26.7132 0.0000 2.6984
# 5 3.4925 2.5631 -10.4312 0.0000 35.9774 0.0000
# 6 0.0000 0.0000 0.0000 2.6984 0.0000 21.9436
#
#
#
# Elastic Compliance Matrix: (Units=1/GPa)
#
#
# Indices 1 2 3 4 5 6 
#
# 1 0.021900 -0.001560 -0.001084 0.000000 -0.002329 0.000000
# 2 -0.001560 0.013419 -0.003738 0.000000 -0.001888 0.000000
# 3 -0.001084 -0.003738 0.008867 0.000000 0.002942 0.000000
# 4 0.000000 0.000000 0.000000 0.037906 0.000000 -0.004661
# 5 -0.002329 -0.001888 0.002942 0.000000 0.029009 0.000000
# 6 0.000000 0.000000 0.000000 -0.004661 0.000000 0.046144
#
#
# Mechanical properties :
#
#
# Convention : Reuss Voigt Hill
#
# Bulk Modulus (GPa) = 31.82305 41.20041 36.51173
# Shear Modulus (GPa) = 27.70331 31.12102 29.41216
#
# Velocity S-wave (km/s) = 3.55463 3.76752 3.66262
# Velocity P-wave (km/s) = 5.60014 6.14141 5.87701
#
# Compressibility (1/GPa) = 0.03142377
#
# Stress axis : x y z
#
# Youngs Moduli (GPa) = 45.66140 74.51957 112.77346
#
# Poissons Ratio (x) = 0.11625 0.12220
# Poissons Ratio (y) = 0.07123 0.42155
# Poissons Ratio (z) = 0.04948 0.27855
#
# Static dielectric constant tensor:
#      x y z
#    x 3.812010 0.000000 0.241120 
#    y 0.000000 3.737940 0.000000 
#    z 0.241120 0.000000 4.360290 
# 
# 
# High freq. dielectric constant tensor:
#      x y z
#    x 1.856270 0.000000 0.020830 
#    y 0.000000 1.832590 0.000000 
#    z 0.020830 0.000000 1.885820 
# 
# From -- ./inp_files/167132.got.cif
#   From: 2010.06.25/outbox.cif.g09.slc.cpg/sg15_84_cif.got.tgz:167132.got - 2010.06.28 07:06:18.
