data_PCOD8135980
_publ_section_title
;
Structure prediction by ZEFSAII (Michael W. Deem and Ramdas Pophale) SiO2 
 PCOD8135980
Probable space group: C 2/C
;
_chemical_formula_sum "Si O2"
_cell_formula_units_Z 48
_cell_length_a 11.440156
_cell_length_b 10.595843
_cell_length_c 22.467662
_cell_angle_alpha 90.000000
_cell_angle_beta 124.720627
_cell_angle_gamma 90.000000
_cell_volume 2238.540484
_symmetry_space_group_name_H-M "C 2/C"
_symmetry_group_IT_number 15
_symmetry_cell_setting 'monoclinic'
loop_
_space_group_symop_operation_xyz
x,y,z
-x,y,1/2-z
-x,-y,-z
x,-y,1/2+z
1/2+x,1/2+y,z
1/2-x,1/2+y,1/2-z
1/2-x,1/2-y,-z
1/2+x,1/2-y,1/2+z
loop_
_atom_site_type_symbol
_atom_site_label
_atom_site_fract_x
_atom_site_fract_y
_atom_site_fract_z
Si Si1 0.880762 0.264120 0.976013
Si Si2 0.823900 0.192177 0.579679
Si Si3 0.897388 0.401597 0.391852
Si Si4 0.895667 0.686683 0.354647
Si Si5 0.099085 0.093138 0.415410
Si Si6 0.591460 0.261182 0.717600
O O1 0.918559 0.226410 0.919589
O O2 0.716713 0.305080 0.928041
O O3 0.928909 0.138243 0.025261
O O4 0.962865 0.385346 0.027152
O O5 0.750000 0.250000 0.500000
O O6 0.726453 0.177722 0.610269
O O7 0.957807 0.282220 0.638363
O O8 0.865066 0.051579 0.573562
O O9 0.868542 0.548726 0.374778
O O10 0.924860 0.353035 0.333161
O O11 0.758735 0.723696 0.277457
O O12 0.966441 0.112402 0.331747
O O13 0.500000 0.230905 0.750000
#
# Coordination Sequence:
#
# PCOD8135980 Si02
#       6
#     8   8   8   8   8   8
#     4  10  19  41  69  98 124 179 222 278 336 403
#     4  12  24  42  69 105 133 177 226 284 352 408
#     4  11  24  45  65  96 144 168 224 289 335 407
#     4  12  24  42  70  96 134 183 224 275 353 406
#     4  10  22  40  70  94 135 174 230 276 341 413
#     4  11  24  45  65  94 128 186 225 274 347 412
#
# _framework density 21.442542
#
# number of rings (size 3 to 8) (size 9 to 14) (size 15 to 20)
#    0.000    1.000    5.000    1.500    2.333    1.333 
#    3.000    0.000    0.000    0.000    0.000    0.000 
#    0.000    0.000    0.000    0.000    0.000    0.000 
#
# Total GULP energy -297399.483305 kJ/mol
# GULP energy per Si atom -12391.645138 kJ/mol
# Density = 2.139374 g / cm^3
# Si number density = 21.442542 Si / 1000 Ang^3
#
#
#
# Elastic Constant Matrix: (Units=GPa)
#
#
# Indices 1 2 3 4 5 6 
#
# 1 105.3579 32.0864 42.1481 0.0000 4.7709 0.0000
# 2 32.0864 71.5427 32.9215 0.0000 -7.1950 0.0000
# 3 42.1481 32.9215 131.8437 0.0000 11.0773 0.0000
# 4 0.0000 0.0000 0.0000 17.3321 0.0000 5.9494
# 5 4.7709 -7.1950 11.0773 0.0000 45.3726 0.0000
# 6 0.0000 0.0000 0.0000 5.9494 0.0000 34.5942
#
#
#
# Elastic Compliance Matrix: (Units=1/GPa)
#
#
# Indices 1 2 3 4 5 6 
#
# 1 0.011899 -0.004253 -0.002634 0.000000 -0.001283 0.000000
# 2 -0.004253 0.017890 -0.003454 0.000000 0.004127 0.000000
# 3 -0.002634 -0.003454 0.009507 0.000000 -0.002592 0.000000
# 4 0.000000 0.000000 0.000000 0.061316 0.000000 -0.010545
# 5 -0.001283 0.004127 -0.002592 0.000000 0.023462 0.000000
# 6 0.000000 0.000000 0.000000 -0.010545 0.000000 0.030720
#
#
# Mechanical properties :
#
#
# Convention : Reuss Voigt Hill
#
# Bulk Modulus (GPa) = 53.72728 58.11736 55.92232
# Shear Modulus (GPa) = 27.52081 32.89900 30.20991
#
# Velocity S-wave (km/s) = 3.58644 3.92125 3.75757
# Velocity P-wave (km/s) = 6.50083 6.90392 6.70541
#
# Compressibility (1/GPa) = 0.01861252
#
# Stress axis : x y z
#
# Youngs Moduli (GPa) = 84.04365 55.89763 105.18528
#
# Poissons Ratio (x) = 0.23775 0.27705
# Poissons Ratio (y) = 0.35747 0.36333
# Poissons Ratio (z) = 0.22137 0.19308
#
# Static dielectric constant tensor:
#      x y z
#    x 4.248310 0.000000 0.003940 
#    y 0.000000 3.636600 0.000000 
#    z 0.003940 0.000000 4.029600 
# 
# 
# High freq. dielectric constant tensor:
#      x y z
#    x 1.848320 0.000000 0.002890 
#    y 0.000000 1.823570 0.000000 
#    z 0.002890 0.000000 1.853180 
# 
# From -- ./inp_files/196114.got.cif
#   From: 2010.06.25/outbox.cif.g09.slc.cpg/sg15_99_cif.got.tgz:196114.got - 2010.06.28 07:06:18.
