data_PCOD8135084
_publ_section_title
;
Structure prediction by ZEFSAII (Michael W. Deem and Ramdas Pophale) SiO2 
 PCOD8135084
Probable space group: C 2/C
;
_chemical_formula_sum "Si O2"
_cell_formula_units_Z 56
_cell_length_a 9.912539
_cell_length_b 27.630384
_cell_length_c 17.307851
_cell_angle_alpha 90.000000
_cell_angle_beta 35.395767
_cell_angle_gamma 90.000000
_cell_volume 2745.738912
_symmetry_space_group_name_H-M "C 2/C"
_symmetry_group_IT_number 15
_symmetry_cell_setting 'monoclinic'
loop_
_space_group_symop_operation_xyz
x,y,z
-x,y,1/2-z
-x,-y,-z
x,-y,1/2+z
1/2+x,1/2+y,z
1/2-x,1/2+y,1/2-z
1/2-x,1/2-y,-z
1/2+x,1/2-y,1/2+z
loop_
_atom_site_type_symbol
_atom_site_label
_atom_site_fract_x
_atom_site_fract_y
_atom_site_fract_z
Si Si1 0.556274 0.044012 0.416928
Si Si2 0.921449 0.725892 0.978752
Si Si3 0.438870 0.446862 0.621093
Si Si4 0.631029 0.452785 0.014189
Si Si5 0.776239 0.713961 0.803042
Si Si6 0.676874 0.895094 0.233092
Si Si7 0.699716 0.882143 0.968695
O O1 0.744885 0.028498 0.265516
O O2 0.326046 0.064909 0.483048
O O3 0.688522 0.087898 0.395744
O O4 0.500000 0.000000 0.500000
O O5 0.802660 0.674115 0.051139
O O6 0.169659 0.724577 0.814360
O O7 0.750000 0.750000 0.000000
O O8 0.931436 0.754645 0.057484
O O9 0.315429 0.433795 0.597417
O O10 0.631916 0.488576 0.516453
O O11 0.569946 0.398838 0.591436
O O12 0.381437 0.432253 0.154872
O O13 0.716780 0.657211 0.840185
O O14 0.000000 0.726410 0.750000
O O15 0.500000 0.914138 0.250000
O O16 0.538142 0.892905 0.376634
#
# Coordination Sequence:
#
# PCOD8135084 Si02
#       7
#     8   8   8   8   8   8   8
#     4  12  25  41  57  87 126 155 201 248 305 357
#     4   9  18  32  55  89 121 152 196 257 307 352
#     4  11  24  39  60  85 116 160 206 245 296 359
#     4  11  24  39  62  84 118 166 197 245 299 361
#     4   8  16  30  52  84 119 150 193 247 304 352
#     4  10  19  37  61  87 118 157 205 243 294 363
#     4  11  22  38  62  92 122 157 200 258 303 353
#
# _framework density 20.395240000000001
#
# number of rings (size 3 to 8) (size 9 to 14) (size 15 to 20)
#    0.000    1.714    2.857    2.571    0.000    5.143 
#    0.000    0.000    0.000    0.857    0.000    0.000 
#    0.000    0.000    0.000    0.000    0.000    0.000 
#
# Total GULP energy -346926.216719 kJ/mol
# GULP energy per Si atom -12390.222026 kJ/mol
# Density = 2.034882 g / cm^3
# Si number density = 20.395240 Si / 1000 Ang^3
#
#
#
# Elastic Constant Matrix: (Units=GPa)
#
#
# Indices 1 2 3 4 5 6 
#
# 1 100.8904 28.0476 27.4100 0.0000 -5.0575 0.0000
# 2 28.0476 83.2758 30.3098 0.0000 -2.9583 0.0000
# 3 27.4100 30.3098 99.1057 -0.0001 17.1498 0.0000
# 4 0.0000 0.0000 -0.0001 25.2414 0.0000 7.5256
# 5 -5.0575 -2.9583 17.1498 0.0000 20.3355 0.0000
# 6 0.0000 0.0000 0.0000 7.5256 0.0000 16.6920
#
#
#
# Elastic Compliance Matrix: (Units=1/GPa)
#
#
# Indices 1 2 3 4 5 6 
#
# 1 0.011827 -0.002536 -0.003443 0.000000 0.005476 0.000000
# 2 -0.002536 0.014803 -0.004788 0.000000 0.005561 0.000000
# 3 -0.003443 -0.004788 0.014959 0.000000 -0.014168 0.000000
# 4 0.000000 0.000000 0.000000 0.045770 0.000000 -0.020635
# 5 0.005476 0.005561 -0.014168 0.000000 0.063295 0.000000
# 6 0.000000 0.000000 0.000000 -0.020635 0.000000 0.069212
#
#
# Mechanical properties :
#
#
# Convention : Reuss Voigt Hill
#
# Bulk Modulus (GPa) = 49.86482 50.53409 50.19945
# Shear Modulus (GPa) = 20.15458 25.62075 22.88767
#
# Velocity S-wave (km/s) = 3.14698 3.54815 3.35357
# Velocity P-wave (km/s) = 6.14060 6.45113 6.29778
#
# Compressibility (1/GPa) = 0.02005422
#
# Stress axis : x y z
#
# Youngs Moduli (GPa) = 84.55548 67.55601 66.85118
#
# Poissons Ratio (x) = 0.17129 0.23017
# Poissons Ratio (y) = 0.21439 0.32009
# Poissons Ratio (z) = 0.29113 0.32347
#
# Static dielectric constant tensor:
#      x y z
#    x 3.614780 0.000000 0.572300 
#    y 0.000000 3.793840 0.000000 
#    z 0.572300 0.000000 4.212570 
# 
# 
# High freq. dielectric constant tensor:
#      x y z
#    x 1.764720 0.000000 0.033230 
#    y 0.000000 1.790980 0.000000 
#    z 0.033230 0.000000 1.800790 
# 
# From -- ./inp_files/193823.got.cif
#   From: 2010.06.25/outbox.cif.g09.slc.cpg/sg15_97_cif.got.tgz:193823.got - 2010.06.28 07:06:18.
