data_PCOD8135881
_publ_section_title
;
Structure prediction by ZEFSAII (Michael W. Deem and Ramdas Pophale) SiO2 
 PCOD8135881
Probable space group: C 2/C
;
_chemical_formula_sum "Si O2"
_cell_formula_units_Z 40
_cell_length_a 28.168748
_cell_length_b 9.830579
_cell_length_c 19.472162
_cell_angle_alpha 90.000000
_cell_angle_beta 19.887781
_cell_angle_gamma 90.000000
_cell_volume 1834.291424
_symmetry_space_group_name_H-M "C 2/C"
_symmetry_group_IT_number 15
_symmetry_cell_setting 'monoclinic'
loop_
_space_group_symop_operation_xyz
x,y,z
-x,y,1/2-z
-x,-y,-z
x,-y,1/2+z
1/2+x,1/2+y,z
1/2-x,1/2+y,1/2-z
1/2-x,1/2-y,-z
1/2+x,1/2-y,1/2+z
loop_
_atom_site_type_symbol
_atom_site_label
_atom_site_fract_x
_atom_site_fract_y
_atom_site_fract_z
Si Si1 0.030959 0.784100 0.784983
Si Si2 0.147051 0.568750 0.284419
Si Si3 0.207063 0.542115 0.559947
Si Si4 0.631242 0.518628 0.911390
Si Si5 0.353734 0.621038 0.756532
O O1 0.059111 0.621022 0.749823
O O2 0.167720 0.856539 0.629813
O O3 0.000000 0.830860 0.750000
O O4 0.903363 0.833312 0.007196
O O5 0.221520 0.496905 0.119344
O O6 0.243204 0.554708 0.220244
O O7 0.130168 0.723669 0.285638
O O8 0.000000 0.500000 0.500000
O O9 0.225195 0.411893 0.484002
O O10 0.675633 0.534610 0.772155
O O11 0.497553 0.420330 0.098229
#
# Coordination Sequence:
#
# PCOD8135881 Si02
#       5
#     8   8   8   8   8
#     4  10  19  40  68  92 125 167 214 268 326 393
#     4  12  25  41  66  97 132 175 222 264 332 398
#     4  10  22  40  64  98 124 165 220 267 327 389
#     4  10  23  44  66  93 131 171 217 274 332 387
#     4  10  24  43  66  94 131 171 216 278 329 391
#
# _framework density 21.806788000000001
#
# number of rings (size 3 to 8) (size 9 to 14) (size 15 to 20)
#    0.000    1.600    2.000    1.800    2.800    4.800 
#    0.000    0.000    0.000    0.000    0.000    0.000 
#    0.000    0.000    0.000    0.000    0.000    0.000 
#
# Total GULP energy -247962.738587 kJ/mol
# GULP energy per Si atom -12398.136929 kJ/mol
# Density = 2.175715 g / cm^3
# Si number density = 21.806788 Si / 1000 Ang^3
#
#
#
# Elastic Constant Matrix: (Units=GPa)
#
#
# Indices 1 2 3 4 5 6 
#
# 1 131.4616 31.0793 52.1704 0.0000 -4.6658 0.0000
# 2 31.0793 118.8737 44.6993 0.0000 -14.1081 0.0000
# 3 52.1704 44.6993 79.6427 0.0000 -0.4718 0.0000
# 4 0.0000 0.0000 0.0000 16.0658 0.0000 4.5704
# 5 -4.6658 -14.1081 -0.4718 0.0000 33.8520 0.0000
# 6 0.0000 0.0000 0.0000 4.5704 0.0000 31.4445
#
#
#
# Elastic Compliance Matrix: (Units=1/GPa)
#
#
# Indices 1 2 3 4 5 6 
#
# 1 0.010338 -0.000002 -0.006763 0.000000 0.001330 0.000000
# 2 -0.000002 0.011348 -0.006340 0.000000 0.004641 0.000000
# 3 -0.006763 -0.006340 0.020525 0.000000 -0.003288 0.000000
# 4 0.000000 0.000000 0.000000 0.064929 0.000000 -0.009437
# 5 0.001330 0.004641 -0.003288 0.000000 0.031612 0.000000
# 6 0.000000 0.000000 0.000000 -0.009437 0.000000 0.033174
#
#
# Mechanical properties :
#
#
# Convention : Reuss Voigt Hill
#
# Bulk Modulus (GPa) = 62.49717 65.09731 63.79724
# Shear Modulus (GPa) = 24.57369 29.74106 27.15738
#
# Velocity S-wave (km/s) = 3.36055 3.69703 3.53280
# Velocity P-wave (km/s) = 6.61660 6.93835 6.77939
#
# Compressibility (1/GPa) = 0.01600072
#
# Stress axis : x y z
#
# Youngs Moduli (GPa) = 96.72629 88.12476 48.72052
#
# Poissons Ratio (x) = 0.00018 0.32951
# Poissons Ratio (y) = 0.00019 0.30889
# Poissons Ratio (z) = 0.65419 0.55871
#
# Static dielectric constant tensor:
#      x y z
#    x 3.990020 0.000000 0.240630 
#    y 0.000000 3.967470 0.000000 
#    z 0.240630 0.000000 3.914760 
# 
# 
# High freq. dielectric constant tensor:
#      x y z
#    x 1.867520 0.000000 0.013130 
#    y 0.000000 1.850100 0.000000 
#    z 0.013130 0.000000 1.843990 
# 
# From -- ./inp_files/102799.got.cif
#   From: 2010.06.25/outbox.cif.g09.slc.cpg/sg15_52_cif.got.tgz:102799.got - 2010.06.28 07:06:18.
