data_PCOD8135989
_publ_section_title
;
Structure prediction by ZEFSAII (Michael W. Deem and Ramdas Pophale) SiO2 
 PCOD8135989
Probable space group: C 2/C
;
_chemical_formula_sum "Si O2"
_cell_formula_units_Z 24
_cell_length_a 11.685547
_cell_length_b 4.723769
_cell_length_c 13.567391
_cell_angle_alpha 90.000000
_cell_angle_beta 89.180960
_cell_angle_gamma 90.000000
_cell_volume 748.841087
_symmetry_space_group_name_H-M "C 2/C"
_symmetry_group_IT_number 15
_symmetry_cell_setting 'monoclinic'
loop_
_space_group_symop_operation_xyz
x,y,z
-x,y,1/2-z
-x,-y,-z
x,-y,1/2+z
1/2+x,1/2+y,z
1/2-x,1/2+y,1/2-z
1/2-x,1/2-y,-z
1/2+x,1/2-y,1/2+z
loop_
_atom_site_type_symbol
_atom_site_label
_atom_site_fract_x
_atom_site_fract_y
_atom_site_fract_z
Si Si1 0.757518 0.815821 0.816648
Si Si2 0.372628 0.163643 0.539881
Si Si3 0.516427 0.613438 0.639007
O O1 0.736310 0.988517 0.714568
O O2 0.648436 0.876084 0.892950
O O3 0.872931 0.907933 0.868653
O O4 0.250000 0.250000 0.500000
O O5 0.411478 0.410555 0.612911
O O6 0.459886 0.136343 0.443421
O O7 0.500000 0.736975 0.750000
#
# Coordination Sequence:
#
# PCOD8135989 Si02
#       3
#     8   8   8
#     4  11  23  44  71 105 148 191 242 301 359 430
#     4   9  20  40  71 105 146 188 243 301 363 431
#     4  10  19  41  71 104 144 194 244 296 366 433
#
# _framework density 32.049520999999999
#
# number of rings (size 3 to 8) (size 9 to 14) (size 15 to 20)
#    0.000    2.000    3.333    0.000    0.000    0.000 
#    6.000   16.667    0.000    0.000    0.000    0.000 
#    0.000    0.000    0.000    0.000    0.000    0.000 
#
# Total GULP energy -148856.671612 kJ/mol
# GULP energy per Si atom -12404.722634 kJ/mol
# Density = 3.197658 g / cm^3
# Si number density = 32.049521 Si / 1000 Ang^3
#
#
#
# Elastic Constant Matrix: (Units=GPa)
#
#
# Indices 1 2 3 4 5 6 
#
# 1 177.7515 11.3463 70.6022 0.0000 -27.5207 0.0000
# 2 11.3463 72.8826 23.8517 0.0000 20.1396 0.0000
# 3 70.6022 23.8517 225.1546 0.0000 -7.2026 0.0000
# 4 0.0000 0.0000 0.0000 49.8298 0.0000 3.0834
# 5 -27.5207 20.1396 -7.2026 0.0000 80.1541 0.0000
# 6 0.0000 0.0000 0.0000 3.0834 0.0000 31.4696
#
#
#
# Elastic Compliance Matrix: (Units=1/GPa)
#
#
# Indices 1 2 3 4 5 6 
#
# 1 0.006852 -0.001106 -0.001953 0.000000 0.002455 0.000000
# 2 -0.001106 0.015589 -0.001446 0.000000 -0.004427 0.000000
# 3 -0.001953 -0.001446 0.005212 0.000000 0.000161 0.000000
# 4 0.000000 0.000000 0.000000 0.020191 0.000000 -0.001978
# 5 0.002455 -0.004427 0.000161 0.000000 0.014446 0.000000
# 6 0.000000 0.000000 0.000000 -0.001978 0.000000 0.031971
#
#
# Mechanical properties :
#
#
# Convention : Reuss Voigt Hill
#
# Bulk Modulus (GPa) = 53.63852 76.37658 65.00755
# Shear Modulus (GPa) = 45.66803 56.95657 51.31230
#
# Velocity S-wave (km/s) = 3.77891 4.22019 4.00563
# Velocity P-wave (km/s) = 5.98437 6.90139 6.45917
#
# Compressibility (1/GPa) = 0.01864332
#
# Stress axis : x y z
#
# Youngs Moduli (GPa) = 145.93720 64.14606 191.85919
#
# Poissons Ratio (x) = 0.07095 0.37470
# Poissons Ratio (y) = 0.16141 0.27748
# Poissons Ratio (z) = 0.28501 0.09277
#
# Static dielectric constant tensor:
#      x y z
#    x 7.108640 0.000000 -0.201710 
#    y 0.000000 5.471360 0.000000 
#    z -0.201710 0.000000 6.448950 
# 
# 
# High freq. dielectric constant tensor:
#      x y z
#    x 2.403560 0.000000 -0.009040 
#    y 0.000000 2.311350 0.000000 
#    z -0.009040 0.000000 2.342030 
# 
# From -- ./inp_files/149342.got.cif
#   From: 2010.06.25/outbox.cif.g09.slc.cpg/sg15_75_cif.got.tgz:149342.got - 2010.06.28 07:06:18.
