data_PCOD8135276
_publ_section_title
;
Structure prediction by ZEFSAII (Michael W. Deem and Ramdas Pophale) SiO2 
 PCOD8135276
Probable space group: C 2/C
;
_chemical_formula_sum "Si O2"
_cell_formula_units_Z 48
_cell_length_a 23.687128
_cell_length_b 18.280537
_cell_length_c 12.905304
_cell_angle_alpha 90.000000
_cell_angle_beta 26.409283
_cell_angle_gamma 90.000000
_cell_volume 2485.507824
_symmetry_space_group_name_H-M "C 2/C"
_symmetry_group_IT_number 15
_symmetry_cell_setting 'monoclinic'
loop_
_space_group_symop_operation_xyz
x,y,z
-x,y,1/2-z
-x,-y,-z
x,-y,1/2+z
1/2+x,1/2+y,z
1/2-x,1/2+y,1/2-z
1/2-x,1/2-y,-z
1/2+x,1/2-y,1/2+z
loop_
_atom_site_type_symbol
_atom_site_label
_atom_site_fract_x
_atom_site_fract_y
_atom_site_fract_z
Si Si1 0.137083 0.386865 0.068971
Si Si2 0.147331 0.764754 0.483857
Si Si3 0.148270 0.457106 0.478576
Si Si4 0.959055 0.748468 0.200331
Si Si5 0.707776 0.672561 0.665691
Si Si6 0.346949 0.135292 0.721535
O O1 0.211429 0.313513 0.911650
O O2 0.195322 0.460502 0.924079
O O3 0.118243 0.393132 0.222930
O O4 0.000000 0.376075 0.250000
O O5 0.177518 0.777129 0.314335
O O6 0.207529 0.828889 0.454712
O O7 0.000000 0.767054 0.750000
O O8 0.253705 0.409650 0.366366
O O9 0.154713 0.436974 0.346927
O O10 0.000000 0.443140 0.750000
O O11 0.833142 0.700261 0.402623
O O12 0.916831 0.821822 0.205024
O O13 0.000000 0.768966 0.250000
O O14 0.065466 0.700240 0.968586
#
# Coordination Sequence:
#
# PCOD8135276 Si02
#       6
#     8   8   8   8   8   8
#     4  10  22  34  54  87 114 145 186 231 283 335
#     4  10  20  38  58  85 108 147 195 229 276 326
#     4  10  19  38  54  83 118 145 179 229 295 328
#     4  11  18  34  57  86 110 145 191 224 283 321
#     4  10  20  34  59  82 116 145 184 235 272 340
#     4  11  20  38  60  79 117 148 182 237 276 332
#
# _framework density 19.311948999999998
#
# number of rings (size 3 to 8) (size 9 to 14) (size 15 to 20)
#    0.000    1.667    5.000    2.500    0.000    2.667 
#    6.000    0.000    0.000   10.000    0.000    0.000 
#    0.000    0.000    0.000    0.000    0.000    0.000 
#
# Total GULP energy -297315.279225 kJ/mol
# GULP energy per Si atom -12388.136634 kJ/mol
# Density = 1.926799 g / cm^3
# Si number density = 19.311949 Si / 1000 Ang^3
#
#
#
# Elastic Constant Matrix: (Units=GPa)
#
#
# Indices 1 2 3 4 5 6 
#
# 1 143.6268 54.1967 23.4149 0.0000 16.9442 0.0001
# 2 54.1967 113.5465 47.7463 -0.0001 17.8635 0.0000
# 3 23.4149 47.7463 61.8293 0.0000 5.2659 0.0003
# 4 0.0000 -0.0001 0.0000 17.9199 0.0001 -0.5264
# 5 16.9442 17.8635 5.2659 0.0001 23.7304 -0.0002
# 6 0.0001 0.0000 0.0003 -0.5264 -0.0002 50.0940
#
#
#
# Elastic Compliance Matrix: (Units=1/GPa)
#
#
# Indices 1 2 3 4 5 6 
#
# 1 0.008748 -0.003481 -0.000322 0.000000 -0.003555 0.000000
# 2 -0.003481 0.015984 -0.010409 0.000000 -0.007237 0.000000
# 3 -0.000322 -0.010409 0.024102 0.000000 0.002717 0.000000
# 4 0.000000 0.000000 0.000000 0.055821 0.000000 0.000587
# 5 -0.003555 -0.007237 0.002717 0.000000 0.049523 0.000000
# 6 0.000000 0.000000 0.000000 0.000587 0.000000 0.019969
#
#
# Mechanical properties :
#
#
# Convention : Reuss Voigt Hill
#
# Bulk Modulus (GPa) = 48.99419 63.30202 56.14810
# Shear Modulus (GPa) = 23.88091 31.25852 27.56971
#
# Velocity S-wave (km/s) = 3.52033 4.02756 3.78246
# Velocity P-wave (km/s) = 6.47677 7.38093 6.94358
#
# Compressibility (1/GPa) = 0.02041058
#
# Stress axis : x y z
#
# Youngs Moduli (GPa) = 114.31486 62.56389 41.49043
#
# Poissons Ratio (x) = 0.21777 0.01337
# Poissons Ratio (y) = 0.39790 0.43185
# Poissons Ratio (z) = 0.03683 0.65120
#
# Static dielectric constant tensor:
#      x y z
#    x 4.021510 0.000000 -0.130740 
#    y 0.000000 3.947680 0.000000 
#    z -0.130740 0.000000 3.575130 
# 
# 
# High freq. dielectric constant tensor:
#      x y z
#    x 1.764090 0.000000 0.006100 
#    y 0.000000 1.736150 0.000000 
#    z 0.006100 0.000000 1.735940 
# 
# From -- ./inp_files/88564.got.cif
#   From: 2010.06.25/outbox.cif.g09.slc.cpg/sg15_45_cif.got.tgz:88564.got - 2010.06.28 07:06:18.
