data_PCOD8135688
_publ_section_title
;
Structure prediction by ZEFSAII (Michael W. Deem and Ramdas Pophale) SiO2 
 PCOD8135688
Probable space group: C 2/C
;
_chemical_formula_sum "Si O2"
_cell_formula_units_Z 48
_cell_length_a 32.712695
_cell_length_b 9.247823
_cell_length_c 19.027148
_cell_angle_alpha 90.000000
_cell_angle_beta 155.758025
_cell_angle_gamma 90.000000
_cell_volume 2363.410215
_symmetry_space_group_name_H-M "C 2/C"
_symmetry_group_IT_number 15
_symmetry_cell_setting 'monoclinic'
loop_
_space_group_symop_operation_xyz
x,y,z
-x,y,1/2-z
-x,-y,-z
x,-y,1/2+z
1/2+x,1/2+y,z
1/2-x,1/2+y,1/2-z
1/2-x,1/2-y,-z
1/2+x,1/2-y,1/2+z
loop_
_atom_site_type_symbol
_atom_site_label
_atom_site_fract_x
_atom_site_fract_y
_atom_site_fract_z
Si Si1 0.192412 0.036343 0.381667
Si Si2 0.049890 0.263808 0.153499
Si Si3 0.304356 0.463755 0.776187
Si Si4 0.876528 0.563426 0.261939
Si Si5 0.657305 0.207133 0.142220
Si Si6 0.489366 0.334907 0.416081
O O1 0.150503 0.194061 0.344234
O O2 0.221498 0.053304 0.346107
O O3 0.284705 0.974019 0.567798
O O4 0.101108 0.930246 0.252342
O O5 0.069464 0.410419 0.140234
O O6 0.959298 0.289247 0.065867
O O7 0.006166 0.148654 0.027133
O O8 0.300980 0.631061 0.791809
O O9 0.216522 0.387145 0.680129
O O10 0.407977 0.383763 0.960415
O O11 0.836003 0.635456 0.269733
O O12 0.954346 0.670071 0.344396
#
# Coordination Sequence:
#
# PCOD8135688 Si02
#       6
#     8   8   8   8   8   8
#     4  11  20  41  65  90 116 157 203 253 293 346
#     4  10  20  39  61  89 118 160 201 240 295 368
#     4  11  23  38  63  87 121 161 201 250 299 361
#     4  11  23  36  67  93 118 152 207 253 295 354
#     4  11  23  39  61  89 121 159 205 244 302 363
#     4  10  19  39  64  84 114 160 206 240 288 363
#
# _framework density 20.309636000000001
#
# number of rings (size 3 to 8) (size 9 to 14) (size 15 to 20)
#    0.000    1.333    5.000    4.000    7.000    0.000 
#    0.000    1.667    0.000    0.000    0.000    0.000 
#    0.000    0.000    0.000    0.000    0.000    0.000 
#
# Total GULP energy -297401.796456 kJ/mol
# GULP energy per Si atom -12391.741519 kJ/mol
# Density = 2.026341 g / cm^3
# Si number density = 20.309636 Si / 1000 Ang^3
#
#
#
# Elastic Constant Matrix: (Units=GPa)
#
#
# Indices 1 2 3 4 5 6 
#
# 1 93.8391 57.0906 58.5660 0.0000 24.6218 0.0000
# 2 57.0906 123.9240 36.6102 0.0000 17.3406 0.0000
# 3 58.5660 36.6102 75.8217 0.0000 16.4273 0.0000
# 4 0.0000 0.0000 0.0000 37.2643 0.0000 14.2147
# 5 24.6218 17.3406 16.4273 0.0000 25.5163 0.0000
# 6 0.0000 0.0000 0.0000 14.2147 0.0000 32.0912
#
#
#
# Elastic Compliance Matrix: (Units=1/GPa)
#
#
# Indices 1 2 3 4 5 6 
#
# 1 0.027306 -0.006331 -0.015407 0.000000 -0.012127 0.000000
# 2 -0.006331 0.011251 -0.000243 0.000000 -0.001380 0.000000
# 3 -0.015407 -0.000243 0.025508 0.000000 -0.001389 0.000000
# 4 0.000000 0.000000 0.000000 0.032291 0.000000 -0.014303
# 5 -0.012127 -0.001380 -0.001389 0.000000 0.052725 0.000000
# 6 0.000000 0.000000 0.000000 -0.014303 0.000000 0.037497
#
#
# Mechanical properties :
#
#
# Convention : Reuss Voigt Hill
#
# Bulk Modulus (GPa) = 49.74587 66.45759 58.10173
# Shear Modulus (GPa) = 21.07540 28.39556 24.73548
#
# Velocity S-wave (km/s) = 3.22484 3.74322 3.49365
# Velocity P-wave (km/s) = 6.19782 7.17464 6.70405
#
# Compressibility (1/GPa) = 0.02010217
#
# Stress axis : x y z
#
# Youngs Moduli (GPa) = 36.62178 88.87991 39.20293
#
# Poissons Ratio (x) = 0.56270 0.60402
# Poissons Ratio (y) = 0.23185 0.00954
# Poissons Ratio (z) = 0.56425 0.02162
#
# Static dielectric constant tensor:
#      x y z
#    x 3.304870 0.000000 0.344870 
#    y 0.000000 4.178290 0.000000 
#    z 0.344870 0.000000 3.882410 
# 
# 
# High freq. dielectric constant tensor:
#      x y z
#    x 1.742920 0.000000 0.030000 
#    y 0.000000 1.828730 0.000000 
#    z 0.030000 0.000000 1.799990 
# 
# From -- ./inp_files/224705.got.cif
#   From: 2010.06.25/outbox.cif.g09.slc.cpg/sg15_113_cif.got.tgz:224705.got - 2010.06.28 07:06:18.
