data_PCOD8135478
_publ_section_title
;
Structure prediction by ZEFSAII (Michael W. Deem and Ramdas Pophale) SiO2 
 PCOD8135478
Probable space group: C 2/C
;
_chemical_formula_sum "Si O2"
_cell_formula_units_Z 48
_cell_length_a 16.016935
_cell_length_b 11.560477
_cell_length_c 13.915750
_cell_angle_alpha 90.000000
_cell_angle_beta 68.350485
_cell_angle_gamma 90.000000
_cell_volume 2394.923015
_symmetry_space_group_name_H-M "C 2/C"
_symmetry_group_IT_number 15
_symmetry_cell_setting 'monoclinic'
loop_
_space_group_symop_operation_xyz
x,y,z
-x,y,1/2-z
-x,-y,-z
x,-y,1/2+z
1/2+x,1/2+y,z
1/2-x,1/2+y,1/2-z
1/2-x,1/2-y,-z
1/2+x,1/2-y,1/2+z
loop_
_atom_site_type_symbol
_atom_site_label
_atom_site_fract_x
_atom_site_fract_y
_atom_site_fract_z
Si Si1 0.378530 0.945839 0.527787
Si Si2 0.506762 0.881315 0.636187
Si Si3 0.912405 0.069480 0.116727
Si Si4 0.826055 0.950920 0.840752
Si Si5 0.447583 0.254306 0.864168
Si Si6 0.556031 0.384220 0.096071
O O1 0.414886 0.915420 0.619322
O O2 0.273384 0.969391 0.579978
O O3 0.403629 0.843238 0.446415
O O4 0.416410 0.060996 0.462160
O O5 0.500000 0.925665 0.750000
O O6 0.530783 0.746500 0.629726
O O7 0.827715 0.066619 0.224645
O O8 0.979753 0.175026 0.107167
O O9 0.877376 0.093925 0.023703
O O10 0.963678 0.948069 0.107395
O O11 0.865551 0.836079 0.870754
O O12 0.891887 0.059830 0.835785
O O13 0.500000 0.200948 0.750000
#
# Coordination Sequence:
#
# PCOD8135478 Si02
#       6
#     8   8   8   8   8   8
#     4  11  23  39  57  87 122 158 198 242 300 361
#     4  11  24  41  63  81 119 169 200 233 298 377
#     4   9  18  35  61  87 115 153 201 247 298 352
#     4  10  21  35  60  93 118 145 201 261 295 340
#     4   9  17  36  62  85 114 157 201 243 293 356
#     4  10  19  38  64  85 116 157 200 248 300 351
#
# _framework density 20.042397000000001
#
# number of rings (size 3 to 8) (size 9 to 14) (size 15 to 20)
#    0.000    2.000    1.667    3.500    0.000    2.000 
#    0.000    1.667    0.000    0.000    0.000    0.000 
#    0.000    0.000    0.000    0.000    0.000    0.000 
#
# Total GULP energy -297426.672415 kJ/mol
# GULP energy per Si atom -12392.778017 kJ/mol
# Density = 1.999678 g / cm^3
# Si number density = 20.042397 Si / 1000 Ang^3
#
#
#
# Elastic Constant Matrix: (Units=GPa)
#
#
# Indices 1 2 3 4 5 6 
#
# 1 57.5685 6.0534 20.3424 0.0000 -4.7029 0.0000
# 2 6.0534 86.4176 9.9325 0.0000 0.2064 0.0000
# 3 20.3424 9.9325 96.0148 0.0000 13.8141 0.0000
# 4 0.0000 0.0000 0.0000 -4.1239 0.0000 4.6607
# 5 -4.7029 0.2064 13.8141 0.0000 34.1023 0.0000
# 6 0.0000 0.0000 0.0000 4.6607 0.0000 6.4186
#
#
#
# Elastic Compliance Matrix: (Units=1/GPa)
#
#
# Indices 1 2 3 4 5 6 
#
# 1 0.019497 -0.000836 -0.004706 0.000000 0.004600 0.000000
# 2 -0.000836 0.011753 -0.001075 0.000000 0.000249 0.000000
# 3 -0.004706 -0.001075 0.012335 0.000000 -0.005639 0.000000
# 4 0.000000 0.000000 0.000000 -0.133187 0.000000 0.096712
# 5 0.004600 0.000249 -0.005639 0.000000 0.032241 0.000000
# 6 0.000000 0.000000 0.000000 0.096712 0.000000 0.085572
#
#
# Mechanical properties :
#
#
# Convention : Reuss Voigt Hill
#
# Bulk Modulus (GPa) = 32.94690 34.73971 33.84331
# Shear Modulus (GPa) = 96.97192 20.85757 58.91475
#
# Velocity S-wave (km/s) = 6.96336 3.22945 5.42760
# Velocity P-wave (km/s) = 9.00697 5.59254 7.49673
#
# Compressibility (1/GPa) = 0.03035187
#
# Stress axis : x y z
#
# Youngs Moduli (GPa) = 51.28921 85.08338 81.07256
#
# Poissons Ratio (x) = 0.07111 0.38155
# Poissons Ratio (y) = 0.04287 0.08712
# Poissons Ratio (z) = 0.24138 0.09143
#
# Static dielectric constant tensor:
#      x y z
#    x 3.333670 0.000000 0.218730 
#    y 0.000000 3.626250 0.000000 
#    z 0.218730 0.000000 4.142470 
# 
# 
# High freq. dielectric constant tensor:
#      x y z
#    x 1.744120 0.000000 0.010480 
#    y 0.000000 1.784390 0.000000 
#    z 0.010480 0.000000 1.809250 
# 
# From -- ./inp_files/151828.got.cif
#   From: 2010.06.25/outbox.cif.g09.slc.cpg/sg15_76_cif.got.tgz:151828.got - 2010.06.28 07:06:18.
