data_PCOD8135168
_publ_section_title
;
Structure prediction by ZEFSAII (Michael W. Deem and Ramdas Pophale) SiO2 
 PCOD8135168
Probable space group: C 2/C
;
_chemical_formula_sum "Si O2"
_cell_formula_units_Z 52
_cell_length_a 9.403386
_cell_length_b 16.855533
_cell_length_c 21.864209
_cell_angle_alpha 90.000000
_cell_angle_beta 139.049757
_cell_angle_gamma 90.000000
_cell_volume 2271.272262
_symmetry_space_group_name_H-M "C 2/C"
_symmetry_group_IT_number 15
_symmetry_cell_setting 'monoclinic'
loop_
_space_group_symop_operation_xyz
x,y,z
-x,y,1/2-z
-x,-y,-z
x,-y,1/2+z
1/2+x,1/2+y,z
1/2-x,1/2+y,1/2-z
1/2-x,1/2-y,-z
1/2+x,1/2-y,1/2+z
loop_
_atom_site_type_symbol
_atom_site_label
_atom_site_fract_x
_atom_site_fract_y
_atom_site_fract_z
Si Si1 0.810887 0.999949 0.297529
Si Si2 0.368959 0.851247 0.945336
Si Si3 0.000000 0.375478 0.250000
Si Si4 0.500000 0.119563 0.250000
Si Si5 0.241740 0.965525 0.998510
Si Si6 0.500000 0.579169 0.250000
Si Si7 0.671816 0.129865 0.431302
Si Si8 0.869287 0.822038 0.452487
O O1 0.716535 0.070415 0.307891
O O2 0.829862 0.024339 0.232353
O O3 0.052848 0.985337 0.402172
O O4 0.650033 0.925642 0.251851
O O5 0.412313 0.924899 0.006099
O O6 0.131616 0.865373 0.839321
O O7 0.549558 0.842789 0.952119
O O8 0.373295 0.766745 0.982555
O O9 0.840991 0.321457 0.158996
O O10 0.559873 0.165991 0.332730
O O11 0.140682 0.891774 0.001697
O O12 0.348171 0.032072 0.077386
O O13 0.914655 0.161978 0.516691
#
# Coordination Sequence:
#
# PCOD8135168 Si02
#       8
#     8   8   4   4   8   4   8   8
#     4  10  19  37  63  95 122 163 220 268 308 366
#     4  11  25  41  64  95 136 171 203 268 329 376
#     4  11  23  40  64  94 127 167 214 270 306 372
#     4  11  20  36  65  91 122 165 212 266 313 364
#     4  11  22  41  67  94 125 170 218 262 315 380
#     4  10  21  38  63  93 129 170 214 256 323 386
#     4  12  23  43  66  98 124 169 223 264 310 381
#     4  12  24  42  65  96 133 168 215 260 321 382
#
# _framework density 22.894659000000001
#
# number of rings (size 3 to 8) (size 9 to 14) (size 15 to 20)
#    0.000    0.923    4.615    4.154    0.000    0.000 
#    0.000    0.000    0.000    0.923    0.000    0.000 
#    0.000    0.000    0.000    0.000    0.000    0.000 
#
# Total GULP energy -322220.351156 kJ/mol
# GULP energy per Si atom -12393.090429 kJ/mol
# Density = 2.284255 g / cm^3
# Si number density = 22.894659 Si / 1000 Ang^3
#
#
#
# Elastic Constant Matrix: (Units=GPa)
#
#
# Indices 1 2 3 4 5 6 
#
# 1 116.9312 21.7674 22.2766 0.0000 -3.7917 0.0000
# 2 21.7674 104.5120 19.0736 0.0000 2.0975 0.0000
# 3 22.2766 19.0736 84.1993 0.0000 -0.9122 0.0000
# 4 0.0000 0.0000 0.0000 17.4509 0.0000 -7.9255
# 5 -3.7917 2.0975 -0.9122 0.0000 27.1300 0.0000
# 6 0.0000 0.0000 0.0000 -7.9255 0.0000 20.2124
#
#
#
# Elastic Compliance Matrix: (Units=1/GPa)
#
#
# Indices 1 2 3 4 5 6 
#
# 1 0.009287 -0.001581 -0.002084 0.000000 0.001350 0.000000
# 2 -0.001581 0.010270 -0.001920 0.000000 -0.001079 0.000000
# 3 -0.002084 -0.001920 0.012866 0.000000 0.000290 0.000000
# 4 0.000000 0.000000 0.000000 0.069720 0.000000 0.027338
# 5 0.001350 -0.001079 0.000290 0.000000 0.037142 0.000000
# 6 0.000000 0.000000 0.000000 0.027338 0.000000 0.060194
#
#
# Mechanical properties :
#
#
# Convention : Reuss Voigt Hill
#
# Bulk Modulus (GPa) = 47.05302 47.98641 47.51972
# Shear Modulus (GPa) = 22.96393 29.12696 26.04545
#
# Velocity S-wave (km/s) = 3.17049 3.57068 3.37652
# Velocity P-wave (km/s) = 5.83089 6.16481 6.00017
#
# Compressibility (1/GPa) = 0.02125262
#
# Stress axis : x y z
#
# Youngs Moduli (GPa) = 107.67480 97.37480 77.72382
#
# Poissons Ratio (x) = 0.15395 0.16200
# Poissons Ratio (y) = 0.17024 0.14921
# Poissons Ratio (z) = 0.22443 0.18694
#
# Static dielectric constant tensor:
#      x y z
#    x 4.365620 0.000000 -0.010860 
#    y 0.000000 3.864090 0.000000 
#    z -0.010860 0.000000 3.940530 
# 
# 
# High freq. dielectric constant tensor:
#      x y z
#    x 1.917650 0.000000 0.004870 
#    y 0.000000 1.872900 0.000000 
#    z 0.004870 0.000000 1.898880 
# 
# From -- ./inp_files/190363.got.cif
#   From: 2010.06.25/outbox.cif.g09.slc.cpg/sg15_96_cif.got.tgz:190363.got - 2010.06.28 07:06:18.
