data_PCOD8135176
_publ_section_title
;
Structure prediction by ZEFSAII (Michael W. Deem and Ramdas Pophale) SiO2 
 PCOD8135176
Probable space group: C 2/C
;
_chemical_formula_sum "Si O2"
_cell_formula_units_Z 64
_cell_length_a 16.277729
_cell_length_b 16.712824
_cell_length_c 16.302158
_cell_angle_alpha 90.000000
_cell_angle_beta 46.533159
_cell_angle_gamma 90.000000
_cell_volume 3218.765472
_symmetry_space_group_name_H-M "C 2/C"
_symmetry_group_IT_number 15
_symmetry_cell_setting 'monoclinic'
loop_
_space_group_symop_operation_xyz
x,y,z
-x,y,1/2-z
-x,-y,-z
x,-y,1/2+z
1/2+x,1/2+y,z
1/2-x,1/2+y,1/2-z
1/2-x,1/2-y,-z
1/2+x,1/2-y,1/2+z
loop_
_atom_site_type_symbol
_atom_site_label
_atom_site_fract_x
_atom_site_fract_y
_atom_site_fract_z
Si Si1 0.611942 0.589971 0.710156
Si Si2 0.573179 0.292676 0.827522
Si Si3 0.459131 0.038188 0.445809
Si Si4 0.344364 0.304975 0.901268
Si Si5 0.172217 0.649677 0.857901
Si Si6 0.816648 0.493429 0.272098
Si Si7 0.749696 0.476630 0.504750
Si Si8 0.920546 0.968074 0.626645
O O1 0.500000 0.634715 0.750000
O O2 0.695324 0.650343 0.703245
O O3 0.678430 0.551128 0.588041
O O4 0.562703 0.520668 0.803356
O O5 0.455903 0.266661 0.865800
O O6 0.662281 0.298594 0.692524
O O7 0.624404 0.235295 0.862694
O O8 0.542905 0.377373 0.887437
O O9 0.400975 0.122107 0.512041
O O10 0.500000 0.000000 0.500000
O O11 0.569254 0.048161 0.311428
O O12 0.369465 0.975683 0.469375
O O13 0.250000 0.250000 0.000000
O O14 0.324607 0.397494 0.935214
O O15 0.158983 0.591748 0.788163
O O16 0.779108 0.485121 0.390262
O O17 0.713435 0.535526 0.297364
O O18 0.000000 0.000000 0.500000
#
# Coordination Sequence:
#
# PCOD8135176 Si02
#       8
#     8   8   8   8   8   8   8   8
#     4  10  19  37  64  87 117 158 212 254 299 361
#     4  11  23  40  57  88 129 158 199 250 311 374
#     4   9  20  35  57  83 116 162 206 242 296 361
#     4  11  24  35  57  90 126 165 189 241 316 379
#     4   9  21  37  57  88 123 161 197 251 310 366
#     4  10  20  35  59  87 116 157 204 248 306 364
#     4  11  20  36  59  89 118 157 205 253 302 366
#     4  11  22  37  61  88 119 157 208 258 303 360
#
# _framework density 19.883399000000001
#
# number of rings (size 3 to 8) (size 9 to 14) (size 15 to 20)
#    0.000    1.750    1.250    4.125    3.500    1.000 
#    0.000    0.000    0.000    8.250    0.000    0.000 
#    0.000    0.000    0.000    0.000    0.000    0.000 
#
# Total GULP energy -396535.309745 kJ/mol
# GULP energy per Si atom -12391.728430 kJ/mol
# Density = 1.983814 g / cm^3
# Si number density = 19.883399 Si / 1000 Ang^3
#
#
#
# Elastic Constant Matrix: (Units=GPa)
#
#
# Indices 1 2 3 4 5 6 
#
# 1 121.0315 32.9589 30.0504 0.0000 -13.4936 0.0000
# 2 32.9589 72.4247 26.9807 0.0000 0.3057 0.0000
# 3 30.0504 26.9807 125.1150 0.0000 -0.0761 0.0000
# 4 0.0000 0.0000 0.0000 24.8707 0.0000 1.6641
# 5 -13.4936 0.3057 -0.0761 0.0000 34.0308 0.0000
# 6 0.0000 0.0000 0.0000 1.6641 0.0000 27.6787
#
#
#
# Elastic Compliance Matrix: (Units=1/GPa)
#
#
# Indices 1 2 3 4 5 6 
#
# 1 0.010220 -0.004082 -0.001572 0.000000 0.004085 0.000000
# 2 -0.004082 0.016645 -0.002610 0.000000 -0.001774 0.000000
# 3 -0.001572 -0.002610 0.008933 0.000000 -0.000580 0.000000
# 4 0.000000 0.000000 0.000000 0.040370 0.000000 -0.002427
# 5 0.004085 -0.001774 -0.000580 0.000000 0.031020 0.000000
# 6 0.000000 0.000000 0.000000 -0.002427 0.000000 0.036275
#
#
# Mechanical properties :
#
#
# Convention : Reuss Voigt Hill
#
# Bulk Modulus (GPa) = 51.89681 55.39458 53.64569
# Shear Modulus (GPa) = 30.04556 32.55478 31.30017
#
# Velocity S-wave (km/s) = 3.89149 4.05073 3.97191
# Velocity P-wave (km/s) = 6.80800 7.05677 6.93350
#
# Compressibility (1/GPa) = 0.01926901
#
# Stress axis : x y z
#
# Youngs Moduli (GPa) = 97.84967 60.07779 111.94906
#
# Poissons Ratio (x) = 0.24527 0.17596
# Poissons Ratio (y) = 0.39947 0.29219
# Poissons Ratio (z) = 0.15379 0.15680
#
# Static dielectric constant tensor:
#      x y z
#    x 3.742720 0.000000 0.030440 
#    y 0.000000 3.030990 0.000000 
#    z 0.030440 0.000000 4.014710 
# 
# 
# High freq. dielectric constant tensor:
#      x y z
#    x 1.791620 0.000000 -0.008450 
#    y 0.000000 1.725980 0.000000 
#    z -0.008450 0.000000 1.794520 
# 
# From -- ./inp_files/211375.got.cif
#   From: 2010.06.25/outbox.cif.g09.slc.cpg/sg15_106_cif.got.tgz:211375.got - 2010.06.28 07:06:18.
