data_PCOD8135918
_publ_section_title
;
Structure prediction by ZEFSAII (Michael W. Deem and Ramdas Pophale) SiO2 
 PCOD8135918
Probable space group: C 2/C
;
_chemical_formula_sum "Si O2"
_cell_formula_units_Z 48
_cell_length_a 8.655489
_cell_length_b 19.605786
_cell_length_c 17.530229
_cell_angle_alpha 90.000000
_cell_angle_beta 51.122670
_cell_angle_gamma 90.000000
_cell_volume 2315.886973
_symmetry_space_group_name_H-M "C 2/C"
_symmetry_group_IT_number 15
_symmetry_cell_setting 'monoclinic'
loop_
_space_group_symop_operation_xyz
x,y,z
-x,y,1/2-z
-x,-y,-z
x,-y,1/2+z
1/2+x,1/2+y,z
1/2-x,1/2+y,1/2-z
1/2-x,1/2-y,-z
1/2+x,1/2-y,1/2+z
loop_
_atom_site_type_symbol
_atom_site_label
_atom_site_fract_x
_atom_site_fract_y
_atom_site_fract_z
Si Si1 0.723791 0.309943 0.067828
Si Si2 0.277159 0.416801 0.042216
Si Si3 0.677609 0.248445 0.299511
Si Si4 0.221005 0.924742 0.954729
Si Si5 0.863839 0.303889 0.515538
Si Si6 0.500000 0.143209 0.250000
Si Si7 0.500000 0.156119 0.750000
O O1 0.502541 0.299867 0.167483
O O2 0.750000 0.250000 0.000000
O O3 0.755110 0.384390 0.022211
O O4 0.898624 0.301823 0.076421
O O5 0.248084 0.496362 0.036602
O O6 0.142587 0.390395 0.154131
O O7 0.505844 0.403366 0.990616
O O8 0.221753 0.378053 0.981026
O O9 0.666827 0.212944 0.386121
O O10 0.669125 0.188573 0.239544
O O11 0.874237 0.294272 0.233463
O O12 0.387894 0.904863 0.843039
O O13 0.750000 0.250000 0.500000
#
# Coordination Sequence:
#
# PCOD8135918 Si02
#       7
#     8   8   8   8   8   4   4
#     4  10  19  41  62  92 127 167 218 266 329 380
#     4  11  25  40  69  93 134 178 218 269 327 395
#     4  11  25  36  69  98 129 172 217 279 327 386
#     4  11  23  45  64  93 133 181 216 264 334 393
#     4  11  21  40  66  97 127 170 221 277 322 389
#     4  12  25  42  66  98 131 174 220 270 333 392
#     4  12  23  42  62 106 129 166 224 272 333 386
#
# _framework density 20.726400000000002
#
# number of rings (size 3 to 8) (size 9 to 14) (size 15 to 20)
#    0.000    1.000    6.667    1.500    4.667    0.667 
#    0.000    0.000    0.000    0.000    0.000    0.000 
#    0.000    0.000    0.000    0.000    0.000    0.000 
#
# Total GULP energy -297487.974288 kJ/mol
# GULP energy per Si atom -12395.332262 kJ/mol
# Density = 2.067923 g / cm^3
# Si number density = 20.726400 Si / 1000 Ang^3
#
#
#
# Elastic Constant Matrix: (Units=GPa)
#
#
# Indices 1 2 3 4 5 6 
#
# 1 141.3253 65.5160 19.2086 0.0000 -17.8006 0.0000
# 2 65.5160 121.6279 27.3677 0.0000 -9.9965 0.0000
# 3 19.2086 27.3677 47.2351 0.0000 -12.3267 0.0000
# 4 0.0000 0.0000 0.0000 27.5130 0.0000 -2.5385
# 5 -17.8006 -9.9965 -12.3267 0.0000 44.6990 0.0000
# 6 0.0000 0.0000 0.0000 -2.5385 0.0000 37.1750
#
#
#
# Elastic Compliance Matrix: (Units=1/GPa)
#
#
# Indices 1 2 3 4 5 6 
#
# 1 0.009760 -0.004947 -0.000407 0.000000 0.002668 0.000000
# 2 -0.004947 0.011979 -0.005112 0.000000 -0.000701 0.000000
# 3 -0.000407 -0.005112 0.025815 0.000000 0.005814 0.000000
# 4 0.000000 0.000000 0.000000 0.036577 0.000000 0.002498
# 5 0.002668 -0.000701 0.005814 0.000000 0.024881 0.000000
# 6 0.000000 0.000000 0.000000 0.002498 0.000000 0.027070
#
#
# Mechanical properties :
#
#
# Convention : Reuss Voigt Hill
#
# Bulk Modulus (GPa) = 37.55996 59.37478 48.46737
# Shear Modulus (GPa) = 30.14080 35.08380 32.61230
#
# Velocity S-wave (km/s) = 3.81756 4.11872 3.97100
# Velocity P-wave (km/s) = 6.13130 7.16433 6.66785
#
# Compressibility (1/GPa) = 0.02662410
#
# Stress axis : x y z
#
# Youngs Moduli (GPa) = 102.45382 83.47922 38.73714
#
# Poissons Ratio (x) = 0.41295 0.01575
# Poissons Ratio (y) = 0.50681 0.19802
# Poissons Ratio (z) = 0.04167 0.42673
#
# Static dielectric constant tensor:
#      x y z
#    x 4.595410 0.000000 -0.088040 
#    y 0.000000 4.296820 0.000000 
#    z -0.088040 0.000000 3.831070 
# 
# 
# High freq. dielectric constant tensor:
#      x y z
#    x 1.828340 0.000000 -0.013180 
#    y 0.000000 1.806360 0.000000 
#    z -0.013180 0.000000 1.807180 
# 
# From -- ./inp_files/191996.got.cif
#   From: 2010.06.25/outbox.cif.g09.slc.cpg/sg15_96_cif.got.tgz:191996.got - 2010.06.28 07:06:18.
