data_PCOD8135442
_publ_section_title
;
Structure prediction by ZEFSAII (Michael W. Deem and Ramdas Pophale) SiO2 
 PCOD8135442
Probable space group: C 2/C
;
_chemical_formula_sum "Si O2"
_cell_formula_units_Z 56
_cell_length_a 11.482256
_cell_length_b 28.020380
_cell_length_c 9.265584
_cell_angle_alpha 90.000000
_cell_angle_beta 67.934214
_cell_angle_gamma 90.000000
_cell_volume 2762.727837
_symmetry_space_group_name_H-M "C 2/C"
_symmetry_group_IT_number 15
_symmetry_cell_setting 'monoclinic'
loop_
_space_group_symop_operation_xyz
x,y,z
-x,y,1/2-z
-x,-y,-z
x,-y,1/2+z
1/2+x,1/2+y,z
1/2-x,1/2+y,1/2-z
1/2-x,1/2-y,-z
1/2+x,1/2-y,1/2+z
loop_
_atom_site_type_symbol
_atom_site_label
_atom_site_fract_x
_atom_site_fract_y
_atom_site_fract_z
Si Si1 0.609387 0.067908 0.971861
Si Si2 0.226529 0.603774 0.641877
Si Si3 0.808645 0.679250 0.067758
Si Si4 0.176295 0.537584 0.428759
Si Si5 0.563971 0.731148 0.071310
Si Si6 0.253490 0.606783 0.164665
Si Si7 0.501595 0.355459 0.418855
O O1 0.648197 0.103623 0.825751
O O2 0.688542 0.019212 0.913944
O O3 0.463420 0.056074 0.042023
O O4 0.643390 0.094434 0.103887
O O5 0.153708 0.638660 0.564833
O O6 0.218395 0.551598 0.571231
O O7 0.370882 0.617748 0.598126
O O8 0.689304 0.704364 0.055307
O O9 0.783258 0.655818 0.235594
O O10 0.915364 0.720057 0.029550
O O11 0.268598 0.563292 0.271281
O O12 0.500000 0.745759 0.250000
O O13 0.484606 0.695176 0.008288
O O14 0.385338 0.611584 0.020209
O O15 0.500000 0.345606 0.250000
#
# Coordination Sequence:
#
# PCOD8135442 Si02
#       7
#     8   8   8   8   8   8   8
#     4  11  21  40  62  90 127 160 204 254 305 358
#     4  10  21  38  62  87 121 160 207 248 298 370
#     4   9  21  36  58  93 112 154 210 242 297 365
#     4  10  23  38  61  91 123 167 205 249 304 360
#     4  10  19  38  63  83 120 159 198 250 298 368
#     4  11  21  39  63  91 127 162 204 253 307 368
#     4  11  22  41  62  89 122 166 201 253 319 362
#
# _framework density 20.269822000000001
#
# number of rings (size 3 to 8) (size 9 to 14) (size 15 to 20)
#    0.000    1.714    2.857    1.714    0.000    4.571 
#    0.000    9.286    0.000    0.000    0.000    0.000 
#    0.000    0.000    0.000    0.000    0.000    0.000 
#
# Total GULP energy -347155.219086 kJ/mol
# GULP energy per Si atom -12398.400682 kJ/mol
# Density = 2.022369 g / cm^3
# Si number density = 20.269822 Si / 1000 Ang^3
#
#
#
# Elastic Constant Matrix: (Units=GPa)
#
#
# Indices 1 2 3 4 5 6 
#
# 1 59.4367 29.4242 20.3279 0.0000 9.2646 0.0000
# 2 29.4242 93.0269 39.7017 0.0000 -1.6813 0.0000
# 3 20.3279 39.7017 119.4799 0.0000 8.5181 0.0000
# 4 0.0000 0.0000 0.0000 26.5000 0.0000 -3.4599
# 5 9.2646 -1.6813 8.5181 0.0000 34.1843 0.0000
# 6 0.0000 0.0000 0.0000 -3.4599 0.0000 27.4399
#
#
#
# Elastic Compliance Matrix: (Units=1/GPa)
#
#
# Indices 1 2 3 4 5 6 
#
# 1 0.021250 -0.006362 -0.001088 0.000000 -0.005801 0.000000
# 2 -0.006362 0.014526 -0.003989 0.000000 0.003433 0.000000
# 3 -0.001088 -0.003989 0.010052 0.000000 -0.002406 0.000000
# 4 0.000000 0.000000 0.000000 0.038367 0.000000 0.004838
# 5 -0.005801 0.003433 -0.002406 0.000000 0.031594 0.000000
# 6 0.000000 0.000000 0.000000 0.004838 0.000000 0.037053
#
#
# Mechanical properties :
#
#
# Convention : Reuss Voigt Hill
#
# Bulk Modulus (GPa) = 43.57234 50.09457 46.83345
# Shear Modulus (GPa) = 27.26702 29.79083 28.52893
#
# Velocity S-wave (km/s) = 3.67168 3.83784 3.75568
# Velocity P-wave (km/s) = 6.28632 6.66380 6.47781
#
# Compressibility (1/GPa) = 0.02295034
#
# Stress axis : x y z
#
# Youngs Moduli (GPa) = 47.05785 68.83992 99.48447
#
# Poissons Ratio (x) = 0.43796 0.10823
# Poissons Ratio (y) = 0.29938 0.39687
# Poissons Ratio (z) = 0.05119 0.27462
#
# Static dielectric constant tensor:
#      x y z
#    x 3.744500 0.000000 -0.069530 
#    y 0.000000 4.023170 0.000000 
#    z -0.069530 0.000000 3.823890 
# 
# 
# High freq. dielectric constant tensor:
#      x y z
#    x 1.772680 0.000000 0.003260 
#    y 0.000000 1.794030 0.000000 
#    z 0.003260 0.000000 1.803810 
# 
# From -- ./inp_files/34214.got.cif
#   From: 2010.06.25/outbox.cif.g09.slc.cpg/sg15_18_cif.got.tgz:34214.got - 2010.06.28 07:06:18.
