data_PCOD8135211
_publ_section_title
;
Structure prediction by ZEFSAII (Michael W. Deem and Ramdas Pophale) SiO2 
 PCOD8135211
Probable space group: C 2/C
;
_chemical_formula_sum "Si O2"
_cell_formula_units_Z 44
_cell_length_a 27.856324
_cell_length_b 14.955728
_cell_length_c 14.933500
_cell_angle_alpha 90.000000
_cell_angle_beta 20.935313
_cell_angle_gamma 90.000000
_cell_volume 2223.016301
_symmetry_space_group_name_H-M "C 2/C"
_symmetry_group_IT_number 15
_symmetry_cell_setting 'monoclinic'
loop_
_space_group_symop_operation_xyz
x,y,z
-x,y,1/2-z
-x,-y,-z
x,-y,1/2+z
1/2+x,1/2+y,z
1/2-x,1/2+y,1/2-z
1/2-x,1/2-y,-z
1/2+x,1/2-y,1/2+z
loop_
_atom_site_type_symbol
_atom_site_label
_atom_site_fract_x
_atom_site_fract_y
_atom_site_fract_z
Si Si1 0.137715 0.551855 0.749392
Si Si2 0.580511 0.187592 0.690811
Si Si3 0.343613 0.784889 0.170624
Si Si4 0.580713 0.738371 0.883202
Si Si5 0.799676 0.119212 0.959619
Si Si6 0.000000 0.800895 0.250000
O O1 0.131191 0.615315 0.673900
O O2 0.163892 0.609402 0.793958
O O3 0.263537 0.485174 0.518547
O O4 0.000000 0.500000 0.000000
O O5 0.500000 0.139639 0.750000
O O6 0.702533 0.240254 0.435791
O O7 0.478285 0.261185 0.913442
O O8 0.453225 0.739734 0.041646
O O9 0.389520 0.764575 0.988683
O O10 0.668061 0.827773 0.720058
O O11 0.664026 0.651233 0.705627
O O12 0.922054 0.135961 0.815349
#
# Coordination Sequence:
#
# PCOD8135211 Si02
#       6
#     8   8   8   8   8   4
#     4  11  21  40  63  92 122 155 205 257 307 350
#     4  11  22  40  60  89 124 165 207 253 302 368
#     4  10  21  39  62  84 121 165 202 247 305 373
#     4   9  18  36  62  83 115 165 196 235 316 363
#     4  10  19  37  65  89 124 157 203 254 295 370
#     4  10  22  40  62  90 120 170 208 242 310 368
#
# _framework density 19.792928
#
# number of rings (size 3 to 8) (size 9 to 14) (size 15 to 20)
#    0.000    1.818    3.636    3.273    0.000    0.000 
#    3.273    8.182    0.000    0.000    0.000    0.000 
#    0.000    0.000    0.000    0.000    0.000    0.000 
#
# Total GULP energy -272616.409198 kJ/mol
# GULP energy per Si atom -12391.654964 kJ/mol
# Density = 1.974788 g / cm^3
# Si number density = 19.792928 Si / 1000 Ang^3
#
#
#
# Elastic Constant Matrix: (Units=GPa)
#
#
# Indices 1 2 3 4 5 6 
#
# 1 85.0675 40.8692 35.7796 0.0001 3.5592 0.0000
# 2 40.8692 129.6244 59.7054 0.0000 7.2280 0.0000
# 3 35.7796 59.7054 147.2971 0.0001 17.6559 0.0000
# 4 0.0001 0.0000 0.0001 33.5215 -0.0001 -4.6112
# 5 3.5592 7.2280 17.6559 -0.0001 31.8689 0.0000
# 6 0.0000 0.0000 0.0000 -4.6112 0.0000 23.0504
#
#
#
# Elastic Compliance Matrix: (Units=1/GPa)
#
#
# Indices 1 2 3 4 5 6 
#
# 1 0.014334 -0.003585 -0.002072 0.000000 0.000360 0.000000
# 2 -0.003585 0.010382 -0.003324 0.000000 -0.000113 0.000000
# 3 -0.002072 -0.003324 0.009128 0.000000 -0.004072 0.000000
# 4 0.000000 0.000000 0.000000 0.030676 0.000000 0.006137
# 5 0.000360 -0.000113 -0.004072 0.000000 0.033620 0.000000
# 6 0.000000 0.000000 0.000000 0.006137 0.000000 0.044611
#
#
# Mechanical properties :
#
#
# Convention : Reuss Voigt Hill
#
# Bulk Modulus (GPa) = 62.96380 70.52192 66.74286
# Shear Modulus (GPa) = 30.11934 32.73048 31.42491
#
# Velocity S-wave (km/s) = 3.90516 4.07092 3.98890
# Velocity P-wave (km/s) = 7.22593 7.60287 7.41679
#
# Compressibility (1/GPa) = 0.01588214
#
# Stress axis : x y z
#
# Youngs Moduli (GPa) = 69.76337 96.31780 109.55736
#
# Poissons Ratio (x) = 0.34532 0.22698
# Poissons Ratio (y) = 0.25012 0.36416
# Poissons Ratio (z) = 0.14454 0.32016
#
# Static dielectric constant tensor:
#      x y z
#    x 3.176620 0.000000 0.470670 
#    y 0.000000 3.691260 0.000000 
#    z 0.470670 0.000000 3.996420 
# 
# 
# High freq. dielectric constant tensor:
#      x y z
#    x 1.768020 0.000000 -0.003630 
#    y 0.000000 1.739550 0.000000 
#    z -0.003630 0.000000 1.794390 
# 
# From -- ./inp_files/182247.got.cif
#   From: 2010.06.25/outbox.cif.g09.slc.cpg/sg15_92_cif.got.tgz:182247.got - 2010.06.28 07:06:18.
