data_PCOD8135528
_publ_section_title
;
Structure prediction by ZEFSAII (Michael W. Deem and Ramdas Pophale) SiO2 
 PCOD8135528
Probable space group: C 2/C
;
_chemical_formula_sum "Si O2"
_cell_formula_units_Z 48
_cell_length_a 9.311834
_cell_length_b 11.509113
_cell_length_c 21.804485
_cell_angle_alpha 90.000000
_cell_angle_beta 100.690668
_cell_angle_gamma 90.000000
_cell_volume 2296.247456
_symmetry_space_group_name_H-M "C 2/C"
_symmetry_group_IT_number 15
_symmetry_cell_setting 'monoclinic'
loop_
_space_group_symop_operation_xyz
x,y,z
-x,y,1/2-z
-x,-y,-z
x,-y,1/2+z
1/2+x,1/2+y,z
1/2-x,1/2+y,1/2-z
1/2-x,1/2-y,-z
1/2+x,1/2-y,1/2+z
loop_
_atom_site_type_symbol
_atom_site_label
_atom_site_fract_x
_atom_site_fract_y
_atom_site_fract_z
Si Si1 0.182249 0.019644 0.388499
Si Si2 0.813729 0.251278 0.937327
Si Si3 0.663312 0.873601 0.195173
Si Si4 0.862295 0.869128 0.873144
Si Si5 0.086937 0.114539 0.988547
Si Si6 0.334986 0.919523 0.168209
O O1 0.301518 0.120405 0.408190
O O2 0.020497 0.073930 0.373311
O O3 0.215141 0.952882 0.328130
O O4 0.200181 0.925050 0.444944
O O5 0.721434 0.161609 0.890215
O O6 0.982345 0.213434 0.951996
O O7 0.750000 0.250000 0.000000
O O8 0.654915 0.745400 0.167650
O O9 0.507873 0.936559 0.174905
O O10 0.706134 0.861952 0.269810
O O11 0.735983 0.954431 0.841396
O O12 0.837574 0.838205 0.943433
O O13 0.000000 0.000000 0.000000
#
# Coordination Sequence:
#
# PCOD8135528 Si02
#       6
#     8   8   8   8   8   8
#     4  11  23  40  69  97 126 168 220 257 332 389
#     4  12  19  39  71  94 126 170 210 269 324 379
#     4  11  27  42  61  99 126 176 219 258 327 387
#     4  11  22  45  69  89 135 168 211 271 320 384
#     4  10  19  38  66 100 124 164 215 265 325 381
#     4  11  24  43  63  91 134 169 217 271 315 380
#
# _framework density 20.903670999999999
#
# number of rings (size 3 to 8) (size 9 to 14) (size 15 to 20)
#    0.000    1.000    8.333    0.000    2.333    2.667 
#    0.000    5.833    0.000    0.000    0.000    0.000 
#    0.000    0.000    0.000    0.000    0.000    0.000 
#
# Total GULP energy -297630.848740 kJ/mol
# GULP energy per Si atom -12401.285364 kJ/mol
# Density = 2.085609 g / cm^3
# Si number density = 20.903671 Si / 1000 Ang^3
#
#
#
# Elastic Constant Matrix: (Units=GPa)
#
#
# Indices 1 2 3 4 5 6 
#
# 1 51.2654 57.0862 19.1580 0.0000 3.8602 0.0000
# 2 57.0862 111.8179 41.7575 0.0000 1.9075 0.0000
# 3 19.1580 41.7575 100.5095 0.0000 5.9361 0.0000
# 4 0.0000 0.0000 0.0000 23.2710 0.0000 5.8915
# 5 3.8602 1.9075 5.9361 0.0000 32.1181 0.0000
# 6 0.0000 0.0000 0.0000 5.8915 0.0000 37.7872
#
#
#
# Elastic Compliance Matrix: (Units=1/GPa)
#
#
# Indices 1 2 3 4 5 6 
#
# 1 0.045915 -0.023903 0.001437 0.000000 -0.004364 0.000000
# 2 -0.023903 0.023030 -0.005157 0.000000 0.002458 0.000000
# 3 0.001437 -0.005157 0.011941 0.000000 -0.002073 0.000000
# 4 0.000000 0.000000 0.000000 0.044738 0.000000 -0.006975
# 5 -0.004364 0.002458 -0.002073 0.000000 0.031897 0.000000
# 6 0.000000 0.000000 0.000000 -0.006975 0.000000 0.027552
#
#
# Mechanical properties :
#
#
# Convention : Reuss Voigt Hill
#
# Bulk Modulus (GPa) = 39.00340 55.51067 47.25703
# Shear Modulus (GPa) = 20.09118 28.34132 24.21625
#
# Velocity S-wave (km/s) = 3.10358 3.68612 3.40732
# Velocity P-wave (km/s) = 5.61623 6.68803 6.17543
#
# Compressibility (1/GPa) = 0.02563879
#
# Stress axis : x y z
#
# Youngs Moduli (GPa) = 21.77931 43.42119 83.74856
#
# Poissons Ratio (x) = 1.03790 -0.12031
# Poissons Ratio (y) = 0.52059 0.43190
# Poissons Ratio (z) = -0.03129 0.22393
#
# Static dielectric constant tensor:
#      x y z
#    x 3.759230 0.000000 -0.092380 
#    y 0.000000 3.965210 0.000000 
#    z -0.092380 0.000000 4.410840 
# 
# 
# High freq. dielectric constant tensor:
#      x y z
#    x 1.800570 0.000000 -0.005740 
#    y 0.000000 1.823230 0.000000 
#    z -0.005740 0.000000 1.833660 
# 
# From -- ./inp_files/263265.got.cif
#   From: 2010.06.25/outbox.cif.g09.slc.cpg/sg15_132_cif.got.tgz:263265.got - 2010.06.28 07:06:18.
