data_PCOD8135249
_publ_section_title
;
Structure prediction by ZEFSAII (Michael W. Deem and Ramdas Pophale) SiO2 
 PCOD8135249
Probable space group: C 2/C
;
_chemical_formula_sum "Si O2"
_cell_formula_units_Z 44
_cell_length_a 11.620142
_cell_length_b 9.200273
_cell_length_c 24.234937
_cell_angle_alpha 90.000000
_cell_angle_beta 131.651659
_cell_angle_gamma 90.000000
_cell_volume 1935.933477
_symmetry_space_group_name_H-M "C 2/C"
_symmetry_group_IT_number 15
_symmetry_cell_setting 'monoclinic'
loop_
_space_group_symop_operation_xyz
x,y,z
-x,y,1/2-z
-x,-y,-z
x,-y,1/2+z
1/2+x,1/2+y,z
1/2-x,1/2+y,1/2-z
1/2-x,1/2-y,-z
1/2+x,1/2-y,1/2+z
loop_
_atom_site_type_symbol
_atom_site_label
_atom_site_fract_x
_atom_site_fract_y
_atom_site_fract_z
Si Si1 0.280324 0.625207 0.617385
Si Si2 0.768588 0.638293 0.335338
Si Si3 0.441720 0.091707 0.143153
Si Si4 0.840074 0.014176 0.518118
Si Si5 0.000000 0.352762 0.250000
Si Si6 0.032348 0.767040 0.009081
O O1 0.304994 0.521920 0.678480
O O2 0.374699 0.773652 0.656953
O O3 0.344518 0.539067 0.584592
O O4 0.098653 0.661073 0.555700
O O5 0.641201 0.752985 0.275507
O O6 0.890716 0.633331 0.325119
O O7 0.839641 0.675368 0.417926
O O8 0.330304 0.058106 0.056311
O O9 0.444745 0.950473 0.181915
O O10 0.885773 0.849456 0.516305
O O11 0.966321 0.119069 0.531827
#
# Coordination Sequence:
#
# PCOD8135249 Si02
#       6
#     8   8   8   8   4   8
#     4  11  23  39  72 104 126 160 212 281 336 377
#     4  12  25  44  67  97 131 170 224 264 316 395
#     4  11  24  46  68  91 133 175 216 266 321 387
#     4  10  19  38  71 103 131 163 204 271 343 385
#     4  12  30  46  62  88 132 188 222 256 312 388
#     4  10  19  37  67 103 133 160 204 268 336 385
#
# _framework density 22.728055000000001
#
# number of rings (size 3 to 8) (size 9 to 14) (size 15 to 20)
#    0.000    1.091    5.455    1.636    0.000    5.818 
#    0.000    0.000    0.000    0.000    0.000    0.000 
#    0.000    0.000    0.000    0.000    0.000    0.000 
#
# Total GULP energy -272906.627130 kJ/mol
# GULP energy per Si atom -12404.846688 kJ/mol
# Density = 2.267632 g / cm^3
# Si number density = 22.728055 Si / 1000 Ang^3
#
#
#
# Elastic Constant Matrix: (Units=GPa)
#
#
# Indices 1 2 3 4 5 6 
#
# 1 89.9033 44.7269 16.0600 0.0000 29.4861 0.0000
# 2 44.7269 108.0379 21.7506 0.0000 6.2375 0.0000
# 3 16.0600 21.7506 31.8542 0.0000 9.2953 0.0000
# 4 0.0000 0.0000 0.0000 32.6824 0.0000 12.6481
# 5 29.4861 6.2375 9.2953 0.0000 19.9057 0.0000
# 6 0.0000 0.0000 0.0000 12.6481 0.0000 34.3886
#
#
#
# Elastic Compliance Matrix: (Units=1/GPa)
#
#
# Indices 1 2 3 4 5 6 
#
# 1 0.029684 -0.010805 0.004926 0.000000 -0.042885 0.000000
# 2 -0.010805 0.014664 -0.009140 0.000000 0.015678 0.000000
# 3 0.004926 -0.009140 0.042194 0.000000 -0.024136 0.000000
# 4 0.000000 0.000000 0.000000 0.035675 0.000000 -0.013121
# 5 -0.042885 0.015678 -0.024136 0.000000 0.120119 0.000000
# 6 0.000000 0.000000 0.000000 -0.013121 0.000000 0.033905
#
#
# Mechanical properties :
#
#
# Convention : Reuss Voigt Hill
#
# Bulk Modulus (GPa) = 17.69808 43.87448 30.78628
# Shear Modulus (GPa) = 15.37921 27.21253 21.29587
#
# Velocity S-wave (km/s) = 2.60409 3.46397 3.06434
# Velocity P-wave (km/s) = 4.10433 5.94515 5.10834
#
# Compressibility (1/GPa) = 0.05650330
#
# Stress axis : x y z
#
# Youngs Moduli (GPa) = 33.68871 68.19398 23.70017
#
# Poissons Ratio (x) = 0.73681 -0.11675
# Poissons Ratio (y) = 0.36399 0.21663
# Poissons Ratio (z) = -0.16595 0.62332
#
# Static dielectric constant tensor:
#      x y z
#    x 4.059400 0.000000 0.205410 
#    y 0.000000 4.392100 0.000000 
#    z 0.205410 0.000000 3.671740 
# 
# 
# High freq. dielectric constant tensor:
#      x y z
#    x 1.902670 0.000000 0.015440 
#    y 0.000000 1.916410 0.000000 
#    z 0.015440 0.000000 1.862540 
# 
# From -- ./inp_files/236051.got.cif
#   From: 2010.06.25/outbox.cif.g09.slc.cpg/sg15_119_cif.got.tgz:236051.got - 2010.06.28 07:06:18.
