data_PCOD8135742
_publ_section_title
;
Structure prediction by ZEFSAII (Michael W. Deem and Ramdas Pophale) SiO2 
 PCOD8135742
Probable space group: C 2/C
;
_chemical_formula_sum "Si O2"
_cell_formula_units_Z 44
_cell_length_a 8.917805
_cell_length_b 16.218376
_cell_length_c 14.916756
_cell_angle_alpha 90.000000
_cell_angle_beta 106.180729
_cell_angle_gamma 90.000000
_cell_volume 2071.983089
_symmetry_space_group_name_H-M "C 2/C"
_symmetry_group_IT_number 15
_symmetry_cell_setting 'monoclinic'
loop_
_space_group_symop_operation_xyz
x,y,z
-x,y,1/2-z
-x,-y,-z
x,-y,1/2+z
1/2+x,1/2+y,z
1/2-x,1/2+y,1/2-z
1/2-x,1/2-y,-z
1/2+x,1/2-y,1/2+z
loop_
_atom_site_type_symbol
_atom_site_label
_atom_site_fract_x
_atom_site_fract_y
_atom_site_fract_z
Si Si1 0.630572 0.956947 0.904397
Si Si2 0.836367 0.026282 0.802405
Si Si3 0.757039 0.721020 0.102647
Si Si4 0.000000 0.831539 0.250000
Si Si5 0.988417 0.138610 0.146167
Si Si6 0.277508 0.032041 0.401867
O O1 0.663670 0.866951 0.872988
O O2 0.449402 0.956929 0.893914
O O3 0.677141 0.024834 0.835534
O O4 0.726476 0.975368 0.010910
O O5 0.924515 0.114282 0.819176
O O6 0.935704 0.951285 0.860639
O O7 0.816467 0.012984 0.692628
O O8 0.575691 0.710532 0.104672
O O9 0.858058 0.780021 0.183168
O O10 0.750000 0.750000 0.000000
O O11 0.000000 0.167509 0.250000
O O12 0.805232 0.121447 0.091033
#
# Coordination Sequence:
#
# PCOD8135742 Si02
#       6
#     8   8   8   4   8   8
#     4  10  23  37  68  93 123 174 216 278 320 402
#     4  10  20  39  65  89 123 169 221 266 316 387
#     4  11  26  40  62  96 138 173 214 267 354 391
#     4  12  24  40  64  98 138 168 222 282 328 400
#     4   9  20  39  68  87 123 173 219 265 319 399
#     4  10  19  39  66  94 121 159 239 265 316 383
#
# _framework density 21.235695
#
# number of rings (size 3 to 8) (size 9 to 14) (size 15 to 20)
#    0.000    1.818    2.727    1.636   10.182    1.455 
#    0.000    6.364    0.000    0.000    0.000    0.000 
#    0.000    0.000    0.000    0.000    0.000    0.000 
#
# Total GULP energy -272578.330442 kJ/mol
# GULP energy per Si atom -12389.924111 kJ/mol
# Density = 2.118736 g / cm^3
# Si number density = 21.235695 Si / 1000 Ang^3
#
#
#
# Elastic Constant Matrix: (Units=GPa)
#
#
# Indices 1 2 3 4 5 6 
#
# 1 145.5798 63.5335 48.2129 0.0000 -21.3917 0.0000
# 2 63.5335 92.2711 31.6398 0.0000 -11.3537 0.0000
# 3 48.2129 31.6398 56.5886 0.0000 -9.9092 0.0000
# 4 0.0000 0.0000 0.0000 23.5902 0.0000 -4.3325
# 5 -21.3917 -11.3537 -9.9092 0.0000 32.6615 0.0000
# 6 0.0000 0.0000 0.0000 -4.3325 0.0000 42.1309
#
#
#
# Elastic Compliance Matrix: (Units=1/GPa)
#
#
# Indices 1 2 3 4 5 6 
#
# 1 0.012017 -0.005583 -0.006419 0.000000 0.003982 0.000000
# 2 -0.005583 0.016202 -0.004178 0.000000 0.000708 0.000000
# 3 -0.006419 -0.004178 0.025860 0.000000 0.002189 0.000000
# 4 0.000000 0.000000 0.000000 0.043206 0.000000 0.004443
# 5 0.003982 0.000708 0.002189 0.000000 0.034135 0.000000
# 6 0.000000 0.000000 0.000000 0.004443 0.000000 0.024192
#
#
# Mechanical properties :
#
#
# Convention : Reuss Voigt Hill
#
# Bulk Modulus (GPa) = 46.04559 64.57910 55.31234
# Shear Modulus (GPa) = 25.61323 29.74676 27.68000
#
# Velocity S-wave (km/s) = 3.47672 3.74677 3.61427
# Velocity P-wave (km/s) = 6.15199 7.01387 6.59702
#
# Compressibility (1/GPa) = 0.02171761
#
# Stress axis : x y z
#
# Youngs Moduli (GPa) = 83.21821 61.72266 38.67004
#
# Poissons Ratio (x) = 0.34459 0.24823
# Poissons Ratio (y) = 0.46460 0.16156
# Poissons Ratio (z) = 0.53419 0.25788
#
# Static dielectric constant tensor:
#      x y z
#    x 4.512370 0.000000 -0.171510 
#    y 0.000000 3.733220 0.000000 
#    z -0.171510 0.000000 3.870150 
# 
# 
# High freq. dielectric constant tensor:
#      x y z
#    x 1.857360 0.000000 -0.010770 
#    y 0.000000 1.800600 0.000000 
#    z -0.010770 0.000000 1.825450 
# 
# From -- ./inp_files/134545.got.cif
#   From: 2010.06.25/outbox.cif.g09.slc.cpg/sg15_68_cif.got.tgz:134545.got - 2010.06.28 07:06:18.
