data_PCOD8135966
_publ_section_title
;
Structure prediction by ZEFSAII (Michael W. Deem and Ramdas Pophale) SiO2 
 PCOD8135966
Probable space group: C 2/C
;
_chemical_formula_sum "Si O2"
_cell_formula_units_Z 32
_cell_length_a 13.772612
_cell_length_b 11.038943
_cell_length_c 13.995589
_cell_angle_alpha 90.000000
_cell_angle_beta 47.243683
_cell_angle_gamma 90.000000
_cell_volume 1562.347218
_symmetry_space_group_name_H-M "C 2/C"
_symmetry_group_IT_number 15
_symmetry_cell_setting 'monoclinic'
loop_
_space_group_symop_operation_xyz
x,y,z
-x,y,1/2-z
-x,-y,-z
x,-y,1/2+z
1/2+x,1/2+y,z
1/2-x,1/2+y,1/2-z
1/2-x,1/2-y,-z
1/2+x,1/2-y,1/2+z
loop_
_atom_site_type_symbol
_atom_site_label
_atom_site_fract_x
_atom_site_fract_y
_atom_site_fract_z
Si Si1 0.635263 0.571235 0.901651
Si Si2 0.687199 0.930603 0.382257
Si Si3 0.137090 0.508764 0.118324
Si Si4 0.930126 0.332330 0.487292
O O1 0.671811 0.585786 0.764837
O O2 0.753088 0.496786 0.873162
O O3 0.625899 0.699788 0.959300
O O4 0.500000 0.500000 0.000000
O O5 0.587763 0.833774 0.400490
O O6 0.695176 0.908923 0.491787
O O7 0.635057 0.068393 0.397091
O O8 0.000000 0.566188 0.250000
O O9 0.101919 0.374320 0.100066
#
# Coordination Sequence:
#
# PCOD8135966 Si02
#       4
#     8   8   8   8
#     4  12  24  36  63  97 124 150 207 264 291 351
#     4   9  21  40  63  85 123 163 199 244 308 363
#     4  10  19  41  67  88 115 167 205 244 305 363
#     4   9  20  40  64  87 118 162 203 247 305 354
#
# _framework density 20.482002000000001
#
# number of rings (size 3 to 8) (size 9 to 14) (size 15 to 20)
#    1.500    0.500    2.500    0.750    3.500    1.000 
#    0.000    1.250    5.500    0.000    0.000    0.000 
#    0.000    0.000    0.000    0.000    0.000    0.000 
#
# Total GULP energy -198237.582815 kJ/mol
# GULP energy per Si atom -12389.848926 kJ/mol
# Density = 2.043538 g / cm^3
# Si number density = 20.482002 Si / 1000 Ang^3
#
#
#
# Elastic Constant Matrix: (Units=GPa)
#
#
# Indices 1 2 3 4 5 6 
#
# 1 93.4120 8.4889 43.0303 0.0000 -4.3540 0.0000
# 2 8.4889 17.1952 3.0395 0.0000 -3.8439 0.0000
# 3 43.0303 3.0395 161.1578 0.0000 2.0220 0.0000
# 4 0.0000 0.0000 0.0000 18.3394 0.0000 4.7327
# 5 -4.3540 -3.8439 2.0220 0.0000 34.9283 0.0000
# 6 0.0000 0.0000 0.0000 4.7327 0.0000 16.2138
#
#
#
# Elastic Compliance Matrix: (Units=1/GPa)
#
#
# Indices 1 2 3 4 5 6 
#
# 1 0.012789 -0.005461 -0.003327 0.000000 0.001186 0.000000
# 2 -0.005461 0.062190 0.000208 0.000000 0.006151 0.000000
# 3 -0.003327 0.000208 0.007100 0.000000 -0.000803 0.000000
# 4 0.000000 0.000000 0.000000 0.058969 0.000000 -0.017213
# 5 0.001186 0.006151 -0.000803 0.000000 0.029501 0.000000
# 6 0.000000 0.000000 0.000000 -0.017213 0.000000 0.066700
#
#
# Mechanical properties :
#
#
# Convention : Reuss Voigt Hill
#
# Bulk Modulus (GPa) = 15.40360 42.32025 28.86192
# Shear Modulus (GPa) = 18.11277 28.37673 23.24475
#
# Velocity S-wave (km/s) = 2.97699 3.72620 3.37246
# Velocity P-wave (km/s) = 4.39926 6.26257 5.41171
#
# Compressibility (1/GPa) = 0.06491990
#
# Stress axis : x y z
#
# Youngs Moduli (GPa) = 78.19087 16.07977 140.85490
#
# Poissons Ratio (x) = 0.08781 0.46858
# Poissons Ratio (y) = 0.42697 -0.02929
# Poissons Ratio (z) = 0.26012 -0.00334
#
# Static dielectric constant tensor:
#      x y z
#    x 3.426770 0.000000 0.056350 
#    y 0.000000 3.220400 0.000000 
#    z 0.056350 0.000000 3.762480 
# 
# 
# High freq. dielectric constant tensor:
#      x y z
#    x 1.786360 0.000000 0.004210 
#    y 0.000000 1.754660 0.000000 
#    z 0.004210 0.000000 1.810440 
# 
# From -- ./inp_files/105107.got.cif
#   From: 2010.06.25/outbox.cif.g09.slc.cpg/sg15_53_cif.got.tgz:105107.got - 2010.06.28 07:06:18.
