data_PCOD8135746
_publ_section_title
;
Structure prediction by ZEFSAII (Michael W. Deem and Ramdas Pophale) SiO2 
 PCOD8135746
Probable space group: C 2/C
;
_chemical_formula_sum "Si O2"
_cell_formula_units_Z 32
_cell_length_a 8.676796
_cell_length_b 14.491559
_cell_length_c 9.467880
_cell_angle_alpha 90.000000
_cell_angle_beta 90.201741
_cell_angle_gamma 90.000000
_cell_volume 1190.486703
_symmetry_space_group_name_H-M "C 2/C"
_symmetry_group_IT_number 15
_symmetry_cell_setting 'monoclinic'
loop_
_space_group_symop_operation_xyz
x,y,z
-x,y,1/2-z
-x,-y,-z
x,-y,1/2+z
1/2+x,1/2+y,z
1/2-x,1/2+y,1/2-z
1/2-x,1/2-y,-z
1/2+x,1/2-y,1/2+z
loop_
_atom_site_type_symbol
_atom_site_label
_atom_site_fract_x
_atom_site_fract_y
_atom_site_fract_z
Si Si1 0.213867 0.541119 0.593796
Si Si2 0.664435 0.594047 0.191222
Si Si3 0.906142 0.366087 0.070936
Si Si4 0.849433 0.757037 0.319476
O O1 0.334487 0.583678 0.479855
O O2 0.294490 0.504930 0.737173
O O3 0.139180 0.452516 0.521836
O O4 0.076511 0.613360 0.634539
O O5 0.500000 0.628438 0.250000
O O6 0.792976 0.669235 0.229027
O O7 0.776444 0.339622 0.187661
O O8 0.903005 0.273234 0.976117
O O9 0.000000 0.801190 0.250000
#
# Coordination Sequence:
#
# PCOD8135746 Si02
#       4
#     8   8   8   8
#     4  10  21  41  68  99 136 180 234 279 340 405
#     4  11  23  41  66 101 138 181 231 283 338 407
#     4   9  20  36  68 100 129 182 225 278 341 410
#     4  10  19  39  66  97 142 175 219 281 350 402
#
# _framework density 26.879761999999999
#
# number of rings (size 3 to 8) (size 9 to 14) (size 15 to 20)
#    0.000    2.000    2.500    0.750    0.000    1.000 
#    4.500    3.750    0.000    0.000    0.000    0.000 
#    0.000    0.000    0.000    0.000    0.000    0.000 
#
# Total GULP energy -198336.069380 kJ/mol
# GULP energy per Si atom -12396.004336 kJ/mol
# Density = 2.681858 g / cm^3
# Si number density = 26.879762 Si / 1000 Ang^3
#
#
#
# Elastic Constant Matrix: (Units=GPa)
#
#
# Indices 1 2 3 4 5 6 
#
# 1 126.9776 36.8053 61.6505 0.0000 -41.7678 0.0000
# 2 36.8053 81.8858 26.6456 0.0000 -10.7017 0.0000
# 3 61.6505 26.6456 110.0753 0.0000 -46.3145 0.0000
# 4 0.0000 0.0000 0.0000 30.8897 0.0000 -11.9542
# 5 -41.7678 -10.7017 -46.3145 0.0000 59.0062 0.0000
# 6 0.0000 0.0000 0.0000 -11.9542 0.0000 55.4412
#
#
#
# Elastic Compliance Matrix: (Units=1/GPa)
#
#
# Indices 1 2 3 4 5 6 
#
# 1 0.012556 -0.003676 -0.004007 0.000000 0.005076 0.000000
# 2 -0.003676 0.014334 -0.002108 0.000000 -0.001657 0.000000
# 3 -0.004007 -0.002108 0.015655 0.000000 0.009069 0.000000
# 4 0.000000 0.000000 0.000000 0.035320 0.000000 0.007616
# 5 0.005076 -0.001657 0.009069 0.000000 0.027359 0.000000
# 6 0.000000 0.000000 0.000000 0.007616 0.000000 0.019679
#
#
# Mechanical properties :
#
#
# Convention : Reuss Voigt Hill
#
# Bulk Modulus (GPa) = 43.54838 63.23792 53.39315
# Shear Modulus (GPa) = 32.86456 41.98992 37.42724
#
# Velocity S-wave (km/s) = 3.50044 3.95668 3.73553
# Velocity P-wave (km/s) = 5.70734 6.66716 6.20583
#
# Compressibility (1/GPa) = 0.02296297
#
# Stress axis : x y z
#
# Youngs Moduli (GPa) = 79.64244 69.76450 63.87795
#
# Poissons Ratio (x) = 0.25649 0.25593
# Poissons Ratio (y) = 0.29280 0.13465
# Poissons Ratio (z) = 0.31909 0.14706
#
# Static dielectric constant tensor:
#      x y z
#    x 4.829120 0.000000 -0.018100 
#    y 0.000000 4.753770 0.000000 
#    z -0.018100 0.000000 5.132530 
# 
# 
# High freq. dielectric constant tensor:
#      x y z
#    x 2.070610 0.000000 -0.005910 
#    y 0.000000 2.080820 0.000000 
#    z -0.005910 0.000000 2.095080 
# 
# From -- ./inp_files/75318.got.cif
#   From: 2010.06.25/outbox.cif.g09.slc.cpg/sg15_38_cif.got.tgz:75318.got - 2010.06.28 07:06:18.
