data_PCOD8135475
_publ_section_title
;
Structure prediction by ZEFSAII (Michael W. Deem and Ramdas Pophale) SiO2 
 PCOD8135475
Probable space group: C 2/C
;
_chemical_formula_sum "Si O2"
_cell_formula_units_Z 56
_cell_length_a 18.427550
_cell_length_b 14.893899
_cell_length_c 20.766598
_cell_angle_alpha 90.000000
_cell_angle_beta 150.137690
_cell_angle_gamma 90.000000
_cell_volume 2837.910139
_symmetry_space_group_name_H-M "C 2/C"
_symmetry_group_IT_number 15
_symmetry_cell_setting 'monoclinic'
loop_
_space_group_symop_operation_xyz
x,y,z
-x,y,1/2-z
-x,-y,-z
x,-y,1/2+z
1/2+x,1/2+y,z
1/2-x,1/2+y,1/2-z
1/2-x,1/2-y,-z
1/2+x,1/2-y,1/2+z
loop_
_atom_site_type_symbol
_atom_site_label
_atom_site_fract_x
_atom_site_fract_y
_atom_site_fract_z
Si Si1 0.500000 0.973849 0.250000
Si Si2 0.971405 0.894803 0.976230
Si Si3 0.162606 0.446618 0.761875
Si Si4 0.810297 0.395387 0.993844
Si Si5 0.090356 0.449303 0.016505
Si Si6 0.986030 0.759358 0.876598
Si Si7 0.758839 0.372119 0.255121
Si Si8 0.500000 0.330946 0.750000
O O1 0.595432 0.910460 0.369458
O O2 0.387539 0.035763 0.203543
O O3 0.802816 0.880706 0.867859
O O4 0.005218 0.851853 0.931866
O O5 0.085730 0.852318 0.115143
O O6 0.000000 0.000000 0.000000
O O7 0.194698 0.541662 0.751665
O O8 0.026403 0.399087 0.619849
O O9 0.816287 0.479629 0.951484
O O10 0.640581 0.387267 0.880933
O O11 0.872661 0.305334 0.007354
O O12 0.202143 0.383062 0.138980
O O13 0.000000 0.500000 0.000000
O O14 0.842843 0.713718 0.794389
O O15 0.953872 0.774672 0.776768
#
# Coordination Sequence:
#
# PCOD8135475 Si02
#       8
#     4   8   8   8   8   8   8   4
#     4  10  19  38  64  82 125 164 196 233 310 370
#     4  10  24  37  58  85 122 159 202 257 290 347
#     4   9  19  35  59  83 115 159 197 245 294 357
#     4  11  23  38  58  86 123 165 198 241 296 367
#     4   9  17  35  60  79 109 155 207 241 285 348
#     4  12  23  39  57  88 127 162 199 238 305 361
#     4  10  20  36  61  84 117 157 204 248 290 351
#     4  12  29  32  56  88 129 164 192 239 294 370
#
# _framework density 19.732831000000001
#
# number of rings (size 3 to 8) (size 9 to 14) (size 15 to 20)
#    0.000    1.714    4.286    1.714   10.000    1.143 
#    0.000    0.000    0.000    0.000    0.000   10.000 
#    0.000    0.143    0.000    0.000    0.000    0.000 
#
# Total GULP energy -346985.606414 kJ/mol
# GULP energy per Si atom -12392.343086 kJ/mol
# Density = 1.968792 g / cm^3
# Si number density = 19.732831 Si / 1000 Ang^3
#
#
#
# Elastic Constant Matrix: (Units=GPa)
#
#
# Indices 1 2 3 4 5 6 
#
# 1 105.8621 49.1047 64.1277 -0.0003 -6.3290 0.0001
# 2 49.1047 56.9429 53.0943 -0.0086 -7.4908 -0.0010
# 3 64.1277 53.0943 148.5443 -0.0067 1.2929 -0.0014
# 4 -0.0003 -0.0086 -0.0067 13.0672 -0.0005 -7.6885
# 5 -6.3290 -7.4908 1.2929 -0.0005 31.4927 0.0010
# 6 0.0001 -0.0010 -0.0014 -7.6885 0.0010 26.2420
#
#
#
# Elastic Compliance Matrix: (Units=1/GPa)
#
#
# Indices 1 2 3 4 5 6 
#
# 1 0.016652 -0.011320 -0.003149 -0.000011 0.000783 -0.000004
# 2 -0.011320 0.035507 -0.007861 0.000024 0.006493 0.000008
# 3 -0.003149 -0.007861 0.010927 0.000001 -0.002951 0.000001
# 4 -0.000011 0.000024 0.000001 0.092468 0.000004 0.027092
# 5 0.000783 0.006493 -0.002951 0.000004 0.033576 0.000000
# 6 -0.000004 0.000008 0.000001 0.027092 0.000000 0.046044
#
#
# Mechanical properties :
#
#
# Convention : Reuss Voigt Hill
#
# Bulk Modulus (GPa) = 54.27343 71.55585 62.91464
# Shear Modulus (GPa) = 17.48389 23.82854 20.65621
#
# Velocity S-wave (km/s) = 2.97986 3.47876 3.23893
# Velocity P-wave (km/s) = 6.27720 7.24409 6.77791
#
# Compressibility (1/GPa) = 0.01842522
#
# Stress axis : x y z
#
# Youngs Moduli (GPa) = 60.05390 28.16333 91.51637
#
# Poissons Ratio (x) = 0.31881 0.28822
# Poissons Ratio (y) = 0.67982 0.71940
# Poissons Ratio (z) = 0.18913 0.22139
#
# Static dielectric constant tensor:
#      x y z
#    x 3.616390 -0.000010 -0.006370 
#    y -0.000010 3.289370 0.000000 
#    z -0.006370 0.000000 4.504590 
# 
# 
# High freq. dielectric constant tensor:
#      x y z
#    x 1.752150 0.000000 -0.001910 
#    y 0.000000 1.724880 0.000000 
#    z -0.001910 0.000000 1.793970 
# 
# From -- ./inp_files/249567.got.cif
#   From: 2010.06.25/outbox.cif.g09.slc.cpg/sg15_125_cif.got.tgz:249567.got - 2010.06.28 07:06:18.
