data_PCOD8135100
_publ_section_title
;
Structure prediction by ZEFSAII (Michael W. Deem and Ramdas Pophale) SiO2 
 PCOD8135100
Probable space group: C 2/C
;
_chemical_formula_sum "Si O2"
_cell_formula_units_Z 64
_cell_length_a 19.805984
_cell_length_b 11.959652
_cell_length_c 27.198684
_cell_angle_alpha 90.000000
_cell_angle_beta 150.802998
_cell_angle_gamma 90.000000
_cell_volume 3142.802594
_symmetry_space_group_name_H-M "C 2/C"
_symmetry_group_IT_number 15
_symmetry_cell_setting 'monoclinic'
loop_
_space_group_symop_operation_xyz
x,y,z
-x,y,1/2-z
-x,-y,-z
x,-y,1/2+z
1/2+x,1/2+y,z
1/2-x,1/2+y,1/2-z
1/2-x,1/2-y,-z
1/2+x,1/2-y,1/2+z
loop_
_atom_site_type_symbol
_atom_site_label
_atom_site_fract_x
_atom_site_fract_y
_atom_site_fract_z
Si Si1 0.892117 0.797992 0.145955
Si Si2 0.721456 0.592828 0.522627
Si Si3 0.866050 0.049629 0.140060
Si Si4 0.915919 0.279038 0.559322
Si Si5 0.605924 0.817972 0.490605
Si Si6 0.992851 0.478732 0.146521
Si Si7 0.009638 0.184714 0.520379
Si Si8 0.707220 0.496191 0.618129
O O1 0.958901 0.794561 0.133897
O O2 0.000000 0.731986 0.250000
O O3 0.871444 0.919553 0.155690
O O4 0.742044 0.740460 0.052115
O O5 0.632823 0.561728 0.418291
O O6 0.683686 0.720467 0.510114
O O7 0.683228 0.515927 0.544802
O O8 0.884191 0.573663 0.616177
O O9 0.729880 0.095949 0.080494
O O10 0.000000 0.108761 0.250000
O O11 0.928729 0.409960 0.581087
O O12 0.009803 0.248488 0.572500
O O13 0.489813 0.882987 0.384393
O O14 0.532811 0.777645 0.493493
O O15 0.134260 0.506582 0.264260
O O16 0.134176 0.096026 0.601700
O O17 0.865696 0.121739 0.416062
#
# Coordination Sequence:
#
# PCOD8135100 Si02
#       8
#     8   8   8   8   8   8   8   8
#     4  10  22  39  62  93 120 152 197 253 308 349
#     4  10  20  38  63  90 118 153 199 254 296 347
#     4  10  19  37  61  92 120 151 197 249 303 351
#     4  11  23  40  63  91 124 154 203 248 302 360
#     4  10  22  40  60  87 126 159 199 241 300 361
#     4  11  22  38  62  95 119 154 205 252 300 354
#     4  10  24  42  60  83 126 165 198 245 296 362
#     4  10  23  42  62  87 121 161 206 246 297 355
#
# _framework density 20.363989
#
# number of rings (size 3 to 8) (size 9 to 14) (size 15 to 20)
#    0.000    1.750    2.500    2.625    3.500    5.500 
#    0.000    3.750    0.000    0.000    0.000    0.000 
#    0.000    0.000    0.000    0.000    0.000    0.000 
#
# Total GULP energy -396659.941362 kJ/mol
# GULP energy per Si atom -12395.623168 kJ/mol
# Density = 2.031764 g / cm^3
# Si number density = 20.363989 Si / 1000 Ang^3
#
#
#
# Elastic Constant Matrix: (Units=GPa)
#
#
# Indices 1 2 3 4 5 6 
#
# 1 142.5263 43.0445 53.9230 0.0010 -14.4823 0.0002
# 2 43.0445 80.6278 23.6855 0.0020 -2.0891 0.0003
# 3 53.9230 23.6855 154.1466 0.0079 -7.0314 0.0007
# 4 0.0010 0.0020 0.0079 17.0018 0.0017 1.7687
# 5 -14.4823 -2.0891 -7.0314 0.0017 20.6211 0.0001
# 6 0.0002 0.0003 0.0007 1.7687 0.0001 33.6057
#
#
#
# Elastic Compliance Matrix: (Units=1/GPa)
#
#
# Indices 1 2 3 4 5 6 
#
# 1 0.009864 -0.004380 -0.002521 0.000001 0.005624 0.000000
# 2 -0.004380 0.014942 -0.000848 -0.000001 -0.001851 0.000000
# 3 -0.002521 -0.000848 0.007532 -0.000003 0.000712 0.000000
# 4 0.000001 -0.000001 -0.000003 0.059141 -0.000006 -0.003113
# 5 0.005624 -0.001851 0.000712 -0.000006 0.052499 0.000000
# 6 0.000000 0.000000 0.000000 -0.003113 0.000000 0.029921
#
#
# Mechanical properties :
#
#
# Convention : Reuss Voigt Hill
#
# Bulk Modulus (GPa) = 59.38242 68.73407 64.05825
# Shear Modulus (GPa) = 25.63948 31.35555 28.49752
#
# Velocity S-wave (km/s) = 3.55217 3.92823 3.74492
# Velocity P-wave (km/s) = 6.78585 7.37568 7.08690
#
# Compressibility (1/GPa) = 0.01684000
#
# Stress axis : x y z
#
# Youngs Moduli (GPa) = 101.37482 66.92467 132.76542
#
# Poissons Ratio (x) = 0.29312 0.33472
# Poissons Ratio (y) = 0.44401 0.11262
# Poissons Ratio (z) = 0.25558 0.05677
#
# Static dielectric constant tensor:
#      x y z
#    x 3.645470 0.000000 -0.061970 
#    y 0.000000 3.739840 0.000000 
#    z -0.061970 0.000000 3.872070 
# 
# 
# High freq. dielectric constant tensor:
#      x y z
#    x 1.787980 0.000000 -0.005850 
#    y 0.000000 1.803080 0.000000 
#    z -0.005850 0.000000 1.791510 
# 
# From -- ./inp_files/300868.got.cif
#   From: 2010.06.25/outbox.cif.g09.slc.cpg/sg15_151_cif.got.tgz:300868.got - 2010.06.28 07:06:18.
