data_PCOD8135743
_publ_section_title
;
Structure prediction by ZEFSAII (Michael W. Deem and Ramdas Pophale) SiO2 
 PCOD8135743
Probable space group: C 2/C
;
_chemical_formula_sum "Si O2"
_cell_formula_units_Z 36
_cell_length_a 7.433671
_cell_length_b 16.177441
_cell_length_c 19.410521
_cell_angle_alpha 90.000000
_cell_angle_beta 131.903259
_cell_angle_gamma 90.000000
_cell_volume 1737.332498
_symmetry_space_group_name_H-M "C 2/C"
_symmetry_group_IT_number 15
_symmetry_cell_setting 'monoclinic'
loop_
_space_group_symop_operation_xyz
x,y,z
-x,y,1/2-z
-x,-y,-z
x,-y,1/2+z
1/2+x,1/2+y,z
1/2-x,1/2+y,1/2-z
1/2-x,1/2-y,-z
1/2+x,1/2-y,1/2+z
loop_
_atom_site_type_symbol
_atom_site_label
_atom_site_fract_x
_atom_site_fract_y
_atom_site_fract_z
Si Si1 0.500000 0.084816 0.750000
Si Si2 0.780803 0.379532 0.329821
Si Si3 0.338973 0.166003 0.989629
Si Si4 0.285249 0.565512 0.146385
Si Si5 0.990388 0.982252 0.418161
O O1 0.571882 0.142032 0.702547
O O2 0.282895 0.023117 0.677063
O O3 0.500000 0.356761 0.250000
O O4 0.896054 0.326243 0.422124
O O5 0.813870 0.477854 0.351301
O O6 0.250000 0.250000 0.000000
O O7 0.569330 0.131898 0.090590
O O8 0.113738 0.104797 0.935052
O O9 0.500000 0.599202 0.250000
O O10 0.379215 0.554333 0.092009
O O11 0.000000 0.000000 0.500000
#
# Coordination Sequence:
#
# PCOD8135743 Si02
#       5
#     4   8   8   8   8
#     4  12  18  36  70 100 126 164 224 266 330 362
#     4  10  19  39  66  96 126 170 222 269 313 384
#     4  11  23  42  61  94 139 172 205 270 334 383
#     4  10  19  40  64  92 131 166 220 273 310 379
#     4  11  22  37  68  99 123 167 224 270 312 386
#
# _framework density 20.721422
#
# number of rings (size 3 to 8) (size 9 to 14) (size 15 to 20)
#    0.000    1.333    6.667    5.333    0.000    0.000 
#    2.000    6.667    0.000    0.000    0.000    0.000 
#    0.000    0.000    0.000    0.000    0.000    0.000 
#
# Total GULP energy -223178.090145 kJ/mol
# GULP energy per Si atom -12398.782786 kJ/mol
# Density = 2.067426 g / cm^3
# Si number density = 20.721422 Si / 1000 Ang^3
#
#
#
# Elastic Constant Matrix: (Units=GPa)
#
#
# Indices 1 2 3 4 5 6 
#
# 1 139.9627 36.8699 57.3595 0.0002 -21.2109 0.0001
# 2 36.8699 71.9334 56.7774 0.0002 6.8426 0.0001
# 3 57.3595 56.7774 151.5803 0.0004 -5.3905 0.0001
# 4 0.0002 0.0002 0.0004 16.3720 0.0001 -2.2042
# 5 -21.2109 6.8426 -5.3905 0.0001 55.3992 0.0000
# 6 0.0001 0.0001 0.0001 -2.2042 0.0000 22.8897
#
#
#
# Elastic Compliance Matrix: (Units=1/GPa)
#
#
# Indices 1 2 3 4 5 6 
#
# 1 0.009553 -0.003582 -0.002135 0.000000 0.003892 0.000000
# 2 -0.003582 0.021650 -0.006922 0.000000 -0.004719 0.000000
# 3 -0.002135 -0.006922 0.010034 0.000000 0.001014 0.000000
# 4 0.000000 0.000000 0.000000 0.061882 0.000000 0.005959
# 5 0.003892 -0.004719 0.001014 0.000000 0.020223 0.000000
# 6 0.000000 0.000000 0.000000 0.005959 0.000000 0.044262
#
#
# Mechanical properties :
#
#
# Convention : Reuss Voigt Hill
#
# Bulk Modulus (GPa) = 62.65719 73.94333 68.30026
# Shear Modulus (GPa) = 25.22703 33.09682 29.16193
#
# Velocity S-wave (km/s) = 3.49296 4.00087 3.75551
# Velocity P-wave (km/s) = 6.82431 7.55676 7.19985
#
# Compressibility (1/GPa) = 0.01595986
#
# Stress axis : x y z
#
# Youngs Moduli (GPa) = 104.67845 46.18963 99.66243
#
# Poissons Ratio (x) = 0.16543 0.21278
# Poissons Ratio (y) = 0.37491 0.68986
# Poissons Ratio (z) = 0.22349 0.31972
#
# Static dielectric constant tensor:
#      x y z
#    x 3.896890 0.000000 -0.115550 
#    y 0.000000 3.014220 0.000000 
#    z -0.115550 0.000000 4.151790 
# 
# 
# High freq. dielectric constant tensor:
#      x y z
#    x 1.825880 0.000000 -0.007180 
#    y 0.000000 1.741580 0.000000 
#    z -0.007180 0.000000 1.838880 
# 
# From -- ./inp_files/132908.got.cif
#   From: 2010.06.25/outbox.cif.g09.slc.cpg/sg15_67_cif.got.tgz:132908.got - 2010.06.28 07:06:18.
