data_PCOD8135505
_publ_section_title
;
Structure prediction by ZEFSAII (Michael W. Deem and Ramdas Pophale) SiO2 
 PCOD8135505
Probable space group: C 2/C
;
_chemical_formula_sum "Si O2"
_cell_formula_units_Z 44
_cell_length_a 11.312880
_cell_length_b 11.525676
_cell_length_c 18.612510
_cell_angle_alpha 90.000000
_cell_angle_beta 50.782689
_cell_angle_gamma 90.000000
_cell_volume 1880.217437
_symmetry_space_group_name_H-M "C 2/C"
_symmetry_group_IT_number 15
_symmetry_cell_setting 'monoclinic'
loop_
_space_group_symop_operation_xyz
x,y,z
-x,y,1/2-z
-x,-y,-z
x,-y,1/2+z
1/2+x,1/2+y,z
1/2-x,1/2+y,1/2-z
1/2-x,1/2-y,-z
1/2+x,1/2-y,1/2+z
loop_
_atom_site_type_symbol
_atom_site_label
_atom_site_fract_x
_atom_site_fract_y
_atom_site_fract_z
Si Si1 0.767350 0.962289 0.102515
Si Si2 0.456264 0.892628 0.426218
Si Si3 0.954547 0.170270 0.043688
Si Si4 0.284051 0.062256 0.128349
Si Si5 0.500000 0.604091 0.750000
Si Si6 0.619497 0.716998 0.843785
O O1 0.607684 0.929019 0.127163
O O2 0.775979 0.895049 0.175635
O O3 0.792928 0.100430 0.106452
O O4 0.906146 0.920207 0.996654
O O5 0.543577 0.767745 0.394048
O O6 0.315987 0.885284 0.536832
O O7 0.572257 0.990362 0.402346
O O8 0.980851 0.231317 0.955441
O O9 0.273112 0.168133 0.190618
O O10 0.137013 0.981716 0.178114
O O11 0.545727 0.693310 0.795187
#
# Coordination Sequence:
#
# PCOD8135505 Si02
#       6
#     8   8   8   8   4   8
#     4   9  17  33  60  94 121 151 198 259 306 363
#     4  10  19  38  64  95 120 145 208 270 301 358
#     4   8  17  32  62  97 117 150 197 253 321 356
#     4  10  24  40  62  90 120 164 202 251 318 363
#     4  12  24  46  58  82 136 178 198 252 304 382
#     4   9  21  40  57  88 119 160 209 237 304 377
#
# _framework density 23.401547999999998
#
# number of rings (size 3 to 8) (size 9 to 14) (size 15 to 20)
#    1.091    1.455    0.000    1.636    0.000    1.455 
#    9.818    5.455    0.000    0.000    0.000    0.000 
#    0.000    0.000    0.000    0.000    0.000    0.000 
#
# Total GULP energy -272569.794632 kJ/mol
# GULP energy per Si atom -12389.536120 kJ/mol
# Density = 2.334829 g / cm^3
# Si number density = 23.401548 Si / 1000 Ang^3
#
#
#
# Elastic Constant Matrix: (Units=GPa)
#
#
# Indices 1 2 3 4 5 6 
#
# 1 143.0770 34.5109 18.2248 0.0000 20.8214 0.0000
# 2 34.5109 90.0751 -1.6525 0.0000 -1.5285 0.0000
# 3 18.2248 -1.6525 16.0921 0.0000 2.9212 0.0000
# 4 0.0000 0.0000 0.0000 5.1773 0.0000 12.2228
# 5 20.8214 -1.5285 2.9212 0.0000 11.6195 0.0000
# 6 0.0000 0.0000 0.0000 12.2228 0.0000 11.7856
#
#
#
# Elastic Compliance Matrix: (Units=1/GPa)
#
#
# Indices 1 2 3 4 5 6 
#
# 1 0.012752 -0.005444 -0.011236 0.000000 -0.020742 0.000000
# 2 -0.005444 0.013464 0.005716 0.000000 0.010089 0.000000
# 3 -0.011236 0.005716 0.075090 0.000000 0.002008 0.000000
# 4 0.000000 0.000000 0.000000 -0.133352 0.000000 0.138299
# 5 -0.020742 0.010089 0.002008 0.000000 0.124053 0.000000
# 6 0.000000 0.000000 0.000000 0.138299 0.000000 -0.058580
#
#
# Mechanical properties :
#
#
# Convention : Reuss Voigt Hill
#
# Bulk Modulus (GPa) = 12.59781 39.04564 25.82173
# Shear Modulus (GPa) = 61.11535 18.92722 40.02129
#
# Velocity S-wave (km/s) = 5.11592 2.84703 4.13994
# Velocity P-wave (km/s) = 6.34759 5.24678 5.82325
#
# Compressibility (1/GPa) = 0.07937885
#
# Stress axis : x y z
#
# Youngs Moduli (GPa) = 78.41873 74.27409 13.31744
#
# Poissons Ratio (x) = 0.40434 0.14963
# Poissons Ratio (y) = 0.42690 -0.07613
# Poissons Ratio (z) = 0.88110 -0.42458
#
# Static dielectric constant tensor:
#      x y z
#    x 3.967070 0.000000 0.052190 
#    y 0.000000 4.303340 0.000000 
#    z 0.052190 0.000000 3.856390 
# 
# 
# High freq. dielectric constant tensor:
#      x y z
#    x 1.916470 0.000000 0.007160 
#    y 0.000000 1.936350 0.000000 
#    z 0.007160 0.000000 1.878190 
# 
# From -- ./inp_files/236799.got.cif
#   From: 2010.06.25/outbox.cif.g09.slc.cpg/sg15_119_cif.got.tgz:236799.got - 2010.06.28 07:06:18.
