data_PCOD8135385
_publ_section_title
;
Structure prediction by ZEFSAII (Michael W. Deem and Ramdas Pophale) SiO2 
 PCOD8135385
Probable space group: C 2/C
;
_chemical_formula_sum "Si O2"
_cell_formula_units_Z 48
_cell_length_a 22.438959
_cell_length_b 21.824317
_cell_length_c 13.767490
_cell_angle_alpha 90.000000
_cell_angle_beta 20.082782
_cell_angle_gamma 90.000000
_cell_volume 2315.100953
_symmetry_space_group_name_H-M "C 2/C"
_symmetry_group_IT_number 15
_symmetry_cell_setting 'monoclinic'
loop_
_space_group_symop_operation_xyz
x,y,z
-x,y,1/2-z
-x,-y,-z
x,-y,1/2+z
1/2+x,1/2+y,z
1/2-x,1/2+y,1/2-z
1/2-x,1/2-y,-z
1/2+x,1/2-y,1/2+z
loop_
_atom_site_type_symbol
_atom_site_label
_atom_site_fract_x
_atom_site_fract_y
_atom_site_fract_z
Si Si1 0.367077 0.695800 0.043673
Si Si2 0.744735 0.564822 0.216120
Si Si3 0.517834 0.890792 0.618110
Si Si4 0.380300 0.974833 0.314269
Si Si5 0.391288 0.223374 0.212664
Si Si6 0.824024 0.048782 0.563602
O O1 0.341767 0.629365 0.128868
O O2 0.185638 0.724871 0.279730
O O3 0.500000 0.690909 0.750000
O O4 0.434048 0.737832 0.031291
O O5 0.631375 0.511731 0.441968
O O6 0.743944 0.552177 0.101318
O O7 0.941727 0.563281 0.953005
O O8 0.500000 0.857148 0.750000
O O9 0.428214 0.848170 0.675598
O O10 0.722910 0.900725 0.282257
O O11 0.415070 0.954370 0.784561
O O12 0.310441 0.969553 0.313778
O O13 0.250000 0.250000 0.500000
O O14 0.000000 0.076858 0.250000
#
# Coordination Sequence:
#
# PCOD8135385 Si02
#       6
#     8   8   8   8   8   8
#     4  10  20  37  58  90 121 157 203 264 305 362
#     4  10  19  38  61  86 119 161 208 243 309 370
#     4  11  19  39  62  86 118 159 208 255 305 365
#     4  10  20  37  61  86 114 169 200 243 309 371
#     4  10  21  37  60  91 117 159 213 256 308 351
#     4  11  22  36  54  91 128 155 196 254 314 365
#
# _framework density 20.733436999999999
#
# number of rings (size 3 to 8) (size 9 to 14) (size 15 to 20)
#    0.000    1.667    3.333    6.000    0.000    2.000 
#    9.000    0.000    3.667    5.000    0.000    0.000 
#    0.000    0.000    0.000    0.000    0.000    0.000 
#
# Total GULP energy -297507.696290 kJ/mol
# GULP energy per Si atom -12396.154012 kJ/mol
# Density = 2.068625 g / cm^3
# Si number density = 20.733437 Si / 1000 Ang^3
#
#
#
# Elastic Constant Matrix: (Units=GPa)
#
#
# Indices 1 2 3 4 5 6 
#
# 1 66.9542 29.4969 28.0728 -0.0119 -5.6090 0.0086
# 2 29.4969 106.8125 37.5815 -0.0145 -7.0385 -0.0098
# 3 28.0728 37.5815 89.1132 -0.0585 6.1266 0.0048
# 4 -0.0119 -0.0145 -0.0585 19.0187 0.0016 2.8206
# 5 -5.6090 -7.0385 6.1266 0.0016 32.3249 0.0031
# 6 0.0086 -0.0098 0.0048 2.8206 0.0031 16.1152
#
#
#
# Elastic Compliance Matrix: (Units=1/GPa)
#
#
# Indices 1 2 3 4 5 6 
#
# 1 0.018642 -0.003257 -0.004735 -0.000004 0.003423 -0.000010
# 2 -0.003257 0.011925 -0.004197 -0.000008 0.002827 0.000011
# 3 -0.004735 -0.004197 0.014795 0.000041 -0.004540 -0.000011
# 4 -0.000004 -0.000008 0.000041 0.053981 -0.000012 -0.009448
# 5 0.003423 0.002827 -0.004540 -0.000012 0.033006 -0.000003
# 6 -0.000010 0.000011 -0.000011 -0.009448 -0.000003 0.063707
#
#
# Mechanical properties :
#
#
# Convention : Reuss Voigt Hill
#
# Bulk Modulus (GPa) = 47.65326 50.35359 49.00342
# Shear Modulus (GPa) = 21.98489 24.67368 23.32929
#
# Velocity S-wave (km/s) = 3.25985 3.45344 3.35804
# Velocity P-wave (km/s) = 6.09938 6.34355 6.22266
#
# Compressibility (1/GPa) = 0.02098492
#
# Stress axis : x y z
#
# Youngs Moduli (GPa) = 53.64151 83.85968 67.58818
#
# Poissons Ratio (x) = 0.27311 0.32001
# Poissons Ratio (y) = 0.17470 0.28369
# Poissons Ratio (z) = 0.25397 0.35199
#
# Static dielectric constant tensor:
#      x y z
#    x 4.099280 0.000010 -0.113710 
#    y 0.000010 3.649900 0.000140 
#    z -0.113710 0.000140 3.710400 
# 
# 
# High freq. dielectric constant tensor:
#      x y z
#    x 1.816940 0.000000 -0.005880 
#    y 0.000000 1.796660 0.000010 
#    z -0.005880 0.000010 1.790920 
# 
# From -- ./inp_files/79131.got.cif
#   From: 2010.06.25/outbox.cif.g09.slc.cpg/sg15_40_cif.got.tgz:79131.got - 2010.06.28 07:06:18.
