data_PCOD8135278
_publ_section_title
;
Structure prediction by ZEFSAII (Michael W. Deem and Ramdas Pophale) SiO2 
 PCOD8135278
Probable space group: C 2/C
;
_chemical_formula_sum "Si O2"
_cell_formula_units_Z 64
_cell_length_a 22.112598
_cell_length_b 8.796222
_cell_length_c 25.269991
_cell_angle_alpha 90.000000
_cell_angle_beta 43.115612
_cell_angle_gamma 90.000000
_cell_volume 3359.403837
_symmetry_space_group_name_H-M "C 2/C"
_symmetry_group_IT_number 15
_symmetry_cell_setting 'monoclinic'
loop_
_space_group_symop_operation_xyz
x,y,z
-x,y,1/2-z
-x,-y,-z
x,-y,1/2+z
1/2+x,1/2+y,z
1/2-x,1/2+y,1/2-z
1/2-x,1/2-y,-z
1/2+x,1/2-y,1/2+z
loop_
_atom_site_type_symbol
_atom_site_label
_atom_site_fract_x
_atom_site_fract_y
_atom_site_fract_z
Si Si1 0.687623 0.592721 0.335411
Si Si2 0.542562 0.171838 0.920792
Si Si3 0.402629 0.805535 0.315956
Si Si4 0.542625 0.499987 0.274035
Si Si5 0.288141 0.645654 0.594494
Si Si6 0.394577 0.149438 0.098112
Si Si7 0.667632 0.338548 0.269709
Si Si8 0.082066 0.800863 0.581378
O O1 0.595055 0.671618 0.382618
O O2 0.675911 0.497919 0.396345
O O3 0.712256 0.485009 0.269794
O O4 0.759994 0.721779 0.296904
O O5 0.478525 0.175984 0.910525
O O6 0.608540 0.026619 0.880753
O O7 0.486972 0.177093 0.010014
O O8 0.500000 0.889991 0.250000
O O9 0.410532 0.649128 0.279085
O O10 0.317406 0.884694 0.344028
O O11 0.377805 0.782472 0.393117
O O12 0.500000 0.415474 0.250000
O O13 0.613430 0.386062 0.252884
O O14 0.472648 0.551006 0.363970
O O15 0.312083 0.800764 0.612463
O O16 0.336764 0.645860 0.507062
O O17 0.397389 0.256090 0.147546
#
# Coordination Sequence:
#
# PCOD8135278 Si02
#       8
#     8   8   8   8   8   8   8   8
#     4  11  24  32  58  82 118 143 188 230 282 337
#     4  10  19  38  54  88 114 147 180 230 282 338
#     4   9  20  35  57  82 110 150 191 237 272 330
#     4   9  20  36  56  79 105 149 186 231 276 331
#     4  10  21  36  57  90 110 148 187 238 277 334
#     4   9  22  34  58  84 118 145 180 226 290 335
#     4  11  22  36  54  82 109 153 182 232 276 342
#     4   9  18  35  62  81 111 148 192 232 269 335
#
# _framework density 19.050999999999998
#
# number of rings (size 3 to 8) (size 9 to 14) (size 15 to 20)
#    0.000    2.500    1.250    1.125    7.000    3.500 
#    0.000    1.875    0.000    3.000    0.000    0.000 
#    0.000    0.000    0.000    0.000    0.000    0.000 
#
# Total GULP energy -396554.988897 kJ/mol
# GULP energy per Si atom -12392.343403 kJ/mol
# Density = 1.900764 g / cm^3
# Si number density = 19.051000 Si / 1000 Ang^3
#
#
#
# Elastic Constant Matrix: (Units=GPa)
#
#
# Indices 1 2 3 4 5 6 
#
# 1 98.7642 34.2054 37.0750 -0.0020 -3.2904 0.0055
# 2 34.2054 64.8926 18.9267 -0.0025 -6.4639 0.0096
# 3 37.0750 18.9267 81.0882 -0.0001 6.7153 0.0001
# 4 -0.0020 -0.0025 -0.0001 22.2886 0.0001 -3.2692
# 5 -3.2904 -6.4639 6.7153 0.0001 29.6152 -0.0006
# 6 0.0055 0.0096 0.0001 -3.2692 -0.0006 17.7469
#
#
#
# Elastic Compliance Matrix: (Units=1/GPa)
#
#
# Indices 1 2 3 4 5 6 
#
# 1 0.014144 -0.005777 -0.005243 0.000000 0.001499 -0.000001
# 2 -0.005777 0.019525 -0.002258 0.000000 0.004132 -0.000009
# 3 -0.005243 -0.002258 0.015639 0.000000 -0.004622 0.000003
# 4 0.000000 0.000000 0.000000 0.046112 0.000000 0.008494
# 5 0.001499 0.004132 -0.004622 0.000000 0.035883 -0.000001
# 6 -0.000001 -0.000009 0.000003 0.008494 -0.000001 0.057913
#
#
# Mechanical properties :
#
#
# Convention : Reuss Voigt Hill
#
# Bulk Modulus (GPa) = 43.95075 47.23991 45.59533
# Shear Modulus (GPa) = 22.38584 24.23266 23.30925
#
# Velocity S-wave (km/s) = 3.43162 3.57036 3.50168
# Velocity P-wave (km/s) = 6.23069 6.46893 6.35093
#
# Compressibility (1/GPa) = 0.02275274
#
# Stress axis : x y z
#
# Youngs Moduli (GPa) = 70.70222 51.21550 63.94233
#
# Poissons Ratio (x) = 0.29587 0.33522
# Poissons Ratio (y) = 0.40844 0.14440
# Poissons Ratio (z) = 0.37066 0.11566
#
# Static dielectric constant tensor:
#      x y z
#    x 3.621430 0.000000 0.045980 
#    y 0.000000 3.345550 0.000000 
#    z 0.045980 0.000000 3.530440 
# 
# 
# High freq. dielectric constant tensor:
#      x y z
#    x 1.742750 0.000000 0.004640 
#    y 0.000000 1.711010 0.000000 
#    z 0.004640 0.000000 1.749660 
# 
# From -- ./inp_files/279566.got.cif
#   From: 2010.06.25/outbox.cif.g09.slc.cpg/sg15_140_cif.got.tgz:279566.got - 2010.06.28 07:06:18.
