data_PCOD8135641
_publ_section_title
;
Structure prediction by ZEFSAII (Michael W. Deem and Ramdas Pophale) SiO2 
 PCOD8135641
Probable space group: C 2/C
;
_chemical_formula_sum "Si O2"
_cell_formula_units_Z 60
_cell_length_a 16.107741
_cell_length_b 15.752512
_cell_length_c 27.098442
_cell_angle_alpha 90.000000
_cell_angle_beta 26.996969
_cell_angle_gamma 90.000000
_cell_volume 3121.263624
_symmetry_space_group_name_H-M "C 2/C"
_symmetry_group_IT_number 15
_symmetry_cell_setting 'monoclinic'
loop_
_space_group_symop_operation_xyz
x,y,z
-x,y,1/2-z
-x,-y,-z
x,-y,1/2+z
1/2+x,1/2+y,z
1/2-x,1/2+y,1/2-z
1/2-x,1/2-y,-z
1/2+x,1/2-y,1/2+z
loop_
_atom_site_type_symbol
_atom_site_label
_atom_site_fract_x
_atom_site_fract_y
_atom_site_fract_z
Si Si1 0.500000 0.926194 0.250000
Si Si2 0.516626 0.724623 0.075147
Si Si3 0.539953 0.277270 0.003480
Si Si4 0.342416 0.065797 0.458601
Si Si5 0.888777 0.823844 0.356235
Si Si6 0.695429 0.913713 0.632742
Si Si7 0.106928 0.283987 0.821843
Si Si8 0.357554 0.875139 0.424574
O O1 0.478290 0.870191 0.310373
O O2 0.321672 0.988677 0.339064
O O3 0.548954 0.752891 0.000837
O O4 0.310248 0.697757 0.195727
O O5 0.560162 0.808385 0.082067
O O6 0.648073 0.647163 0.021686
O O7 0.717224 0.228318 0.928064
O O8 0.620041 0.370240 0.944829
O O9 0.394826 0.269609 0.125354
O O10 0.179995 0.089237 0.582153
O O11 0.273893 0.091015 0.441423
O O12 0.521523 0.122431 0.376124
O O13 0.380095 0.965358 0.439979
O O14 0.000000 0.853625 0.250000
O O15 0.000033 0.768055 0.336607
O O16 0.500000 0.866395 0.750000
#
# Coordination Sequence:
#
# PCOD8135641 Si02
#       8
#     4   8   8   8   8   8   8   8
#     4   8  20  36  68  84 112 162 194 260 318 354
#     4  11  25  41  61  86 119 172 205 246 294 375
#     4  11  19  34  61  95 120 157 198 243 312 368
#     4  10  19  39  61  89 125 158 191 258 315 355
#     4  11  19  34  62  92 129 155 193 254 312 362
#     4   9  15  29  60  91 119 148 178 242 331 352
#     4  11  21  37  64  94 125 156 201 252 309 369
#     4  10  24  46  58  81 128 166 208 247 303 356
#
# _framework density 19.222982999999999
#
# number of rings (size 3 to 8) (size 9 to 14) (size 15 to 20)
#    0.400    1.333    4.000    2.000    1.867    0.000 
#    2.400    6.667    0.000    0.000    0.000    0.000 
#    0.000    0.000    0.000    0.000    0.000    0.000 
#
# Total GULP energy -371693.880958 kJ/mol
# GULP energy per Si atom -12389.796032 kJ/mol
# Density = 1.917923 g / cm^3
# Si number density = 19.222983 Si / 1000 Ang^3
#
#
#
# Elastic Constant Matrix: (Units=GPa)
#
#
# Indices 1 2 3 4 5 6 
#
# 1 101.6652 47.2694 42.3793 -0.0045 18.2114 0.0008
# 2 47.2694 89.6869 36.9003 0.0038 7.8753 0.0024
# 3 42.3793 36.9003 82.8672 0.0234 22.9457 0.0040
# 4 -0.0045 0.0038 0.0234 14.9598 -0.0005 8.0798
# 5 18.2114 7.8753 22.9457 -0.0005 37.1785 -0.0030
# 6 0.0008 0.0024 0.0040 8.0798 -0.0030 18.1563
#
#
#
# Elastic Compliance Matrix: (Units=1/GPa)
#
#
# Indices 1 2 3 4 5 6 
#
# 1 0.014879 -0.005882 -0.004001 0.000016 -0.003573 -0.000006
# 2 -0.005882 0.016010 -0.004800 0.000003 0.002452 -0.000002
# 3 -0.004001 -0.004800 0.018606 -0.000035 -0.008507 0.000011
# 4 0.000016 0.000003 -0.000035 0.087996 0.000012 -0.039160
# 5 -0.003573 0.002452 -0.008507 0.000012 0.033378 0.000002
# 6 -0.000006 -0.000002 0.000011 -0.039160 0.000002 0.072504
#
#
# Mechanical properties :
#
#
# Convention : Reuss Voigt Hill
#
# Bulk Modulus (GPa) = 49.67779 58.59081 54.13430
# Shear Modulus (GPa) = 17.89242 23.90361 20.89801
#
# Velocity S-wave (km/s) = 3.05418 3.53014 3.30075
# Velocity P-wave (km/s) = 6.19164 6.86743 6.53827
#
# Compressibility (1/GPa) = 0.02012972
#
# Stress axis : x y z
#
# Youngs Moduli (GPa) = 67.20956 62.46271 53.74503
#
# Poissons Ratio (x) = 0.36742 0.21501
# Poissons Ratio (y) = 0.39534 0.25797
# Poissons Ratio (z) = 0.26887 0.29981
#
# Static dielectric constant tensor:
#      x y z
#    x 2.695130 -0.000050 0.377810 
#    y -0.000050 3.502470 0.000030 
#    z 0.377810 0.000030 3.819200 
# 
# 
# High freq. dielectric constant tensor:
#      x y z
#    x 1.741430 0.000000 0.022680 
#    y 0.000000 1.728050 0.000000 
#    z 0.022680 0.000000 1.750020 
# 
# From -- ./inp_files/296811.got.cif
#   From: 2010.06.25/outbox.cif.g09.slc.cpg/sg15_149_cif.got.tgz:296811.got - 2010.06.28 07:06:18.
