data_PCOD8135518
_publ_section_title
;
Structure prediction by ZEFSAII (Michael W. Deem and Ramdas Pophale) SiO2 
 PCOD8135518
Probable space group: C 2/C
;
_chemical_formula_sum "Si O2"
_cell_formula_units_Z 56
_cell_length_a 23.078609
_cell_length_b 16.890878
_cell_length_c 9.152554
_cell_angle_alpha 90.000000
_cell_angle_beta 129.229332
_cell_angle_gamma 90.000000
_cell_volume 2763.715431
_symmetry_space_group_name_H-M "C 2/C"
_symmetry_group_IT_number 15
_symmetry_cell_setting 'monoclinic'
loop_
_space_group_symop_operation_xyz
x,y,z
-x,y,1/2-z
-x,-y,-z
x,-y,1/2+z
1/2+x,1/2+y,z
1/2-x,1/2+y,1/2-z
1/2-x,1/2-y,-z
1/2+x,1/2-y,1/2+z
loop_
_atom_site_type_symbol
_atom_site_label
_atom_site_fract_x
_atom_site_fract_y
_atom_site_fract_z
Si Si1 0.870353 0.305872 0.269639
Si Si2 0.176508 0.268867 0.616836
Si Si3 0.817704 0.008883 0.182196
Si Si4 0.941425 0.895991 0.276914
Si Si5 0.325110 0.339253 0.882470
Si Si6 0.981116 0.235827 0.052938
Si Si7 0.753318 0.900374 0.305381
O O1 0.845087 0.220870 0.286885
O O2 0.834307 0.376241 0.309903
O O3 0.960935 0.303279 0.412598
O O4 0.836601 0.316040 0.054708
O O5 0.241879 0.315852 0.806633
O O6 0.101480 0.272622 0.593606
O O7 0.195746 0.177848 0.612688
O O8 0.830176 0.073486 0.325865
O O9 0.899084 0.970723 0.279858
O O10 0.762125 0.942992 0.163171
O O11 0.780605 0.041482 0.976745
O O12 0.986922 0.845119 0.469369
O O13 0.000000 0.927448 0.250000
O O14 0.880730 0.835914 0.108343
O O15 0.000000 0.212828 0.250000
#
# Coordination Sequence:
#
# PCOD8135518 Si02
#       7
#     8   8   8   8   8   8   8
#     4  10  19  39  65  87 121 168 212 259 294 369
#     4  10  19  38  65  91 115 166 221 252 298 368
#     4  12  23  39  59  92 127 165 202 252 314 371
#     4  12  25  41  56  94 133 164 194 256 320 373
#     4  11  21  37  61  85 125 164 208 258 300 366
#     4  10  22  40  65  91 121 161 212 256 307 364
#     4  11  21  38  63  91 123 165 213 251 306 368
#
# _framework density 20.262578999999999
#
# number of rings (size 3 to 8) (size 9 to 14) (size 15 to 20)
#    0.000    1.143    7.143    0.857    0.000    1.143 
#    2.571    0.000    0.000    0.857    3.714    0.000 
#    0.000    0.000    0.000    0.000    0.000    0.000 
#
# Total GULP energy -347145.576694 kJ/mol
# GULP energy per Si atom -12398.056311 kJ/mol
# Density = 2.021646 g / cm^3
# Si number density = 20.262579 Si / 1000 Ang^3
#
#
#
# Elastic Constant Matrix: (Units=GPa)
#
#
# Indices 1 2 3 4 5 6 
#
# 1 158.2916 58.8068 38.4229 0.0000 22.3468 0.0000
# 2 58.8068 75.4546 32.2013 0.0000 3.3367 0.0000
# 3 38.4229 32.2013 63.2509 0.0000 16.6012 0.0000
# 4 0.0000 0.0000 0.0000 27.5080 0.0000 5.5497
# 5 22.3468 3.3367 16.6012 0.0000 27.4814 0.0000
# 6 0.0000 0.0000 0.0000 5.5497 0.0000 22.0135
#
#
#
# Elastic Compliance Matrix: (Units=1/GPa)
#
#
# Indices 1 2 3 4 5 6 
#
# 1 0.010198 -0.007386 -0.000586 0.000000 -0.007042 0.000000
# 2 -0.007386 0.022612 -0.009366 0.000000 0.008919 0.000000
# 3 -0.000586 -0.009366 0.024376 0.000000 -0.013111 0.000000
# 4 0.000000 0.000000 0.000000 0.038301 0.000000 -0.009656
# 5 -0.007042 0.008919 -0.013111 0.000000 0.048952 0.000000
# 6 0.000000 0.000000 0.000000 -0.009656 0.000000 0.047861
#
#
# Mechanical properties :
#
#
# Convention : Reuss Voigt Hill
#
# Bulk Modulus (GPa) = 44.42712 61.76213 53.09463
# Shear Modulus (GPa) = 21.32382 26.57166 23.94774
#
# Velocity S-wave (km/s) = 3.24755 3.62521 3.44156
# Velocity P-wave (km/s) = 6.00295 6.93325 6.48480
#
# Compressibility (1/GPa) = 0.02250878
#
# Stress axis : x y z
#
# Youngs Moduli (GPa) = 98.05876 44.22375 41.02451
#
# Poissons Ratio (x) = 0.32665 0.02405
# Poissons Ratio (y) = 0.72429 0.38423
# Poissons Ratio (z) = 0.05750 0.41419
#
# Static dielectric constant tensor:
#      x y z
#    x 4.126970 0.000000 0.135380 
#    y 0.000000 3.479610 0.000000 
#    z 0.135380 0.000000 3.633560 
# 
# 
# High freq. dielectric constant tensor:
#      x y z
#    x 1.808810 0.000000 -0.002340 
#    y 0.000000 1.761660 0.000000 
#    z -0.002340 0.000000 1.779300 
# 
# From -- ./inp_files/62764.got.cif
#   From: 2010.06.25/outbox.cif.g09.slc.cpg/sg15_32_cif.got.tgz:62764.got - 2010.06.28 07:06:18.
