data_PCOD8135238
_publ_section_title
;
Structure prediction by ZEFSAII (Michael W. Deem and Ramdas Pophale) SiO2 
 PCOD8135238
Probable space group: C 2/C
;
_chemical_formula_sum "Si O2"
_cell_formula_units_Z 36
_cell_length_a 25.539079
_cell_length_b 9.711756
_cell_length_c 12.366564
_cell_angle_alpha 90.000000
_cell_angle_beta 24.115060
_cell_angle_gamma 90.000000
_cell_volume 1253.195780
_symmetry_space_group_name_H-M "C 2/C"
_symmetry_group_IT_number 15
_symmetry_cell_setting 'monoclinic'
loop_
_space_group_symop_operation_xyz
x,y,z
-x,y,1/2-z
-x,-y,-z
x,-y,1/2+z
1/2+x,1/2+y,z
1/2-x,1/2+y,1/2-z
1/2-x,1/2-y,-z
1/2+x,1/2-y,1/2+z
loop_
_atom_site_type_symbol
_atom_site_label
_atom_site_fract_x
_atom_site_fract_y
_atom_site_fract_z
Si Si1 0.000000 0.353705 0.250000
Si Si2 0.354327 0.491085 0.383170
Si Si3 0.065423 0.211054 0.408218
Si Si4 0.231200 0.207809 0.295355
Si Si5 0.620719 0.079088 0.170706
O O1 0.068951 0.443107 0.212268
O O2 0.884147 0.263008 0.518976
O O3 0.482412 0.405885 0.122122
O O4 0.299616 0.451544 0.605595
O O5 0.247702 0.450396 0.496964
O O6 0.388610 0.653704 0.297237
O O7 0.188805 0.232986 0.252195
O O8 0.989370 0.355971 0.542645
O O9 0.151619 0.307554 0.522188
#
# Coordination Sequence:
#
# PCOD8135238 Si02
#       5
#     4   8   8   8   8
#     4  12  24  40  64  88 126 168 198 254 306 356
#     4  10  21  38  67  92 121 161 205 255 303 361
#     4  10  19  37  66  93 119 161 206 247 307 364
#     4  11  22  40  62  93 125 161 207 249 303 368
#     4  11  21  43  65  86 126 164 200 254 311 354
#
# _framework density 28.726558000000001
#
# number of rings (size 3 to 8) (size 9 to 14) (size 15 to 20)
#    0.000    1.333    4.444    4.667    0.000    0.889 
#    0.000   10.000    0.000    0.000    0.000    0.000 
#    0.000    0.000    0.000    0.000    0.000    0.000 
#
# Total GULP energy -223138.192506 kJ/mol
# GULP energy per Si atom -12396.566250 kJ/mol
# Density = 2.866117 g / cm^3
# Si number density = 28.726558 Si / 1000 Ang^3
#
#
#
# Elastic Constant Matrix: (Units=GPa)
#
#
# Indices 1 2 3 4 5 6 
#
# 1 47.4582 -10.4252 12.8668 0.0000 -15.8850 0.0000
# 2 -10.4252 30.3343 -3.0705 0.0000 -6.1462 0.0000
# 3 12.8668 -3.0705 134.1816 0.0000 -24.4502 0.0000
# 4 0.0000 0.0000 0.0000 50.4086 0.0000 7.1081
# 5 -15.8850 -6.1462 -24.4502 0.0000 48.7349 0.0000
# 6 0.0000 0.0000 0.0000 7.1081 0.0000 30.1596
#
#
#
# Elastic Compliance Matrix: (Units=1/GPa)
#
#
# Indices 1 2 3 4 5 6 
#
# 1 0.027019 0.011253 -0.000517 0.000000 0.009966 0.000000
# 2 0.011253 0.038876 0.001510 0.000000 0.009328 0.000000
# 3 -0.000517 0.001510 0.008299 0.000000 0.004186 0.000000
# 4 0.000000 0.000000 0.000000 0.020520 0.000000 -0.004836
# 5 0.009966 0.009328 0.004186 0.000000 0.027044 0.000000
# 6 0.000000 0.000000 0.000000 -0.004836 0.000000 0.034297
#
#
# Mechanical properties :
#
#
# Convention : Reuss Voigt Hill
#
# Bulk Modulus (GPa) = 10.13308 23.41293 16.77300
# Shear Modulus (GPa) = 30.40264 40.03416 35.21840
#
# Velocity S-wave (km/s) = 3.25675 3.73718 3.50521
# Velocity P-wave (km/s) = 4.20440 5.17591 4.71524
#
# Compressibility (1/GPa) = 0.09868669
#
# Stress axis : x y z
#
# Youngs Moduli (GPa) = 37.01062 25.72265 120.48977
#
# Poissons Ratio (x) = -0.28945 0.06233
# Poissons Ratio (y) = -0.41647 -0.18198
# Poissons Ratio (z) = 0.01915 -0.03885
#
# Static dielectric constant tensor:
#      x y z
#    x 5.100430 0.000000 0.154710 
#    y 0.000000 5.564000 0.000000 
#    z 0.154710 0.000000 5.760790 
# 
# 
# High freq. dielectric constant tensor:
#      x y z
#    x 2.158250 0.000000 -0.005390 
#    y 0.000000 2.160570 0.000000 
#    z -0.005390 0.000000 2.193240 
# 
# From -- ./inp_files/84423.got.cif
#   From: 2010.06.25/outbox.cif.g09.slc.cpg/sg15_43_cif.got.tgz:84423.got - 2010.06.28 07:06:18.
