data_PCOD8135360
_publ_section_title
;
Structure prediction by ZEFSAII (Michael W. Deem and Ramdas Pophale) SiO2 
 PCOD8135360
Probable space group: C 2/C
;
_chemical_formula_sum "Si O2"
_cell_formula_units_Z 40
_cell_length_a 15.161461
_cell_length_b 15.234089
_cell_length_c 19.452578
_cell_angle_alpha 90.000000
_cell_angle_beta 154.300568
_cell_angle_gamma 90.000000
_cell_volume 1948.382453
_symmetry_space_group_name_H-M "C 2/C"
_symmetry_group_IT_number 15
_symmetry_cell_setting 'monoclinic'
loop_
_space_group_symop_operation_xyz
x,y,z
-x,y,1/2-z
-x,-y,-z
x,-y,1/2+z
1/2+x,1/2+y,z
1/2-x,1/2+y,1/2-z
1/2-x,1/2-y,-z
1/2+x,1/2-y,1/2+z
loop_
_atom_site_type_symbol
_atom_site_label
_atom_site_fract_x
_atom_site_fract_y
_atom_site_fract_z
Si Si1 0.405360 0.954159 0.609445
Si Si2 0.778413 0.309822 0.703983
Si Si3 0.108761 0.818894 0.438958
Si Si4 0.071584 0.199005 0.202205
Si Si5 0.318124 0.860387 0.003415
O O1 0.500000 0.977752 0.750000
O O2 0.545341 0.882758 0.669993
O O3 0.175548 0.914338 0.456989
O O4 0.395046 0.039614 0.554036
O O5 0.632108 0.320784 0.537212
O O6 0.646212 0.322146 0.678752
O O7 0.876205 0.211485 0.764438
O O8 0.250000 0.750000 0.500000
O O9 0.250553 0.176679 0.381581
O O10 0.871669 0.141011 0.077258
O O11 0.004387 0.300963 0.161866
#
# Coordination Sequence:
#
# PCOD8135360 Si02
#       5
#     8   8   8   8   8
#     4   9  20  37  58  83 115 146 185 234 286 336
#     4  10  19  38  60  87 114 145 190 234 280 342
#     4   9  18  36  59  85 117 149 175 228 294 336
#     4  10  22  38  59  81 112 151 193 228 285 335
#     4  10  22  40  56  81 113 155 187 233 284 337
#
# _framework density 20.52985
#
# number of rings (size 3 to 8) (size 9 to 14) (size 15 to 20)
#    0.000    2.400    0.000    3.000    5.600    0.800 
#   18.000    2.000    0.000    0.000    0.000    0.000 
#    0.000    0.000    0.000    0.000    0.000    0.000 
#
# Total GULP energy -247873.288751 kJ/mol
# GULP energy per Si atom -12393.664438 kJ/mol
# Density = 2.048312 g / cm^3
# Si number density = 20.529850 Si / 1000 Ang^3
#
#
#
# Elastic Constant Matrix: (Units=GPa)
#
#
# Indices 1 2 3 4 5 6 
#
# 1 124.1687 12.3191 9.9648 -0.0297 -13.9902 -0.0009
# 2 12.3191 113.0800 32.2582 0.0003 -7.6385 -0.0041
# 3 9.9648 32.2582 45.4286 0.0178 -4.1530 -0.0079
# 4 -0.0297 0.0003 0.0178 23.9112 0.0010 -2.6091
# 5 -13.9902 -7.6385 -4.1530 0.0010 19.8119 -0.0043
# 6 -0.0009 -0.0041 -0.0079 -2.6091 -0.0043 14.2152
#
#
#
# Elastic Compliance Matrix: (Units=1/GPa)
#
#
# Indices 1 2 3 4 5 6 
#
# 1 0.008839 -0.000207 -0.001252 0.000012 0.005899 0.000004
# 2 -0.000207 0.011235 -0.007698 0.000005 0.002572 0.000001
# 3 -0.001252 -0.007698 0.027936 -0.000021 0.002004 0.000010
# 4 0.000012 0.000005 -0.000021 0.042676 0.000006 0.007833
# 5 0.005899 0.002572 0.002004 0.000006 0.056052 0.000020
# 6 0.000004 0.000001 0.000010 0.007833 0.000020 0.071785
#
#
# Mechanical properties :
#
#
# Convention : Reuss Voigt Hill
#
# Bulk Modulus (GPa) = 33.67374 43.52906 38.60140
# Shear Modulus (GPa) = 20.26442 26.79667 23.53055
#
# Velocity S-wave (km/s) = 3.14518 3.61675 3.38918
# Velocity P-wave (km/s) = 5.44311 6.22013 5.84455
#
# Compressibility (1/GPa) = 0.02969673
#
# Stress axis : x y z
#
# Youngs Moduli (GPa) = 113.13080 89.00373 35.79557
#
# Poissons Ratio (x) = 0.01844 0.04483
# Poissons Ratio (y) = 0.02344 0.27554
# Poissons Ratio (z) = 0.14170 0.68511
#
# Static dielectric constant tensor:
#      x y z
#    x 3.679720 0.000010 0.130790 
#    y 0.000010 3.797090 0.000050 
#    z 0.130790 0.000050 3.913850 
# 
# 
# High freq. dielectric constant tensor:
#      x y z
#    x 1.801940 0.000000 -0.005490 
#    y 0.000000 1.789060 0.000000 
#    z -0.005490 0.000000 1.791980 
# 
# From -- ./inp_files/37964.got.cif
#   From: 2010.06.25/outbox.cif.g09.slc.cpg/sg15_19_cif.got.tgz:37964.got - 2010.06.28 07:06:18.
