data_PCOD8135555
_publ_section_title
;
Structure prediction by ZEFSAII (Michael W. Deem and Ramdas Pophale) SiO2 
 PCOD8135555
Probable space group: C 2/C
;
_chemical_formula_sum "Si O2"
_cell_formula_units_Z 36
_cell_length_a 10.093073
_cell_length_b 10.417850
_cell_length_c 20.291832
_cell_angle_alpha 90.000000
_cell_angle_beta 124.329593
_cell_angle_gamma 90.000000
_cell_volume 1761.981720
_symmetry_space_group_name_H-M "C 2/C"
_symmetry_group_IT_number 15
_symmetry_cell_setting 'monoclinic'
loop_
_space_group_symop_operation_xyz
x,y,z
-x,y,1/2-z
-x,-y,-z
x,-y,1/2+z
1/2+x,1/2+y,z
1/2-x,1/2+y,1/2-z
1/2-x,1/2-y,-z
1/2+x,1/2-y,1/2+z
loop_
_atom_site_type_symbol
_atom_site_label
_atom_site_fract_x
_atom_site_fract_y
_atom_site_fract_z
Si Si1 0.723243 0.991845 0.509831
Si Si2 0.289596 0.395145 0.389335
Si Si3 0.034904 0.706160 0.520234
Si Si4 0.500000 0.252724 0.750000
Si Si5 0.556521 0.393831 0.642282
O O1 0.680129 0.136694 0.521125
O O2 0.776145 0.990926 0.448178
O O3 0.570151 0.902285 0.474364
O O4 0.868289 0.930329 0.591892
O O5 0.427715 0.289704 0.440103
O O6 0.119513 0.331994 0.326997
O O7 0.339822 0.478391 0.340206
O O8 0.102636 0.792762 0.598226
O O9 0.600974 0.338764 0.726640
#
# Coordination Sequence:
#
# PCOD8135555 Si02
#       5
#     8   8   8   4   8
#     4  10  19  38  67  91 113 148 195 246 293 340
#     4  11  23  39  61  86 118 157 192 241 294 338
#     4  10  19  38  67  91 113 148 195 246 293 340
#     4  12  24  42  52  84 128 158 196 232 280 362
#     4  11  23  39  61  86 118 157 192 241 294 338
#
# _framework density 20.431540999999999
#
# number of rings (size 3 to 8) (size 9 to 14) (size 15 to 20)
#    0.000    1.333    4.444    4.000    0.000    7.111 
#    0.000    0.000    0.000    0.000    0.000    0.000 
#    0.000    0.000    0.000    0.000    0.000    0.000 
#
# Total GULP energy -223223.256515 kJ/mol
# GULP energy per Si atom -12401.292029 kJ/mol
# Density = 2.038504 g / cm^3
# Si number density = 20.431541 Si / 1000 Ang^3
#
#
#
# Elastic Constant Matrix: (Units=GPa)
#
#
# Indices 1 2 3 4 5 6 
#
# 1 56.7450 43.2217 20.3537 0.0000 -11.0550 0.0000
# 2 43.2217 102.9716 29.2243 0.0000 -19.2747 0.0000
# 3 20.3537 29.2243 74.4396 0.0000 -16.1709 0.0000
# 4 0.0000 0.0000 0.0000 13.2161 0.0000 -13.0725
# 5 -11.0550 -19.2747 -16.1709 0.0000 19.5474 0.0000
# 6 0.0000 0.0000 0.0000 -13.0725 0.0000 46.5354
#
#
#
# Elastic Compliance Matrix: (Units=1/GPa)
#
#
# Indices 1 2 3 4 5 6 
#
# 1 0.026723 -0.009849 -0.002763 0.000000 0.003115 0.000000
# 2 -0.009849 0.015964 -0.001664 0.000000 0.008795 0.000000
# 3 -0.002763 -0.001664 0.017246 0.000000 0.011064 0.000000
# 4 0.000000 0.000000 0.000000 0.104779 0.000000 0.029434
# 5 0.003115 0.008795 0.011064 0.000000 0.070744 0.000000
# 6 0.000000 0.000000 0.000000 0.029434 0.000000 0.029758
#
#
# Mechanical properties :
#
#
# Convention : Reuss Voigt Hill
#
# Bulk Modulus (GPa) = 31.86740 46.63950 39.25345
# Shear Modulus (GPa) = 16.43512 25.28355 20.85934
#
# Velocity S-wave (km/s) = 2.83927 3.52159 3.19868
# Velocity P-wave (km/s) = 5.13611 6.27792 5.73550
#
# Compressibility (1/GPa) = 0.03138003
#
# Stress axis : x y z
#
# Youngs Moduli (GPa) = 37.42117 62.64064 57.98501
#
# Poissons Ratio (x) = 0.61697 0.16022
# Poissons Ratio (y) = 0.36858 0.09647
# Poissons Ratio (z) = 0.10340 0.10422
#
# Static dielectric constant tensor:
#      x y z
#    x 3.735720 0.000000 -0.172430 
#    y 0.000000 3.910230 0.000000 
#    z -0.172430 0.000000 3.529990 
# 
# 
# High freq. dielectric constant tensor:
#      x y z
#    x 1.800010 0.000000 -0.014120 
#    y 0.000000 1.810400 0.000000 
#    z -0.014120 0.000000 1.770000 
# 
# From -- ./inp_files/181869.got.cif
#   From: 2010.06.25/outbox.cif.g09.slc.cpg/sg15_91_cif.got.tgz:181869.got - 2010.06.28 07:06:18.
