data_PCOD8135824
_publ_section_title
;
Structure prediction by ZEFSAII (Michael W. Deem and Ramdas Pophale) SiO2 
 PCOD8135824
Probable space group: C 2/C
;
_chemical_formula_sum "Si O2"
_cell_formula_units_Z 56
_cell_length_a 11.025656
_cell_length_b 11.163245
_cell_length_c 22.612689
_cell_angle_alpha 90.000000
_cell_angle_beta 73.170531
_cell_angle_gamma 90.000000
_cell_volume 2664.014021
_symmetry_space_group_name_H-M "C 2/C"
_symmetry_group_IT_number 15
_symmetry_cell_setting 'monoclinic'
loop_
_space_group_symop_operation_xyz
x,y,z
-x,y,1/2-z
-x,-y,-z
x,-y,1/2+z
1/2+x,1/2+y,z
1/2-x,1/2+y,1/2-z
1/2-x,1/2-y,-z
1/2+x,1/2-y,1/2+z
loop_
_atom_site_type_symbol
_atom_site_label
_atom_site_fract_x
_atom_site_fract_y
_atom_site_fract_z
Si Si1 0.943116 0.973617 0.390789
Si Si2 0.207233 0.177797 0.669304
Si Si3 0.318977 0.637651 0.695583
Si Si4 0.504607 0.839963 0.844382
Si Si5 0.401184 0.743407 0.974273
Si Si6 0.469397 0.265930 0.594534
Si Si7 0.059197 0.598416 0.681817
O O1 0.815523 0.936039 0.371988
O O2 0.945246 0.889840 0.448560
O O3 0.061877 0.948256 0.331253
O O4 0.953799 0.110573 0.408290
O O5 0.232008 0.125021 0.730505
O O6 0.083677 0.261349 0.686534
O O7 0.322223 0.264604 0.634046
O O8 0.356850 0.776621 0.676208
O O9 0.209858 0.590141 0.667584
O O10 0.447507 0.839445 0.918928
O O11 0.511572 0.972573 0.817994
O O12 0.250000 0.750000 0.000000
O O13 0.472595 0.772138 0.025380
O O14 0.541275 0.172107 0.624884
O O15 0.000000 0.657672 0.750000
#
# Coordination Sequence:
#
# PCOD8135824 Si02
#       7
#     8   8   8   8   8   8   8
#     4  10  22  38  68  92 119 166 215 266 314 376
#     4  10  19  40  63  90 122 164 213 262 313 382
#     4  10  21  41  61  91 127 163 215 254 321 385
#     4  10  22  41  66  88 120 171 213 261 312 380
#     4  10  20  43  68  89 118 165 223 260 315 376
#     4  12  23  39  61  97 128 157 209 269 317 376
#     4  12  25  40  60  96 133 166 201 256 330 387
#
# _framework density 21.020910000000001
#
# number of rings (size 3 to 8) (size 9 to 14) (size 15 to 20)
#    0.000    1.714    4.286    3.857    0.000    2.857 
#    2.571    2.857    0.000    0.000    0.000    0.000 
#    0.000    0.000    0.000    0.000    0.000    0.000 
#
# Total GULP energy -347062.059671 kJ/mol
# GULP energy per Si atom -12395.073560 kJ/mol
# Density = 2.097307 g / cm^3
# Si number density = 21.020910 Si / 1000 Ang^3
#
#
#
# Elastic Constant Matrix: (Units=GPa)
#
#
# Indices 1 2 3 4 5 6 
#
# 1 63.3866 24.8696 23.5316 0.0000 14.0904 0.0000
# 2 24.8696 80.3144 17.8774 0.0000 20.1709 0.0000
# 3 23.5316 17.8774 121.7454 0.0000 26.6023 0.0000
# 4 0.0000 0.0000 0.0000 22.6268 0.0000 0.7859
# 5 14.0904 20.1709 26.6023 0.0000 37.7055 0.0000
# 6 0.0000 0.0000 0.0000 0.7859 0.0000 28.8282
#
#
#
# Elastic Compliance Matrix: (Units=1/GPa)
#
#
# Indices 1 2 3 4 5 6 
#
# 1 0.019144 -0.004649 -0.002362 0.000000 -0.003001 0.000000
# 2 -0.004649 0.015539 0.000063 0.000000 -0.006620 0.000000
# 3 -0.002362 0.000063 0.010020 0.000000 -0.006221 0.000000
# 4 0.000000 0.000000 0.000000 0.044237 0.000000 -0.001206
# 5 -0.003001 -0.006620 -0.006221 0.000000 0.035573 0.000000
# 6 0.000000 0.000000 0.000000 -0.001206 0.000000 0.034721
#
#
# Mechanical properties :
#
#
# Convention : Reuss Voigt Hill
#
# Bulk Modulus (GPa) = 32.45806 44.22261 38.34033
# Shear Modulus (GPa) = 27.26292 31.10996 29.18644
#
# Velocity S-wave (km/s) = 3.60522 3.85119 3.73023
# Velocity P-wave (km/s) = 5.72752 6.39208 6.06890
#
# Compressibility (1/GPa) = 0.03080899
#
# Stress axis : x y z
#
# Youngs Moduli (GPa) = 52.23582 64.35376 99.79632
#
# Poissons Ratio (x) = 0.29915 0.23571
# Poissons Ratio (y) = 0.24282 -0.00632
# Poissons Ratio (z) = 0.12338 -0.00407
#
# Static dielectric constant tensor:
#      x y z
#    x 3.888210 0.000000 0.148570 
#    y 0.000000 3.634660 0.000000 
#    z 0.148570 0.000000 3.954790 
# 
# 
# High freq. dielectric constant tensor:
#      x y z
#    x 1.820860 0.000000 0.007760 
#    y 0.000000 1.797570 0.000000 
#    z 0.007760 0.000000 1.833550 
# 
# From -- ./inp_files/236983.got.cif
#   From: 2010.06.25/outbox.cif.g09.slc.cpg/sg15_119_cif.got.tgz:236983.got - 2010.06.28 07:06:18.
