data_PCOD8135114
_publ_section_title
;
Structure prediction by ZEFSAII (Michael W. Deem and Ramdas Pophale) SiO2 
 PCOD8135114
Probable space group: C 2/C
;
_chemical_formula_sum "Si O2"
_cell_formula_units_Z 64
_cell_length_a 18.933151
_cell_length_b 13.762308
_cell_length_c 13.956949
_cell_angle_alpha 90.000000
_cell_angle_beta 121.107864
_cell_angle_gamma 90.000000
_cell_volume 3113.708481
_symmetry_space_group_name_H-M "C 2/C"
_symmetry_group_IT_number 15
_symmetry_cell_setting 'monoclinic'
loop_
_space_group_symop_operation_xyz
x,y,z
-x,y,1/2-z
-x,-y,-z
x,-y,1/2+z
1/2+x,1/2+y,z
1/2-x,1/2+y,1/2-z
1/2-x,1/2-y,-z
1/2+x,1/2-y,1/2+z
loop_
_atom_site_type_symbol
_atom_site_label
_atom_site_fract_x
_atom_site_fract_y
_atom_site_fract_z
Si Si1 0.496888 0.113814 0.015445
Si Si2 0.417006 0.809224 0.744036
Si Si3 0.351941 0.070471 0.035571
Si Si4 0.917341 0.006849 0.563170
Si Si5 0.902807 0.171287 0.175397
Si Si6 0.170980 0.883432 0.343069
Si Si7 0.608023 0.465026 0.667451
Si Si8 0.568470 0.870291 0.373126
O O1 0.565407 0.151643 0.137558
O O2 0.405534 0.131351 0.994806
O O3 0.515349 0.168169 0.928073
O O4 0.500000 0.000000 0.000000
O O5 0.500000 0.771526 0.750000
O O6 0.377809 0.898756 0.659845
O O7 0.347301 0.726227 0.700677
O O8 0.369222 0.954381 0.047128
O O9 0.258764 0.100133 0.953098
O O10 0.878021 0.904962 0.573849
O O11 0.014869 0.997923 0.622423
O O12 0.898902 0.088076 0.628924
O O13 0.876765 0.043866 0.435250
O O14 0.870219 0.133270 0.256728
O O15 0.875010 0.281342 0.128885
O O16 0.000000 0.179523 0.250000
O O17 0.167242 0.949595 0.245827
O O18 0.500000 0.909727 0.250000
#
# Coordination Sequence:
#
# PCOD8135114 Si02
#       8
#     8   8   8   8   8   8   8   8
#     4   9  19  37  62  87 110 156 209 243 289 362
#     4  10  20  37  62  86 112 154 201 244 295 358
#     4  10  21  38  56  84 125 151 192 255 307 354
#     4   9  18  35  57  81 118 157 199 249 297 355
#     4   8  16  31  55  85 110 143 197 247 287 348
#     4  11  21  36  57  88 119 155 193 251 312 361
#     4   9  18  35  56  81 119 154 202 247 296 360
#     4  10  19  37  62  86 114 159 201 247 297 357
#
# _framework density 20.554269000000001
#
# number of rings (size 3 to 8) (size 9 to 14) (size 15 to 20)
#    0.000    2.500    0.000    4.125    1.750    0.000 
#   18.000    2.500    0.000    0.000    0.000    0.000 
#    0.000    0.000    0.000    0.000    0.000    0.000 
#
# Total GULP energy -396531.806778 kJ/mol
# GULP energy per Si atom -12391.618962 kJ/mol
# Density = 2.050749 g / cm^3
# Si number density = 20.554269 Si / 1000 Ang^3
#
#
#
# Elastic Constant Matrix: (Units=GPa)
#
#
# Indices 1 2 3 4 5 6 
#
# 1 32.3922 22.6592 37.8500 0.0000 -4.5980 0.0000
# 2 22.6592 113.0585 38.8722 0.0000 -2.4601 0.0000
# 3 37.8500 38.8722 116.1939 0.0000 -17.6138 0.0000
# 4 0.0000 0.0000 0.0000 35.2473 0.0000 3.4960
# 5 -4.5980 -2.4601 -17.6138 0.0000 30.9031 0.0000
# 6 0.0000 0.0000 0.0000 3.4960 0.0000 10.1084
#
#
#
# Elastic Compliance Matrix: (Units=1/GPa)
#
#
# Indices 1 2 3 4 5 6 
#
# 1 0.052518 -0.005196 -0.015595 0.000000 -0.001488 0.000000
# 2 -0.005196 0.010551 -0.002000 0.000000 -0.001073 0.000000
# 3 -0.015595 -0.002000 0.015301 0.000000 0.006242 0.000000
# 4 0.000000 0.000000 0.000000 0.029379 0.000000 -0.010161
# 5 -0.001488 -0.001073 0.006242 0.000000 0.035610 0.000000
# 6 0.000000 0.000000 0.000000 -0.010161 0.000000 0.102442
#
#
# Mechanical properties :
#
#
# Convention : Reuss Voigt Hill
#
# Bulk Modulus (GPa) = 30.49853 51.15637 40.82745
# Shear Modulus (GPa) = 16.53929 26.06932 21.30430
#
# Velocity S-wave (km/s) = 2.83974 3.56521 3.22295
# Velocity P-wave (km/s) = 5.06186 6.47225 5.81001
#
# Compressibility (1/GPa) = 0.03278847
#
# Stress axis : x y z
#
# Youngs Moduli (GPa) = 19.04124 94.78156 65.35319
#
# Poissons Ratio (x) = 0.49250 1.01917
# Poissons Ratio (y) = 0.09894 0.13069
# Poissons Ratio (z) = 0.29694 0.18953
#
# Static dielectric constant tensor:
#      x y z
#    x 3.631250 0.000000 -0.356000 
#    y 0.000000 3.945880 0.000000 
#    z -0.356000 0.000000 3.945790 
# 
# 
# High freq. dielectric constant tensor:
#      x y z
#    x 1.766940 0.000000 -0.019170 
#    y 0.000000 1.799640 0.000000 
#    z -0.019170 0.000000 1.807990 
# 
# From -- ./inp_files/162283.got.cif
#   From: 2010.06.25/outbox.cif.g09.slc.cpg/sg15_82_cif.got.tgz:162283.got - 2010.06.28 07:06:18.
