data_PCOD8135116
_publ_section_title
;
Structure prediction by ZEFSAII (Michael W. Deem and Ramdas Pophale) SiO2 
 PCOD8135116
Probable space group: C 2/C
;
_chemical_formula_sum "Si O2"
_cell_formula_units_Z 60
_cell_length_a 8.713777
_cell_length_b 22.442234
_cell_length_c 16.296047
_cell_angle_alpha 90.000000
_cell_angle_beta 115.888502
_cell_angle_gamma 90.000000
_cell_volume 2866.989936
_symmetry_space_group_name_H-M "C 2/C"
_symmetry_group_IT_number 15
_symmetry_cell_setting 'monoclinic'
loop_
_space_group_symop_operation_xyz
x,y,z
-x,y,1/2-z
-x,-y,-z
x,-y,1/2+z
1/2+x,1/2+y,z
1/2-x,1/2+y,1/2-z
1/2-x,1/2-y,-z
1/2+x,1/2-y,1/2+z
loop_
_atom_site_type_symbol
_atom_site_label
_atom_site_fract_x
_atom_site_fract_y
_atom_site_fract_z
Si Si1 0.483715 0.801937 0.066884
Si Si2 0.553110 0.068411 0.595717
Si Si3 0.771812 0.785510 0.630743
Si Si4 0.350517 0.418773 0.277514
Si Si5 0.067384 0.031705 0.118847
Si Si6 0.681358 0.286402 0.262518
Si Si7 0.263580 0.021717 0.010166
Si Si8 0.500000 0.612751 0.250000
O O1 0.442143 0.871188 0.073546
O O2 0.389586 0.759959 0.108966
O O3 0.688329 0.793367 0.129303
O O4 0.412117 0.789628 0.958152
O O5 0.666627 0.063046 0.702327
O O6 0.436592 0.010971 0.574619
O O7 0.681315 0.069336 0.546505
O O8 0.753439 0.762213 0.718080
O O9 0.866178 0.848856 0.664723
O O10 0.500000 0.435545 0.250000
O O11 0.378888 0.461405 0.362061
O O12 0.349373 0.348043 0.294892
O O13 0.100991 0.071114 0.207981
O O14 0.179027 0.056501 0.068210
O O15 0.865697 0.029290 0.053120
O O16 0.500000 0.262309 0.250000
#
# Coordination Sequence:
#
# PCOD8135116 Si02
#       8
#     8   8   8   8   8   8   8   4
#     4  10  22  41  65  91 121 171 214 260 321 376
#     4  10  20  39  62  90 129 154 206 276 304 373
#     4  11  23  43  64  91 125 172 219 256 320 389
#     4  10  19  37  62  87 120 164 203 254 318 368
#     4  11  22  39  62  91 127 175 204 252 326 393
#     4  10  22  41  65  94 124 158 214 272 315 373
#     4  10  22  38  60  96 125 161 215 257 327 379
#     4  12  22  42  66  88 138 176 212 266 316 392
#
# _framework density 20.927873000000002
#
# number of rings (size 3 to 8) (size 9 to 14) (size 15 to 20)
#    0.000    1.600    3.333    0.800    1.867    2.133 
#    4.800    0.000    0.000    0.000    0.000    0.000 
#    0.000    0.000    0.000    0.000    0.000    0.000 
#
# Total GULP energy -371799.222515 kJ/mol
# GULP energy per Si atom -12393.307417 kJ/mol
# Density = 2.088024 g / cm^3
# Si number density = 20.927873 Si / 1000 Ang^3
#
#
#
# Elastic Constant Matrix: (Units=GPa)
#
#
# Indices 1 2 3 4 5 6 
#
# 1 71.5885 21.7077 32.5319 0.0000 -0.1488 0.0000
# 2 21.7077 69.6796 19.0927 0.0000 -5.9577 0.0000
# 3 32.5319 19.0927 91.4563 0.0000 7.3141 0.0000
# 4 0.0000 0.0000 0.0000 26.6984 0.0000 -1.3202
# 5 -0.1488 -5.9577 7.3141 0.0000 32.3860 0.0000
# 6 0.0000 0.0000 0.0000 -1.3202 0.0000 23.5641
#
#
#
# Elastic Compliance Matrix: (Units=1/GPa)
#
#
# Indices 1 2 3 4 5 6 
#
# 1 0.017670 -0.003944 -0.005510 0.000000 0.000600 0.000000
# 2 -0.003944 0.016522 -0.002330 0.000000 0.003547 0.000000
# 3 -0.005510 -0.002330 0.013664 0.000000 -0.003540 0.000000
# 4 0.000000 0.000000 0.000000 0.037560 0.000000 0.002104
# 5 0.000600 0.003547 -0.003540 0.000000 0.032332 0.000000
# 6 0.000000 0.000000 0.000000 0.002104 0.000000 0.042555
#
#
# Mechanical properties :
#
#
# Convention : Reuss Voigt Hill
#
# Bulk Modulus (GPa) = 41.17302 42.15433 41.66367
# Shear Modulus (GPa) = 26.04635 27.15584 26.60109
#
# Velocity S-wave (km/s) = 3.53168 3.60612 3.56909
# Velocity P-wave (km/s) = 6.02884 6.12578 6.07750
#
# Compressibility (1/GPa) = 0.02428775
#
# Stress axis : x y z
#
# Youngs Moduli (GPa) = 56.59404 60.52622 73.18687
#
# Poissons Ratio (x) = 0.23869 0.40326
# Poissons Ratio (y) = 0.22319 0.17053
# Poissons Ratio (z) = 0.31183 0.14103
#
# Static dielectric constant tensor:
#      x y z
#    x 3.762090 0.000000 0.184350 
#    y 0.000000 3.685460 0.000000 
#    z 0.184350 0.000000 3.950220 
# 
# 
# High freq. dielectric constant tensor:
#      x y z
#    x 1.809480 0.000000 0.015810 
#    y 0.000000 1.807390 0.000000 
#    z 0.015810 0.000000 1.826240 
# 
# From -- ./inp_files/192573.got.cif
#   From: 2010.06.25/outbox.cif.g09.slc.cpg/sg15_97_cif.got.tgz:192573.got - 2010.06.28 07:06:18.
