data_PCOD8135782
_publ_section_title
;
Structure prediction by ZEFSAII (Michael W. Deem and Ramdas Pophale) SiO2 
 PCOD8135782
Probable space group: C 2/C
;
_chemical_formula_sum "Si O2"
_cell_formula_units_Z 44
_cell_length_a 25.578484
_cell_length_b 10.742416
_cell_length_c 14.137557
_cell_angle_alpha 90.000000
_cell_angle_beta 32.792528
_cell_angle_gamma 90.000000
_cell_volume 2103.917270
_symmetry_space_group_name_H-M "C 2/C"
_symmetry_group_IT_number 15
_symmetry_cell_setting 'monoclinic'
loop_
_space_group_symop_operation_xyz
x,y,z
-x,y,1/2-z
-x,-y,-z
x,-y,1/2+z
1/2+x,1/2+y,z
1/2-x,1/2+y,1/2-z
1/2-x,1/2-y,-z
1/2+x,1/2-y,1/2+z
loop_
_atom_site_type_symbol
_atom_site_label
_atom_site_fract_x
_atom_site_fract_y
_atom_site_fract_z
Si Si1 0.331677 0.699099 0.809684
Si Si2 0.585134 0.959184 0.805632
Si Si3 0.182697 0.738008 0.892056
Si Si4 0.244575 0.339539 0.097441
Si Si5 0.610191 0.461743 0.113269
Si Si6 0.500000 0.099140 0.250000
O O1 0.405298 0.813025 0.684114
O O2 0.274582 0.663810 0.799609
O O3 0.383546 0.585267 0.785928
O O4 0.250000 0.750000 0.000000
O O5 0.555943 0.983982 0.741032
O O6 0.680678 0.038167 0.676285
O O7 0.500000 0.000000 0.000000
O O8 0.202548 0.737775 0.749874
O O9 0.176368 0.878410 0.941783
O O10 0.078763 0.680603 0.074476
O O11 0.250000 0.250000 0.000000
O O12 0.351016 0.396670 0.953188
O O13 0.500000 0.461104 0.250000
#
# Coordination Sequence:
#
# PCOD8135782 Si02
#       6
#     8   8   8   8   8   4
#     4  10  19  39  70  97 128 173 227 270 332 395
#     4  12  23  40  69 103 134 173 229 284 326 401
#     4  11  21  41  72  99 132 179 229 276 331 408
#     4  12  28  46  63 102 147 173 220 290 350 395
#     4  11  22  46  72  98 134 179 233 278 336 419
#     4  12  20  38  76 100 124 182 240 270 326 400
#
# _framework density 20.913368999999999
#
# number of rings (size 3 to 8) (size 9 to 14) (size 15 to 20)
#    0.000    0.727   10.000    0.000    0.000    4.364 
#    4.909    1.818    0.000    0.000    0.000    0.000 
#    0.000    0.000    0.000    0.000    0.000    0.000 
#
# Total GULP energy -272650.345115 kJ/mol
# GULP energy per Si atom -12393.197505 kJ/mol
# Density = 2.086577 g / cm^3
# Si number density = 20.913369 Si / 1000 Ang^3
#
#
#
# Elastic Constant Matrix: (Units=GPa)
#
#
# Indices 1 2 3 4 5 6 
#
# 1 135.9244 26.9635 52.3921 0.0000 4.5184 0.0000
# 2 26.9635 79.3953 44.8582 0.0000 4.3667 0.0000
# 3 52.3921 44.8582 118.7885 0.0000 14.8919 0.0000
# 4 0.0000 0.0000 0.0000 25.5247 0.0000 0.2837
# 5 4.5184 4.3667 14.8919 0.0000 42.0882 0.0000
# 6 0.0000 0.0000 0.0000 0.2837 0.0000 35.6814
#
#
#
# Elastic Compliance Matrix: (Units=1/GPa)
#
#
# Indices 1 2 3 4 5 6 
#
# 1 0.008936 -0.001019 -0.003610 0.000000 0.000424 0.000000
# 2 -0.001019 0.016138 -0.005701 0.000000 0.000452 0.000000
# 3 -0.003610 -0.005701 0.012600 0.000000 -0.003479 0.000000
# 4 0.000000 0.000000 0.000000 0.039181 0.000000 -0.000312
# 5 0.000424 0.000452 -0.003479 0.000000 0.024898 0.000000
# 6 0.000000 0.000000 0.000000 -0.000312 0.000000 0.028028
#
#
# Mechanical properties :
#
#
# Convention : Reuss Voigt Hill
#
# Bulk Modulus (GPa) = 58.77620 64.72621 61.75120
# Shear Modulus (GPa) = 32.02815 34.65181 33.33998
#
# Velocity S-wave (km/s) = 3.91764 4.07495 3.99707
# Velocity P-wave (km/s) = 6.97349 7.29089 7.13396
#
# Compressibility (1/GPa) = 0.01701369
#
# Stress axis : x y z
#
# Youngs Moduli (GPa) = 111.90124 61.96712 79.36706
#
# Poissons Ratio (x) = 0.06312 0.28651
# Poissons Ratio (y) = 0.11399 0.45251
# Poissons Ratio (z) = 0.40395 0.35331
#
# Static dielectric constant tensor:
#      x y z
#    x 4.943330 0.000000 0.149270 
#    y 0.000000 3.421850 0.000000 
#    z 0.149270 0.000000 3.701960 
# 
# 
# High freq. dielectric constant tensor:
#      x y z
#    x 1.843220 0.000000 -0.009090 
#    y 0.000000 1.789240 0.000000 
#    z -0.009090 0.000000 1.807410 
# 
# From -- ./inp_files/117881.got.cif
#   From: 2010.06.25/outbox.cif.g09.slc.cpg/sg15_59_cif.got.tgz:117881.got - 2010.06.28 07:06:18.
