data_PCOD8135060
_publ_section_title
;
Structure prediction by ZEFSAII (Michael W. Deem and Ramdas Pophale) SiO2 
 PCOD8135060
Probable space group: C 2/C
;
_chemical_formula_sum "Si O2"
_cell_formula_units_Z 52
_cell_length_a 16.903898
_cell_length_b 15.345525
_cell_length_c 11.455210
_cell_angle_alpha 90.000000
_cell_angle_beta 118.492270
_cell_angle_gamma 90.000000
_cell_volume 2611.571874
_symmetry_space_group_name_H-M "C 2/C"
_symmetry_group_IT_number 15
_symmetry_cell_setting 'monoclinic'
loop_
_space_group_symop_operation_xyz
x,y,z
-x,y,1/2-z
-x,-y,-z
x,-y,1/2+z
1/2+x,1/2+y,z
1/2-x,1/2+y,1/2-z
1/2-x,1/2-y,-z
1/2+x,1/2-y,1/2+z
loop_
_atom_site_type_symbol
_atom_site_label
_atom_site_fract_x
_atom_site_fract_y
_atom_site_fract_z
Si Si1 0.093804 0.302776 0.247274
Si Si2 0.131336 0.725130 0.514805
Si Si3 0.000000 0.181961 0.750000
Si Si4 0.758180 0.884246 0.957576
Si Si5 0.253583 0.428356 0.385302
Si Si6 0.362889 0.434230 0.245802
Si Si7 0.892937 0.887657 0.685686
O O1 0.082243 0.308596 0.098395
O O2 0.163543 0.373615 0.347924
O O3 0.137395 0.208068 0.297988
O O4 0.000000 0.316479 0.250000
O O5 0.062519 0.754944 0.368097
O O6 0.205191 0.802364 0.593342
O O7 0.178632 0.642634 0.488668
O O8 0.954503 0.121370 0.819219
O O9 0.839407 0.916935 0.094959
O O10 0.727351 0.968792 0.861779
O O11 0.288882 0.398791 0.283317
O O12 0.335922 0.409113 0.530157
O O13 0.373835 0.538749 0.271035
O O14 0.000000 0.887887 0.750000
#
# Coordination Sequence:
#
# PCOD8135060 Si02
#       7
#     8   8   4   8   8   8   8
#     4  11  24  41  60  88 129 169 210 254 302 368
#     4  10  20  42  62  91 123 157 211 260 308 369
#     4  10  22  34  64  96 120 160 202 260 314 364
#     4   9  20  39  64  86 117 162 206 252 309 364
#     4  11  22  39  62  86 126 166 205 254 308 369
#     4  10  19  37  60  91 121 154 201 254 313 369
#     4  10  22  37  58  93 123 158 201 245 319 373
#
# _framework density 19.911380000000001
#
# number of rings (size 3 to 8) (size 9 to 14) (size 15 to 20)
#    0.000    1.846    2.308    1.385    4.308    0.615 
#    1.385    2.308    0.000    0.000    0.000    0.000 
#    0.000    0.000    0.000    0.000    0.000    0.000 
#
# Total GULP energy -322132.876991 kJ/mol
# GULP energy per Si atom -12389.726038 kJ/mol
# Density = 1.986606 g / cm^3
# Si number density = 19.911380 Si / 1000 Ang^3
#
#
#
# Elastic Constant Matrix: (Units=GPa)
#
#
# Indices 1 2 3 4 5 6 
#
# 1 127.0204 46.8247 35.0780 0.0000 -12.4994 0.0000
# 2 46.8247 95.5010 22.8367 0.0000 11.1833 0.0000
# 3 35.0780 22.8367 66.6667 0.0000 0.4290 0.0000
# 4 0.0000 0.0000 0.0000 -1.3667 0.0000 -15.5982
# 5 -12.4994 11.1833 0.4290 0.0000 29.6654 0.0000
# 6 0.0000 0.0000 0.0000 -15.5982 0.0000 11.0273
#
#
#
# Elastic Compliance Matrix: (Units=1/GPa)
#
#
# Indices 1 2 3 4 5 6 
#
# 1 0.011849 -0.005607 -0.004360 0.000000 0.007169 0.000000
# 2 -0.005607 0.014619 -0.002007 0.000000 -0.007844 0.000000
# 3 -0.004360 -0.002007 0.017990 0.000000 -0.001341 0.000000
# 4 0.000000 0.000000 0.000000 -0.042679 0.000000 -0.060370
# 5 0.007169 -0.007844 -0.001341 0.000000 0.039707 0.000000
# 6 0.000000 0.000000 0.000000 -0.060370 0.000000 0.005290
#
#
# Mechanical properties :
#
#
# Convention : Reuss Voigt Hill
#
# Bulk Modulus (GPa) = 48.75621 55.40743 52.08182
# Shear Modulus (GPa) = 64.46641 20.16178 42.31409
#
# Velocity S-wave (km/s) = 5.69622 3.18555 4.61490
# Velocity P-wave (km/s) = 8.23422 6.43566 7.38986
#
# Compressibility (1/GPa) = 0.02051021
#
# Stress axis : x y z
#
# Youngs Moduli (GPa) = 84.39401 68.40614 55.58522
#
# Poissons Ratio (x) = 0.38353 0.24237
# Poissons Ratio (y) = 0.47316 0.11157
# Poissons Ratio (z) = 0.36798 0.13730
#
# Static dielectric constant tensor:
#      x y z
#    x 3.489550 0.000000 -0.014250 
#    y 0.000000 3.973270 0.000000 
#    z -0.014250 0.000000 3.344960 
# 
# 
# High freq. dielectric constant tensor:
#      x y z
#    x 1.772560 0.000000 -0.005390 
#    y 0.000000 1.787670 0.000000 
#    z -0.005390 0.000000 1.755430 
# 
# From -- ./inp_files/97102.got.cif
#   From: 2010.06.25/outbox.cif.g09.slc.cpg/sg15_49_cif.got.tgz:97102.got - 2010.06.28 07:06:18.
