data_PCOD8135003
_publ_section_title
;
Structure prediction by ZEFSAII (Michael W. Deem and Ramdas Pophale) SiO2 
 PCOD8135003
Probable space group: C 2/C
;
_chemical_formula_sum "Si O2"
_cell_formula_units_Z 56
_cell_length_a 11.858993
_cell_length_b 22.021689
_cell_length_c 10.056972
_cell_angle_alpha 90.000000
_cell_angle_beta 78.509495
_cell_angle_gamma 90.000000
_cell_volume 2573.789483
_symmetry_space_group_name_H-M "C 2/C"
_symmetry_group_IT_number 15
_symmetry_cell_setting 'monoclinic'
loop_
_space_group_symop_operation_xyz
x,y,z
-x,y,1/2-z
-x,-y,-z
x,-y,1/2+z
1/2+x,1/2+y,z
1/2-x,1/2+y,1/2-z
1/2-x,1/2-y,-z
1/2+x,1/2-y,1/2+z
loop_
_atom_site_type_symbol
_atom_site_label
_atom_site_fract_x
_atom_site_fract_y
_atom_site_fract_z
Si Si1 0.340480 0.063447 0.115341
Si Si2 0.475019 0.834380 0.927667
Si Si3 0.832429 0.335347 0.229158
Si Si4 0.121674 0.858202 0.709393
Si Si5 0.273967 0.775598 0.849255
Si Si6 0.368434 0.960441 0.313653
Si Si7 0.382356 0.244785 0.944381
O O1 0.222351 0.100342 0.128129
O O2 0.325579 0.018833 0.243388
O O3 0.452389 0.104819 0.117192
O O4 0.356337 0.026500 0.973954
O O5 0.394811 0.844165 0.074251
O O6 0.558221 0.776886 0.933431
O O7 0.393428 0.815173 0.820511
O O8 0.727260 0.285821 0.241010
O O9 0.791807 0.401855 0.288806
O O10 0.911986 0.307516 0.328006
O O11 0.171842 0.820828 0.824757
O O12 0.074728 0.810272 0.611078
O O13 0.000000 0.895575 0.750000
O O14 0.250000 0.750000 0.000000
O O15 0.500000 0.944590 0.250000
O O16 0.250000 0.250000 0.000000
#
# Coordination Sequence:
#
# PCOD8135003 Si02
#       7
#     8   8   8   8   8   8   8
#     4  12  27  42  69 104 139 185 242 295 354 423
#     4  11  20  38  62  98 137 166 224 286 356 412
#     4  10  19  37  59  89 134 179 217 266 351 420
#     4  11  23  42  66  95 135 186 232 283 354 430
#     4   9  21  35  63  99 134 178 211 286 351 409
#     4  12  24  43  67 102 138 182 231 296 354 417
#     4  11  18  35  63  94 131 173 221 271 350 434
#
# _framework density 21.757802999999999
#
# number of rings (size 3 to 8) (size 9 to 14) (size 15 to 20)
#    0.000    1.143    4.286    3.429    2.000    1.714 
#    0.000    0.714    0.000    1.714    0.000    0.000 
#    0.000    0.000    0.000    0.000    0.000    0.000 
#
# Total GULP energy -346912.776007 kJ/mol
# GULP energy per Si atom -12389.742000 kJ/mol
# Density = 2.170828 g / cm^3
# Si number density = 21.757803 Si / 1000 Ang^3
#
#
#
# Elastic Constant Matrix: (Units=GPa)
#
#
# Indices 1 2 3 4 5 6 
#
# 1 128.2609 44.0921 32.9516 0.0000 10.7965 0.0000
# 2 44.0921 117.8781 41.1772 0.0000 11.0765 0.0000
# 3 32.9516 41.1772 99.0036 0.0000 17.4980 0.0000
# 4 0.0000 0.0000 0.0000 28.7512 0.0000 -0.5723
# 5 10.7965 11.0765 17.4980 0.0000 33.7496 0.0000
# 6 0.0000 0.0000 0.0000 -0.5723 0.0000 17.4790
#
#
#
# Elastic Compliance Matrix: (Units=1/GPa)
#
#
# Indices 1 2 3 4 5 6 
#
# 1 0.009289 -0.002758 -0.001739 0.000000 -0.001165 0.000000
# 2 -0.002758 0.010791 -0.003413 0.000000 -0.000890 0.000000
# 3 -0.001739 -0.003413 0.012993 0.000000 -0.005060 0.000000
# 4 0.000000 0.000000 0.000000 0.034804 0.000000 0.001140
# 5 -0.001165 -0.000890 -0.005060 0.000000 0.032918 0.000000
# 6 0.000000 0.000000 0.000000 0.001140 0.000000 0.057249
#
#
# Mechanical properties :
#
#
# Convention : Reuss Voigt Hill
#
# Bulk Modulus (GPa) = 57.95686 64.62047 61.28867
# Shear Modulus (GPa) = 27.83733 31.12407 29.48070
#
# Velocity S-wave (km/s) = 3.58078 3.78627 3.68496
# Velocity P-wave (km/s) = 6.61748 6.99134 6.80698
#
# Compressibility (1/GPa) = 0.01725421
#
# Stress axis : x y z
#
# Youngs Moduli (GPa) = 107.64883 92.67250 76.96323
#
# Poissons Ratio (x) = 0.25557 0.13383
# Poissons Ratio (y) = 0.29687 0.26267
# Poissons Ratio (z) = 0.18719 0.31628
#
# Static dielectric constant tensor:
#      x y z
#    x 4.599230 0.000000 1.556880 
#    y 0.000000 3.752400 0.000000 
#    z 1.556880 0.000000 7.162800 
# 
# 
# High freq. dielectric constant tensor:
#      x y z
#    x 1.838720 0.000000 0.008880 
#    y 0.000000 1.837440 0.000000 
#    z 0.008880 0.000000 1.877390 
# 
# From -- ./inp_files/88890.got.cif
#   From: 2010.06.25/outbox.cif.g09.slc.cpg/sg15_45_cif.got.tgz:88890.got - 2010.06.28 07:06:18.
