data_PCOD8135834
_publ_section_title
;
Structure prediction by ZEFSAII (Michael W. Deem and Ramdas Pophale) SiO2 
 PCOD8135834
Probable space group: C 2/C
;
_chemical_formula_sum "Si O2"
_cell_formula_units_Z 48
_cell_length_a 25.950139
_cell_length_b 6.505174
_cell_length_c 22.831364
_cell_angle_alpha 90.000000
_cell_angle_beta 147.130345
_cell_angle_gamma 90.000000
_cell_volume 2091.770566
_symmetry_space_group_name_H-M "C 2/C"
_symmetry_group_IT_number 15
_symmetry_cell_setting 'monoclinic'
loop_
_space_group_symop_operation_xyz
x,y,z
-x,y,1/2-z
-x,-y,-z
x,-y,1/2+z
1/2+x,1/2+y,z
1/2-x,1/2+y,1/2-z
1/2-x,1/2-y,-z
1/2+x,1/2-y,1/2+z
loop_
_atom_site_type_symbol
_atom_site_label
_atom_site_fract_x
_atom_site_fract_y
_atom_site_fract_z
Si Si1 0.153642 0.760952 0.483425
Si Si2 0.145213 0.769422 0.179603
Si Si3 0.873626 0.192043 0.673250
Si Si4 0.119575 0.849802 0.736438
Si Si5 0.513524 0.962126 0.629216
Si Si6 0.284792 0.441533 0.368444
O O1 0.100965 0.797566 0.371033
O O2 0.260935 0.695403 0.576322
O O3 0.096962 0.580974 0.463476
O O4 0.146128 0.966558 0.515677
O O5 0.047005 0.651797 0.101245
O O6 0.233290 0.632191 0.286328
O O7 0.153901 0.806142 0.118540
O O8 0.143123 0.992498 0.207285
O O9 0.922049 0.375994 0.755396
O O10 0.906313 0.970990 0.728842
O O11 0.028424 0.705951 0.635969
O O12 0.209606 0.701094 0.829980
#
# Coordination Sequence:
#
# PCOD8135834 Si02
#       6
#     8   8   8   8   8   8
#     4  11  22  41  65  95 129 164 214 268 304 382
#     4  10  20  37  63  90 127 166 209 256 322 373
#     4  10  22  43  63  91 130 168 208 257 321 375
#     4  10  19  40  64  88 124 172 206 251 319 371
#     4  10  22  42  61  93 132 164 206 266 319 369
#     4  11  20  37  67  91 123 169 208 261 314 375
#
# _framework density 22.947066
#
# number of rings (size 3 to 8) (size 9 to 14) (size 15 to 20)
#    0.000    1.667    6.667    0.500    0.000    1.333 
#    6.000    4.167    0.000    0.000    0.000    0.000 
#    0.000    0.000    0.000    0.000    0.000    0.000 
#
# Total GULP energy -297539.760556 kJ/mol
# GULP energy per Si atom -12397.490023 kJ/mol
# Density = 2.289484 g / cm^3
# Si number density = 22.947066 Si / 1000 Ang^3
#
#
#
# Elastic Constant Matrix: (Units=GPa)
#
#
# Indices 1 2 3 4 5 6 
#
# 1 103.2105 17.3517 -8.1498 -0.0002 -3.0165 -0.0007
# 2 17.3517 105.2369 -5.4405 0.0000 -2.5749 -0.0007
# 3 -8.1498 -5.4405 14.2193 -0.0004 2.4743 -0.0005
# 4 -0.0002 0.0000 -0.0004 15.4881 0.0000 -4.6831
# 5 -3.0165 -2.5749 2.4743 0.0000 32.6934 -0.0001
# 6 -0.0007 -0.0007 -0.0005 -4.6831 -0.0001 21.8395
#
#
#
# Elastic Compliance Matrix: (Units=1/GPa)
#
#
# Indices 1 2 3 4 5 6 
#
# 1 0.010361 -0.001423 0.005317 0.000000 0.000442 0.000000
# 2 -0.001423 0.009897 0.002897 0.000000 0.000429 0.000000
# 3 0.005317 0.002897 0.075350 0.000003 -0.004984 0.000003
# 4 0.000000 0.000000 0.000003 0.069042 0.000000 0.014805
# 5 0.000442 0.000429 -0.004984 0.000000 0.031039 0.000000
# 6 0.000000 0.000000 0.000003 0.014805 0.000000 0.048963
#
#
# Mechanical properties :
#
#
# Convention : Reuss Voigt Hill
#
# Bulk Modulus (GPa) = 9.15829 25.57660 17.36745
# Shear Modulus (GPa) = 18.69389 28.59787 23.64588
#
# Velocity S-wave (km/s) = 2.85731 3.53406 3.21355
# Velocity P-wave (km/s) = 3.85815 5.27474 4.62105
#
# Compressibility (1/GPa) = 0.10919064
#
# Stress axis : x y z
#
# Youngs Moduli (GPa) = 96.51700 101.03873 13.27141
#
# Poissons Ratio (x) = 0.14374 -0.07057
# Poissons Ratio (y) = 0.13731 -0.03844
# Poissons Ratio (z) = -0.51320 -0.29269
#
# Static dielectric constant tensor:
#      x y z
#    x 4.404580 0.000000 -0.041460 
#    y 0.000000 4.202140 0.000000 
#    z -0.041460 0.000000 3.871080 
# 
# 
# High freq. dielectric constant tensor:
#      x y z
#    x 1.916810 0.000000 0.010040 
#    y 0.000000 1.906480 0.000000 
#    z 0.010040 0.000000 1.880200 
# 
# From -- ./inp_files/179994.got.cif
#   From: 2010.06.25/outbox.cif.g09.slc.cpg/sg15_90_cif.got.tgz:179994.got - 2010.06.28 07:06:18.
