data_PCOD8135228
_publ_section_title
;
Structure prediction by ZEFSAII (Michael W. Deem and Ramdas Pophale) SiO2 
 PCOD8135228
Probable space group: C 2/C
;
_chemical_formula_sum "Si O2"
_cell_formula_units_Z 52
_cell_length_a 16.645241
_cell_length_b 9.412494
_cell_length_c 25.445441
_cell_angle_alpha 90.000000
_cell_angle_beta 140.092712
_cell_angle_gamma 90.000000
_cell_volume 2557.604588
_symmetry_space_group_name_H-M "C 2/C"
_symmetry_group_IT_number 15
_symmetry_cell_setting 'monoclinic'
loop_
_space_group_symop_operation_xyz
x,y,z
-x,y,1/2-z
-x,-y,-z
x,-y,1/2+z
1/2+x,1/2+y,z
1/2-x,1/2+y,1/2-z
1/2-x,1/2-y,-z
1/2+x,1/2-y,1/2+z
loop_
_atom_site_type_symbol
_atom_site_label
_atom_site_fract_x
_atom_site_fract_y
_atom_site_fract_z
Si Si1 0.025485 0.195072 0.203359
Si Si2 0.858271 0.147970 0.987013
Si Si3 0.000000 0.372559 0.750000
Si Si4 0.137711 0.401504 0.444759
Si Si5 0.053116 0.971889 0.132929
Si Si6 0.287410 0.922024 0.189262
Si Si7 0.105480 0.285277 0.911708
O O1 0.155376 0.276354 0.261014
O O2 0.000000 0.156850 0.250000
O O3 0.918684 0.301230 0.129090
O O4 0.033149 0.044909 0.178919
O O5 0.780171 0.078164 0.996481
O O6 0.802873 0.116759 0.903377
O O7 0.871601 0.318613 0.004198
O O8 0.991392 0.069548 0.056625
O O9 0.894858 0.467540 0.726204
O O10 0.926973 0.281221 0.667903
O O11 0.073845 0.555432 0.416622
O O12 0.200386 0.973158 0.193443
O O13 0.989367 0.816635 0.104435
O O14 0.250000 0.250000 0.000000
#
# Coordination Sequence:
#
# PCOD8135228 Si02
#       7
#     8   8   4   8   8   8   8
#     4  11  21  40  62  90 122 174 218 257 316 396
#     4  10  19  39  64  93 117 171 217 266 320 397
#     4  12  24  42  68  92 128 192 218 256 348 408
#     4  10  19  37  66  88 120 167 223 256 318 397
#     4  11  27  36  63  98 134 158 218 282 326 375
#     4  12  21  42  67  92 127 170 223 268 325 397
#     4  12  23  43  63  99 135 174 214 279 334 391
#
# _framework density 20.331523000000001
#
# number of rings (size 3 to 8) (size 9 to 14) (size 15 to 20)
#    0.000    0.923    6.923    0.462    3.231    0.000 
#    0.000    0.769    0.000    0.000    0.000    0.000 
#    0.000    0.000    0.000    0.000    0.000    0.000 
#
# Total GULP energy -322210.068835 kJ/mol
# GULP energy per Si atom -12392.694955 kJ/mol
# Density = 2.028525 g / cm^3
# Si number density = 20.331523 Si / 1000 Ang^3
#
#
#
# Elastic Constant Matrix: (Units=GPa)
#
#
# Indices 1 2 3 4 5 6 
#
# 1 88.5630 39.0042 32.7354 0.0000 21.6046 0.0000
# 2 39.0042 101.0543 19.5855 0.0000 4.3347 0.0000
# 3 32.7354 19.5855 111.3557 0.0000 -5.3658 0.0000
# 4 0.0000 0.0000 0.0000 43.7090 0.0000 14.5251
# 5 21.6046 4.3347 -5.3658 0.0000 31.7555 0.0000
# 6 0.0000 0.0000 0.0000 14.5251 0.0000 30.2816
#
#
#
# Elastic Compliance Matrix: (Units=1/GPa)
#
#
# Indices 1 2 3 4 5 6 
#
# 1 0.018881 -0.005731 -0.005166 0.000000 -0.012936 0.000000
# 2 -0.005731 0.012078 -0.000334 0.000000 0.002194 0.000000
# 3 -0.005166 -0.000334 0.010817 0.000000 0.005388 0.000000
# 4 0.000000 0.000000 0.000000 0.027217 0.000000 -0.013055
# 5 -0.012936 0.002194 0.005388 0.000000 0.040902 0.000000
# 6 0.000000 0.000000 0.000000 -0.013055 0.000000 0.039285
#
#
# Mechanical properties :
#
#
# Convention : Reuss Voigt Hill
#
# Bulk Modulus (GPa) = 51.77456 53.73593 52.75525
# Shear Modulus (GPa) = 28.07721 35.12575 31.60148
#
# Velocity S-wave (km/s) = 3.72017 4.16101 3.94675
# Velocity P-wave (km/s) = 6.63124 7.04078 6.83908
#
# Compressibility (1/GPa) = 0.01931450
#
# Stress axis : x y z
#
# Youngs Moduli (GPa) = 52.96456 82.79255 92.44613
#
# Poissons Ratio (x) = 0.47451 0.47754
# Poissons Ratio (y) = 0.30356 0.03086
# Poissons Ratio (z) = 0.27360 0.02764
#
# Static dielectric constant tensor:
#      x y z
#    x 3.386030 0.000000 0.088270 
#    y 0.000000 3.796050 0.000000 
#    z 0.088270 0.000000 4.059850 
# 
# 
# High freq. dielectric constant tensor:
#      x y z
#    x 1.764280 0.000000 0.008380 
#    y 0.000000 1.791710 0.000000 
#    z 0.008380 0.000000 1.815310 
# 
# From -- ./inp_files/298424.got.cif
#   From: 2010.06.25/outbox.cif.g09.slc.cpg/sg15_150_cif.got.tgz:298424.got - 2010.06.28 07:06:18.
