data_PCOD8135425
_publ_section_title
;
Structure prediction by ZEFSAII (Michael W. Deem and Ramdas Pophale) SiO2 
 PCOD8135425
Probable space group: C 2/C
;
_chemical_formula_sum "Si O2"
_cell_formula_units_Z 60
_cell_length_a 9.901055
_cell_length_b 25.869658
_cell_length_c 10.911972
_cell_angle_alpha 90.000000
_cell_angle_beta 81.187671
_cell_angle_gamma 90.000000
_cell_volume 2761.965492
_symmetry_space_group_name_H-M "C 2/C"
_symmetry_group_IT_number 15
_symmetry_cell_setting 'monoclinic'
loop_
_space_group_symop_operation_xyz
x,y,z
-x,y,1/2-z
-x,-y,-z
x,-y,1/2+z
1/2+x,1/2+y,z
1/2-x,1/2+y,1/2-z
1/2-x,1/2-y,-z
1/2+x,1/2-y,1/2+z
loop_
_atom_site_type_symbol
_atom_site_label
_atom_site_fract_x
_atom_site_fract_y
_atom_site_fract_z
Si Si1 0.840414 0.797649 0.526148
Si Si2 0.150802 0.443152 0.185061
Si Si3 0.077413 0.255375 0.111949
Si Si4 0.261707 0.892007 0.084536
Si Si5 0.438213 0.134888 0.995976
Si Si6 0.366456 0.527177 0.071289
Si Si7 0.000000 0.099749 0.250000
Si Si8 0.768375 0.172195 0.304795
O O1 0.750000 0.750000 0.500000
O O2 0.839519 0.843080 0.423119
O O3 0.775467 0.821513 0.658599
O O4 0.993197 0.775613 0.519332
O O5 0.215602 0.403815 0.275498
O O6 0.133834 0.413418 0.059650
O O7 0.255900 0.489463 0.148450
O O8 0.000000 0.462959 0.250000
O O9 0.089647 0.315720 0.086067
O O10 0.222811 0.226350 0.117484
O O11 0.000000 0.246727 0.250000
O O12 0.403722 0.875440 0.002377
O O13 0.205353 0.943703 0.030566
O O14 0.372599 0.144362 0.138647
O O15 0.413147 0.566458 0.168046
O O16 0.500000 0.500000 0.000000
O O17 0.893344 0.136416 0.336169
#
# Coordination Sequence:
#
# PCOD8135425 Si02
#       8
#     8   8   8   8   8   8   4   8
#     4  11  21  39  65  94 132 174 213 272 333 399
#     4  10  25  44  67  98 130 176 223 275 343 397
#     4  10  19  38  62  88 130 177 214 260 325 402
#     4  11  23  43  67  97 133 172 214 275 342 391
#     4  11  23  39  65  96 132 170 222 268 330 406
#     4  12  25  44  69  94 131 171 228 279 335 397
#     4  12  22  42  64  90 122 172 212 272 326 396
#     4  11  22  39  65  94 128 173 224 263 333 401
#
# _framework density 21.723661
#
# number of rings (size 3 to 8) (size 9 to 14) (size 15 to 20)
#    0.000    1.067    4.667    3.200    1.867    3.733 
#    0.000    0.000    0.000    0.000    0.000    0.000 
#    0.000    0.000    0.000    0.000    0.000    0.000 
#
# Total GULP energy -371956.409303 kJ/mol
# GULP energy per Si atom -12398.546977 kJ/mol
# Density = 2.167422 g / cm^3
# Si number density = 21.723661 Si / 1000 Ang^3
#
#
#
# Elastic Constant Matrix: (Units=GPa)
#
#
# Indices 1 2 3 4 5 6 
#
# 1 83.0261 37.0081 16.4817 0.0000 -4.7596 0.0000
# 2 37.0081 109.0385 17.1697 0.0000 -2.7897 0.0000
# 3 16.4817 17.1697 43.5411 0.0000 4.7772 0.0000
# 4 0.0000 0.0000 0.0000 27.6337 0.0000 12.6652
# 5 -4.7596 -2.7897 4.7772 0.0000 29.8829 0.0000
# 6 0.0000 0.0000 0.0000 12.6652 0.0000 47.6670
#
#
#
# Elastic Compliance Matrix: (Units=1/GPa)
#
#
# Indices 1 2 3 4 5 6 
#
# 1 0.014977 -0.004347 -0.004247 0.000000 0.002659 0.000000
# 2 -0.004347 0.011111 -0.002824 0.000000 0.000796 0.000000
# 3 -0.004247 -0.002824 0.026251 0.000000 -0.005137 0.000000
# 4 0.000000 0.000000 0.000000 0.041206 0.000000 -0.010948
# 5 0.002659 0.000796 -0.005137 0.000000 0.034783 0.000000
# 6 0.000000 0.000000 0.000000 -0.010948 0.000000 0.023888
#
#
# Mechanical properties :
#
#
# Convention : Reuss Voigt Hill
#
# Bulk Modulus (GPa) = 33.89192 41.88051 37.88621
# Shear Modulus (GPa) = 27.04365 32.03314 29.53839
#
# Velocity S-wave (km/s) = 3.53213 3.84418 3.69146
# Velocity P-wave (km/s) = 5.68066 6.24694 5.97052
#
# Compressibility (1/GPa) = 0.02950556
#
# Stress axis : x y z
#
# Youngs Moduli (GPa) = 66.76736 89.99838 38.09309
#
# Poissons Ratio (x) = 0.39119 0.16179
# Poissons Ratio (y) = 0.29021 0.10756
# Poissons Ratio (z) = 0.28357 0.25412
#
# Static dielectric constant tensor:
#      x y z
#    x 4.149020 0.000000 0.141900 
#    y 0.000000 4.191770 0.000000 
#    z 0.141900 0.000000 3.799340 
# 
# 
# High freq. dielectric constant tensor:
#      x y z
#    x 1.856310 0.000000 0.012770 
#    y 0.000000 1.867480 0.000000 
#    z 0.012770 0.000000 1.842410 
# 
# From -- ./inp_files/81360.got.cif
#   From: 2010.06.25/outbox.cif.g09.slc.cpg/sg15_41_cif.got.tgz:81360.got - 2010.06.28 07:06:18.
