data_PCOD8135911
_publ_section_title
;
Structure prediction by ZEFSAII (Michael W. Deem and Ramdas Pophale) SiO2 
 PCOD8135911
Probable space group: C 2/C
;
_chemical_formula_sum "Si O2"
_cell_formula_units_Z 56
_cell_length_a 19.103076
_cell_length_b 8.747920
_cell_length_c 18.994462
_cell_angle_alpha 90.000000
_cell_angle_beta 61.239244
_cell_angle_gamma 90.000000
_cell_volume 2782.624633
_symmetry_space_group_name_H-M "C 2/C"
_symmetry_group_IT_number 15
_symmetry_cell_setting 'monoclinic'
loop_
_space_group_symop_operation_xyz
x,y,z
-x,y,1/2-z
-x,-y,-z
x,-y,1/2+z
1/2+x,1/2+y,z
1/2-x,1/2+y,1/2-z
1/2-x,1/2-y,-z
1/2+x,1/2-y,1/2+z
loop_
_atom_site_type_symbol
_atom_site_label
_atom_site_fract_x
_atom_site_fract_y
_atom_site_fract_z
Si Si1 0.620186 0.247371 0.228452
Si Si2 0.685554 0.339509 0.485589
Si Si3 0.000000 0.491128 0.250000
Si Si4 0.023330 0.766661 0.632785
Si Si5 0.500000 0.485334 0.250000
Si Si6 0.405152 0.344786 0.101689
Si Si7 0.728687 0.317428 0.935968
Si Si8 0.933725 0.192522 0.043671
O O1 0.576971 0.376679 0.201954
O O2 0.626400 0.306072 0.305647
O O3 0.707197 0.219466 0.155279
O O4 0.570441 0.090523 0.249613
O O5 0.750000 0.250000 0.500000
O O6 0.605749 0.344653 0.570314
O O7 0.657408 0.266105 0.423777
O O8 0.721912 0.503286 0.451446
O O9 0.961237 0.383747 0.328566
O O10 0.965619 0.717518 0.596728
O O11 0.980362 0.905985 0.693810
O O12 0.409231 0.522587 0.079257
O O13 0.497044 0.290559 0.048777
O O14 0.646490 0.236032 0.950159
O O15 0.750000 0.250000 0.000000
#
# Coordination Sequence:
#
# PCOD8135911 Si02
#       8
#     8   8   4   8   4   8   8   8
#     4  11  22  39  58  95 126 156 196 267 316 354
#     4  10  21  41  63  85 122 162 202 251 307 371
#     4  10  24  36  60  88 130 152 202 260 320 360
#     4  10  19  41  61  89 111 167 210 246 294 378
#     4  10  20  34  68  82 114 162 212 242 294 370
#     4   9  19  38  67  87 116 159 209 249 300 362
#     4  11  24  39  60  93 124 160 202 256 313 362
#     4   9  19  39  63  87 115 159 212 247 292 372
#
# _framework density 20.124884000000002
#
# number of rings (size 3 to 8) (size 9 to 14) (size 15 to 20)
#    0.000    2.000    1.429    2.571    4.000    0.000 
#   12.857    1.429    0.000    0.000    0.000    0.000 
#    0.000    0.000    0.000    0.000    0.000    0.000 
#
# Total GULP energy -346971.907696 kJ/mol
# GULP energy per Si atom -12391.853846 kJ/mol
# Density = 2.007908 g / cm^3
# Si number density = 20.124884 Si / 1000 Ang^3
#
#
#
# Elastic Constant Matrix: (Units=GPa)
#
#
# Indices 1 2 3 4 5 6 
#
# 1 163.9551 33.2575 67.3036 0.0000 -0.5508 0.0001
# 2 33.2575 66.8023 36.8253 0.0001 0.5078 0.0005
# 3 67.3036 36.8253 142.8958 0.0000 1.6183 0.0000
# 4 0.0000 0.0001 0.0000 27.8967 0.0000 1.3987
# 5 -0.5508 0.5078 1.6183 0.0000 31.3539 0.0000
# 6 0.0001 0.0005 0.0000 1.3987 0.0000 27.6404
#
#
#
# Elastic Compliance Matrix: (Units=1/GPa)
#
#
# Indices 1 2 3 4 5 6 
#
# 1 0.007826 -0.002173 -0.003130 0.000000 0.000334 0.000000
# 2 -0.002173 0.018052 -0.003627 0.000000 -0.000143 0.000000
# 3 -0.003130 -0.003627 0.009412 0.000000 -0.000482 0.000000
# 4 0.000000 0.000000 0.000000 0.035938 0.000000 -0.001819
# 5 0.000334 -0.000143 -0.000482 0.000000 0.031927 0.000000
# 6 0.000000 0.000000 0.000000 -0.001819 0.000000 0.036271
#
#
# Mechanical properties :
#
#
# Convention : Reuss Voigt Hill
#
# Bulk Modulus (GPa) = 57.37112 72.04732 64.70922
# Shear Modulus (GPa) = 30.65681 33.12933 31.89307
#
# Velocity S-wave (km/s) = 3.90722 4.06173 3.98522
# Velocity P-wave (km/s) = 6.99461 7.60754 7.30750
#
# Compressibility (1/GPa) = 0.01743037
#
# Stress axis : x y z
#
# Youngs Moduli (GPa) = 127.77984 55.39554 106.24399
#
# Poissons Ratio (x) = 0.12040 0.33251
# Poissons Ratio (y) = 0.27772 0.38533
# Poissons Ratio (z) = 0.39991 0.20091
#
# Static dielectric constant tensor:
#      x y z
#    x 4.058200 0.000000 0.143200 
#    y 0.000000 3.444860 0.000000 
#    z 0.143200 0.000000 3.706700 
# 
# 
# High freq. dielectric constant tensor:
#      x y z
#    x 1.798870 0.000000 0.011070 
#    y 0.000000 1.764950 0.000000 
#    z 0.011070 0.000000 1.785820 
# 
# From -- ./inp_files/247391.got.cif
#   From: 2010.06.25/outbox.cif.g09.slc.cpg/sg15_124_cif.got.tgz:247391.got - 2010.06.28 07:06:18.
