data_PCOD8135629
_publ_section_title
;
Structure prediction by ZEFSAII (Michael W. Deem and Ramdas Pophale) SiO2 
 PCOD8135629
Probable space group: C 2/C
;
_chemical_formula_sum "Si O2"
_cell_formula_units_Z 48
_cell_length_a 11.228890
_cell_length_b 9.064732
_cell_length_c 19.451670
_cell_angle_alpha 90.000000
_cell_angle_beta 90.714838
_cell_angle_gamma 90.000000
_cell_volume 1979.770678
_symmetry_space_group_name_H-M "C 2/C"
_symmetry_group_IT_number 15
_symmetry_cell_setting 'monoclinic'
loop_
_space_group_symop_operation_xyz
x,y,z
-x,y,1/2-z
-x,-y,-z
x,-y,1/2+z
1/2+x,1/2+y,z
1/2-x,1/2+y,1/2-z
1/2-x,1/2-y,-z
1/2+x,1/2-y,1/2+z
loop_
_atom_site_type_symbol
_atom_site_label
_atom_site_fract_x
_atom_site_fract_y
_atom_site_fract_z
Si Si1 0.187032 0.934240 0.807242
Si Si2 0.310720 0.447834 0.540910
Si Si3 0.415515 0.134223 0.533819
Si Si4 0.992820 0.695371 0.822965
Si Si5 0.368189 0.236646 0.044927
Si Si6 0.775942 0.742850 0.187316
O O1 0.246909 0.925410 0.883390
O O2 0.062112 0.848670 0.808650
O O3 0.278338 0.866898 0.751965
O O4 0.166036 0.104086 0.786394
O O5 0.383787 0.304808 0.519357
O O6 0.197330 0.468805 0.488063
O O7 0.402034 0.587448 0.544883
O O8 0.446268 0.106793 0.614092
O O9 0.533227 0.120948 0.485201
O O10 0.000000 0.605239 0.750000
O O11 0.858027 0.731280 0.841854
O O12 0.347830 0.179397 0.122572
O O13 0.250000 0.250000 0.000000
#
# Coordination Sequence:
#
# PCOD8135629 Si02
#       6
#     8   8   8   8   8   8
#     4   9  20  40  62  88 126 160 210 258 303 370
#     4   9  21  39  61  87 121 158 203 254 299 370
#     4  10  19  39  60  88 118 161 203 248 313 359
#     4   9  18  37  61  86 119 163 202 253 303 363
#     4  11  21  37  58  91 123 154 200 252 305 365
#     4  10  20  41  62  93 124 161 209 257 307 371
#
# _framework density 24.245234
#
# number of rings (size 3 to 8) (size 9 to 14) (size 15 to 20)
#    0.000    2.333    1.667    0.500    0.000    0.667 
#   12.000   12.500    0.000    0.000    0.000    0.000 
#    0.000    0.000    0.000    0.000    0.000    0.000 
#
# Total GULP energy -297426.893421 kJ/mol
# GULP energy per Si atom -12392.787226 kJ/mol
# Density = 2.419005 g / cm^3
# Si number density = 24.245234 Si / 1000 Ang^3
#
#
#
# Elastic Constant Matrix: (Units=GPa)
#
#
# Indices 1 2 3 4 5 6 
#
# 1 65.2803 16.6862 29.4945 0.0000 -6.6906 0.0000
# 2 16.6862 63.3423 18.2943 0.0000 -14.3541 0.0000
# 3 29.4945 18.2943 172.2457 0.0000 -4.7533 0.0000
# 4 0.0000 0.0000 0.0000 32.8326 0.0000 -7.9427
# 5 -6.6906 -14.3541 -4.7533 0.0000 39.7542 0.0000
# 6 0.0000 0.0000 0.0000 -7.9427 0.0000 43.9597
#
#
#
# Elastic Compliance Matrix: (Units=1/GPa)
#
#
# Indices 1 2 3 4 5 6 
#
# 1 0.017538 -0.003566 -0.002587 0.000000 0.001355 0.000000
# 2 -0.003566 0.018406 -0.001181 0.000000 0.005904 0.000000
# 3 -0.002587 -0.001181 0.006371 0.000000 -0.000100 0.000000
# 4 0.000000 0.000000 0.000000 0.031850 0.000000 0.005755
# 5 0.001355 0.005904 -0.000100 0.000000 0.027503 0.000000
# 6 0.000000 0.000000 0.000000 0.005755 0.000000 0.023788
#
#
# Mechanical properties :
#
#
# Convention : Reuss Voigt Hill
#
# Bulk Modulus (GPa) = 36.17080 47.75759 41.96419
# Shear Modulus (GPa) = 33.48097 39.06885 36.27491
#
# Velocity S-wave (km/s) = 3.72012 4.01858 3.87223
# Velocity P-wave (km/s) = 5.77957 6.42437 6.11048
#
# Compressibility (1/GPa) = 0.02764661
#
# Stress axis : x y z
#
# Youngs Moduli (GPa) = 57.02013 54.33075 156.95267
#
# Poissons Ratio (x) = 0.19373 0.40603
# Poissons Ratio (y) = 0.20332 0.18542
# Poissons Ratio (z) = 0.14751 0.06418
#
# Static dielectric constant tensor:
#      x y z
#    x 4.154190 0.000000 -0.036340 
#    y 0.000000 5.066010 0.000000 
#    z -0.036340 0.000000 4.676820 
# 
# 
# High freq. dielectric constant tensor:
#      x y z
#    x 1.939500 0.000000 -0.006000 
#    y 0.000000 1.979240 0.000000 
#    z -0.006000 0.000000 1.972840 
# 
# From -- ./inp_files/236589.got.cif
#   From: 2010.06.25/outbox.cif.g09.slc.cpg/sg15_119_cif.got.tgz:236589.got - 2010.06.28 07:06:18.
