data_PCOD8135363
_publ_section_title
;
Structure prediction by ZEFSAII (Michael W. Deem and Ramdas Pophale) SiO2 
 PCOD8135363
Probable space group: C 2/C
;
_chemical_formula_sum "Si O2"
_cell_formula_units_Z 52
_cell_length_a 9.814072
_cell_length_b 27.578290
_cell_length_c 10.137442
_cell_angle_alpha 90.000000
_cell_angle_beta 89.768425
_cell_angle_gamma 90.000000
_cell_volume 2743.730235
_symmetry_space_group_name_H-M "C 2/C"
_symmetry_group_IT_number 15
_symmetry_cell_setting 'monoclinic'
loop_
_space_group_symop_operation_xyz
x,y,z
-x,y,1/2-z
-x,-y,-z
x,-y,1/2+z
1/2+x,1/2+y,z
1/2-x,1/2+y,1/2-z
1/2-x,1/2-y,-z
1/2+x,1/2-y,1/2+z
loop_
_atom_site_type_symbol
_atom_site_label
_atom_site_fract_x
_atom_site_fract_y
_atom_site_fract_z
Si Si1 0.136599 0.636174 0.999621
Si Si2 0.736711 0.959624 0.791866
Si Si3 0.000000 0.675216 0.750000
Si Si4 0.500000 0.114073 0.250000
Si Si5 0.858346 0.758551 0.881568
Si Si6 0.349534 0.978332 0.981867
Si Si7 0.877360 0.813913 0.617779
Si Si8 0.500000 0.400387 0.750000
O O1 0.061871 0.641573 0.862140
O O2 0.170789 0.579535 0.009187
O O3 0.260174 0.675517 0.010240
O O4 0.045274 0.648357 0.128897
O O5 0.618641 0.919751 0.808506
O O6 0.708454 0.991837 0.661661
O O7 0.880514 0.934025 0.800751
O O8 0.745428 0.997406 0.910365
O O9 0.120974 0.706543 0.685490
O O10 0.817504 0.795689 0.762007
O O11 0.007153 0.776442 0.936868
O O12 0.750000 0.750000 0.000000
O O13 0.500000 0.000000 0.000000
O O14 0.946562 0.866396 0.632543
#
# Coordination Sequence:
#
# PCOD8135363 Si02
#       8
#     8   8   4   4   8   8   8   4
#     4  11  22  38  61  93 122 167 208 264 305 375
#     4  11  21  36  58  85 119 166 212 255 306 359
#     4  10  25  37  60  96 124 146 210 264 314 360
#     4  10  20  35  62  88 111 173 220 230 315 372
#     4   9  21  41  64  91 123 159 193 253 325 382
#     4  11  21  37  58  86 125 161 216 253 305 354
#     4   9  20  40  63  89 127 158 207 256 309 383
#     4  10  19  38  60  88 119 161 210 258 297 384
#
# _framework density 18.952300999999999
#
# number of rings (size 3 to 8) (size 9 to 14) (size 15 to 20)
#    0.000    2.154    6.154    0.000    4.308    3.077 
#    0.000    2.308    0.000    0.000    0.000    0.000 
#    0.000    0.000    0.000    0.000    0.000    0.000 
#
# Total GULP energy -322090.070332 kJ/mol
# GULP energy per Si atom -12388.079628 kJ/mol
# Density = 1.890916 g / cm^3
# Si number density = 18.952301 Si / 1000 Ang^3
#
#
#
# Elastic Constant Matrix: (Units=GPa)
#
#
# Indices 1 2 3 4 5 6 
#
# 1 93.6194 34.1481 49.0329 0.0000 -10.8963 0.0000
# 2 34.1481 54.7099 30.0607 0.0000 -10.2371 0.0000
# 3 49.0329 30.0607 112.5955 0.0000 -7.7178 0.0000
# 4 0.0000 0.0000 0.0000 30.8458 0.0000 0.0607
# 5 -10.8963 -10.2371 -7.7178 0.0000 36.5283 0.0000
# 6 0.0000 0.0000 0.0000 0.0607 0.0000 32.7443
#
#
#
# Elastic Compliance Matrix: (Units=1/GPa)
#
#
# Indices 1 2 3 4 5 6 
#
# 1 0.016041 -0.006923 -0.005015 0.000000 0.001785 0.000000
# 2 -0.006923 0.025296 -0.003444 0.000000 0.004296 0.000000
# 3 -0.005015 -0.003444 0.011990 0.000000 0.000072 0.000000
# 4 0.000000 0.000000 0.000000 0.032419 0.000000 -0.000060
# 5 0.001785 0.004296 0.000072 0.000000 0.029128 0.000000
# 6 0.000000 0.000000 0.000000 -0.000060 0.000000 0.030540
#
#
# Mechanical properties :
#
#
# Convention : Reuss Voigt Hill
#
# Bulk Modulus (GPa) = 44.32121 54.15647 49.23884
# Shear Modulus (GPa) = 27.21863 29.86922 28.54392
#
# Velocity S-wave (km/s) = 3.79379 3.97422 3.88505
# Velocity P-wave (km/s) = 6.52893 7.04957 6.79424
#
# Compressibility (1/GPa) = 0.02256256
#
# Stress axis : x y z
#
# Youngs Moduli (GPa) = 62.34036 39.53272 83.40489
#
# Poissons Ratio (x) = 0.27367 0.41827
# Poissons Ratio (y) = 0.43156 0.28726
# Poissons Ratio (z) = 0.31263 0.13616
#
# Static dielectric constant tensor:
#      x y z
#    x 3.401730 0.000000 -0.008630 
#    y 0.000000 3.467610 0.000000 
#    z -0.008630 0.000000 3.568650 
# 
# 
# High freq. dielectric constant tensor:
#      x y z
#    x 1.726130 0.000000 0.003610 
#    y 0.000000 1.735170 0.000000 
#    z 0.003610 0.000000 1.727180 
# 
# From -- ./inp_files/80757.got.cif
#   From: 2010.06.25/outbox.cif.g09.slc.cpg/sg15_41_cif.got.tgz:80757.got - 2010.06.28 07:06:18.
