data_PCOD8135569
_publ_section_title
;
Structure prediction by ZEFSAII (Michael W. Deem and Ramdas Pophale) SiO2 
 PCOD8135569
Probable space group: C 2/C
;
_chemical_formula_sum "Si O2"
_cell_formula_units_Z 36
_cell_length_a 11.219481
_cell_length_b 22.929747
_cell_length_c 9.179478
_cell_angle_alpha 90.000000
_cell_angle_beta 40.608562
_cell_angle_gamma 90.000000
_cell_volume 1537.078548
_symmetry_space_group_name_H-M "C 2/C"
_symmetry_group_IT_number 15
_symmetry_cell_setting 'monoclinic'
loop_
_space_group_symop_operation_xyz
x,y,z
-x,y,1/2-z
-x,-y,-z
x,-y,1/2+z
1/2+x,1/2+y,z
1/2-x,1/2+y,1/2-z
1/2-x,1/2-y,-z
1/2+x,1/2-y,1/2+z
loop_
_atom_site_type_symbol
_atom_site_label
_atom_site_fract_x
_atom_site_fract_y
_atom_site_fract_z
Si Si1 0.686915 0.694018 0.647468
Si Si2 0.828375 0.806865 0.003803
Si Si3 0.709297 0.932189 0.059971
Si Si4 0.000000 0.616182 0.250000
Si Si5 0.811956 0.528006 0.221495
O O1 0.500000 0.667911 0.750000
O O2 0.750000 0.750000 0.500000
O O3 0.864236 0.652340 0.481258
O O4 0.635456 0.709720 0.862066
O O5 0.000000 0.826554 0.750000
O O6 0.750000 0.750000 0.000000
O O7 0.705607 0.864821 0.111358
O O8 0.500000 0.952695 0.250000
O O9 0.804759 0.976263 0.089433
O O10 0.795496 0.945037 0.819261
O O11 0.855017 0.580683 0.289886
O O12 0.000000 0.500000 0.000000
#
# Coordination Sequence:
#
# PCOD8135569 Si02
#       5
#     8   8   8   4   8
#     4  12  27  47  72 106 144 191 246 298 362 432
#     4  12  28  47  70 104 144 187 237 300 367 432
#     4  10  21  40  69  99 138 181 244 278 352 429
#     4  12  24  42  78 100 150 188 242 294 364 422
#     4  10  19  38  69 103 132 190 236 283 352 433
#
# _framework density 23.421054999999999
#
# number of rings (size 3 to 8) (size 9 to 14) (size 15 to 20)
#    0.000    0.889    4.444    4.667    6.222    0.000 
#    0.000    2.222    0.000    0.000    0.000    0.000 
#    0.000    0.000    0.000    0.000    0.000    0.000 
#
# Total GULP energy -223008.660281 kJ/mol
# GULP energy per Si atom -12389.370016 kJ/mol
# Density = 2.336775 g / cm^3
# Si number density = 23.421055 Si / 1000 Ang^3
#
#
#
# Elastic Constant Matrix: (Units=GPa)
#
#
# Indices 1 2 3 4 5 6 
#
# 1 82.8237 44.7152 47.5621 0.0000 41.5114 0.0000
# 2 44.7152 159.3303 34.0035 0.0000 32.4227 0.0000
# 3 47.5621 34.0035 124.7218 0.0000 34.2970 0.0000
# 4 0.0000 0.0000 0.0000 34.7525 0.0000 8.9488
# 5 41.5114 32.4227 34.2970 0.0000 58.9741 0.0000
# 6 0.0000 0.0000 0.0000 8.9488 0.0000 29.5494
#
#
#
# Elastic Compliance Matrix: (Units=1/GPa)
#
#
# Indices 1 2 3 4 5 6 
#
# 1 0.021782 -0.002894 -0.004451 0.000000 -0.011153 0.000000
# 2 -0.002894 0.007562 -0.000447 0.000000 -0.001861 0.000000
# 3 -0.004451 -0.000447 0.010604 0.000000 -0.002788 0.000000
# 4 0.000000 0.000000 0.000000 0.031209 0.000000 -0.009451
# 5 -0.011153 -0.001861 -0.002788 0.000000 0.027452 0.000000
# 6 0.000000 0.000000 0.000000 -0.009451 0.000000 0.036704
#
#
# Mechanical properties :
#
#
# Convention : Reuss Voigt Hill
#
# Bulk Modulus (GPa) = 41.04031 68.82638 54.93335
# Shear Modulus (GPa) = 31.44354 40.69485 36.06919
#
# Velocity S-wave (km/s) = 3.66803 4.17289 3.92858
# Velocity P-wave (km/s) = 5.95820 7.25725 6.63957
#
# Compressibility (1/GPa) = 0.02436629
#
# Stress axis : x y z
#
# Youngs Moduli (GPa) = 45.91040 132.23375 94.30794
#
# Poissons Ratio (x) = 0.38262 0.41972
# Poissons Ratio (y) = 0.13284 0.04211
# Poissons Ratio (z) = 0.20433 0.05904
#
# Static dielectric constant tensor:
#      x y z
#    x 4.401870 0.000000 1.269760 
#    y 0.000000 4.100010 0.000000 
#    z 1.269760 0.000000 4.205210 
# 
# 
# High freq. dielectric constant tensor:
#      x y z
#    x 1.907440 0.000000 0.029720 
#    y 0.000000 1.938910 0.000000 
#    z 0.029720 0.000000 1.936280 
# 
# From -- ./inp_files/31689.got.cif
#   From: 2010.06.25/outbox.cif.g09.slc.cpg/sg15_16_cif.got.tgz:31689.got - 2010.06.28 07:06:18.
