data_PCOD8135536
_publ_section_title
;
Structure prediction by ZEFSAII (Michael W. Deem and Ramdas Pophale) SiO2 
 PCOD8135536
Probable space group: C 2/C
;
_chemical_formula_sum "Si O2"
_cell_formula_units_Z 56
_cell_length_a 22.432581
_cell_length_b 11.534935
_cell_length_c 15.995384
_cell_angle_alpha 90.000000
_cell_angle_beta 42.836719
_cell_angle_gamma 90.000000
_cell_volume 2814.112027
_symmetry_space_group_name_H-M "C 2/C"
_symmetry_group_IT_number 15
_symmetry_cell_setting 'monoclinic'
loop_
_space_group_symop_operation_xyz
x,y,z
-x,y,1/2-z
-x,-y,-z
x,-y,1/2+z
1/2+x,1/2+y,z
1/2-x,1/2+y,1/2-z
1/2-x,1/2-y,-z
1/2+x,1/2-y,1/2+z
loop_
_atom_site_type_symbol
_atom_site_label
_atom_site_fract_x
_atom_site_fract_y
_atom_site_fract_z
Si Si1 0.427134 0.087972 0.465308
Si Si2 0.848609 0.761489 0.424986
Si Si3 0.151896 0.172050 0.911052
Si Si4 0.564871 0.279636 0.337731
Si Si5 0.014731 0.666603 0.636858
Si Si6 0.347747 0.206301 0.696757
Si Si7 0.394186 0.406243 0.533915
O O1 0.385366 0.139631 0.423020
O O2 0.516382 0.156162 0.395606
O O3 0.360755 0.109444 0.610817
O O4 0.446507 0.953882 0.435971
O O5 0.750000 0.750000 0.500000
O O6 0.902956 0.799811 0.288599
O O7 0.856001 0.862047 0.485327
O O8 0.142440 0.220818 0.826061
O O9 0.252300 0.189025 0.836572
O O10 0.127869 0.038505 0.934586
O O11 0.086174 0.235739 0.041943
O O12 0.498726 0.384424 0.428109
O O13 0.000000 0.662190 0.750000
O O14 0.921438 0.693660 0.691506
O O15 0.351144 0.335058 0.654425
#
# Coordination Sequence:
#
# PCOD8135536 Si02
#       7
#     8   8   8   8   8   8   8
#     4  10  21  42  67  93 126 168 216 270 315 379
#     4  10  20  38  65 100 124 160 220 272 317 367
#     4  12  25  41  66  94 131 175 207 270 332 395
#     4  10  19  38  66  90 124 167 218 262 317 371
#     4  12  26  43  64  95 136 174 214 261 332 396
#     4  10  24  43  66  94 122 168 228 263 322 387
#     4  10  22  41  61  93 129 166 216 262 324 390
#
# _framework density 19.899704
#
# number of rings (size 3 to 8) (size 9 to 14) (size 15 to 20)
#    0.000    1.714    2.857    5.143    2.000    4.000 
#    0.000    0.000    0.000    0.000    0.000    0.000 
#    0.000    0.000    0.000    0.000    0.000    0.000 
#
# Total GULP energy -347230.469010 kJ/mol
# GULP energy per Si atom -12401.088179 kJ/mol
# Density = 1.985441 g / cm^3
# Si number density = 19.899704 Si / 1000 Ang^3
#
#
#
# Elastic Constant Matrix: (Units=GPa)
#
#
# Indices 1 2 3 4 5 6 
#
# 1 91.2115 27.7957 42.5825 0.0000 -15.7369 0.0000
# 2 27.7957 136.9921 38.0743 0.0000 -13.0074 0.0000
# 3 42.5825 38.0743 94.2089 0.0000 -20.5101 0.0000
# 4 0.0000 0.0000 0.0000 13.9044 0.0000 2.7158
# 5 -15.7369 -13.0074 -20.5101 0.0000 32.3411 0.0000
# 6 0.0000 0.0000 0.0000 2.7158 0.0000 10.3522
#
#
#
# Elastic Compliance Matrix: (Units=1/GPa)
#
#
# Indices 1 2 3 4 5 6 
#
# 1 0.014343 -0.001127 -0.005345 0.000000 0.003136 0.000000
# 2 -0.001127 0.008366 -0.002620 0.000000 0.001155 0.000000
# 3 -0.005345 -0.002620 0.015423 0.000000 0.006127 0.000000
# 4 0.000000 0.000000 0.000000 0.075804 0.000000 -0.019886
# 5 0.003136 0.001155 0.006127 0.000000 0.036796 0.000000
# 6 0.000000 0.000000 0.000000 -0.019886 0.000000 0.101815
#
#
# Mechanical properties :
#
#
# Convention : Reuss Voigt Hill
#
# Bulk Modulus (GPa) = 50.12908 59.92416 55.02662
# Shear Modulus (GPa) = 18.02566 25.58354 21.80460
#
# Velocity S-wave (km/s) = 3.01296 3.58945 3.31376
# Velocity P-wave (km/s) = 6.11142 6.88167 6.50795
#
# Compressibility (1/GPa) = 0.01994850
#
# Stress axis : x y z
#
# Youngs Moduli (GPa) = 69.71851 119.52726 64.83621
#
# Poissons Ratio (x) = 0.13470 0.34655
# Poissons Ratio (y) = 0.07857 0.16990
# Poissons Ratio (z) = 0.37264 0.31322
#
# Static dielectric constant tensor:
#      x y z
#    x 3.819410 0.000000 -0.147810 
#    y 0.000000 3.472610 0.000000 
#    z -0.147810 0.000000 2.860150 
# 
# 
# High freq. dielectric constant tensor:
#      x y z
#    x 1.786310 0.000000 -0.001850 
#    y 0.000000 1.766340 0.000000 
#    z -0.001850 0.000000 1.776930 
# 
# From -- ./inp_files/219063.got.cif
#   From: 2010.06.25/outbox.cif.g09.slc.cpg/sg15_110_cif.got.tgz:219063.got - 2010.06.28 07:06:18.
