data_PCOD8135062
_publ_section_title
;
Structure prediction by ZEFSAII (Michael W. Deem and Ramdas Pophale) SiO2 
 PCOD8135062
Probable space group: C 2/C
;
_chemical_formula_sum "Si O2"
_cell_formula_units_Z 48
_cell_length_a 13.353271
_cell_length_b 19.820175
_cell_length_c 7.597896
_cell_angle_alpha 90.000000
_cell_angle_beta 83.201840
_cell_angle_gamma 90.000000
_cell_volume 1996.752874
_symmetry_space_group_name_H-M "C 2/C"
_symmetry_group_IT_number 15
_symmetry_cell_setting 'monoclinic'
loop_
_space_group_symop_operation_xyz
x,y,z
-x,y,1/2-z
-x,-y,-z
x,-y,1/2+z
1/2+x,1/2+y,z
1/2-x,1/2+y,1/2-z
1/2-x,1/2-y,-z
1/2+x,1/2-y,1/2+z
loop_
_atom_site_type_symbol
_atom_site_label
_atom_site_fract_x
_atom_site_fract_y
_atom_site_fract_z
Si Si1 0.264849 0.439797 0.876140
Si Si2 0.608178 0.712087 0.628639
Si Si3 0.598249 0.902175 0.141111
Si Si4 0.727803 0.701216 0.258652
Si Si5 0.802423 0.085332 0.734582
Si Si6 0.064550 0.748293 0.568365
O O1 0.261671 0.380300 0.731113
O O2 0.309885 0.508134 0.793933
O O3 0.150552 0.450022 0.981218
O O4 0.336462 0.414990 0.022366
O O5 0.663263 0.729836 0.433949
O O6 0.660446 0.763310 0.761525
O O7 0.625098 0.633552 0.670129
O O8 0.487366 0.723161 0.605895
O O9 0.500000 0.936844 0.250000
O O10 0.685258 0.888671 0.271677
O O11 0.565816 0.832517 0.056528
O O12 0.675774 0.721484 0.082874
O O13 0.000000 0.772864 0.750000
#
# Coordination Sequence:
#
# PCOD8135062 Si02
#       6
#     8   8   8   8   8   8
#     4  10  22  38  62  84 129 167 208 257 314 375
#     4  10  20  35  67  88 122 163 207 252 321 369
#     4   9  20  37  59  84 126 155 207 264 309 364
#     4  10  19  37  60  92 120 162 209 258 307 374
#     4  10  21  39  58  87 120 170 201 256 314 370
#     4   9  18  36  59  93 122 156 202 262 309 368
#
# _framework density 24.039027000000001
#
# number of rings (size 3 to 8) (size 9 to 14) (size 15 to 20)
#    1.000    1.333    1.667    1.000    2.333    3.333 
#    0.000    4.167    0.000    0.000    0.000    0.000 
#    0.000    0.000    0.000    0.000    0.000    0.000 
#
# Total GULP energy -297410.675608 kJ/mol
# GULP energy per Si atom -12392.111484 kJ/mol
# Density = 2.398431 g / cm^3
# Si number density = 24.039027 Si / 1000 Ang^3
#
#
#
# Elastic Constant Matrix: (Units=GPa)
#
#
# Indices 1 2 3 4 5 6 
#
# 1 114.1011 42.3406 43.5247 0.0000 30.0249 0.0000
# 2 42.3406 140.9840 44.7834 0.0000 23.5695 0.0000
# 3 43.5247 44.7834 108.1771 0.0000 38.2705 0.0000
# 4 0.0000 0.0000 0.0000 30.7615 0.0000 -0.2659
# 5 30.0249 23.5695 38.2705 0.0000 36.3661 0.0000
# 6 0.0000 0.0000 0.0000 -0.2659 0.0000 28.1661
#
#
#
# Elastic Compliance Matrix: (Units=1/GPa)
#
#
# Indices 1 2 3 4 5 6 
#
# 1 0.011893 -0.001923 -0.001523 0.000000 -0.006970 0.000000
# 2 -0.001923 0.008656 -0.002209 0.000000 -0.001698 0.000000
# 3 -0.001523 -0.002209 0.015645 0.000000 -0.013774 0.000000
# 4 0.000000 0.000000 0.000000 0.032511 0.000000 0.000307
# 5 -0.006970 -0.001698 -0.013774 0.000000 0.048849 0.000000
# 6 0.000000 0.000000 0.000000 0.000307 0.000000 0.035507
#
#
# Mechanical properties :
#
#
# Convention : Reuss Voigt Hill
#
# Bulk Modulus (GPa) = 40.18800 69.39553 54.79177
# Shear Modulus (GPa) = 28.95798 34.56630 31.76214
#
# Velocity S-wave (km/s) = 3.47453 3.79611 3.63888
# Velocity P-wave (km/s) = 5.73155 6.93862 6.36377
#
# Compressibility (1/GPa) = 0.02488305
#
# Stress axis : x y z
#
# Youngs Moduli (GPa) = 84.08497 115.52690 63.91979
#
# Poissons Ratio (x) = 0.22211 0.09737
# Poissons Ratio (y) = 0.16166 0.14121
# Poissons Ratio (z) = 0.12809 0.25523
#
# Static dielectric constant tensor:
#      x y z
#    x 4.527620 0.000000 0.054390 
#    y 0.000000 3.799500 0.000000 
#    z 0.054390 0.000000 4.574360 
# 
# 
# High freq. dielectric constant tensor:
#      x y z
#    x 1.956090 0.000000 -0.012510 
#    y 0.000000 1.928670 0.000000 
#    z -0.012510 0.000000 1.972430 
# 
# From -- ./inp_files/40937.got.cif
#   From: 2010.06.25/outbox.cif.g09.slc.cpg/sg15_21_cif.got.tgz:40937.got - 2010.06.28 07:06:18.
