data_PCOD8135779
_publ_section_title
;
Structure prediction by ZEFSAII (Michael W. Deem and Ramdas Pophale) SiO2 
 PCOD8135779
Probable space group: C 2/C
;
_chemical_formula_sum "Si O2"
_cell_formula_units_Z 40
_cell_length_a 9.332590
_cell_length_b 15.206623
_cell_length_c 13.659017
_cell_angle_alpha 90.000000
_cell_angle_beta 116.525925
_cell_angle_gamma 90.000000
_cell_volume 1734.393208
_symmetry_space_group_name_H-M "C 2/C"
_symmetry_group_IT_number 15
_symmetry_cell_setting 'monoclinic'
loop_
_space_group_symop_operation_xyz
x,y,z
-x,y,1/2-z
-x,-y,-z
x,-y,1/2+z
1/2+x,1/2+y,z
1/2-x,1/2+y,1/2-z
1/2-x,1/2-y,-z
1/2+x,1/2-y,1/2+z
loop_
_atom_site_type_symbol
_atom_site_label
_atom_site_fract_x
_atom_site_fract_y
_atom_site_fract_z
Si Si1 0.150945 0.877263 0.725928
Si Si2 0.874954 0.618210 0.996869
Si Si3 0.956654 0.098456 0.513879
Si Si4 0.430150 0.744508 0.838142
Si Si5 0.585559 0.980520 0.177628
O O1 0.086610 0.851820 0.599546
O O2 0.265830 0.798169 0.795161
O O3 0.000000 0.887614 0.750000
O O4 0.246161 0.970015 0.751082
O O5 0.689342 0.601342 0.955934
O O6 0.933093 0.713442 0.049809
O O7 0.970107 0.548925 0.090376
O O8 0.897436 0.604606 0.886964
O O9 0.097551 0.149091 0.618223
O O10 0.000000 0.000000 0.500000
O O11 0.500000 0.739743 0.750000
O O12 0.500000 0.947922 0.250000
#
# Coordination Sequence:
#
# PCOD8135779 Si02
#       5
#     8   8   8   8   8
#     4  11  23  44  69 104 147 181 236 300 348 423
#     4  10  20  40  71 103 137 189 243 285 343 436
#     4  12  25  43  71 106 140 181 239 295 352 424
#     4  11  24  47  76  97 137 196 239 286 359 428
#     4  10  19  39  70 103 143 190 229 289 361 416
#
# _framework density 23.062821
#
# number of rings (size 3 to 8) (size 9 to 14) (size 15 to 20)
#    0.000    1.200    4.000    3.000    0.000    3.200 
#    0.000    1.000    4.400    0.000    0.000    0.000 
#    0.000    0.000    0.000    0.000    0.000    0.000 
#
# Total GULP energy -247961.803765 kJ/mol
# GULP energy per Si atom -12398.090188 kJ/mol
# Density = 2.301033 g / cm^3
# Si number density = 23.062821 Si / 1000 Ang^3
#
#
#
# Elastic Constant Matrix: (Units=GPa)
#
#
# Indices 1 2 3 4 5 6 
#
# 1 144.0291 47.2074 63.0945 0.0000 -21.8493 0.0000
# 2 47.2074 116.7850 53.6253 0.0000 -12.1119 0.0000
# 3 63.0945 53.6253 144.7378 0.0000 -32.1076 0.0000
# 4 0.0000 0.0000 0.0000 27.8772 0.0000 -17.2100
# 5 -21.8493 -12.1119 -32.1076 0.0000 42.9579 0.0000
# 6 0.0000 0.0000 0.0000 -17.2100 0.0000 6.9734
#
#
#
# Elastic Compliance Matrix: (Units=1/GPa)
#
#
# Indices 1 2 3 4 5 6 
#
# 1 0.009177 -0.002252 -0.002723 0.000000 0.001997 0.000000
# 2 -0.002252 0.010871 -0.003141 0.000000 -0.000428 0.000000
# 3 -0.002723 -0.003141 0.010496 0.000000 0.005575 0.000000
# 4 0.000000 0.000000 0.000000 -0.068512 0.000000 -0.169084
# 5 0.001997 -0.000428 0.005575 0.000000 0.028341 0.000000
# 6 0.000000 0.000000 0.000000 -0.169084 0.000000 -0.273887
#
#
# Mechanical properties :
#
#
# Convention : Reuss Voigt Hill
#
# Bulk Modulus (GPa) = 69.86912 81.48960 75.67936
# Shear Modulus (GPa) = -19.04675 31.67003 6.31164
#
# Velocity S-wave (km/s) = -2.87690 3.70970 1.65610
# Velocity P-wave (km/s) = 4.39608 7.33210 6.04504
#
# Compressibility (1/GPa) = 0.01431247
#
# Stress axis : x y z
#
# Youngs Moduli (GPa) = 108.96732 91.98844 95.27085
#
# Poissons Ratio (x) = 0.20717 0.25942
# Poissons Ratio (y) = 0.24540 0.29923
# Poissons Ratio (z) = 0.29672 0.28892
#
# Static dielectric constant tensor:
#      x y z
#    x 4.172930 0.000000 0.246750 
#    y 0.000000 4.338790 0.000000 
#    z 0.246750 0.000000 5.218560 
# 
# 
# High freq. dielectric constant tensor:
#      x y z
#    x 1.903010 0.000000 0.000450 
#    y 0.000000 1.903380 0.000000 
#    z 0.000450 0.000000 1.932640 
# 
# From -- ./inp_files/133289.got.cif
#   From: 2010.06.25/outbox.cif.g09.slc.cpg/sg15_67_cif.got.tgz:133289.got - 2010.06.28 07:06:18.
