data_PCOD8135224
_publ_section_title
;
Structure prediction by ZEFSAII (Michael W. Deem and Ramdas Pophale) SiO2 
 PCOD8135224
Probable space group: C 2/C
;
_chemical_formula_sum "Si O2"
_cell_formula_units_Z 60
_cell_length_a 11.781925
_cell_length_b 32.378052
_cell_length_c 7.794827
_cell_angle_alpha 90.000000
_cell_angle_beta 88.832388
_cell_angle_gamma 90.000000
_cell_volume 2972.920293
_symmetry_space_group_name_H-M "C 2/C"
_symmetry_group_IT_number 15
_symmetry_cell_setting 'monoclinic'
loop_
_space_group_symop_operation_xyz
x,y,z
-x,y,1/2-z
-x,-y,-z
x,-y,1/2+z
1/2+x,1/2+y,z
1/2-x,1/2+y,1/2-z
1/2-x,1/2-y,-z
1/2+x,1/2-y,1/2+z
loop_
_atom_site_type_symbol
_atom_site_label
_atom_site_fract_x
_atom_site_fract_y
_atom_site_fract_z
Si Si1 0.627013 0.048567 0.035486
Si Si2 0.524955 0.220757 0.993851
Si Si3 0.609817 0.697533 0.331050
Si Si4 0.213431 0.599705 0.720836
Si Si5 0.178347 0.736689 0.301077
Si Si6 0.500000 0.849536 0.250000
Si Si7 0.636504 0.954858 0.932651
Si Si8 0.632547 0.326234 0.201575
O O1 0.493156 0.058287 0.022671
O O2 0.666704 0.054499 0.232264
O O3 0.698646 0.078428 0.907935
O O4 0.652047 0.003015 0.967060
O O5 0.593653 0.218117 0.165342
O O6 0.389548 0.230563 0.018736
O O7 0.575975 0.256400 0.878819
O O8 0.547885 0.177524 0.903585
O O9 0.500000 0.674976 0.250000
O O10 0.713195 0.706057 0.196484
O O11 0.647949 0.671430 0.495345
O O12 0.224474 0.567983 0.559914
O O13 0.319967 0.631210 0.720526
O O14 0.101078 0.623774 0.673279
O O15 0.200507 0.785695 0.267694
O O16 0.500000 0.320551 0.250000
#
# Coordination Sequence:
#
# PCOD8135224 Si02
#       8
#     8   8   8   8   8   4   8   8
#     4  10  19  37  65  99 132 163 199 233 308 402
#     4  10  20  37  57  79 117 161 211 255 310 382
#     4  11  21  37  60  84 110 157 219 266 314 377
#     4  12  23  39  60  95 136 159 204 260 319 373
#     4  10  20  41  61  79 110 166 218 262 314 378
#     4  12  22  36  54  98 126 154 196 274 328 346
#     4  10  19  37  67  95 134 167 192 238 308 400
#     4  11  23  43  60  80 123 167 207 267 319 364
#
# _framework density 20.182175999999998
#
# number of rings (size 3 to 8) (size 9 to 14) (size 15 to 20)
#    0.000    1.333    6.000    3.200    0.000    1.600 
#    9.600    0.000    0.000    0.800    0.000    0.000 
#    0.000    0.000    0.000    0.000    0.000    0.000 
#
# Total GULP energy -371786.808906 kJ/mol
# GULP energy per Si atom -12392.893630 kJ/mol
# Density = 2.013624 g / cm^3
# Si number density = 20.182176 Si / 1000 Ang^3
#
#
#
# Elastic Constant Matrix: (Units=GPa)
#
#
# Indices 1 2 3 4 5 6 
#
# 1 65.1341 15.0041 14.4787 0.0000 1.3164 0.0000
# 2 15.0041 73.1903 35.3079 0.0000 8.2204 0.0000
# 3 14.4787 35.3079 102.6038 0.0000 9.1253 0.0000
# 4 0.0000 0.0000 0.0000 21.2669 0.0000 10.6643
# 5 1.3164 8.2204 9.1253 0.0000 21.9063 0.0000
# 6 0.0000 0.0000 0.0000 10.6643 0.0000 22.9269
#
#
#
# Elastic Compliance Matrix: (Units=1/GPa)
#
#
# Indices 1 2 3 4 5 6 
#
# 1 0.016283 -0.002726 -0.001416 0.000000 0.000634 0.000000
# 2 -0.002726 0.017174 -0.005158 0.000000 -0.004132 0.000000
# 3 -0.001416 -0.005158 0.011985 0.000000 -0.002972 0.000000
# 4 0.000000 0.000000 0.000000 0.061325 0.000000 -0.028525
# 5 0.000634 -0.004132 -0.002972 0.000000 0.048399 0.000000
# 6 0.000000 0.000000 0.000000 -0.028525 0.000000 0.056885
#
#
# Mechanical properties :
#
#
# Convention : Reuss Voigt Hill
#
# Bulk Modulus (GPa) = 37.25443 41.16774 39.21109
# Shear Modulus (GPa) = 20.86817 24.96252 22.91534
#
# Velocity S-wave (km/s) = 3.21906 3.52072 3.37326
# Velocity P-wave (km/s) = 5.68468 6.08026 5.88580
#
# Compressibility (1/GPa) = 0.02684244
#
# Stress axis : x y z
#
# Youngs Moduli (GPa) = 61.41421 58.22697 83.43584
#
# Poissons Ratio (x) = 0.15874 0.11815
# Poissons Ratio (y) = 0.16742 0.43034
# Poissons Ratio (z) = 0.08696 0.30032
#
# Static dielectric constant tensor:
#      x y z
#    x 3.646180 0.000000 -0.028310 
#    y 0.000000 3.476160 0.000000 
#    z -0.028310 0.000000 4.079100 
# 
# 
# High freq. dielectric constant tensor:
#      x y z
#    x 1.763250 0.000000 -0.000880 
#    y 0.000000 1.764300 0.000000 
#    z -0.000880 0.000000 1.805420 
# 
# From -- ./inp_files/35265.got.cif
#   From: 2010.06.25/outbox.cif.g09.slc.cpg/sg15_18_cif.got.tgz:35265.got - 2010.06.28 07:06:18.
