data_PCOD8135580
_publ_section_title
;
Structure prediction by ZEFSAII (Michael W. Deem and Ramdas Pophale) SiO2 
 PCOD8135580
Probable space group: C 2/C
;
_chemical_formula_sum "Si O2"
_cell_formula_units_Z 40
_cell_length_a 25.323008
_cell_length_b 17.970291
_cell_length_c 10.895814
_cell_angle_alpha 90.000000
_cell_angle_beta 22.095462
_cell_angle_gamma 90.000000
_cell_volume 1865.057230
_symmetry_space_group_name_H-M "C 2/C"
_symmetry_group_IT_number 15
_symmetry_cell_setting 'monoclinic'
loop_
_space_group_symop_operation_xyz
x,y,z
-x,y,1/2-z
-x,-y,-z
x,-y,1/2+z
1/2+x,1/2+y,z
1/2-x,1/2+y,1/2-z
1/2-x,1/2-y,-z
1/2+x,1/2-y,1/2+z
loop_
_atom_site_type_symbol
_atom_site_label
_atom_site_fract_x
_atom_site_fract_y
_atom_site_fract_z
Si Si1 0.000000 0.876001 0.250000
Si Si2 0.772342 0.532570 0.138049
Si Si3 0.000000 0.564130 0.250000
Si Si4 0.576185 0.311594 0.834925
Si Si5 0.944829 0.051809 0.506785
Si Si6 0.385243 0.147881 0.716704
O O1 0.861792 0.924924 0.513573
O O2 0.964309 0.822144 0.437286
O O3 0.718335 0.471552 0.153248
O O4 0.874576 0.590340 0.850832
O O5 0.861536 0.488172 0.047220
O O6 0.993205 0.615900 0.384479
O O7 0.556434 0.224487 0.848982
O O8 0.736411 0.337649 0.469176
O O9 0.473714 0.361487 0.971062
O O10 0.000000 0.000000 0.500000
O O11 0.000000 0.033270 0.250000
#
# Coordination Sequence:
#
# PCOD8135580 Si02
#       6
#     4   8   4   8   8   8
#     4  10  19  38  70  97 116 176 230 280 317 404
#     4  11  23  39  68  97 129 176 232 281 334 408
#     4  12  25  42  64  91 142 178 220 274 367 406
#     4  10  21  39  68  95 132 166 232 276 343 393
#     4  12  21  39  69 103 128 171 236 287 321 400
#     4  10  22  40  60  96 133 177 212 281 346 409
#
# _framework density 21.447064000000001
#
# number of rings (size 3 to 8) (size 9 to 14) (size 15 to 20)
#    0.000    1.200    5.000    2.400    2.800    0.000 
#    1.800    1.000    0.000    0.000    0.000    0.000 
#    0.000    0.000    0.000    0.000    0.000    0.000 
#
# Total GULP energy -247790.955853 kJ/mol
# GULP energy per Si atom -12389.547793 kJ/mol
# Density = 2.139825 g / cm^3
# Si number density = 21.447064 Si / 1000 Ang^3
#
#
#
# Elastic Constant Matrix: (Units=GPa)
#
#
# Indices 1 2 3 4 5 6 
#
# 1 80.1063 42.0236 17.7686 0.0000 0.0621 0.0001
# 2 42.0236 159.1380 38.2126 -0.0004 -0.4074 0.0001
# 3 17.7686 38.2126 83.8120 -0.0015 12.3832 0.0001
# 4 0.0000 -0.0004 -0.0015 28.0640 0.0004 -1.9352
# 5 0.0621 -0.4074 12.3832 0.0004 36.1044 -0.0001
# 6 0.0001 0.0001 0.0001 -1.9352 -0.0001 30.3008
#
#
#
# Elastic Compliance Matrix: (Units=1/GPa)
#
#
# Indices 1 2 3 4 5 6 
#
# 1 0.014666 -0.003490 -0.001589 0.000000 0.000480 0.000000
# 2 -0.003490 0.007941 -0.003049 0.000000 0.001141 0.000000
# 3 -0.001589 -0.003049 0.014393 0.000001 -0.004968 0.000000
# 4 0.000000 0.000000 0.000001 0.035790 -0.000001 0.002286
# 5 0.000480 0.001141 -0.004968 -0.000001 0.029413 0.000000
# 6 0.000000 0.000000 0.000000 0.002286 0.000000 0.033148
#
#
# Mechanical properties :
#
#
# Convention : Reuss Voigt Hill
#
# Bulk Modulus (GPa) = 48.20909 57.67398 52.94154
# Shear Modulus (GPa) = 31.54119 33.89728 32.71923
#
# Velocity S-wave (km/s) = 3.83907 3.97987 3.91011
# Velocity P-wave (km/s) = 6.49448 6.93317 6.71741
#
# Compressibility (1/GPa) = 0.02074297
#
# Stress axis : x y z
#
# Youngs Moduli (GPa) = 68.18284 125.93549 69.48037
#
# Poissons Ratio (x) = 0.43954 0.11041
# Poissons Ratio (y) = 0.23797 0.21185
# Poissons Ratio (z) = 0.10835 0.38399
#
# Static dielectric constant tensor:
#      x y z
#    x 3.732330 0.000000 0.051620 
#    y 0.000000 4.043440 0.000000 
#    z 0.051620 0.000000 3.843490 
# 
# 
# High freq. dielectric constant tensor:
#      x y z
#    x 1.810520 0.000000 0.011590 
#    y 0.000000 1.851430 0.000000 
#    z 0.011590 0.000000 1.838910 
# 
# From -- ./inp_files/127205.got.cif
#   From: 2010.06.25/outbox.cif.g09.slc.cpg/sg15_64_cif.got.tgz:127205.got - 2010.06.28 07:06:18.
