data_PCOD8135623
_publ_section_title
;
Structure prediction by ZEFSAII (Michael W. Deem and Ramdas Pophale) SiO2 
 PCOD8135623
Probable space group: C 2/C
;
_chemical_formula_sum "Si O2"
_cell_formula_units_Z 48
_cell_length_a 12.299744
_cell_length_b 18.675307
_cell_length_c 13.041223
_cell_angle_alpha 90.000000
_cell_angle_beta 61.750171
_cell_angle_gamma 90.000000
_cell_volume 2638.790329
_symmetry_space_group_name_H-M "C 2/C"
_symmetry_group_IT_number 15
_symmetry_cell_setting 'monoclinic'
loop_
_space_group_symop_operation_xyz
x,y,z
-x,y,1/2-z
-x,-y,-z
x,-y,1/2+z
1/2+x,1/2+y,z
1/2-x,1/2+y,1/2-z
1/2-x,1/2-y,-z
1/2+x,1/2-y,1/2+z
loop_
_atom_site_type_symbol
_atom_site_label
_atom_site_fract_x
_atom_site_fract_y
_atom_site_fract_z
Si Si1 0.825220 0.663319 0.061122
Si Si2 0.374552 0.012960 0.117254
Si Si3 0.574723 0.811355 0.566016
Si Si4 0.745351 0.863707 0.324901
Si Si5 0.000000 0.428966 0.750000
Si Si6 0.000000 0.192380 0.750000
Si Si7 0.642621 0.786115 0.178813
O O1 0.801636 0.581176 0.103796
O O2 0.718458 0.712467 0.157357
O O3 0.956081 0.687194 0.046446
O O4 0.825128 0.671963 0.939341
O O5 0.284249 0.946514 0.142617
O O6 0.407498 0.022982 0.223087
O O7 0.500000 0.000000 0.000000
O O8 0.695407 0.814427 0.440747
O O9 0.580861 0.879288 0.638923
O O10 0.568633 0.738905 0.633145
O O11 0.893006 0.856329 0.248483
O O12 0.678423 0.840543 0.251522
O O13 0.500000 0.765184 0.250000
#
# Coordination Sequence:
#
# PCOD8135623 Si02
#       7
#     8   8   8   8   4   4   8
#     4  10  21  38  58  88 120 146 191 246 290 342
#     4  11  21  37  60  87 116 150 197 240 293 340
#     4  10  19  39  60  83 114 154 193 244 289 338
#     4  12  23  36  64  87 115 157 195 247 290 350
#     4   9  20  34  60  86 113 148 192 244 287 340
#     4  11  24  40  54  86 121 152 200 240 291 356
#     4  11  21  37  64  87 115 152 196 237 294 350
#
# _framework density 18.190152999999999
#
# number of rings (size 3 to 8) (size 9 to 14) (size 15 to 20)
#    0.000    1.333    6.667    0.500    3.500    0.000 
#    1.500    0.000    0.000    2.000    0.000    0.000 
#    0.000    0.000    0.000    0.000    0.000    0.000 
#
# Total GULP energy -297634.476583 kJ/mol
# GULP energy per Si atom -12401.436524 kJ/mol
# Density = 1.814875 g / cm^3
# Si number density = 18.190153 Si / 1000 Ang^3
#
#
#
# Elastic Constant Matrix: (Units=GPa)
#
#
# Indices 1 2 3 4 5 6 
#
# 1 94.6716 46.4486 27.5502 0.0000 -7.3551 0.0000
# 2 46.4486 121.1943 29.9943 0.0000 -1.4761 0.0000
# 3 27.5502 29.9943 78.0614 0.0000 11.6243 0.0000
# 4 0.0000 0.0000 0.0000 14.3921 0.0000 8.2683
# 5 -7.3551 -1.4761 11.6243 0.0000 28.9041 0.0000
# 6 0.0000 0.0000 0.0000 8.2683 0.0000 22.9881
#
#
#
# Elastic Compliance Matrix: (Units=1/GPa)
#
#
# Indices 1 2 3 4 5 6 
#
# 1 0.014316 -0.004407 -0.004115 0.000000 0.005073 0.000000
# 2 -0.004407 0.010584 -0.002580 0.000000 0.000457 0.000000
# 3 -0.004115 -0.002580 0.016412 0.000000 -0.007779 0.000000
# 4 0.000000 0.000000 0.000000 0.087579 0.000000 -0.031500
# 5 0.005073 0.000457 -0.007779 0.000000 0.039040 0.000000
# 6 0.000000 0.000000 0.000000 -0.031500 0.000000 0.054831
#
#
# Mechanical properties :
#
#
# Convention : Reuss Voigt Hill
#
# Bulk Modulus (GPa) = 52.32713 55.76817 54.04765
# Shear Modulus (GPa) = 19.89377 25.91915 22.90646
#
# Velocity S-wave (km/s) = 3.31063 3.77888 3.55248
# Velocity P-wave (km/s) = 6.59112 7.05442 6.82671
#
# Compressibility (1/GPa) = 0.01911055
#
# Stress axis : x y z
#
# Youngs Moduli (GPa) = 69.84959 94.48142 60.92989
#
# Poissons Ratio (x) = 0.41635 0.25072
# Poissons Ratio (y) = 0.30781 0.15717
# Poissons Ratio (z) = 0.28742 0.24372
#
# Static dielectric constant tensor:
#      x y z
#    x 3.301470 0.000000 0.239030 
#    y 0.000000 3.402220 0.000000 
#    z 0.239030 0.000000 3.628990 
# 
# 
# High freq. dielectric constant tensor:
#      x y z
#    x 1.695660 0.000000 0.015660 
#    y 0.000000 1.700410 0.000000 
#    z 0.015660 0.000000 1.713440 
# 
# From -- ./inp_files/87838.got.cif
#   From: 2010.06.25/outbox.cif.g09.slc.cpg/sg15_44_cif.got.tgz:87838.got - 2010.06.28 07:06:18.
