data_PCOD8135799
_publ_section_title
;
Structure prediction by ZEFSAII (Michael W. Deem and Ramdas Pophale) SiO2 
 PCOD8135799
Probable space group: C 2/C
;
_chemical_formula_sum "Si O2"
_cell_formula_units_Z 64
_cell_length_a 26.912403
_cell_length_b 12.889130
_cell_length_c 14.671284
_cell_angle_alpha 90.000000
_cell_angle_beta 39.783014
_cell_angle_gamma 90.000000
_cell_volume 3256.447152
_symmetry_space_group_name_H-M "C 2/C"
_symmetry_group_IT_number 15
_symmetry_cell_setting 'monoclinic'
loop_
_space_group_symop_operation_xyz
x,y,z
-x,y,1/2-z
-x,-y,-z
x,-y,1/2+z
1/2+x,1/2+y,z
1/2-x,1/2+y,1/2-z
1/2-x,1/2-y,-z
1/2+x,1/2-y,1/2+z
loop_
_atom_site_type_symbol
_atom_site_label
_atom_site_fract_x
_atom_site_fract_y
_atom_site_fract_z
Si Si1 0.149804 0.992661 0.716993
Si Si2 0.487690 0.485239 0.869879
Si Si3 0.887370 0.824046 0.105102
Si Si4 0.292811 0.091688 0.442226
Si Si5 0.615844 0.341138 0.904672
Si Si6 0.463470 0.008703 0.199914
Si Si7 0.514767 0.835852 0.475759
Si Si8 0.738539 0.739097 0.365991
O O1 0.124951 0.104519 0.789460
O O2 0.222180 0.008208 0.547349
O O3 0.173955 0.909707 0.760411
O O4 0.071796 0.945350 0.783015
O O5 0.500000 0.519416 0.750000
O O6 0.426954 0.389469 0.967419
O O7 0.458116 0.586545 0.965751
O O8 0.800643 0.781397 0.202798
O O9 0.937039 0.727338 0.067781
O O10 0.372475 0.030149 0.333954
O O11 0.292593 0.168102 0.528250
O O12 0.283595 0.153009 0.361274
O O13 0.587266 0.239956 0.891285
O O14 0.663099 0.310636 0.927354
O O15 0.500000 0.002488 0.250000
O O16 0.470987 0.900244 0.136350
O O17 0.506566 0.095848 0.078963
#
# Coordination Sequence:
#
# PCOD8135799 Si02
#       8
#     8   8   8   8   8   8   8   8
#     4  10  20  38  62  88 126 150 195 265 304 357
#     4  11  21  36  63  94 121 159 203 259 313 368
#     4  10  19  40  61  86 124 158 196 250 315 363
#     4  10  21  40  58  92 122 148 205 261 306 361
#     4  11  21  39  61  89 121 162 207 243 314 377
#     4  11  25  42  63  90 122 168 213 263 309 371
#     4  11  22  42  65  86 124 165 212 258 301 389
#     4  10  21  36  65  89 118 162 197 256 309 365
#
# _framework density 19.653320000000001
#
# number of rings (size 3 to 8) (size 9 to 14) (size 15 to 20)
#    0.000    1.500    3.750    2.250    0.000    3.000 
#    9.000    0.625    0.000    0.000    0.000    0.000 
#    0.000    0.000    0.000    0.000    0.000    0.000 
#
# Total GULP energy -396691.618507 kJ/mol
# GULP energy per Si atom -12396.613078 kJ/mol
# Density = 1.960859 g / cm^3
# Si number density = 19.653320 Si / 1000 Ang^3
#
#
#
# Elastic Constant Matrix: (Units=GPa)
#
#
# Indices 1 2 3 4 5 6 
#
# 1 84.8769 44.4778 38.1853 0.0000 -7.8095 0.0000
# 2 44.4778 108.0035 50.9934 0.0000 2.6824 0.0000
# 3 38.1853 50.9934 107.4782 0.0000 -9.4108 0.0000
# 4 0.0000 0.0000 0.0000 6.4980 0.0000 -1.5715
# 5 -7.8095 2.6824 -9.4108 0.0000 32.2087 0.0000
# 6 0.0000 0.0000 0.0000 -1.5715 0.0000 19.8287
#
#
#
# Elastic Compliance Matrix: (Units=1/GPa)
#
#
# Indices 1 2 3 4 5 6 
#
# 1 0.016246 -0.005412 -0.002894 0.000000 0.003544 0.000000
# 2 -0.005412 0.013971 -0.005052 0.000000 -0.003952 0.000000
# 3 -0.002894 -0.005052 0.013038 0.000000 0.003529 0.000000
# 4 0.000000 0.000000 0.000000 0.156901 0.000000 0.012435
# 5 0.003544 -0.003952 0.003529 0.000000 0.033267 0.000000
# 6 0.000000 0.000000 0.000000 0.012435 0.000000 0.051417
#
#
# Mechanical properties :
#
#
# Convention : Reuss Voigt Hill
#
# Bulk Modulus (GPa) = 60.46053 63.07463 61.76758
# Shear Modulus (GPa) = 15.76943 22.82054 19.29499
#
# Velocity S-wave (km/s) = 2.83570 3.41127 3.13672
# Velocity P-wave (km/s) = 6.44608 6.90500 6.67948
#
# Compressibility (1/GPa) = 0.01653971
#
# Stress axis : x y z
#
# Youngs Moduli (GPa) = 61.55429 71.57623 76.69796
#
# Poissons Ratio (x) = 0.38738 0.22195
# Poissons Ratio (y) = 0.33314 0.38747
# Poissons Ratio (z) = 0.17812 0.36159
#
# Static dielectric constant tensor:
#      x y z
#    x 3.499640 0.000000 -0.096390 
#    y 0.000000 3.629110 0.000000 
#    z -0.096390 0.000000 3.711060 
# 
# 
# High freq. dielectric constant tensor:
#      x y z
#    x 1.752200 0.000000 -0.010770 
#    y 0.000000 1.767100 0.000000 
#    z -0.010770 0.000000 1.767620 
# 
# From -- ./inp_files/177788.got.cif
#   From: 2010.06.25/outbox.cif.g09.slc.cpg/sg15_89_cif.got.tgz:177788.got - 2010.06.28 07:06:18.
