data_PCOD8135674
_publ_section_title
;
Structure prediction by ZEFSAII (Michael W. Deem and Ramdas Pophale) SiO2 
 PCOD8135674
Probable space group: C 2/C
;
_chemical_formula_sum "Si O2"
_cell_formula_units_Z 44
_cell_length_a 20.708470
_cell_length_b 11.557086
_cell_length_c 9.474980
_cell_angle_alpha 90.000000
_cell_angle_beta 112.669840
_cell_angle_gamma 90.000000
_cell_volume 2092.447281
_symmetry_space_group_name_H-M "C 2/C"
_symmetry_group_IT_number 15
_symmetry_cell_setting 'monoclinic'
loop_
_space_group_symop_operation_xyz
x,y,z
-x,y,1/2-z
-x,-y,-z
x,-y,1/2+z
1/2+x,1/2+y,z
1/2-x,1/2+y,1/2-z
1/2-x,1/2-y,-z
1/2+x,1/2-y,1/2+z
loop_
_atom_site_type_symbol
_atom_site_label
_atom_site_fract_x
_atom_site_fract_y
_atom_site_fract_z
Si Si1 0.000000 0.659445 0.250000
Si Si2 0.885478 0.175098 0.737450
Si Si3 0.343263 0.708153 0.385571
Si Si4 0.806265 0.369873 0.776981
Si Si5 0.452469 0.443418 0.843390
Si Si6 0.862415 0.559899 0.021303
O O1 0.043693 0.747845 0.187845
O O2 0.053594 0.578403 0.384378
O O3 0.853151 0.178034 0.556108
O O4 0.832347 0.236013 0.802045
O O5 0.893809 0.040331 0.770484
O O6 0.276851 0.638588 0.268477
O O7 0.412319 0.672251 0.356145
O O8 0.335412 0.847623 0.380400
O O9 0.843796 0.436293 0.937898
O O10 0.824435 0.427008 0.640618
O O11 0.500000 0.412536 0.750000
O O12 0.500000 0.500000 0.000000
#
# Coordination Sequence:
#
# PCOD8135674 Si02
#       6
#     4   8   8   8   8   8
#     4   8  16  36  64  82 120 154 204 256 294 364
#     4  10  19  39  63  89 119 165 205 246 315 371
#     4  10  22  38  65  88 129 162 204 258 304 379
#     4  10  23  38  65  90 125 169 203 251 313 374
#     4  12  22  39  64  92 120 163 209 258 312 359
#     4  10  21  41  61  92 124 163 212 248 314 371
#
# _framework density 21.028010999999999
#
# number of rings (size 3 to 8) (size 9 to 14) (size 15 to 20)
#    0.000    2.182    2.727    3.273    5.091    2.909 
#    3.273    0.909    2.000    0.000    0.000    0.000 
#    0.000    0.000    0.000    0.000    0.000    0.000 
#
# Total GULP energy -272557.985593 kJ/mol
# GULP energy per Si atom -12388.999345 kJ/mol
# Density = 2.098015 g / cm^3
# Si number density = 21.028011 Si / 1000 Ang^3
#
#
#
# Elastic Constant Matrix: (Units=GPa)
#
#
# Indices 1 2 3 4 5 6 
#
# 1 99.0626 6.5496 23.0516 0.0000 14.8652 0.0000
# 2 6.5496 51.6405 8.9184 0.0000 5.4485 0.0000
# 3 23.0516 8.9184 44.5050 0.0000 12.5669 0.0000
# 4 0.0000 0.0000 0.0000 -199.8405 0.0000 -136.4004
# 5 14.8652 5.4485 12.5669 0.0000 33.3549 0.0000
# 6 0.0000 0.0000 0.0000 -136.4004 0.0000 -52.4242
#
#
#
# Elastic Compliance Matrix: (Units=1/GPa)
#
#
# Indices 1 2 3 4 5 6 
#
# 1 0.011799 -0.000264 -0.005132 0.000000 -0.003282 0.000000
# 2 -0.000264 0.020181 -0.003368 0.000000 -0.001910 0.000000
# 3 -0.005132 -0.003368 0.027978 0.000000 -0.007704 0.000000
# 4 0.000000 0.000000 0.000000 0.006449 0.000000 -0.016780
# 5 -0.003282 -0.001910 -0.007704 0.000000 0.034658 0.000000
# 6 0.000000 0.000000 0.000000 -0.016780 0.000000 0.024585
#
#
# Mechanical properties :
#
#
# Convention : Reuss Voigt Hill
#
# Bulk Modulus (GPa) = 23.56811 30.24969 26.90890
# Shear Modulus (GPa) = 31.78234 -33.33605 -0.77685
#
# Velocity S-wave (km/s) = 3.89193 -3.98592 -0.60847
# Velocity P-wave (km/s) = 5.60611 2.60130 3.51153
#
# Compressibility (1/GPa) = 0.04243021
#
# Stress axis : x y z
#
# Youngs Moduli (GPa) = 84.75552 49.55073 35.74294
#
# Poissons Ratio (x) = 0.01308 0.18342
# Poissons Ratio (y) = 0.02237 0.12039
# Poissons Ratio (z) = 0.43493 0.16689
#
# Static dielectric constant tensor:
#      x y z
#    x 4.004720 0.000000 -0.003870 
#    y 0.000000 3.258650 0.000000 
#    z -0.003870 0.000000 4.107300 
# 
# 
# High freq. dielectric constant tensor:
#      x y z
#    x 1.827550 0.000000 0.017450 
#    y 0.000000 1.814680 0.000000 
#    z 0.017450 0.000000 1.803120 
# 
# From -- ./inp_files/54546.got.cif
#   From: 2010.06.25/outbox.cif.g09.slc.cpg/sg15_28_cif.got.tgz:54546.got - 2010.06.28 07:06:18.
