data_PCOD8135525
_publ_section_title
;
Structure prediction by ZEFSAII (Michael W. Deem and Ramdas Pophale) SiO2 
 PCOD8135525
Probable space group: C 2/C
;
_chemical_formula_sum "Si O2"
_cell_formula_units_Z 44
_cell_length_a 7.889013
_cell_length_b 13.259029
_cell_length_c 25.836088
_cell_angle_alpha 90.000000
_cell_angle_beta 42.126568
_cell_angle_gamma 90.000000
_cell_volume 1812.738534
_symmetry_space_group_name_H-M "C 2/C"
_symmetry_group_IT_number 15
_symmetry_cell_setting 'monoclinic'
loop_
_space_group_symop_operation_xyz
x,y,z
-x,y,1/2-z
-x,-y,-z
x,-y,1/2+z
1/2+x,1/2+y,z
1/2-x,1/2+y,1/2-z
1/2-x,1/2-y,-z
1/2+x,1/2-y,1/2+z
loop_
_atom_site_type_symbol
_atom_site_label
_atom_site_fract_x
_atom_site_fract_y
_atom_site_fract_z
Si Si1 0.000000 0.570028 0.750000
Si Si2 0.095851 0.602835 0.453338
Si Si3 0.485657 0.494833 0.192473
Si Si4 0.239990 0.619702 0.065918
Si Si5 0.347044 0.807372 0.100223
Si Si6 0.799335 0.391692 0.398015
O O1 0.803000 0.504508 0.760891
O O2 0.836762 0.634530 0.828618
O O3 0.381790 0.585916 0.369367
O O4 0.000000 0.500000 0.500000
O O5 0.937905 0.648233 0.441563
O O6 0.066785 0.681847 0.506416
O O7 0.500000 0.517444 0.250000
O O8 0.623341 0.389310 0.147784
O O9 0.220146 0.697721 0.118895
O O10 0.148176 0.510476 0.105414
O O11 0.520179 0.626941 0.980112
O O12 0.492703 0.820969 0.121267
#
# Coordination Sequence:
#
# PCOD8135525 Si02
#       6
#     4   8   8   8   8   8
#     4  12  24  42  70  96 138 202 224 290 388 424
#     4  10  19  38  65  96 131 178 233 287 347 426
#     4  11  22  43  69  97 143 187 235 295 365 440
#     4  11  22  40  71  99 133 185 237 303 364 417
#     4  11  22  41  69 101 138 181 243 306 352 429
#     4  11  23  41  65 102 136 180 244 291 360 450
#
# _framework density 24.272666000000001
#
# number of rings (size 3 to 8) (size 9 to 14) (size 15 to 20)
#    0.000    1.091    5.455    3.273    2.545    0.000 
#    1.636    0.000   12.000    0.000    0.000    0.000 
#    0.000    0.000    0.000    0.000    0.000    0.000 
#
# Total GULP energy -272604.790427 kJ/mol
# GULP energy per Si atom -12391.126838 kJ/mol
# Density = 2.421742 g / cm^3
# Si number density = 24.272666 Si / 1000 Ang^3
#
#
#
# Elastic Constant Matrix: (Units=GPa)
#
#
# Indices 1 2 3 4 5 6 
#
# 1 144.9955 6.6878 34.8073 0.0038 0.9701 -0.0022
# 2 6.6878 66.5338 18.4790 -0.0001 12.1521 0.0000
# 3 34.8073 18.4790 103.5142 0.0065 12.6083 -0.0001
# 4 0.0038 -0.0001 0.0065 15.7844 -0.0022 5.5476
# 5 0.9701 12.1521 12.6083 -0.0022 45.7616 0.0003
# 6 -0.0022 0.0000 -0.0001 5.5476 0.0003 35.1614
#
#
#
# Elastic Compliance Matrix: (Units=1/GPa)
#
#
# Indices 1 2 3 4 5 6 
#
# 1 0.007517 -0.000149 -0.002573 -0.000001 0.000589 0.000001
# 2 -0.000149 0.016391 -0.002428 0.000001 -0.003681 0.000000
# 3 -0.002573 -0.002428 0.011252 -0.000005 -0.002401 0.000001
# 4 -0.000001 0.000001 -0.000005 0.067073 0.000004 -0.010582
# 5 0.000589 -0.003681 -0.002401 0.000004 0.023479 -0.000001
# 6 0.000001 0.000000 0.000001 -0.010582 -0.000001 0.030110
#
#
# Mechanical properties :
#
#
# Convention : Reuss Voigt Hill
#
# Bulk Modulus (GPa) = 40.22285 48.33242 44.27763
# Shear Modulus (GPa) = 28.66841 36.34610 32.50725
#
# Velocity S-wave (km/s) = 3.44044 3.87383 3.66355
# Velocity P-wave (km/s) = 5.69117 6.32173 6.01472
#
# Compressibility (1/GPa) = 0.02486149
#
# Stress axis : x y z
#
# Youngs Moduli (GPa) = 133.02576 61.00727 88.87685
#
# Poissons Ratio (x) = 0.00906 0.22868
# Poissons Ratio (y) = 0.01977 0.21578
# Poissons Ratio (z) = 0.34227 0.14812
#
# Static dielectric constant tensor:
#      x y z
#    x 4.443130 0.000000 0.111720 
#    y 0.000000 4.631870 -0.000010 
#    z 0.111720 -0.000010 4.836340 
# 
# 
# High freq. dielectric constant tensor:
#      x y z
#    x 1.970310 0.000000 0.004630 
#    y 0.000000 1.937030 0.000000 
#    z 0.004630 0.000000 1.972130 
# 
# From -- ./inp_files/288591.got.cif
#   From: 2010.06.25/outbox.cif.g09.slc.cpg/sg15_145_cif.got.tgz:288591.got - 2010.06.28 07:06:18.
