data_PCOD8135530
_publ_section_title
;
Structure prediction by ZEFSAII (Michael W. Deem and Ramdas Pophale) SiO2 
 PCOD8135530
Probable space group: C 2/C
;
_chemical_formula_sum "Si O2"
_cell_formula_units_Z 36
_cell_length_a 11.705840
_cell_length_b 12.857093
_cell_length_c 10.965123
_cell_angle_alpha 90.000000
_cell_angle_beta 93.794008
_cell_angle_gamma 90.000000
_cell_volume 1646.667939
_symmetry_space_group_name_H-M "C 2/C"
_symmetry_group_IT_number 15
_symmetry_cell_setting 'monoclinic'
loop_
_space_group_symop_operation_xyz
x,y,z
-x,y,1/2-z
-x,-y,-z
x,-y,1/2+z
1/2+x,1/2+y,z
1/2-x,1/2+y,1/2-z
1/2-x,1/2-y,-z
1/2+x,1/2-y,1/2+z
loop_
_atom_site_type_symbol
_atom_site_label
_atom_site_fract_x
_atom_site_fract_y
_atom_site_fract_z
Si Si1 0.164422 0.752602 0.106985
Si Si2 0.500000 0.055974 0.750000
Si Si3 0.536673 0.879746 0.006694
Si Si4 0.203996 0.396241 0.824507
Si Si5 0.570629 0.479873 0.130080
O O1 0.217562 0.697302 0.229321
O O2 0.132425 0.869611 0.134330
O O3 0.049933 0.691754 0.070790
O O4 0.250000 0.750000 0.000000
O O5 0.533760 0.141194 0.650014
O O6 0.611904 0.983886 0.777081
O O7 0.659346 0.856947 0.953660
O O8 0.500000 0.000000 0.000000
O O9 0.330550 0.435582 0.856299
O O10 0.500000 0.490501 0.250000
O O11 0.500000 0.500000 0.000000
#
# Coordination Sequence:
#
# PCOD8135530 Si02
#       5
#     8   4   8   8   8
#     4  12  23  45  73 103 143 190 235 300 360 432
#     4  10  20  36  74 106 134 168 244 310 336 398
#     4  10  19  38  66 105 135 170 239 297 349 403
#     4  11  22  44  74  98 139 185 245 294 347 431
#     4  12  29  49  69 105 156 193 230 298 381 438
#
# _framework density 21.862331999999999
#
# number of rings (size 3 to 8) (size 9 to 14) (size 15 to 20)
#    0.000    0.889    4.444    5.333    3.111    0.000 
#   10.000    2.222    0.000    0.000    0.000    0.000 
#    0.000    0.000    0.000    0.000    0.000    0.000 
#
# Total GULP energy -223043.620607 kJ/mol
# GULP energy per Si atom -12391.312256 kJ/mol
# Density = 2.181257 g / cm^3
# Si number density = 21.862332 Si / 1000 Ang^3
#
#
#
# Elastic Constant Matrix: (Units=GPa)
#
#
# Indices 1 2 3 4 5 6 
#
# 1 143.0437 48.7236 80.7359 0.0000 -18.0894 0.0000
# 2 48.7236 97.1227 59.6878 0.0000 -2.4419 0.0000
# 3 80.7359 59.6878 219.9762 0.0000 -28.8659 0.0000
# 4 0.0000 0.0000 0.0000 40.2420 0.0000 2.3365
# 5 -18.0894 -2.4419 -28.8659 0.0000 52.4336 0.0000
# 6 0.0000 0.0000 0.0000 2.3365 0.0000 37.4178
#
#
#
# Elastic Compliance Matrix: (Units=1/GPa)
#
#
# Indices 1 2 3 4 5 6 
#
# 1 0.009733 -0.003350 -0.002418 0.000000 0.001871 0.000000
# 2 -0.003350 0.013602 -0.002727 0.000000 -0.002023 0.000000
# 3 -0.002418 -0.002727 0.006518 0.000000 0.002627 0.000000
# 4 0.000000 0.000000 0.000000 0.024940 0.000000 -0.001557
# 5 0.001871 -0.002023 0.002627 0.000000 0.021069 0.000000
# 6 0.000000 0.000000 0.000000 -0.001557 0.000000 0.026822
#
#
# Mechanical properties :
#
#
# Convention : Reuss Voigt Hill
#
# Bulk Modulus (GPa) = 77.73669 93.15970 85.44820
# Shear Modulus (GPa) = 40.33519 44.08504 42.21012
#
# Velocity S-wave (km/s) = 4.29996 4.49540 4.39877
# Velocity P-wave (km/s) = 7.76450 8.34562 8.06030
#
# Compressibility (1/GPa) = 0.01286394
#
# Stress axis : x y z
#
# Youngs Moduli (GPa) = 102.74158 73.52064 153.42304
#
# Poissons Ratio (x) = 0.24629 0.37095
# Poissons Ratio (y) = 0.34417 0.41833
# Poissons Ratio (z) = 0.24841 0.20047
#
# Static dielectric constant tensor:
#      x y z
#    x 3.955160 0.000000 -0.228250 
#    y 0.000000 3.570030 0.000000 
#    z -0.228250 0.000000 5.713320 
# 
# 
# High freq. dielectric constant tensor:
#      x y z
#    x 1.859210 0.000000 -0.016790 
#    y 0.000000 1.849200 0.000000 
#    z -0.016790 0.000000 1.890740 
# 
# From -- ./inp_files/84382.got.cif
#   From: 2010.06.25/outbox.cif.g09.slc.cpg/sg15_43_cif.got.tgz:84382.got - 2010.06.28 07:06:18.
