data_PCOD8135420
_publ_section_title
;
Structure prediction by ZEFSAII (Michael W. Deem and Ramdas Pophale) SiO2 
 PCOD8135420
Probable space group: C 2/C
;
_chemical_formula_sum "Si O2"
_cell_formula_units_Z 48
_cell_length_a 11.265936
_cell_length_b 15.101932
_cell_length_c 18.903152
_cell_angle_alpha 90.000000
_cell_angle_beta 47.135052
_cell_angle_gamma 90.000000
_cell_volume 2357.294386
_symmetry_space_group_name_H-M "C 2/C"
_symmetry_group_IT_number 15
_symmetry_cell_setting 'monoclinic'
loop_
_space_group_symop_operation_xyz
x,y,z
-x,y,1/2-z
-x,-y,-z
x,-y,1/2+z
1/2+x,1/2+y,z
1/2-x,1/2+y,1/2-z
1/2-x,1/2-y,-z
1/2+x,1/2-y,1/2+z
loop_
_atom_site_type_symbol
_atom_site_label
_atom_site_fract_x
_atom_site_fract_y
_atom_site_fract_z
Si Si1 0.900937 0.654352 0.154303
Si Si2 0.663165 0.747589 0.144682
Si Si3 0.147014 0.124584 0.020591
Si Si4 0.619264 0.295251 0.140208
Si Si5 0.201478 0.556930 0.019261
Si Si6 0.788105 0.133964 0.128694
O O1 0.772328 0.684935 0.148935
O O2 0.810203 0.616776 0.259695
O O3 0.021787 0.734763 0.124212
O O4 0.012661 0.575322 0.076113
O O5 0.500000 0.775782 0.250000
O O6 0.754046 0.837520 0.086365
O O7 0.616329 0.697334 0.092516
O O8 0.242840 0.043125 0.017303
O O9 0.970727 0.100526 0.063034
O O10 0.500000 0.329301 0.250000
O O11 0.766634 0.237594 0.114656
O O12 0.683748 0.380028 0.073311
O O13 0.213563 0.573090 0.098204
#
# Coordination Sequence:
#
# PCOD8135420 Si02
#       6
#     8   8   8   8   8   8
#     4  10  20  38  63  86 116 158 199 243 291 358
#     4  11  23  42  61  81 117 165 206 237 289 364
#     4  11  24  38  61  88 119 159 198 244 300 353
#     4   9  19  35  60  89 116 157 199 243 296 352
#     4  11  21  36  60  93 123 146 194 257 301 345
#     4  10  19  38  62  88 117 156 197 238 301 357
#
# _framework density 20.362325999999999
#
# number of rings (size 3 to 8) (size 9 to 14) (size 15 to 20)
#    0.000    1.667    1.667    6.000    0.000    2.667 
#    0.000    0.000    0.000    0.000    0.000    0.000 
#    0.000    0.000    0.000    0.000    0.000    0.000 
#
# Total GULP energy -297600.950933 kJ/mol
# GULP energy per Si atom -12400.039622 kJ/mol
# Density = 2.031598 g / cm^3
# Si number density = 20.362326 Si / 1000 Ang^3
#
#
#
# Elastic Constant Matrix: (Units=GPa)
#
#
# Indices 1 2 3 4 5 6 
#
# 1 61.1173 -10.7622 18.8191 0.0000 -14.4241 0.0000
# 2 -10.7622 57.9147 36.3062 0.0001 -10.4599 -0.0001
# 3 18.8191 36.3062 132.5081 0.0007 -13.8468 -0.0001
# 4 0.0000 0.0001 0.0007 14.2631 -0.0001 0.4082
# 5 -14.4241 -10.4599 -13.8468 -0.0001 36.3114 0.0001
# 6 0.0000 -0.0001 -0.0001 0.4082 0.0001 17.6583
#
#
#
# Elastic Compliance Matrix: (Units=1/GPa)
#
#
# Indices 1 2 3 4 5 6 
#
# 1 0.021358 0.008371 -0.004362 0.000000 0.009232 0.000000
# 2 0.008371 0.024697 -0.007150 0.000000 0.007713 0.000000
# 3 -0.004362 -0.007150 0.010133 0.000000 0.000072 0.000000
# 4 0.000000 0.000000 0.000000 0.070158 0.000000 -0.001622
# 5 0.009232 0.007713 0.000072 0.000000 0.033456 0.000000
# 6 0.000000 0.000000 0.000000 -0.001622 0.000000 0.056668
#
#
# Mechanical properties :
#
#
# Convention : Reuss Voigt Hill
#
# Bulk Modulus (GPa) = 20.03762 37.80736 28.92249
# Shear Modulus (GPa) = 20.88667 27.45837 24.17252
#
# Velocity S-wave (km/s) = 3.20621 3.67616 3.44920
# Velocity P-wave (km/s) = 4.85472 6.05198 5.48611
#
# Compressibility (1/GPa) = 0.04990612
#
# Stress axis : x y z
#
# Youngs Moduli (GPa) = 46.82088 40.48995 98.69055
#
# Poissons Ratio (x) = -0.33894 0.43050
# Poissons Ratio (y) = -0.39193 0.70561
# Poissons Ratio (z) = 0.20424 0.28949
#
# Static dielectric constant tensor:
#      x y z
#    x 3.708150 0.000000 -0.054590 
#    y 0.000000 3.433990 0.000000 
#    z -0.054590 0.000000 3.928650 
# 
# 
# High freq. dielectric constant tensor:
#      x y z
#    x 1.795120 0.000000 -0.000520 
#    y 0.000000 1.763330 0.000000 
#    z -0.000520 0.000000 1.816830 
# 
# From -- ./inp_files/143751.got.cif
#   From: 2010.06.25/outbox.cif.g09.slc.cpg/sg15_72_cif.got.tgz:143751.got - 2010.06.28 07:06:18.
