data_PCOD8135096
_publ_section_title
;
Structure prediction by ZEFSAII (Michael W. Deem and Ramdas Pophale) SiO2 
 PCOD8135096
Probable space group: C 2/C
;
_chemical_formula_sum "Si O2"
_cell_formula_units_Z 36
_cell_length_a 26.549784
_cell_length_b 14.154849
_cell_length_c 13.946323
_cell_angle_alpha 90.000000
_cell_angle_beta 20.441085
_cell_angle_gamma 90.000000
_cell_volume 1830.437784
_symmetry_space_group_name_H-M "C 2/C"
_symmetry_group_IT_number 15
_symmetry_cell_setting 'monoclinic'
loop_
_space_group_symop_operation_xyz
x,y,z
-x,y,1/2-z
-x,-y,-z
x,-y,1/2+z
1/2+x,1/2+y,z
1/2-x,1/2+y,1/2-z
1/2-x,1/2-y,-z
1/2+x,1/2-y,1/2+z
loop_
_atom_site_type_symbol
_atom_site_label
_atom_site_fract_x
_atom_site_fract_y
_atom_site_fract_z
Si Si1 0.132500 0.229030 0.956250
Si Si2 0.590762 0.957594 0.750751
Si Si3 0.155345 0.164114 0.703500
Si Si4 0.949742 0.738410 0.444498
Si Si5 0.500000 0.909462 0.250000
O O1 0.139617 0.172554 0.845228
O O2 0.279204 0.221842 0.755147
O O3 0.000000 0.180760 0.250000
O O4 0.101100 0.342134 0.002572
O O5 0.759417 0.933530 0.475029
O O6 0.519471 0.860565 0.846314
O O7 0.593965 0.027797 0.654635
O O8 0.500000 0.000000 0.000000
O O9 0.250000 0.250000 0.500000
O O10 0.000861 0.177054 0.925711
O O11 0.000000 0.770994 0.250000
#
# Coordination Sequence:
#
# PCOD8135096 Si02
#       5
#     8   8   8   8   4
#     4  10  22  37  61  90 123 160 210 250 297 368
#     4  11  21  37  64  89 121 155 204 257 310 355
#     4  10  19  37  61  90 118 162 207 243 300 371
#     4  11  20  38  66  85 118 168 208 245 301 372
#     4  10  20  36  58  90 120 154 200 252 308 342
#
# _framework density 19.667427
#
# number of rings (size 3 to 8) (size 9 to 14) (size 15 to 20)
#    0.667    0.889    5.556    2.667    0.000    0.889 
#    0.000    1.111    4.889    0.000    0.000    0.000 
#    0.000    0.000    0.000    0.000    0.000    0.000 
#
# Total GULP energy -222993.919476 kJ/mol
# GULP energy per Si atom -12388.551082 kJ/mol
# Density = 1.962266 g / cm^3
# Si number density = 19.667427 Si / 1000 Ang^3
#
#
#
# Elastic Constant Matrix: (Units=GPa)
#
#
# Indices 1 2 3 4 5 6 
#
# 1 108.3084 24.2478 49.9140 0.0001 -1.6431 -0.0001
# 2 24.2478 63.6532 14.4184 0.0000 4.7943 0.0000
# 3 49.9140 14.4184 123.7716 0.0001 -3.3462 -0.0001
# 4 0.0001 0.0000 0.0001 34.7631 -0.0001 0.2266
# 5 -1.6431 4.7943 -3.3462 -0.0001 39.2920 0.0001
# 6 -0.0001 0.0000 -0.0001 0.2266 0.0001 11.3195
#
#
#
# Elastic Compliance Matrix: (Units=1/GPa)
#
#
# Indices 1 2 3 4 5 6 
#
# 1 0.012105 -0.003648 -0.004441 0.000000 0.000573 0.000000
# 2 -0.003648 0.017416 -0.000621 0.000000 -0.002330 0.000000
# 3 -0.004441 -0.000621 0.009963 0.000000 0.000738 0.000000
# 4 0.000000 0.000000 0.000000 0.028770 0.000000 -0.000576
# 5 0.000573 -0.002330 0.000738 0.000000 0.025822 0.000000
# 6 0.000000 0.000000 0.000000 -0.000576 0.000000 0.088355
#
#
# Mechanical properties :
#
#
# Convention : Reuss Voigt Hill
#
# Bulk Modulus (GPa) = 45.32363 52.54373 48.93368
# Shear Modulus (GPa) = 24.13068 30.88512 27.50790
#
# Velocity S-wave (km/s) = 3.50656 3.96709 3.74391
# Velocity P-wave (km/s) = 6.28408 6.91070 6.60483
#
# Compressibility (1/GPa) = 0.02206355
#
# Stress axis : x y z
#
# Youngs Moduli (GPa) = 82.60975 57.41832 100.37477
#
# Poissons Ratio (x) = 0.20949 0.44578
# Poissons Ratio (y) = 0.30140 0.06228
# Poissons Ratio (z) = 0.36688 0.03563
#
# Static dielectric constant tensor:
#      x y z
#    x 3.805500 0.000000 -0.460890 
#    y 0.000000 3.989980 0.000000 
#    z -0.460890 0.000000 4.342270 
# 
# 
# High freq. dielectric constant tensor:
#      x y z
#    x 1.771940 0.000000 -0.003510 
#    y 0.000000 1.741240 0.000000 
#    z -0.003510 0.000000 1.762750 
# 
# From -- ./inp_files/178095.got.cif
#   From: 2010.06.25/outbox.cif.g09.slc.cpg/sg15_90_cif.got.tgz:178095.got - 2010.06.28 07:06:18.
