data_PCOD8135696
_publ_section_title
;
Structure prediction by ZEFSAII (Michael W. Deem and Ramdas Pophale) SiO2 
 PCOD8135696
Probable space group: C 2/C
;
_chemical_formula_sum "Si O2"
_cell_formula_units_Z 60
_cell_length_a 28.704121
_cell_length_b 11.284820
_cell_length_c 9.173600
_cell_angle_alpha 90.000000
_cell_angle_beta 109.652841
_cell_angle_gamma 90.000000
_cell_volume 2798.422267
_symmetry_space_group_name_H-M "C 2/C"
_symmetry_group_IT_number 15
_symmetry_cell_setting 'monoclinic'
loop_
_space_group_symop_operation_xyz
x,y,z
-x,y,1/2-z
-x,-y,-z
x,-y,1/2+z
1/2+x,1/2+y,z
1/2-x,1/2+y,1/2-z
1/2-x,1/2-y,-z
1/2+x,1/2-y,1/2+z
loop_
_atom_site_type_symbol
_atom_site_label
_atom_site_fract_x
_atom_site_fract_y
_atom_site_fract_z
Si Si1 0.500000 0.270818 0.750000
Si Si2 0.254310 0.750890 0.256908
Si Si3 0.611646 0.633354 0.793659
Si Si4 0.312220 0.675206 0.059830
Si Si5 0.059119 0.631125 0.311429
Si Si6 0.046395 0.574673 0.604104
Si Si7 0.777131 0.088069 0.534377
Si Si8 0.089007 0.917048 0.946505
O O1 0.530322 0.192412 0.669544
O O2 0.536702 0.352259 0.881870
O O3 0.302087 0.747013 0.199169
O O4 0.255318 0.867814 0.361088
O O5 0.252829 0.634630 0.358453
O O6 0.206006 0.751782 0.100970
O O7 0.585776 0.760092 0.762790
O O8 0.668806 0.647828 0.895169
O O9 0.583700 0.550316 0.880980
O O10 0.607253 0.573576 0.630860
O O11 0.280585 0.553189 0.034303
O O12 0.370422 0.651988 0.108794
O O13 0.078355 0.614628 0.497751
O O14 0.076007 0.512562 0.243003
O O15 0.000000 0.650822 0.250000
O O16 0.000000 0.500000 0.500000
#
# Coordination Sequence:
#
# PCOD8135696 Si02
#       8
#     4   8   8   8   8   8   8   8
#     4  12  24  40  70  90 142 170 236 262 322 394
#     4  10  20  37  69  92 118 168 209 256 320 393
#     4  11  25  42  64  96 134 168 217 279 324 394
#     4  10  21  40  66  93 132 166 212 261 327 390
#     4  10  21  38  67  85 124 164 225 254 325 377
#     4  10  19  39  64  88 111 179 209 268 319 377
#     4  10  21  39  67  91 128 167 207 259 335 383
#     4  11  26  41  64  99 132 177 215 274 332 383
#
# _framework density 21.440653000000001
#
# number of rings (size 3 to 8) (size 9 to 14) (size 15 to 20)
#    0.000    1.600    3.333    2.400    8.400    0.533 
#    0.000    0.000   29.333    0.000    0.000    0.000 
#    0.000    0.000    0.000    0.000    0.000    0.000 
#
# Total GULP energy -371983.358797 kJ/mol
# GULP energy per Si atom -12399.445293 kJ/mol
# Density = 2.139185 g / cm^3
# Si number density = 21.440653 Si / 1000 Ang^3
#
#
#
# Elastic Constant Matrix: (Units=GPa)
#
#
# Indices 1 2 3 4 5 6 
#
# 1 48.8499 45.0838 30.5517 0.0000 -2.4569 0.0000
# 2 45.0838 101.4731 45.0034 0.0000 -4.4364 0.0000
# 3 30.5517 45.0034 138.4979 0.0000 -24.8703 0.0000
# 4 0.0000 0.0000 0.0000 31.9998 0.0000 -7.5255
# 5 -2.4569 -4.4364 -24.8703 0.0000 30.8901 0.0000
# 6 0.0000 0.0000 0.0000 -7.5255 0.0000 32.8061
#
#
#
# Elastic Compliance Matrix: (Units=1/GPa)
#
#
# Indices 1 2 3 4 5 6 
#
# 1 0.035988 -0.014478 -0.003616 0.000000 -0.002129 0.000000
# 2 -0.014478 0.017406 -0.002595 0.000000 -0.000741 0.000000
# 3 -0.003616 -0.002595 0.010220 0.000000 0.007568 0.000000
# 4 0.000000 0.000000 0.000000 0.033032 0.000000 0.007577
# 5 -0.002129 -0.000741 0.007568 0.000000 0.038190 0.000000
# 6 0.000000 0.000000 0.000000 0.007577 0.000000 0.032220
#
#
# Mechanical properties :
#
#
# Convention : Reuss Voigt Hill
#
# Bulk Modulus (GPa) = 44.97520 58.89986 51.93753
# Shear Modulus (GPa) = 23.16448 30.35135 26.75791
#
# Velocity S-wave (km/s) = 3.29051 3.76653 3.53654
# Velocity P-wave (km/s) = 5.95472 6.81516 6.39942
#
# Compressibility (1/GPa) = 0.02223448
#
# Stress axis : x y z
#
# Youngs Moduli (GPa) = 27.78739 57.45155 97.84370
#
# Poissons Ratio (x) = 0.83180 0.35383
# Poissons Ratio (y) = 0.40231 0.25392
# Poissons Ratio (z) = 0.10049 0.14910
#
# Static dielectric constant tensor:
#      x y z
#    x 3.532620 0.000000 -0.275030 
#    y 0.000000 3.875920 0.000000 
#    z -0.275030 0.000000 4.293270 
# 
# 
# High freq. dielectric constant tensor:
#      x y z
#    x 1.805930 0.000000 -0.016890 
#    y 0.000000 1.837550 0.000000 
#    z -0.016890 0.000000 1.863240 
# 
# From -- ./inp_files/69134.got.cif
#   From: 2010.06.25/outbox.cif.g09.slc.cpg/sg15_35_cif.got.tgz:69134.got - 2010.06.28 07:06:18.
