data_PCOD8135692
_publ_section_title
;
Structure prediction by ZEFSAII (Michael W. Deem and Ramdas Pophale) SiO2 
 PCOD8135692
Probable space group: C 2/C
;
_chemical_formula_sum "Si O2"
_cell_formula_units_Z 44
_cell_length_a 26.948174
_cell_length_b 13.004732
_cell_length_c 16.381102
_cell_angle_alpha 90.000000
_cell_angle_beta 158.716839
_cell_angle_gamma 90.000000
_cell_volume 2083.787570
_symmetry_space_group_name_H-M "C 2/C"
_symmetry_group_IT_number 15
_symmetry_cell_setting 'monoclinic'
loop_
_space_group_symop_operation_xyz
x,y,z
-x,y,1/2-z
-x,-y,-z
x,-y,1/2+z
1/2+x,1/2+y,z
1/2-x,1/2+y,1/2-z
1/2-x,1/2-y,-z
1/2+x,1/2-y,1/2+z
loop_
_atom_site_type_symbol
_atom_site_label
_atom_site_fract_x
_atom_site_fract_y
_atom_site_fract_z
Si Si1 0.708858 0.458584 0.406825
Si Si2 0.716863 0.052117 0.141144
Si Si3 0.540180 0.318745 0.481306
Si Si4 0.500000 0.207420 0.750000
Si Si5 0.006427 0.399533 0.857299
Si Si6 0.119246 0.179459 0.289702
O O1 0.713055 0.474003 0.315432
O O2 0.605833 0.365268 0.268185
O O3 0.657599 0.562422 0.372065
O O4 0.859711 0.428661 0.670755
O O5 0.839592 0.111249 0.375405
O O6 0.633165 0.135270 0.959181
O O7 0.616932 0.989429 0.049138
O O8 0.558731 0.205845 0.474507
O O9 0.556011 0.315136 0.602803
O O10 0.494219 0.279362 0.821005
O O11 0.000000 0.391896 0.750000
O O12 0.250000 0.250000 0.500000
#
# Coordination Sequence:
#
# PCOD8135692 Si02
#       6
#     8   8   8   4   8   8
#     4  10  20  41  62  86 132 169 194 259 327 368
#     4  10  19  39  64  86 123 167 204 250 320 375
#     4  11  23  38  66  94 126 164 213 260 314 376
#     4  12  20  38  68  86 120 172 208 258 312 368
#     4  10  21  42  67  88 128 171 203 249 325 382
#     4  11  21  40  63  92 125 163 215 262 313 370
#
# _framework density 21.115397000000002
#
# number of rings (size 3 to 8) (size 9 to 14) (size 15 to 20)
#    0.000    1.455    6.364    2.727    0.000    4.364 
#    1.636    3.636    0.000    0.000    0.000    0.000 
#    0.000    0.000    0.000    0.000    0.000    0.000 
#
# Total GULP energy -272776.367507 kJ/mol
# GULP energy per Si atom -12398.925796 kJ/mol
# Density = 2.106734 g / cm^3
# Si number density = 21.115397 Si / 1000 Ang^3
#
#
#
# Elastic Constant Matrix: (Units=GPa)
#
#
# Indices 1 2 3 4 5 6 
#
# 1 56.4245 42.9560 31.2272 0.0000 12.1741 0.0000
# 2 42.9560 148.1512 61.0309 0.0000 15.9454 0.0000
# 3 31.2272 61.0309 103.2142 0.0000 31.4328 0.0000
# 4 0.0000 0.0000 0.0000 48.6578 0.0000 1.0486
# 5 12.1741 15.9454 31.4328 0.0000 21.5394 0.0000
# 6 0.0000 0.0000 0.0000 1.0486 0.0000 28.5827
#
#
#
# Elastic Compliance Matrix: (Units=1/GPa)
#
#
# Indices 1 2 3 4 5 6 
#
# 1 0.024545 -0.005522 -0.002126 0.000000 -0.006683 0.000000
# 2 -0.005522 0.010212 -0.005429 0.000000 0.003483 0.000000
# 3 -0.002126 -0.005429 0.021513 0.000000 -0.026173 0.000000
# 4 0.000000 0.000000 0.000000 0.020568 0.000000 -0.000755
# 5 -0.006683 0.003483 -0.026173 0.000000 0.085820 0.000000
# 6 0.000000 0.000000 0.000000 -0.000755 0.000000 0.035014
#
#
# Mechanical properties :
#
#
# Convention : Reuss Voigt Hill
#
# Bulk Modulus (GPa) = 33.20345 64.24646 48.72495
# Shear Modulus (GPa) = 21.38000 31.26104 26.32052
#
# Velocity S-wave (km/s) = 3.18548 3.85188 3.53442
# Velocity P-wave (km/s) = 5.41190 7.09049 6.30729
#
# Compressibility (1/GPa) = 0.03011735
#
# Stress axis : x y z
#
# Youngs Moduli (GPa) = 40.74169 97.92056 46.48457
#
# Poissons Ratio (x) = 0.54069 0.09882
# Poissons Ratio (y) = 0.22496 0.25235
# Poissons Ratio (z) = 0.08661 0.53158
#
# Static dielectric constant tensor:
#      x y z
#    x 3.571450 0.000000 0.366810 
#    y 0.000000 4.079670 0.000000 
#    z 0.366810 0.000000 3.888580 
# 
# 
# High freq. dielectric constant tensor:
#      x y z
#    x 1.789820 0.000000 0.033380 
#    y 0.000000 1.841060 0.000000 
#    z 0.033380 0.000000 1.826880 
# 
# From -- ./inp_files/142204.got.cif
#   From: 2010.06.25/outbox.cif.g09.slc.cpg/sg15_72_cif.got.tgz:142204.got - 2010.06.28 07:06:18.
