data_PCOD8135681
_publ_section_title
;
Structure prediction by ZEFSAII (Michael W. Deem and Ramdas Pophale) SiO2 
 PCOD8135681
Probable space group: C 2/C
;
_chemical_formula_sum "Si O2"
_cell_formula_units_Z 40
_cell_length_a 8.524133
_cell_length_b 11.412195
_cell_length_c 16.755926
_cell_angle_alpha 90.000000
_cell_angle_beta 89.233167
_cell_angle_gamma 90.000000
_cell_volume 1629.854880
_symmetry_space_group_name_H-M "C 2/C"
_symmetry_group_IT_number 15
_symmetry_cell_setting 'monoclinic'
loop_
_space_group_symop_operation_xyz
x,y,z
-x,y,1/2-z
-x,-y,-z
x,-y,1/2+z
1/2+x,1/2+y,z
1/2-x,1/2+y,1/2-z
1/2-x,1/2-y,-z
1/2+x,1/2-y,1/2+z
loop_
_atom_site_type_symbol
_atom_site_label
_atom_site_fract_x
_atom_site_fract_y
_atom_site_fract_z
Si Si1 0.002222 0.801349 0.993759
Si Si2 0.214971 0.381671 0.925866
Si Si3 0.725912 0.751435 0.622474
Si Si4 0.661439 0.778657 0.212187
Si Si5 0.044355 0.519397 0.160868
O O1 0.881446 0.908011 0.969849
O O2 0.100888 0.763982 0.915444
O O3 0.893808 0.689774 0.012792
O O4 0.115457 0.832071 0.067621
O O5 0.248928 0.309140 0.845135
O O6 0.114440 0.493029 0.893896
O O7 0.730482 0.695466 0.710545
O O8 0.654704 0.882263 0.622113
O O9 0.500000 0.726329 0.250000
O O10 0.634410 0.896857 0.162248
O O11 0.000000 0.558120 0.250000
#
# Coordination Sequence:
#
# PCOD8135681 Si02
#       5
#     8   8   8   8   8
#     4   9  20  35  65  88 127 169 201 258 333 367
#     4  10  19  39  63  93 122 170 207 264 314 381
#     4  10  19  39  64  93 127 166 208 268 314 374
#     4  11  21  36  67  94 124 165 217 260 314 375
#     4  10  21  36  65  93 121 163 215 261 312 370
#
# _framework density 24.542062000000001
#
# number of rings (size 3 to 8) (size 9 to 14) (size 15 to 20)
#    0.000    2.000    4.000    0.000    0.000    0.000 
#    0.000   10.000   44.000    0.000    0.000    0.000 
#    0.000    0.000    0.000    0.000    0.000    0.000 
#
# Total GULP energy -247814.705724 kJ/mol
# GULP energy per Si atom -12390.735286 kJ/mol
# Density = 2.448620 g / cm^3
# Si number density = 24.542062 Si / 1000 Ang^3
#
#
#
# Elastic Constant Matrix: (Units=GPa)
#
#
# Indices 1 2 3 4 5 6 
#
# 1 112.2290 9.3576 36.2540 0.0000 19.7557 0.0000
# 2 9.3576 35.1620 10.5396 0.0000 9.0924 0.0000
# 3 36.2540 10.5396 116.0995 0.0000 17.7830 0.0000
# 4 0.0000 0.0000 0.0000 25.0083 0.0000 11.6522
# 5 19.7557 9.0924 17.7830 0.0000 63.9534 0.0000
# 6 0.0000 0.0000 0.0000 11.6522 0.0000 20.2660
#
#
#
# Elastic Compliance Matrix: (Units=1/GPa)
#
#
# Indices 1 2 3 4 5 6 
#
# 1 0.010304 -0.001341 -0.002755 0.000000 -0.002226 0.000000
# 2 -0.001341 0.030212 -0.001806 0.000000 -0.003379 0.000000
# 3 -0.002755 -0.001806 0.009889 0.000000 -0.001642 0.000000
# 4 0.000000 0.000000 0.000000 0.054619 0.000000 -0.031404
# 5 -0.002226 -0.003379 -0.001642 0.000000 0.017261 0.000000
# 6 0.000000 0.000000 0.000000 -0.031404 0.000000 0.067400
#
#
# Mechanical properties :
#
#
# Convention : Reuss Voigt Hill
#
# Bulk Modulus (GPa) = 25.90622 41.75476 33.83049
# Shear Modulus (GPa) = 23.32571 35.66815 29.49693
#
# Velocity S-wave (km/s) = 3.08626 3.81642 3.47059
# Velocity P-wave (km/s) = 4.82481 6.03908 5.46577
#
# Compressibility (1/GPa) = 0.03860076
#
# Stress axis : x y z
#
# Youngs Moduli (GPa) = 97.05004 33.09962 101.12202
#
# Poissons Ratio (x) = 0.04438 0.27858
# Poissons Ratio (y) = 0.13012 0.18267
# Poissons Ratio (z) = 0.26736 0.05979
#
# Static dielectric constant tensor:
#      x y z
#    x 4.851630 0.000000 0.398970 
#    y 0.000000 3.704560 0.000000 
#    z 0.398970 0.000000 4.849990 
# 
# 
# High freq. dielectric constant tensor:
#      x y z
#    x 1.991510 0.000000 0.012390 
#    y 0.000000 1.918400 0.000000 
#    z 0.012390 0.000000 2.006580 
# 
# From -- ./inp_files/188492.got.cif
#   From: 2010.06.25/outbox.cif.g09.slc.cpg/sg15_95_cif.got.tgz:188492.got - 2010.06.28 07:06:18.
