data_PCOD8135941
_publ_section_title
;
Structure prediction by ZEFSAII (Michael W. Deem and Ramdas Pophale) SiO2 
 PCOD8135941
Probable space group: C 2/C
;
_chemical_formula_sum "Si O2"
_cell_formula_units_Z 60
_cell_length_a 11.197183
_cell_length_b 16.668521
_cell_length_c 16.386418
_cell_angle_alpha 90.000000
_cell_angle_beta 82.250112
_cell_angle_gamma 90.000000
_cell_volume 3030.434271
_symmetry_space_group_name_H-M "C 2/C"
_symmetry_group_IT_number 15
_symmetry_cell_setting 'monoclinic'
loop_
_space_group_symop_operation_xyz
x,y,z
-x,y,1/2-z
-x,-y,-z
x,-y,1/2+z
1/2+x,1/2+y,z
1/2-x,1/2+y,1/2-z
1/2-x,1/2-y,-z
1/2+x,1/2-y,1/2+z
loop_
_atom_site_type_symbol
_atom_site_label
_atom_site_fract_x
_atom_site_fract_y
_atom_site_fract_z
Si Si1 0.794273 0.412777 0.295356
Si Si2 0.719767 0.372337 0.131975
Si Si3 0.328807 0.566831 0.532805
Si Si4 0.628876 0.081960 0.260640
Si Si5 0.311661 0.702418 0.161008
Si Si6 0.000000 0.286442 0.250000
Si Si7 0.920325 0.895162 0.511803
Si Si8 0.377097 0.008834 0.061281
O O1 0.707276 0.409645 0.223815
O O2 0.712746 0.393451 0.379820
O O3 0.853627 0.501111 0.294730
O O4 0.895690 0.344500 0.292156
O O5 0.733325 0.278244 0.142604
O O6 0.835883 0.417092 0.081484
O O7 0.606961 0.388261 0.083033
O O8 0.388150 0.482047 0.549267
O O9 0.437249 0.621863 0.487087
O O10 0.218548 0.559219 0.481710
O O11 0.500000 0.121019 0.250000
O O12 0.735565 0.144835 0.229195
O O13 0.617783 0.060184 0.356782
O O14 0.438952 0.728071 0.189194
O O15 0.339100 0.664240 0.071262
O O16 0.500000 0.000000 0.000000
#
# Coordination Sequence:
#
# PCOD8135941 Si02
#       8
#     8   8   8   8   8   4   8   8
#     4  10  19  41  65  89 119 168 221 255 311 391
#     4   9  22  40  61  89 124 171 205 256 332 374
#     4  10  21  37  63  93 119 160 213 266 309 377
#     4  11  22  39  66  93 119 164 220 266 308 383
#     4  11  23  41  63  89 132 167 204 267 329 387
#     4  10  24  40  64  88 132 168 208 262 340 380
#     4  10  21  40  60  90 130 162 207 260 323 381
#     4  10  22  38  67  95 122 159 223 269 313 384
#
# _framework density 19.799143000000001
#
# number of rings (size 3 to 8) (size 9 to 14) (size 15 to 20)
#    0.000    1.867    2.000    1.200    7.467    0.533 
#    4.800    0.667    0.000    0.000    0.000    0.000 
#    0.000    0.000    0.000    0.000    0.000    0.000 
#
# Total GULP energy -371790.644739 kJ/mol
# GULP energy per Si atom -12393.021491 kJ/mol
# Density = 1.975408 g / cm^3
# Si number density = 19.799143 Si / 1000 Ang^3
#
#
#
# Elastic Constant Matrix: (Units=GPa)
#
#
# Indices 1 2 3 4 5 6 
#
# 1 124.8799 30.0721 60.1930 0.0000 5.5568 0.0000
# 2 30.0721 80.9467 35.1204 0.0000 -4.1833 0.0000
# 3 60.1930 35.1204 121.9357 0.0000 -7.5480 0.0000
# 4 0.0000 0.0000 0.0000 25.0309 0.0000 0.3133
# 5 5.5568 -4.1833 -7.5480 0.0000 27.5546 0.0000
# 6 0.0000 0.0000 0.0000 0.3133 0.0000 22.0823
#
#
#
# Elastic Compliance Matrix: (Units=1/GPa)
#
#
# Indices 1 2 3 4 5 6 
#
# 1 0.011181 -0.002124 -0.005155 0.000000 -0.003989 0.000000
# 2 -0.002124 0.014551 -0.003031 0.000000 0.001807 0.000000
# 3 -0.005155 -0.003031 0.011856 0.000000 0.003827 0.000000
# 4 0.000000 0.000000 0.000000 0.039958 0.000000 -0.000567
# 5 -0.003989 0.001807 0.003827 0.000000 0.038419 0.000000
# 6 0.000000 0.000000 0.000000 -0.000567 0.000000 0.045293
#
#
# Mechanical properties :
#
#
# Convention : Reuss Voigt Hill
#
# Bulk Modulus (GPa) = 58.92997 64.28148 61.60573
# Shear Modulus (GPa) = 26.66200 28.42534 27.54367
#
# Velocity S-wave (km/s) = 3.67362 3.79315 3.73386
# Velocity P-wave (km/s) = 6.91538 7.19175 7.05492
#
# Compressibility (1/GPa) = 0.01696929
#
# Stress axis : x y z
#
# Youngs Moduli (GPa) = 89.43533 68.72320 84.34818
#
# Poissons Ratio (x) = 0.14593 0.43481
# Poissons Ratio (y) = 0.18992 0.25566
# Poissons Ratio (z) = 0.46103 0.20830
#
# Static dielectric constant tensor:
#      x y z
#    x 3.724440 0.000000 0.087360 
#    y 0.000000 3.581100 0.000000 
#    z 0.087360 0.000000 3.715070 
# 
# 
# High freq. dielectric constant tensor:
#      x y z
#    x 1.771990 0.000000 0.005610 
#    y 0.000000 1.759940 0.000000 
#    z 0.005610 0.000000 1.777140 
# 
# From -- ./inp_files/145611.got.cif
#   From: 2010.06.25/outbox.cif.g09.slc.cpg/sg15_73_cif.got.tgz:145611.got - 2010.06.28 07:06:18.
