data_PCOD8135161
_publ_section_title
;
Structure prediction by ZEFSAII (Michael W. Deem and Ramdas Pophale) SiO2 
 PCOD8135161
Probable space group: C 2/C
;
_chemical_formula_sum "Si O2"
_cell_formula_units_Z 56
_cell_length_a 11.805165
_cell_length_b 29.209560
_cell_length_c 9.294477
_cell_angle_alpha 90.000000
_cell_angle_beta 54.576330
_cell_angle_gamma 90.000000
_cell_volume 2611.681283
_symmetry_space_group_name_H-M "C 2/C"
_symmetry_group_IT_number 15
_symmetry_cell_setting 'monoclinic'
loop_
_space_group_symop_operation_xyz
x,y,z
-x,y,1/2-z
-x,-y,-z
x,-y,1/2+z
1/2+x,1/2+y,z
1/2-x,1/2+y,1/2-z
1/2-x,1/2-y,-z
1/2+x,1/2-y,1/2+z
loop_
_atom_site_type_symbol
_atom_site_label
_atom_site_fract_x
_atom_site_fract_y
_atom_site_fract_z
Si Si1 0.156104 0.032859 0.187027
Si Si2 0.260603 0.395791 0.647701
Si Si3 0.799521 0.593171 0.859380
Si Si4 0.617732 0.689442 0.554441
Si Si5 0.044126 0.369707 0.019275
Si Si6 0.652083 0.428292 0.202905
Si Si7 0.413574 0.790521 0.957218
O O1 0.162962 0.063237 0.325806
O O2 0.000000 0.037976 0.250000
O O3 0.189180 0.981012 0.206733
O O4 0.265402 0.048870 0.983645
O O5 0.352248 0.348929 0.588908
O O6 0.107753 0.387443 0.823287
O O7 0.241087 0.408647 0.494360
O O8 0.672589 0.599426 0.838654
O O9 0.937921 0.591034 0.656579
O O10 0.831049 0.634451 0.951278
O O11 0.500000 0.671116 0.750000
O O12 0.571860 0.736866 0.512078
O O13 0.753792 0.697163 0.551700
O O14 0.971966 0.320606 0.047183
O O15 0.500000 0.421366 0.250000
O O16 0.500000 0.801038 0.750000
#
# Coordination Sequence:
#
# PCOD8135161 Si02
#       7
#     8   8   8   8   8   8   8
#     4  10  22  40  61  88 132 168 205 271 334 384
#     4  11  21  37  63  92 123 168 220 256 317 390
#     4  10  22  39  60  89 123 167 214 252 315 399
#     4  10  21  34  60 103 125 157 222 282 309 370
#     4  10  22  40  60  86 130 177 201 258 331 386
#     4  11  22  38  64  97 124 164 216 273 328 376
#     4  10  19  37  63  91 131 168 214 266 327 384
#
# _framework density 21.442125000000001
#
# number of rings (size 3 to 8) (size 9 to 14) (size 15 to 20)
#    0.000    1.714    1.429    3.000    0.000    3.429 
#    0.000   12.857    3.143    4.286    0.000    0.000 
#    0.000    0.000    0.000    0.000    0.000    0.000 
#
# Total GULP energy -346898.816899 kJ/mol
# GULP energy per Si atom -12389.243461 kJ/mol
# Density = 2.139332 g / cm^3
# Si number density = 21.442125 Si / 1000 Ang^3
#
#
#
# Elastic Constant Matrix: (Units=GPa)
#
#
# Indices 1 2 3 4 5 6 
#
# 1 95.9094 47.4036 32.8318 0.0000 19.0816 0.0000
# 2 47.4036 117.1814 37.0084 0.0000 6.4805 0.0000
# 3 32.8318 37.0084 115.5600 0.0000 -7.9622 0.0000
# 4 0.0000 0.0000 0.0000 25.3862 0.0000 7.6792
# 5 19.0816 6.4805 -7.9622 0.0000 42.1464 0.0000
# 6 0.0000 0.0000 0.0000 7.6792 0.0000 36.8884
#
#
#
# Elastic Compliance Matrix: (Units=1/GPa)
#
#
# Indices 1 2 3 4 5 6 
#
# 1 0.015252 -0.004759 -0.003277 0.000000 -0.006793 0.000000
# 2 -0.004759 0.011159 -0.002220 0.000000 0.000019 0.000000
# 3 -0.003277 -0.002220 0.010559 0.000000 0.003820 0.000000
# 4 0.000000 0.000000 0.000000 0.042039 0.000000 -0.008751
# 5 -0.006793 0.000019 0.003820 0.000000 0.027521 0.000000
# 6 0.000000 0.000000 0.000000 -0.008751 0.000000 0.028931
#
#
# Mechanical properties :
#
#
# Convention : Reuss Voigt Hill
#
# Bulk Modulus (GPa) = 60.76546 62.57095 61.66821
# Shear Modulus (GPa) = 30.96762 34.97801 32.97281
#
# Velocity S-wave (km/s) = 3.80444 4.04329 3.92568
# Velocity P-wave (km/s) = 6.90646 7.14438 7.02643
#
# Compressibility (1/GPa) = 0.01645672
#
# Stress axis : x y z
#
# Youngs Moduli (GPa) = 65.56495 89.61221 94.70768
#
# Poissons Ratio (x) = 0.42649 0.31037
# Poissons Ratio (y) = 0.31204 0.21027
# Poissons Ratio (z) = 0.21486 0.19896
#
# Static dielectric constant tensor:
#      x y z
#    x 3.933520 0.000000 -0.009940 
#    y 0.000000 4.084570 0.000000 
#    z -0.009940 0.000000 4.151480 
# 
# 
# High freq. dielectric constant tensor:
#      x y z
#    x 1.828660 0.000000 -0.009090 
#    y 0.000000 1.830870 0.000000 
#    z -0.009090 0.000000 1.851400 
# 
# From -- ./inp_files/35606.got.cif
#   From: 2010.06.25/outbox.cif.g09.slc.cpg/sg15_18_cif.got.tgz:35606.got - 2010.06.28 07:06:18.
