data_PCOD8135456
_publ_section_title
;
Structure prediction by ZEFSAII (Michael W. Deem and Ramdas Pophale) SiO2 
 PCOD8135456
Probable space group: C 2/C
;
_chemical_formula_sum "Si O2"
_cell_formula_units_Z 44
_cell_length_a 12.597181
_cell_length_b 28.895638
_cell_length_c 9.104450
_cell_angle_alpha 90.000000
_cell_angle_beta 137.203964
_cell_angle_gamma 90.000000
_cell_volume 2251.535857
_symmetry_space_group_name_H-M "C 2/C"
_symmetry_group_IT_number 15
_symmetry_cell_setting 'monoclinic'
loop_
_space_group_symop_operation_xyz
x,y,z
-x,y,1/2-z
-x,-y,-z
x,-y,1/2+z
1/2+x,1/2+y,z
1/2-x,1/2+y,1/2-z
1/2-x,1/2-y,-z
1/2+x,1/2-y,1/2+z
loop_
_atom_site_type_symbol
_atom_site_label
_atom_site_fract_x
_atom_site_fract_y
_atom_site_fract_z
Si Si1 0.766846 0.685230 0.626418
Si Si2 0.500000 0.741274 0.250000
Si Si3 0.432524 0.138574 0.040113
Si Si4 0.856972 0.397287 0.004968
Si Si5 0.833069 0.542003 0.037632
Si Si6 0.826472 0.021187 0.330167
O O1 0.595669 0.707216 0.454104
O O2 0.780986 0.645555 0.516372
O O3 0.889142 0.726622 0.732516
O O4 0.798761 0.666403 0.820770
O O5 0.500000 0.167072 0.250000
O O6 0.343610 0.096212 0.025092
O O7 0.571143 0.122234 0.072821
O O8 0.000000 0.418140 0.250000
O O9 0.721647 0.435089 0.826427
O O10 0.704947 0.532534 0.032794
O O11 0.000000 0.520456 0.250000
O O12 0.784349 0.520245 0.833525
O O13 0.000000 0.000000 0.500000
#
# Coordination Sequence:
#
# PCOD8135456 Si02
#       6
#     8   4   8   8   8   8
#     4  10  21  38  70  91 125 162 205 264 309 389
#     4  10  20  40  64 100 124 152 212 256 322 374
#     4  10  19  38  63  90 118 163 218 249 311 378
#     4  10  20  39  63  89 113 173 213 250 310 387
#     4  11  23  39  61  82 116 169 216 253 297 377
#     4  12  25  39  56  89 127 159 210 274 313 353
#
# _framework density 19.542214999999999
#
# number of rings (size 3 to 8) (size 9 to 14) (size 15 to 20)
#    0.000    1.455    6.364    1.636    5.091    1.455 
#    0.000    0.909    0.000    0.000    0.000    0.000 
#    0.000    0.000    0.000    0.000    0.000    0.000 
#
# Total GULP energy -272577.611777 kJ/mol
# GULP energy per Si atom -12389.891444 kJ/mol
# Density = 1.949774 g / cm^3
# Si number density = 19.542215 Si / 1000 Ang^3
#
#
#
# Elastic Constant Matrix: (Units=GPa)
#
#
# Indices 1 2 3 4 5 6 
#
# 1 78.7194 32.1303 49.6438 0.0000 -4.9875 0.0000
# 2 32.1303 84.1184 61.5284 0.0000 5.3519 0.0000
# 3 49.6438 61.5284 147.8644 0.0000 -0.4711 0.0000
# 4 0.0000 0.0000 0.0000 48.4890 0.0000 3.5934
# 5 -4.9875 5.3519 -0.4711 0.0000 41.9643 0.0000
# 6 0.0000 0.0000 0.0000 3.5934 0.0000 12.3871
#
#
#
# Elastic Compliance Matrix: (Units=1/GPa)
#
#
# Indices 1 2 3 4 5 6 
#
# 1 0.016961 -0.003555 -0.004207 0.000000 0.002422 0.000000
# 2 -0.003555 0.018052 -0.006327 0.000000 -0.002796 0.000000
# 3 -0.004207 -0.006327 0.010810 0.000000 0.000428 0.000000
# 4 0.000000 0.000000 0.000000 0.021076 0.000000 -0.006114
# 5 0.002422 -0.002796 0.000428 0.000000 0.024479 0.000000
# 6 0.000000 0.000000 0.000000 -0.006114 0.000000 0.082503
#
#
# Mechanical properties :
#
#
# Convention : Reuss Voigt Hill
#
# Bulk Modulus (GPa) = 56.67790 66.36746 61.52268
# Shear Modulus (GPa) = 24.04529 31.72807 27.88668
#
# Velocity S-wave (km/s) = 3.51155 4.03372 3.78166
# Velocity P-wave (km/s) = 6.74589 7.46521 7.11465
#
# Compressibility (1/GPa) = 0.01764356
#
# Stress axis : x y z
#
# Youngs Moduli (GPa) = 58.95773 55.39686 92.51036
#
# Poissons Ratio (x) = 0.19694 0.38924
# Poissons Ratio (y) = 0.20960 0.58529
# Poissons Ratio (z) = 0.24806 0.35048
#
# Static dielectric constant tensor:
#      x y z
#    x 3.360650 0.000000 -0.024120 
#    y 0.000000 3.707850 0.000000 
#    z -0.024120 0.000000 4.248420 
# 
# 
# High freq. dielectric constant tensor:
#      x y z
#    x 1.739050 0.000000 -0.007560 
#    y 0.000000 1.755550 0.000000 
#    z -0.007560 0.000000 1.776980 
# 
# From -- ./inp_files/35406.got.cif
#   From: 2010.06.25/outbox.cif.g09.slc.cpg/sg15_18_cif.got.tgz:35406.got - 2010.06.28 07:06:18.
