data_PCOD8135921
_publ_section_title
;
Structure prediction by ZEFSAII (Michael W. Deem and Ramdas Pophale) SiO2 
 PCOD8135921
Probable space group: C 2/C
;
_chemical_formula_sum "Si O2"
_cell_formula_units_Z 56
_cell_length_a 32.284912
_cell_length_b 8.733591
_cell_length_c 21.962978
_cell_angle_alpha 90.000000
_cell_angle_beta 153.417692
_cell_angle_gamma 90.000000
_cell_volume 2771.151003
_symmetry_space_group_name_H-M "C 2/C"
_symmetry_group_IT_number 15
_symmetry_cell_setting 'monoclinic'
loop_
_space_group_symop_operation_xyz
x,y,z
-x,y,1/2-z
-x,-y,-z
x,-y,1/2+z
1/2+x,1/2+y,z
1/2-x,1/2+y,1/2-z
1/2-x,1/2-y,-z
1/2+x,1/2-y,1/2+z
loop_
_atom_site_type_symbol
_atom_site_label
_atom_site_fract_x
_atom_site_fract_y
_atom_site_fract_z
Si Si1 0.148282 0.315116 0.171814
Si Si2 0.374586 0.236712 0.716596
Si Si3 0.745002 0.228148 0.402827
Si Si4 0.283683 0.422566 0.831888
Si Si5 0.451795 0.299554 0.393004
Si Si6 0.738990 0.002639 0.997248
Si Si7 0.954706 0.100461 0.027966
O O1 0.156529 0.295499 0.254928
O O2 0.188774 0.480144 0.205630
O O3 0.203698 0.173750 0.213528
O O4 0.041405 0.311351 0.009597
O O5 0.318546 0.379928 0.618026
O O6 0.484210 0.273541 0.855819
O O7 0.353621 0.090228 0.646695
O O8 0.787214 0.195390 0.392327
O O9 0.632502 0.224099 0.254386
O O10 0.778861 0.100617 0.494705
O O11 0.783065 0.394215 0.473882
O O12 0.367093 0.544310 0.951469
O O13 0.475278 0.462332 0.394463
O O14 0.416376 0.326330 0.415242
#
# Coordination Sequence:
#
# PCOD8135921 Si02
#       7
#     8   8   8   8   8   8   8
#     4  10  22  37  61  91 118 154 201 255 316 352
#     4  10  19  41  63  85 113 161 217 235 287 377
#     4  11  21  38  59  91 120 155 203 245 306 353
#     4  11  22  36  58  95 123 153 190 264 325 353
#     4   9  18  35  61  86 118 152 199 244 297 367
#     4  10  22  36  64  83 116 163 206 243 273 369
#     4   9  18  35  61  88 112 156 192 251 307 355
#
# _framework density 20.208209
#
# number of rings (size 3 to 8) (size 9 to 14) (size 15 to 20)
#    0.000    2.000    2.857    1.714    2.000    0.571 
#    2.571    0.714    0.000    3.429    0.000    0.000 
#    0.000    0.000    0.000    0.000    0.000    0.000 
#
# Total GULP energy -347179.886457 kJ/mol
# GULP energy per Si atom -12399.281659 kJ/mol
# Density = 2.016221 g / cm^3
# Si number density = 20.208209 Si / 1000 Ang^3
#
#
#
# Elastic Constant Matrix: (Units=GPa)
#
#
# Indices 1 2 3 4 5 6 
#
# 1 75.7979 42.9190 48.6310 0.0000 0.0698 0.0000
# 2 42.9190 102.4397 44.9751 0.0000 -5.8757 0.0000
# 3 48.6310 44.9751 94.7746 0.0000 -12.6960 0.0000
# 4 0.0000 0.0000 0.0000 37.7645 0.0000 -7.2136
# 5 0.0698 -5.8757 -12.6960 0.0000 13.8610 0.0000
# 6 0.0000 0.0000 0.0000 -7.2136 0.0000 34.4986
#
#
#
# Elastic Compliance Matrix: (Units=1/GPa)
#
#
# Indices 1 2 3 4 5 6 
#
# 1 0.023549 -0.005738 -0.011059 0.000000 -0.012681 0.000000
# 2 -0.005738 0.013729 -0.003177 0.000000 0.002939 0.000000
# 3 -0.011059 -0.003177 0.020017 0.000000 0.017044 0.000000
# 4 0.000000 0.000000 0.000000 0.027582 0.000000 0.005767
# 5 -0.012681 0.002939 0.017044 0.000000 0.089066 0.000000
# 6 0.000000 0.000000 0.000000 0.005767 0.000000 0.030193
#
#
# Mechanical properties :
#
#
# Convention : Reuss Voigt Hill
#
# Bulk Modulus (GPa) = 57.64942 60.67360 59.16151
# Shear Modulus (GPa) = 20.01060 26.32395 23.16728
#
# Velocity S-wave (km/s) = 3.15019 3.61312 3.38957
# Velocity P-wave (km/s) = 6.46694 6.89171 6.68270
#
# Compressibility (1/GPa) = 0.01734623
#
# Stress axis : x y z
#
# Youngs Moduli (GPa) = 42.46390 72.83596 49.95747
#
# Poissons Ratio (x) = 0.41796 0.55250
# Poissons Ratio (y) = 0.24367 0.15872
# Poissons Ratio (z) = 0.46962 0.23141
#
# Static dielectric constant tensor:
#      x y z
#    x 3.475450 0.000000 -0.147270 
#    y 0.000000 3.838040 0.000000 
#    z -0.147270 0.000000 3.712530 
# 
# 
# High freq. dielectric constant tensor:
#      x y z
#    x 1.759540 0.000000 -0.011670 
#    y 0.000000 1.800360 0.000000 
#    z -0.011670 0.000000 1.786770 
# 
# From -- ./inp_files/259007.got.cif
#   From: 2010.06.25/outbox.cif.g09.slc.cpg/sg15_130_cif.got.tgz:259007.got - 2010.06.28 07:06:18.
