data_PCOD8135840
_publ_section_title
;
Structure prediction by ZEFSAII (Michael W. Deem and Ramdas Pophale) SiO2 
 PCOD8135840
Probable space group: C 2/C
;
_chemical_formula_sum "Si O2"
_cell_formula_units_Z 32
_cell_length_a 14.209889
_cell_length_b 11.845365
_cell_length_c 8.363565
_cell_angle_alpha 90.000000
_cell_angle_beta 58.397003
_cell_angle_gamma 90.000000
_cell_volume 1198.993902
_symmetry_space_group_name_H-M "C 2/C"
_symmetry_group_IT_number 15
_symmetry_cell_setting 'monoclinic'
loop_
_space_group_symop_operation_xyz
x,y,z
-x,y,1/2-z
-x,-y,-z
x,-y,1/2+z
1/2+x,1/2+y,z
1/2-x,1/2+y,1/2-z
1/2-x,1/2-y,-z
1/2+x,1/2-y,1/2+z
loop_
_atom_site_type_symbol
_atom_site_label
_atom_site_fract_x
_atom_site_fract_y
_atom_site_fract_z
Si Si1 0.000000 0.855434 0.750000
Si Si2 0.877478 0.360889 0.353190
Si Si3 0.945640 0.890380 0.458622
Si Si4 0.500000 0.174713 0.250000
Si Si5 0.801182 0.556323 0.256193
O O1 0.111173 0.776497 0.668107
O O2 0.006038 0.926203 0.575467
O O3 0.815611 0.418911 0.256141
O O4 0.810634 0.397072 0.570383
O O5 0.000000 0.413877 0.250000
O O6 0.816676 0.913150 0.567267
O O7 0.000000 0.947062 0.250000
O O8 0.966340 0.754786 0.430783
O O9 0.394352 0.103081 0.292903
#
# Coordination Sequence:
#
# PCOD8135840 Si02
#       5
#     4   8   8   4   8
#     4  10  21  44  68  95 130 168 224 272 315 388
#     4  10  22  39  64  95 127 164 221 273 319 380
#     4  10  24  42  65  98 134 173 219 268 326 393
#     4  10  19  40  64  93 132 166 218 270 327 374
#     4  12  22  40  67  97 132 172 215 278 327 383
#
# _framework density 26.689043999999999
#
# number of rings (size 3 to 8) (size 9 to 14) (size 15 to 20)
#    1.500    0.000    3.750    1.500    3.500    1.000 
#    4.500    1.250    0.000    0.000    0.000    0.000 
#    0.000    0.000    0.000    0.000    0.000    0.000 
#
# Total GULP energy -198324.966443 kJ/mol
# GULP energy per Si atom -12395.310403 kJ/mol
# Density = 2.662830 g / cm^3
# Si number density = 26.689044 Si / 1000 Ang^3
#
#
#
# Elastic Constant Matrix: (Units=GPa)
#
#
# Indices 1 2 3 4 5 6 
#
# 1 124.4040 52.3800 54.1923 0.0000 -7.6842 0.0000
# 2 52.3800 111.3821 64.6297 0.0000 17.6389 0.0000
# 3 54.1923 64.6297 167.2248 0.0000 -4.3697 0.0000
# 4 0.0000 0.0000 0.0000 36.3659 0.0000 17.6168
# 5 -7.6842 17.6389 -4.3697 0.0000 61.4547 0.0000
# 6 0.0000 0.0000 0.0000 17.6168 0.0000 36.8842
#
#
#
# Elastic Compliance Matrix: (Units=1/GPa)
#
#
# Indices 1 2 3 4 5 6 
#
# 1 0.010834 -0.004507 -0.001703 0.000000 0.002527 0.000000
# 2 -0.004507 0.014326 -0.004206 0.000000 -0.004974 0.000000
# 3 -0.001703 -0.004206 0.008199 0.000000 0.001577 0.000000
# 4 0.000000 0.000000 0.000000 0.035776 0.000000 -0.017088
# 5 0.002527 -0.004974 0.001577 0.000000 0.018128 0.000000
# 6 0.000000 0.000000 0.000000 -0.017088 0.000000 0.035273
#
#
# Mechanical properties :
#
#
# Convention : Reuss Voigt Hill
#
# Bulk Modulus (GPa) = 79.83188 82.82389 81.32789
# Shear Modulus (GPa) = 33.88822 42.39489 38.14156
#
# Velocity S-wave (km/s) = 3.56721 3.98989 3.78446
# Velocity P-wave (km/s) = 6.85153 7.23367 7.04519
#
# Compressibility (1/GPa) = 0.01252632
#
# Stress axis : x y z
#
# Youngs Moduli (GPa) = 92.30270 69.80307 121.97010
#
# Poissons Ratio (x) = 0.31460 0.20772
# Poissons Ratio (y) = 0.41600 0.51303
# Poissons Ratio (z) = 0.15720 0.29361
#
# Static dielectric constant tensor:
#      x y z
#    x 4.392410 0.000000 0.154030 
#    y 0.000000 5.084070 0.000000 
#    z 0.154030 0.000000 4.712510 
# 
# 
# High freq. dielectric constant tensor:
#      x y z
#    x 2.054640 0.000000 0.013270 
#    y 0.000000 2.116890 0.000000 
#    z 0.013270 0.000000 2.085260 
# 
# From -- ./inp_files/38474.got.cif
#   From: 2010.06.25/outbox.cif.g09.slc.cpg/sg15_20_cif.got.tgz:38474.got - 2010.06.28 07:06:18.
