data_PCOD8135436
_publ_section_title
;
Structure prediction by ZEFSAII (Michael W. Deem and Ramdas Pophale) SiO2 
 PCOD8135436
Probable space group: C 2/C
;
_chemical_formula_sum "Si O2"
_cell_formula_units_Z 64
_cell_length_a 30.836523
_cell_length_b 16.809878
_cell_length_c 11.587586
_cell_angle_alpha 90.000000
_cell_angle_beta 149.316425
_cell_angle_gamma 90.000000
_cell_volume 3065.105601
_symmetry_space_group_name_H-M "C 2/C"
_symmetry_group_IT_number 15
_symmetry_cell_setting 'monoclinic'
loop_
_space_group_symop_operation_xyz
x,y,z
-x,y,1/2-z
-x,-y,-z
x,-y,1/2+z
1/2+x,1/2+y,z
1/2-x,1/2+y,1/2-z
1/2-x,1/2-y,-z
1/2+x,1/2-y,1/2+z
loop_
_atom_site_type_symbol
_atom_site_label
_atom_site_fract_x
_atom_site_fract_y
_atom_site_fract_z
Si Si1 0.026139 0.148484 0.180556
Si Si2 0.133583 0.115402 0.835076
Si Si3 0.136511 0.615831 0.658531
Si Si4 0.193470 0.944855 0.053147
Si Si5 0.384180 0.222408 0.100206
Si Si6 0.768575 0.393468 0.455198
Si Si7 0.970702 0.678098 0.894101
Si Si8 0.935616 0.535102 0.443283
O O1 0.115130 0.111887 0.350883
O O2 0.000000 0.126170 0.250000
O O3 0.957374 0.112177 0.935758
O O4 0.042183 0.242723 0.207866
O O5 0.127307 0.182133 0.921519
O O6 0.203447 0.138945 0.900692
O O7 0.162052 0.033234 0.955007
O O8 0.110501 0.689503 0.517665
O O9 0.081710 0.534758 0.502209
O O10 0.115916 0.643318 0.744150
O O11 0.234324 0.589309 0.867602
O O12 0.222533 0.946642 0.252618
O O13 0.467587 0.193412 0.356756
O O14 0.301360 0.186406 0.970753
O O15 0.843543 0.446250 0.679139
O O16 0.016219 0.616181 0.907645
O O17 0.000000 0.500000 0.500000
#
# Coordination Sequence:
#
# PCOD8135436 Si02
#       8
#     8   8   8   8   8   8   8   8
#     4  11  23  43  62  86 126 169 215 261 308 375
#     4  11  21  41  64  86 124 167 215 257 312 378
#     4  10  19  38  62  93 128 154 203 265 315 379
#     4  11  23  39  64  96 122 168 208 264 324 367
#     4   9  20  35  62  91 119 167 206 251 309 378
#     4  10  19  38  63  91 126 161 209 258 309 387
#     4   9  20  38  63  89 123 165 204 253 320 375
#     4   9  18  37  64  90 127 165 196 253 322 377
#
# _framework density 20.880193999999999
#
# number of rings (size 3 to 8) (size 9 to 14) (size 15 to 20)
#    0.000    2.000    2.500    1.125    0.000    1.500 
#    2.250   15.000    0.000    0.000    0.000    0.000 
#    0.000    0.000    0.000    0.000    0.000    0.000 
#
# Total GULP energy -396502.162970 kJ/mol
# GULP energy per Si atom -12390.692593 kJ/mol
# Density = 2.083267 g / cm^3
# Si number density = 20.880194 Si / 1000 Ang^3
#
#
#
# Elastic Constant Matrix: (Units=GPa)
#
#
# Indices 1 2 3 4 5 6 
#
# 1 80.8355 31.7502 46.0583 0.0000 20.4117 0.0000
# 2 31.7502 107.0431 51.7614 0.0000 2.8217 0.0000
# 3 46.0583 51.7614 73.6086 0.0000 13.0689 0.0000
# 4 0.0000 0.0000 0.0000 20.9295 0.0000 0.8980
# 5 20.4117 2.8217 13.0689 0.0000 33.4556 0.0000
# 6 0.0000 0.0000 0.0000 0.8980 0.0000 36.1911
#
#
#
# Elastic Compliance Matrix: (Units=1/GPa)
#
#
# Indices 1 2 3 4 5 6 
#
# 1 0.021205 -0.000570 -0.011367 0.000000 -0.008449 0.000000
# 2 -0.000570 0.014437 -0.010359 0.000000 0.003177 0.000000
# 3 -0.011367 -0.010359 0.028578 0.000000 -0.003355 0.000000
# 4 0.000000 0.000000 0.000000 0.047830 0.000000 -0.001187
# 5 -0.008449 0.003177 -0.003355 0.000000 0.036088 0.000000
# 6 0.000000 0.000000 0.000000 -0.001187 0.000000 0.027661
#
#
# Mechanical properties :
#
#
# Convention : Reuss Voigt Hill
#
# Bulk Modulus (GPa) = 50.95119 57.84746 54.39932
# Shear Modulus (GPa) = 22.03283 26.90972 24.47128
#
# Velocity S-wave (km/s) = 3.25191 3.59384 3.42714
# Velocity P-wave (km/s) = 6.20923 6.70712 6.46297
#
# Compressibility (1/GPa) = 0.01962663
#
# Stress axis : x y z
#
# Youngs Moduli (GPa) = 47.15848 69.26835 34.99162
#
# Poissons Ratio (x) = 0.03949 0.39776
# Poissons Ratio (y) = 0.02689 0.36248
# Poissons Ratio (z) = 0.53607 0.71756
#
# Static dielectric constant tensor:
#      x y z
#    x 3.770970 0.000000 0.307730 
#    y 0.000000 4.032960 0.000000 
#    z 0.307730 0.000000 3.725120 
# 
# 
# High freq. dielectric constant tensor:
#      x y z
#    x 1.812630 0.000000 0.026860 
#    y 0.000000 1.826520 0.000000 
#    z 0.026860 0.000000 1.805780 
# 
# From -- ./inp_files/127309.got.cif
#   From: 2010.06.25/outbox.cif.g09.slc.cpg/sg15_64_cif.got.tgz:127309.got - 2010.06.28 07:06:18.
