data_PCOD8135610
_publ_section_title
;
Structure prediction by ZEFSAII (Michael W. Deem and Ramdas Pophale) SiO2 
 PCOD8135610
Probable space group: C 2/C
;
_chemical_formula_sum "Si O2"
_cell_formula_units_Z 56
_cell_length_a 14.524277
_cell_length_b 20.129505
_cell_length_c 18.951125
_cell_angle_alpha 90.000000
_cell_angle_beta 148.186096
_cell_angle_gamma 90.000000
_cell_volume 2920.833031
_symmetry_space_group_name_H-M "C 2/C"
_symmetry_group_IT_number 15
_symmetry_cell_setting 'monoclinic'
loop_
_space_group_symop_operation_xyz
x,y,z
-x,y,1/2-z
-x,-y,-z
x,-y,1/2+z
1/2+x,1/2+y,z
1/2-x,1/2+y,1/2-z
1/2-x,1/2-y,-z
1/2+x,1/2-y,1/2+z
loop_
_atom_site_type_symbol
_atom_site_label
_atom_site_fract_x
_atom_site_fract_y
_atom_site_fract_z
Si Si1 0.514954 0.496354 0.895501
Si Si2 0.849133 0.505129 0.206566
Si Si3 0.556011 0.161781 0.000107
Si Si4 0.853203 0.886596 0.600954
Si Si5 0.232815 0.613711 0.253071
Si Si6 0.936775 0.184623 0.010093
Si Si7 0.769493 0.104348 0.774356
O O1 0.614800 0.466173 0.892033
O O2 0.365450 0.442498 0.812601
O O3 0.423179 0.568519 0.828079
O O4 0.653342 0.500495 0.048788
O O5 0.879288 0.579715 0.257098
O O6 0.856896 0.450876 0.273362
O O7 0.000000 0.488390 0.250000
O O8 0.605101 0.238038 0.020179
O O9 0.350494 0.148293 0.855361
O O10 0.665283 0.120061 0.014046
O O11 0.600913 0.138912 0.108017
O O12 0.857551 0.845747 0.530556
O O13 0.000000 0.858046 0.750000
O O14 0.353237 0.674730 0.357595
O O15 0.848640 0.150958 0.885614
#
# Coordination Sequence:
#
# PCOD8135610 Si02
#       7
#     8   8   8   8   8   8   8
#     4  10  19  39  59  78 119 157 190 245 296 345
#     4  11  20  37  63  85 110 150 206 248 291 358
#     4  12  24  36  56  94 118 156 197 241 291 361
#     4  11  21  37  56  85 123 160 189 238 300 345
#     4  10  20  40  58  80 118 157 192 246 301 338
#     4  11  21  40  60  78 125 168 194 229 294 371
#     4  11  22  36  60  87 113 156 208 238 290 358
#
# _framework density 19.172612999999998
#
# number of rings (size 3 to 8) (size 9 to 14) (size 15 to 20)
#    0.000    1.143    7.143    3.000    0.000    2.286 
#    2.571    0.000    0.000    0.857    0.000    0.000 
#    0.000    0.000    0.000    0.000    0.000    0.000 
#
# Total GULP energy -347046.868401 kJ/mol
# GULP energy per Si atom -12394.531014 kJ/mol
# Density = 1.912898 g / cm^3
# Si number density = 19.172613 Si / 1000 Ang^3
#
#
#
# Elastic Constant Matrix: (Units=GPa)
#
#
# Indices 1 2 3 4 5 6 
#
# 1 44.8650 39.5519 15.5502 0.0011 0.7433 -0.0008
# 2 39.5519 79.5745 40.8819 0.0096 -2.3695 0.0016
# 3 15.5502 40.8819 135.5431 0.0169 -14.9422 0.0043
# 4 0.0011 0.0096 0.0169 23.1854 0.0052 -0.5224
# 5 0.7433 -2.3695 -14.9422 0.0052 22.9224 0.0003
# 6 -0.0008 0.0016 0.0043 -0.5224 0.0003 22.1204
#
#
#
# Elastic Compliance Matrix: (Units=1/GPa)
#
#
# Indices 1 2 3 4 5 6 
#
# 1 0.040126 -0.020722 0.001365 0.000006 -0.002553 0.000003
# 2 -0.020722 0.025620 -0.005370 -0.000006 -0.000180 -0.000002
# 3 0.001365 -0.005370 0.009454 -0.000006 0.005563 -0.000002
# 4 0.000006 -0.000006 -0.000006 0.043154 -0.000015 0.001019
# 5 -0.002553 -0.000180 0.005563 -0.000015 0.047316 -0.000002
# 6 0.000003 -0.000002 -0.000002 0.001019 -0.000002 0.045231
#
#
# Mechanical properties :
#
#
# Convention : Reuss Voigt Hill
#
# Bulk Modulus (GPa) = 38.83971 50.21673 44.52822
# Shear Modulus (GPa) = 18.59180 24.57887 21.58534
#
# Velocity S-wave (km/s) = 3.11739 3.58436 3.35900
# Velocity P-wave (km/s) = 5.76709 6.58627 6.19025
#
# Compressibility (1/GPa) = 0.02574685
#
# Stress axis : x y z
#
# Youngs Moduli (GPa) = 24.92159 39.03240 105.77453
#
# Poissons Ratio (x) = 0.80881 -0.14438
# Poissons Ratio (y) = 0.51641 0.56800
# Poissons Ratio (z) = -0.03402 0.20960
#
# Static dielectric constant tensor:
#      x y z
#    x 3.537340 -0.000010 -0.007580 
#    y -0.000010 3.679050 -0.000020 
#    z -0.007580 -0.000020 3.582800 
# 
# 
# High freq. dielectric constant tensor:
#      x y z
#    x 1.711350 0.000000 -0.003120 
#    y 0.000000 1.734200 0.000000 
#    z -0.003120 0.000000 1.758840 
# 
# From -- ./inp_files/206902.got.cif
#   From: 2010.06.25/outbox.cif.g09.slc.cpg/sg15_104_cif.got.tgz:206902.got - 2010.06.28 07:06:18.
