data_PCOD8135167
_publ_section_title
;
Structure prediction by ZEFSAII (Michael W. Deem and Ramdas Pophale) SiO2 
 PCOD8135167
Probable space group: C 2/C
;
_chemical_formula_sum "Si O2"
_cell_formula_units_Z 44
_cell_length_a 27.680274
_cell_length_b 5.743695
_cell_length_c 25.758513
_cell_angle_alpha 90.000000
_cell_angle_beta 149.535681
_cell_angle_gamma 90.000000
_cell_volume 2076.308802
_symmetry_space_group_name_H-M "C 2/C"
_symmetry_group_IT_number 15
_symmetry_cell_setting 'monoclinic'
loop_
_space_group_symop_operation_xyz
x,y,z
-x,y,1/2-z
-x,-y,-z
x,-y,1/2+z
1/2+x,1/2+y,z
1/2-x,1/2+y,1/2-z
1/2-x,1/2-y,-z
1/2+x,1/2-y,1/2+z
loop_
_atom_site_type_symbol
_atom_site_label
_atom_site_fract_x
_atom_site_fract_y
_atom_site_fract_z
Si Si1 0.418946 0.129497 0.254068
Si Si2 0.089293 0.009335 0.174929
Si Si3 0.935814 0.254364 0.098529
Si Si4 0.294383 0.482225 0.807815
Si Si5 0.253528 0.821846 0.131444
Si Si6 0.000000 0.950627 0.250000
O O1 0.417158 0.249028 0.308955
O O2 0.419358 0.308080 0.206619
O O3 0.520408 0.000162 0.344559
O O4 0.327383 0.964586 0.163845
O O5 0.100776 0.009517 0.122830
O O6 0.188919 0.113503 0.288869
O O7 0.998304 0.156724 0.108358
O O8 0.938935 0.095419 0.152306
O O9 0.827303 0.284973 0.980370
O O10 0.255543 0.219323 0.761222
O O11 0.297388 0.512464 0.872734
#
# Coordination Sequence:
#
# PCOD8135167 Si02
#       6
#     8   8   8   8   8   4
#     4  10  20  41  60  84 124 160 198 264 310 371
#     4   9  20  37  59  87 127 164 198 254 312 365
#     4  10  22  39  60  90 118 159 212 257 313 374
#     4  10  19  37  63  93 132 174 207 255 317 376
#     4  10  21  37  63  90 121 161 210 251 307 382
#     4  10  22  40  62  84 122 160 198 262 324 366
#
# _framework density 21.191454
#
# number of rings (size 3 to 8) (size 9 to 14) (size 15 to 20)
#    0.000    2.182    1.818    0.545    0.000    4.364 
#    0.000   13.636    0.000    0.000    0.000    0.000 
#    0.000    0.000    0.000    0.000    0.000    0.000 
#
# Total GULP energy -272559.154645 kJ/mol
# GULP energy per Si atom -12389.052484 kJ/mol
# Density = 2.114322 g / cm^3
# Si number density = 21.191454 Si / 1000 Ang^3
#
#
#
# Elastic Constant Matrix: (Units=GPa)
#
#
# Indices 1 2 3 4 5 6 
#
# 1 78.1691 9.0656 7.8253 -0.0055 -3.0763 0.0003
# 2 9.0656 91.5632 12.7476 0.0035 4.1943 0.0438
# 3 7.8253 12.7476 91.4075 -0.0006 12.3231 -0.0011
# 4 -0.0055 0.0035 -0.0006 9.9038 -0.0007 -3.2159
# 5 -3.0763 4.1943 12.3231 -0.0007 19.8563 0.0072
# 6 0.0003 0.0438 -0.0011 -3.2159 0.0072 17.9208
#
#
#
# Elastic Compliance Matrix: (Units=1/GPa)
#
#
# Indices 1 2 3 4 5 6 
#
# 1 0.013202 -0.001260 -0.001382 0.000009 0.003169 0.000003
# 2 -0.001260 0.011300 -0.001222 -0.000015 -0.001824 -0.000030
# 3 -0.001382 -0.001222 0.012248 0.000002 -0.007557 0.000007
# 4 0.000009 -0.000015 0.000002 0.107219 0.000000 0.019240
# 5 0.003169 -0.001824 -0.007557 0.000000 0.055928 -0.000019
# 6 0.000003 -0.000030 0.000007 0.019240 -0.000019 0.059254
#
#
# Mechanical properties :
#
#
# Convention : Reuss Voigt Hill
#
# Bulk Modulus (GPa) = 34.45692 35.60185 35.02939
# Shear Modulus (GPa) = 18.07981 24.96960 21.52470
#
# Velocity S-wave (km/s) = 2.92407 3.43634 3.19050
# Velocity P-wave (km/s) = 5.26264 5.70799 5.48983
#
# Compressibility (1/GPa) = 0.02902175
#
# Stress axis : x y z
#
# Youngs Moduli (GPa) = 75.74654 88.49661 81.64912
#
# Poissons Ratio (x) = 0.11150 0.11282
# Poissons Ratio (y) = 0.09543 0.09979
# Poissons Ratio (z) = 0.10466 0.10816
#
# Static dielectric constant tensor:
#      x y z
#    x 4.309070 -0.000030 0.029720 
#    y -0.000030 3.995550 0.000000 
#    z 0.029720 0.000000 3.240820 
# 
# 
# High freq. dielectric constant tensor:
#      x y z
#    x 1.857610 0.000000 0.006230 
#    y 0.000000 1.840170 0.000000 
#    z 0.006230 0.000000 1.775860 
# 
# From -- ./inp_files/124987.got.cif
#   From: 2010.06.25/outbox.cif.g09.slc.cpg/sg15_63_cif.got.tgz:124987.got - 2010.06.28 07:06:18.
