data_PCOD8135553
_publ_section_title
;
Structure prediction by ZEFSAII (Michael W. Deem and Ramdas Pophale) SiO2 
 PCOD8135553
Probable space group: C 2/C
;
_chemical_formula_sum "Si O2"
_cell_formula_units_Z 52
_cell_length_a 9.952269
_cell_length_b 15.671359
_cell_length_c 22.256326
_cell_angle_alpha 90.000000
_cell_angle_beta 133.102801
_cell_angle_gamma 90.000000
_cell_volume 2534.438531
_symmetry_space_group_name_H-M "C 2/C"
_symmetry_group_IT_number 15
_symmetry_cell_setting 'monoclinic'
loop_
_space_group_symop_operation_xyz
x,y,z
-x,y,1/2-z
-x,-y,-z
x,-y,1/2+z
1/2+x,1/2+y,z
1/2-x,1/2+y,1/2-z
1/2-x,1/2-y,-z
1/2+x,1/2-y,1/2+z
loop_
_atom_site_type_symbol
_atom_site_label
_atom_site_fract_x
_atom_site_fract_y
_atom_site_fract_z
Si Si1 0.822003 0.163381 0.493876
Si Si2 0.137100 0.357392 0.434733
Si Si3 0.321667 0.340622 0.734784
Si Si4 0.500000 0.976611 0.250000
Si Si5 0.985802 0.460220 0.620206
Si Si6 0.724582 0.339853 0.155526
Si Si7 0.528569 0.683194 0.089646
O O1 0.750000 0.250000 0.500000
O O2 0.671738 0.091776 0.462454
O O3 0.843749 0.167554 0.428729
O O4 0.012317 0.135528 0.582881
O O5 0.171376 0.329828 0.376266
O O6 0.334961 0.367915 0.527643
O O7 0.019587 0.443739 0.407287
O O8 0.014895 0.283797 0.426469
O O9 0.500000 0.357014 0.750000
O O10 0.180624 0.414005 0.670988
O O11 0.237971 0.247427 0.696600
O O12 0.363093 0.347403 0.818241
O O13 0.328978 0.917300 0.220994
O O14 0.563013 0.035964 0.323900
#
# Coordination Sequence:
#
# PCOD8135553 Si02
#       7
#     8   8   8   4   8   8   8
#     4  11  23  40  60  91 124 170 197 253 308 371
#     4   9  20  40  62  90 118 165 204 249 293 377
#     4  12  21  38  65  92 117 163 204 258 306 372
#     4  10  20  38  62  96 118 162 206 264 290 364
#     4  11  23  37  61  92 129 150 208 261 308 346
#     4  10  19  38  67  83 122 165 212 236 307 372
#     4  10  21  38  66  87 121 164 210 235 312 373
#
# _framework density 20.517364000000001
#
# number of rings (size 3 to 8) (size 9 to 14) (size 15 to 20)
#    0.000    1.538    3.846    1.846    0.000    6.769 
#    0.000    4.615    0.000    0.000    0.000    0.000 
#    0.000    0.000    0.000    0.000    0.000    0.000 
#
# Total GULP energy -322401.339533 kJ/mol
# GULP energy per Si atom -12400.051520 kJ/mol
# Density = 2.047067 g / cm^3
# Si number density = 20.517364 Si / 1000 Ang^3
#
#
#
# Elastic Constant Matrix: (Units=GPa)
#
#
# Indices 1 2 3 4 5 6 
#
# 1 56.6265 20.7047 33.2480 0.0000 14.9622 0.0000
# 2 20.7047 83.9780 35.8261 0.0000 12.2433 0.0000
# 3 33.2480 35.8261 122.4105 0.0000 15.2398 0.0000
# 4 0.0000 0.0000 0.0000 38.0698 0.0000 3.1860
# 5 14.9622 12.2433 15.2398 0.0000 28.7262 0.0000
# 6 0.0000 0.0000 0.0000 3.1860 0.0000 28.8667
#
#
#
# Elastic Compliance Matrix: (Units=1/GPa)
#
#
# Indices 1 2 3 4 5 6 
#
# 1 0.023602 -0.002596 -0.004559 0.000000 -0.008768 0.000000
# 2 -0.002596 0.014324 -0.003100 0.000000 -0.003108 0.000000
# 3 -0.004559 -0.003100 0.010552 0.000000 -0.001902 0.000000
# 4 0.000000 0.000000 0.000000 0.026512 0.000000 -0.002926
# 5 -0.008768 -0.003108 -0.001902 0.000000 0.041712 0.000000
# 6 0.000000 0.000000 0.000000 -0.002926 0.000000 0.034965
#
#
# Mechanical properties :
#
#
# Convention : Reuss Voigt Hill
#
# Bulk Modulus (GPa) = 35.75605 49.17474 42.46539
# Shear Modulus (GPa) = 27.54820 30.68162 29.11491
#
# Velocity S-wave (km/s) = 3.66823 3.87123 3.77110
# Velocity P-wave (km/s) = 5.95032 6.63335 6.30110
#
# Compressibility (1/GPa) = 0.02796730
#
# Stress axis : x y z
#
# Youngs Moduli (GPa) = 42.36844 69.81515 94.77150
#
# Poissons Ratio (x) = 0.18122 0.43210
# Poissons Ratio (y) = 0.10998 0.29380
# Poissons Ratio (z) = 0.19317 0.21643
#
# Static dielectric constant tensor:
#      x y z
#    x 3.407690 0.000000 0.075790 
#    y 0.000000 3.717560 0.000000 
#    z 0.075790 0.000000 4.056250 
# 
# 
# High freq. dielectric constant tensor:
#      x y z
#    x 1.770450 0.000000 0.008340 
#    y 0.000000 1.801600 0.000000 
#    z 0.008340 0.000000 1.822970 
# 
# From -- ./inp_files/292744.got.cif
#   From: 2010.06.25/outbox.cif.g09.slc.cpg/sg15_147_cif.got.tgz:292744.got - 2010.06.28 07:06:18.
