data_PCOD8135427
_publ_section_title
;
Structure prediction by ZEFSAII (Michael W. Deem and Ramdas Pophale) SiO2 
 PCOD8135427
Probable space group: C 2/C
;
_chemical_formula_sum "Si O2"
_cell_formula_units_Z 56
_cell_length_a 12.745046
_cell_length_b 13.244581
_cell_length_c 17.784701
_cell_angle_alpha 90.000000
_cell_angle_beta 124.896993
_cell_angle_gamma 90.000000
_cell_volume 2462.274011
_symmetry_space_group_name_H-M "C 2/C"
_symmetry_group_IT_number 15
_symmetry_cell_setting 'monoclinic'
loop_
_space_group_symop_operation_xyz
x,y,z
-x,y,1/2-z
-x,-y,-z
x,-y,1/2+z
1/2+x,1/2+y,z
1/2-x,1/2+y,1/2-z
1/2-x,1/2-y,-z
1/2+x,1/2-y,1/2+z
loop_
_atom_site_type_symbol
_atom_site_label
_atom_site_fract_x
_atom_site_fract_y
_atom_site_fract_z
Si Si1 0.714703 0.403121 0.231632
Si Si2 0.852127 0.117040 0.327685
Si Si3 0.574918 0.158204 0.438995
Si Si4 0.998738 0.545346 0.837665
Si Si5 0.792536 0.232166 0.631759
Si Si6 0.300171 0.210858 0.365986
Si Si7 0.427484 0.261774 0.640540
O O1 0.628011 0.495812 0.165334
O O2 0.659075 0.341383 0.281166
O O3 0.724577 0.326700 0.166679
O O4 0.854585 0.444600 0.308663
O O5 0.778881 0.165625 0.368848
O O6 0.761292 0.136664 0.219628
O O7 0.993531 0.165738 0.382734
O O8 0.697158 0.167087 0.541800
O O9 0.588252 0.231188 0.370849
O O10 0.449941 0.189064 0.435841
O O11 0.568187 0.042892 0.411111
O O12 0.072726 0.647662 0.889826
O O13 0.000000 0.519551 0.750000
O O14 0.219398 0.198810 0.410676
O O15 0.500000 0.263164 0.750000
#
# Coordination Sequence:
#
# PCOD8135427 Si02
#       7
#     8   8   8   8   8   8   8
#     4  11  20  36  64  92 113 157 215 252 296 364
#     4  10  19  38  62  90 121 156 198 265 302 343
#     4  11  24  40  60  89 129 165 198 251 317 361
#     4  11  18  34  65  91 112 161 211 250 288 366
#     4  10  24  42  59  89 132 158 200 263 308 362
#     4  10  20  37  58  90 116 158 207 248 301 374
#     4   9  17  35  57  86 124 145 200 259 302 347
#
# _framework density 22.743203999999999
#
# number of rings (size 3 to 8) (size 9 to 14) (size 15 to 20)
#    0.000    1.714    7.143    0.857    2.000    0.571 
#    7.714    1.429    0.000    0.000    0.000    0.000 
#    0.000    0.000    0.000    0.000    0.000    0.000 
#
# Total GULP energy -347079.566932 kJ/mol
# GULP energy per Si atom -12395.698819 kJ/mol
# Density = 2.269144 g / cm^3
# Si number density = 22.743204 Si / 1000 Ang^3
#
#
#
# Elastic Constant Matrix: (Units=GPa)
#
#
# Indices 1 2 3 4 5 6 
#
# 1 134.9725 24.7371 4.3575 0.0000 11.0737 0.0000
# 2 24.7371 92.0156 5.9525 0.0000 -1.4124 0.0000
# 3 4.3575 5.9525 15.5435 0.0000 -7.1120 0.0000
# 4 0.0000 0.0000 0.0000 18.2498 0.0000 3.3202
# 5 11.0737 -1.4124 -7.1120 0.0000 23.1838 0.0000
# 6 0.0000 0.0000 0.0000 3.3202 0.0000 25.2450
#
#
#
# Elastic Compliance Matrix: (Units=1/GPa)
#
#
# Indices 1 2 3 4 5 6 
#
# 1 0.008356 -0.002070 -0.003994 0.000000 -0.005342 0.000000
# 2 -0.002070 0.011667 -0.003618 0.000000 0.000590 0.000000
# 3 -0.003994 -0.003618 0.078653 0.000000 0.025815 0.000000
# 4 0.000000 0.000000 0.000000 0.056139 0.000000 -0.007383
# 5 -0.005342 0.000590 0.025815 0.000000 0.053641 0.000000
# 6 0.000000 0.000000 0.000000 -0.007383 0.000000 0.040583
#
#
# Mechanical properties :
#
#
# Convention : Reuss Voigt Hill
#
# Bulk Modulus (GPa) = 12.60855 34.73619 23.67237
# Shear Modulus (GPa) = 16.95845 27.16802 22.06323
#
# Velocity S-wave (km/s) = 2.73362 3.45998 3.11803
# Velocity P-wave (km/s) = 3.93948 5.59181 4.83673
#
# Compressibility (1/GPa) = 0.07931124
#
# Stress axis : x y z
#
# Youngs Moduli (GPa) = 119.68113 85.70978 12.71415
#
# Poissons Ratio (x) = 0.17741 0.05078
# Poissons Ratio (y) = 0.24773 0.04600
# Poissons Ratio (z) = 0.47802 0.31010
#
# Static dielectric constant tensor:
#      x y z
#    x 4.473840 0.000000 -0.132080 
#    y 0.000000 4.170190 0.000000 
#    z -0.132080 0.000000 3.525330 
# 
# 
# High freq. dielectric constant tensor:
#      x y z
#    x 1.907540 0.000000 -0.007060 
#    y 0.000000 1.898930 0.000000 
#    z -0.007060 0.000000 1.853030 
# 
# From -- ./inp_files/198409.got.cif
#   From: 2010.06.25/outbox.cif.g09.slc.cpg/sg15_100_cif.got.tgz:198409.got - 2010.06.28 07:06:18.
