data_PCOD8135882
_publ_section_title
;
Structure prediction by ZEFSAII (Michael W. Deem and Ramdas Pophale) SiO2 
 PCOD8135882
Probable space group: C 2/C
;
_chemical_formula_sum "Si O2"
_cell_formula_units_Z 52
_cell_length_a 9.350823
_cell_length_b 25.041157
_cell_length_c 10.772402
_cell_angle_alpha 90.000000
_cell_angle_beta 79.290694
_cell_angle_gamma 90.000000
_cell_volume 2478.482522
_symmetry_space_group_name_H-M "C 2/C"
_symmetry_group_IT_number 15
_symmetry_cell_setting 'monoclinic'
loop_
_space_group_symop_operation_xyz
x,y,z
-x,y,1/2-z
-x,-y,-z
x,-y,1/2+z
1/2+x,1/2+y,z
1/2-x,1/2+y,1/2-z
1/2-x,1/2-y,-z
1/2+x,1/2-y,1/2+z
loop_
_atom_site_type_symbol
_atom_site_label
_atom_site_fract_x
_atom_site_fract_y
_atom_site_fract_z
Si Si1 0.273325 0.445607 0.738131
Si Si2 0.576143 0.308748 0.003118
Si Si3 0.415204 0.186779 0.507080
Si Si4 0.723632 0.434185 0.297877
Si Si5 0.000000 0.630158 0.750000
Si Si6 0.000000 0.137184 0.750000
Si Si7 0.953954 0.088435 0.433788
Si Si8 0.500000 0.127010 0.250000
O O1 0.232650 0.507800 0.760224
O O2 0.404820 0.447055 0.618708
O O3 0.323802 0.420139 0.858936
O O4 0.138154 0.411467 0.712535
O O5 0.747083 0.318210 0.997130
O O6 0.481817 0.323042 0.138797
O O7 0.540196 0.248058 0.976677
O O8 0.510577 0.349923 0.912286
O O9 0.449934 0.162021 0.635865
O O10 0.507033 0.162408 0.375671
O O11 0.644525 0.399487 0.203093
O O12 0.601783 0.431453 0.424906
O O13 0.870039 0.406497 0.320556
#
# Coordination Sequence:
#
# PCOD8135882 Si02
#       8
#     8   8   8   8   4   4   8   4
#     4  11  23  40  65  95 132 171 218 271 330 383
#     4  10  21  43  68  93 129 173 217 273 328 384
#     4  11  24  43  67  97 133 174 215 271 336 387
#     4  11  23  40  64  93 130 172 215 270 324 392
#     4  12  25  44  64 102 134 170 221 268 328 400
#     4  10  19  40  68  94 122 168 223 260 322 386
#     4  10  22  42  64  97 124 171 225 272 315 397
#     4  12  24  44  64 100 138 174 214 270 334 394
#
# _framework density 20.98058
#
# number of rings (size 3 to 8) (size 9 to 14) (size 15 to 20)
#    0.000    1.231    3.077    3.231    0.000    3.692 
#    0.000    6.923    0.000    0.000    0.000    0.000 
#    0.000    0.000    0.000    0.000    0.000    0.000 
#
# Total GULP energy -322210.964911 kJ/mol
# GULP energy per Si atom -12392.729420 kJ/mol
# Density = 2.093283 g / cm^3
# Si number density = 20.980580 Si / 1000 Ang^3
#
#
#
# Elastic Constant Matrix: (Units=GPa)
#
#
# Indices 1 2 3 4 5 6 
#
# 1 82.1433 41.2789 17.8246 0.0000 12.5861 0.0000
# 2 41.2789 152.7294 39.2865 0.0000 16.5513 0.0000
# 3 17.8246 39.2865 96.1056 0.0000 5.9594 0.0000
# 4 0.0000 0.0000 0.0000 21.3204 0.0000 -2.1955
# 5 12.5861 16.5513 5.9594 0.0000 26.3735 0.0000
# 6 0.0000 0.0000 0.0000 -2.1955 0.0000 28.9114
#
#
#
# Elastic Compliance Matrix: (Units=1/GPa)
#
#
# Indices 1 2 3 4 5 6 
#
# 1 0.014750 -0.003174 -0.001141 0.000000 -0.004789 0.000000
# 2 -0.003174 0.008434 -0.002662 0.000000 -0.003177 0.000000
# 3 -0.001141 -0.002662 0.011732 0.000000 -0.000436 0.000000
# 4 0.000000 0.000000 0.000000 0.047273 0.000000 0.003590
# 5 -0.004789 -0.003177 -0.000436 0.000000 0.042295 0.000000
# 6 0.000000 0.000000 0.000000 0.003590 0.000000 0.034861
#
#
# Mechanical properties :
#
#
# Convention : Reuss Voigt Hill
#
# Bulk Modulus (GPa) = 47.70529 58.63981 53.17255
# Shear Modulus (GPa) = 27.73334 30.82692 29.28013
#
# Velocity S-wave (km/s) = 3.63968 3.83731 3.73980
# Velocity P-wave (km/s) = 6.36005 6.90243 6.63678
#
# Compressibility (1/GPa) = 0.02096204
#
# Stress axis : x y z
#
# Youngs Moduli (GPa) = 67.79487 118.56092 85.23570
#
# Poissons Ratio (x) = 0.37632 0.09727
# Poissons Ratio (y) = 0.21519 0.22691
# Poissons Ratio (z) = 0.07737 0.31563
#
# Static dielectric constant tensor:
#      x y z
#    x 3.819100 0.000000 0.049100 
#    y 0.000000 3.900540 0.000000 
#    z 0.049100 0.000000 3.801140 
# 
# 
# High freq. dielectric constant tensor:
#      x y z
#    x 1.822970 0.000000 -0.002100 
#    y 0.000000 1.831000 0.000000 
#    z -0.002100 0.000000 1.817700 
# 
# From -- ./inp_files/80756.got.cif
#   From: 2010.06.25/outbox.cif.g09.slc.cpg/sg15_41_cif.got.tgz:80756.got - 2010.06.28 07:06:18.
