data_PCOD8135828
_publ_section_title
;
Structure prediction by ZEFSAII (Michael W. Deem and Ramdas Pophale) SiO2 
 PCOD8135828
Probable space group: C 2/C
;
_chemical_formula_sum "Si O2"
_cell_formula_units_Z 48
_cell_length_a 8.865867
_cell_length_b 22.684779
_cell_length_c 10.996661
_cell_angle_alpha 90.000000
_cell_angle_beta 70.970729
_cell_angle_gamma 90.000000
_cell_volume 2090.789005
_symmetry_space_group_name_H-M "C 2/C"
_symmetry_group_IT_number 15
_symmetry_cell_setting 'monoclinic'
loop_
_space_group_symop_operation_xyz
x,y,z
-x,y,1/2-z
-x,-y,-z
x,-y,1/2+z
1/2+x,1/2+y,z
1/2-x,1/2+y,1/2-z
1/2-x,1/2-y,-z
1/2+x,1/2-y,1/2+z
loop_
_atom_site_type_symbol
_atom_site_label
_atom_site_fract_x
_atom_site_fract_y
_atom_site_fract_z
Si Si1 0.054758 0.432203 0.990196
Si Si2 0.000000 0.744410 0.750000
Si Si3 0.929570 0.828889 0.559799
Si Si4 0.229937 0.127326 0.604381
Si Si5 0.660809 0.572654 0.266744
Si Si6 0.000000 0.038043 0.750000
Si Si7 0.727853 0.853209 0.123140
O O1 0.178108 0.418689 0.850740
O O2 0.138685 0.411967 0.095019
O O3 0.000000 0.500000 0.000000
O O4 0.901946 0.391164 0.009443
O O5 0.901617 0.781599 0.674482
O O6 0.883485 0.704008 0.861151
O O7 0.841300 0.816032 0.452770
O O8 0.828158 0.889398 0.613898
O O9 0.117077 0.840109 0.497191
O O10 0.232016 0.139493 0.746821
O O11 0.098535 0.075080 0.624921
O O12 0.500000 0.602176 0.250000
O O13 0.624275 0.502988 0.294535
#
# Coordination Sequence:
#
# PCOD8135828 Si02
#       7
#     8   4   8   8   8   4   8
#     4  12  23  44  70 106 145 183 230 291 347 427
#     4  12  25  46  76  98 134 185 242 312 354 408
#     4  12  25  46  71 100 137 187 243 290 359 424
#     4  12  25  42  69 106 141 184 233 291 351 433
#     4  10  21  41  67 102 138 186 229 275 350 424
#     4  10  19  40  64 100 136 183 222 270 356 408
#     4  12  24  47  72 100 138 183 242 287 362 426
#
# _framework density 22.957840999999998
#
# number of rings (size 3 to 8) (size 9 to 14) (size 15 to 20)
#    0.500    0.000    7.500    0.500    0.000    3.333 
#    3.000    0.000    0.000    0.000    0.000    0.000 
#    0.000    0.000    0.000    0.000    0.000    0.000 
#
# Total GULP energy -297316.087548 kJ/mol
# GULP energy per Si atom -12388.170315 kJ/mol
# Density = 2.290559 g / cm^3
# Si number density = 22.957841 Si / 1000 Ang^3
#
#
#
# Elastic Constant Matrix: (Units=GPa)
#
#
# Indices 1 2 3 4 5 6 
#
# 1 103.5478 31.5846 56.8645 0.0000 -10.3037 0.0000
# 2 31.5846 88.1531 48.4381 0.0000 10.5562 0.0000
# 3 56.8645 48.4381 119.5805 0.0000 -16.8852 0.0000
# 4 0.0000 0.0000 0.0000 32.5197 0.0000 -7.2532
# 5 -10.3037 10.5562 -16.8852 0.0000 62.6955 0.0000
# 6 0.0000 0.0000 0.0000 -7.2532 0.0000 10.0350
#
#
#
# Elastic Compliance Matrix: (Units=1/GPa)
#
#
# Indices 1 2 3 4 5 6 
#
# 1 0.013318 -0.001930 -0.005402 0.000000 0.001059 0.000000
# 2 -0.001930 0.016024 -0.006236 0.000000 -0.004695 0.000000
# 3 -0.005402 -0.006236 0.014013 0.000000 0.003936 0.000000
# 4 0.000000 0.000000 0.000000 0.036661 0.000000 0.026498
# 5 0.001059 -0.004695 0.003936 0.000000 0.017975 0.000000
# 6 0.000000 0.000000 0.000000 0.026498 0.000000 0.118804
#
#
# Mechanical properties :
#
#
# Convention : Reuss Voigt Hill
#
# Bulk Modulus (GPa) = 61.65486 65.00622 63.33054
# Shear Modulus (GPa) = 20.05322 32.67631 26.36476
#
# Velocity S-wave (km/s) = 2.95868 3.77678 3.39248
# Velocity P-wave (km/s) = 6.21174 6.88445 6.55673
#
# Compressibility (1/GPa) = 0.01621932
#
# Stress axis : x y z
#
# Youngs Moduli (GPa) = 75.08651 62.40572 71.36268
#
# Poissons Ratio (x) = 0.12047 0.38548
# Poissons Ratio (y) = 0.14495 0.44500
# Poissons Ratio (z) = 0.40559 0.38915
#
# Static dielectric constant tensor:
#      x y z
#    x 4.389920 0.000000 -0.083540 
#    y 0.000000 4.172640 0.000000 
#    z -0.083540 0.000000 4.204870 
# 
# 
# High freq. dielectric constant tensor:
#      x y z
#    x 1.912800 0.000000 -0.010380 
#    y 0.000000 1.888520 0.000000 
#    z -0.010380 0.000000 1.913790 
# 
# From -- ./inp_files/79807.got.cif
#   From: 2010.06.25/outbox.cif.g09.slc.cpg/sg15_40_cif.got.tgz:79807.got - 2010.06.28 07:06:18.
