data_PCOD8135038
_publ_section_title
;
Structure prediction by ZEFSAII (Michael W. Deem and Ramdas Pophale) SiO2 
 PCOD8135038
Probable space group: C 2/C
;
_chemical_formula_sum "Si O2"
_cell_formula_units_Z 48
_cell_length_a 9.628680
_cell_length_b 14.957794
_cell_length_c 18.445991
_cell_angle_alpha 90.000000
_cell_angle_beta 68.925415
_cell_angle_gamma 90.000000
_cell_volume 2478.966134
_symmetry_space_group_name_H-M "C 2/C"
_symmetry_group_IT_number 15
_symmetry_cell_setting 'monoclinic'
loop_
_space_group_symop_operation_xyz
x,y,z
-x,y,1/2-z
-x,-y,-z
x,-y,1/2+z
1/2+x,1/2+y,z
1/2-x,1/2+y,1/2-z
1/2-x,1/2-y,-z
1/2+x,1/2-y,1/2+z
loop_
_atom_site_type_symbol
_atom_site_label
_atom_site_fract_x
_atom_site_fract_y
_atom_site_fract_z
Si Si1 0.082365 0.597261 0.160692
Si Si2 0.824613 0.950081 0.095485
Si Si3 0.220312 0.425608 0.827141
Si Si4 0.924170 0.912003 0.924814
Si Si5 0.660390 0.892249 0.255260
Si Si6 0.326044 0.700433 0.182530
O O1 0.190020 0.520317 0.110990
O O2 0.181484 0.685048 0.158288
O O3 0.000000 0.564555 0.250000
O O4 0.947187 0.615404 0.130028
O O5 0.781100 0.882069 0.167849
O O6 0.846104 0.895564 0.017110
O O7 0.975726 0.999338 0.090184
O O8 0.296764 0.428827 0.890146
O O9 0.206254 0.525209 0.797583
O O10 0.315585 0.363268 0.755099
O O11 0.022584 0.825341 0.887544
O O12 0.500000 0.903737 0.250000
O O13 0.666579 0.803845 0.301819
#
# Coordination Sequence:
#
# PCOD8135038 Si02
#       6
#     8   8   8   8   8   8
#     4   9  16  37  58  80 114 148 192 238 285 336
#     4  10  19  37  60  84 117 155 191 238 301 339
#     4  11  19  38  59  87 111 154 201 238 288 345
#     4  10  21  36  60  87 119 148 190 250 295 341
#     4  12  20  37  64  85 115 158 202 235 285 353
#     4  10  21  37  59  85 114 153 194 241 284 347
#
# _framework density 19.362911
#
# number of rings (size 3 to 8) (size 9 to 14) (size 15 to 20)
#    0.000    1.667    6.667    1.500    0.000    0.667 
#    9.000    3.333    3.667    3.000    0.000    0.000 
#    0.000    0.000    0.000    0.000    0.000    0.000 
#
# Total GULP energy -297479.881822 kJ/mol
# GULP energy per Si atom -12394.995076 kJ/mol
# Density = 1.931884 g / cm^3
# Si number density = 19.362911 Si / 1000 Ang^3
#
#
#
# Elastic Constant Matrix: (Units=GPa)
#
#
# Indices 1 2 3 4 5 6 
#
# 1 140.9319 19.0836 49.7171 0.0000 11.7196 0.0000
# 2 19.0836 87.4325 21.8016 0.0000 6.5374 0.0000
# 3 49.7171 21.8016 90.3107 0.0000 1.2078 0.0000
# 4 0.0000 0.0000 0.0000 23.1241 0.0000 2.0452
# 5 11.7196 6.5374 1.2078 0.0000 24.2832 0.0000
# 6 0.0000 0.0000 0.0000 2.0452 0.0000 9.3860
#
#
#
# Elastic Compliance Matrix: (Units=1/GPa)
#
#
# Indices 1 2 3 4 5 6 
#
# 1 0.009233 -0.000486 -0.004911 0.000000 -0.004081 0.000000
# 2 -0.000486 0.012438 -0.002696 0.000000 -0.002980 0.000000
# 3 -0.004911 -0.002696 0.014395 0.000000 0.002380 0.000000
# 4 0.000000 0.000000 0.000000 0.044095 0.000000 -0.009608
# 5 -0.004081 -0.002980 0.002380 0.000000 0.043834 0.000000
# 6 0.000000 0.000000 0.000000 -0.009608 0.000000 0.108635
#
#
# Mechanical properties :
#
#
# Convention : Reuss Voigt Hill
#
# Bulk Modulus (GPa) = 50.29557 55.54219 52.91888
# Shear Modulus (GPa) = 19.57383 26.56352 23.06868
#
# Velocity S-wave (km/s) = 3.18290 3.70790 3.45539
# Velocity P-wave (km/s) = 6.28804 6.86138 6.58095
#
# Compressibility (1/GPa) = 0.01988247
#
# Stress axis : x y z
#
# Youngs Moduli (GPa) = 108.30339 80.39657 69.46621
#
# Poissons Ratio (x) = 0.03904 0.34117
# Poissons Ratio (y) = 0.05258 0.18725
# Poissons Ratio (z) = 0.53191 0.21671
#
# Static dielectric constant tensor:
#      x y z
#    x 4.051710 0.000000 -0.167370 
#    y 0.000000 3.270090 0.000000 
#    z -0.167370 0.000000 3.586310 
# 
# 
# High freq. dielectric constant tensor:
#      x y z
#    x 1.769190 0.000000 -0.013520 
#    y 0.000000 1.728870 0.000000 
#    z -0.013520 0.000000 1.737010 
# 
# From -- ./inp_files/231075.got.cif
#   From: 2010.06.25/outbox.cif.g09.slc.cpg/sg15_116_cif.got.tgz:231075.got - 2010.06.28 07:06:18.
