data_PCOD8135394
_publ_section_title
;
Structure prediction by ZEFSAII (Michael W. Deem and Ramdas Pophale) SiO2 
 PCOD8135394
Probable space group: C 2/C
;
_chemical_formula_sum "Si O2"
_cell_formula_units_Z 52
_cell_length_a 25.918319
_cell_length_b 12.560998
_cell_length_c 12.005366
_cell_angle_alpha 90.000000
_cell_angle_beta 137.953135
_cell_angle_gamma 90.000000
_cell_volume 2617.649390
_symmetry_space_group_name_H-M "C 2/C"
_symmetry_group_IT_number 15
_symmetry_cell_setting 'monoclinic'
loop_
_space_group_symop_operation_xyz
x,y,z
-x,y,1/2-z
-x,-y,-z
x,-y,1/2+z
1/2+x,1/2+y,z
1/2-x,1/2+y,1/2-z
1/2-x,1/2-y,-z
1/2+x,1/2-y,1/2+z
loop_
_atom_site_type_symbol
_atom_site_label
_atom_site_fract_x
_atom_site_fract_y
_atom_site_fract_z
Si Si1 0.347325 0.328368 0.562915
Si Si2 0.687751 0.721893 0.246099
Si Si3 0.789039 0.032721 0.378952
Si Si4 0.000000 0.721134 0.750000
Si Si5 0.447532 0.082821 0.482226
Si Si6 0.311754 0.846297 0.619195
Si Si7 0.344380 0.920361 0.433346
O O1 0.348870 0.322763 0.699538
O O2 0.276834 0.256248 0.404173
O O3 0.350040 0.452031 0.530282
O O4 0.423244 0.289094 0.624911
O O5 0.677445 0.635501 0.130365
O O6 0.640251 0.825281 0.130320
O O7 0.736237 0.060318 0.400617
O O8 0.742086 0.964767 0.213434
O O9 0.005536 0.655290 0.644641
O O10 0.388712 0.162356 0.320481
O O11 0.500000 0.000000 0.500000
O O12 0.402024 0.015836 0.502572
O O13 0.250000 0.750000 0.500000
O O14 0.352211 0.878707 0.570155
#
# Coordination Sequence:
#
# PCOD8135394 Si02
#       7
#     8   8   8   4   8   8   8
#     4  10  22  37  61  87 118 164 205 245 310 378
#     4  10  19  38  61  89 118 153 206 261 304 355
#     4  10  20  35  60  90 120 156 205 261 301 367
#     4  12  24  42  62  84 134 166 202 250 324 386
#     4  11  24  40  63  94 128 167 207 261 328 395
#     4  11  21  37  63  96 122 159 208 270 315 366
#     4  10  20  34  62  90 122 153 206 256 321 368
#
# _framework density 19.865151000000001
#
# number of rings (size 3 to 8) (size 9 to 14) (size 15 to 20)
#    0.000    1.538    1.538    4.615    2.154    4.923 
#    0.000    0.769    3.385    0.000    0.000    0.000 
#    0.000    0.000    0.000    0.000    0.000    0.000 
#
# Total GULP energy -322119.571543 kJ/mol
# GULP energy per Si atom -12389.214290 kJ/mol
# Density = 1.981994 g / cm^3
# Si number density = 19.865151 Si / 1000 Ang^3
#
#
#
# Elastic Constant Matrix: (Units=GPa)
#
#
# Indices 1 2 3 4 5 6 
#
# 1 74.1554 11.6573 23.7520 0.0000 -12.6526 0.0000
# 2 11.6573 79.9376 33.7649 0.0000 -5.5100 0.0000
# 3 23.7520 33.7649 85.0853 0.0000 -9.5014 0.0000
# 4 0.0000 0.0000 0.0000 31.4431 0.0000 -1.4256
# 5 -12.6526 -5.5100 -9.5014 0.0000 28.3585 0.0000
# 6 0.0000 0.0000 0.0000 -1.4256 0.0000 30.2074
#
#
#
# Elastic Compliance Matrix: (Units=1/GPa)
#
#
# Indices 1 2 3 4 5 6 
#
# 1 0.015668 -0.000376 -0.003586 0.000000 0.005716 0.000000
# 2 -0.000376 0.015063 -0.005781 0.000000 0.000822 0.000000
# 3 -0.003586 -0.005781 0.015317 0.000000 0.002409 0.000000
# 4 0.000000 0.000000 0.000000 0.031872 0.000000 0.001504
# 5 0.005716 0.000822 0.002409 0.000000 0.038780 0.000000
# 6 0.000000 0.000000 0.000000 0.001504 0.000000 0.033175
#
#
# Mechanical properties :
#
#
# Convention : Reuss Voigt Hill
#
# Bulk Modulus (GPa) = 37.64779 41.94742 39.79760
# Shear Modulus (GPa) = 28.05591 29.33542 28.69567
#
# Velocity S-wave (km/s) = 3.76216 3.84699 3.80481
# Velocity P-wave (km/s) = 6.15342 6.39487 6.27531
#
# Compressibility (1/GPa) = 0.02656199
#
# Stress axis : x y z
#
# Youngs Moduli (GPa) = 63.82314 66.38780 65.28677
#
# Poissons Ratio (x) = 0.02497 0.23414
# Poissons Ratio (y) = 0.02400 0.37741
# Poissons Ratio (z) = 0.22889 0.38377
#
# Static dielectric constant tensor:
#      x y z
#    x 3.424070 0.000000 -0.165590 
#    y 0.000000 3.785890 0.000000 
#    z -0.165590 0.000000 3.746760 
# 
# 
# High freq. dielectric constant tensor:
#      x y z
#    x 1.769560 0.000000 -0.021910 
#    y 0.000000 1.774770 0.000000 
#    z -0.021910 0.000000 1.768620 
# 
# From -- ./inp_files/111189.got.cif
#   From: 2010.06.25/outbox.cif.g09.slc.cpg/sg15_56_cif.got.tgz:111189.got - 2010.06.28 07:06:18.
