data_PCOD8135507
_publ_section_title
;
Structure prediction by ZEFSAII (Michael W. Deem and Ramdas Pophale) SiO2 
 PCOD8135507
Probable space group: C 2/C
;
_chemical_formula_sum "Si O2"
_cell_formula_units_Z 48
_cell_length_a 13.153253
_cell_length_b 28.726490
_cell_length_c 10.953474
_cell_angle_alpha 90.000000
_cell_angle_beta 33.874227
_cell_angle_gamma 90.000000
_cell_volume 2306.813735
_symmetry_space_group_name_H-M "C 2/C"
_symmetry_group_IT_number 15
_symmetry_cell_setting 'monoclinic'
loop_
_space_group_symop_operation_xyz
x,y,z
-x,y,1/2-z
-x,-y,-z
x,-y,1/2+z
1/2+x,1/2+y,z
1/2-x,1/2+y,1/2-z
1/2-x,1/2-y,-z
1/2+x,1/2-y,1/2+z
loop_
_atom_site_type_symbol
_atom_site_label
_atom_site_fract_x
_atom_site_fract_y
_atom_site_fract_z
Si Si1 0.985827 0.951191 0.450364
Si Si2 0.686978 0.706778 0.806505
Si Si3 0.297034 0.066306 0.476058
Si Si4 0.859218 0.852954 0.655069
Si Si5 0.943009 0.299713 0.444042
Si Si6 0.202897 0.673819 0.051250
O O1 0.838704 0.953709 0.489744
O O2 0.912814 0.907392 0.602807
O O3 0.000000 0.000000 0.500000
O O4 0.197872 0.946019 0.201204
O O5 0.678191 0.703377 0.666480
O O6 0.881434 0.686555 0.653124
O O7 0.536052 0.675081 0.021685
O O8 0.666027 0.758643 0.878477
O O9 0.500000 0.045065 0.250000
O O10 0.311342 0.121062 0.476817
O O11 0.799307 0.828902 0.586407
O O12 0.694631 0.844102 0.915460
O O13 0.000000 0.286199 0.250000
O O14 0.000000 0.696015 0.250000
#
# Coordination Sequence:
#
# PCOD8135507 Si02
#       6
#     8   8   8   8   8   8
#     4  10  21  39  64  94 129 167 213 260 330 395
#     4  12  23  41  65  90 125 174 217 262 325 385
#     4   9  19  37  63  92 127 165 201 262 330 388
#     4  11  23  41  65  95 129 167 213 278 327 386
#     4  12  27  44  61  89 130 182 225 262 319 387
#     4  10  19  38  64  96 127 158 209 267 334 383
#
# _framework density 20.807921
#
# number of rings (size 3 to 8) (size 9 to 14) (size 15 to 20)
#    0.000    1.333    5.000    1.000    0.000    1.333 
#    3.000    4.167    0.000    0.000    0.000    0.000 
#    0.000    0.000    0.000    0.000    0.000    0.000 
#
# Total GULP energy -297315.618852 kJ/mol
# GULP energy per Si atom -12388.150785 kJ/mol
# Density = 2.076056 g / cm^3
# Si number density = 20.807921 Si / 1000 Ang^3
#
#
#
# Elastic Constant Matrix: (Units=GPa)
#
#
# Indices 1 2 3 4 5 6 
#
# 1 43.4202 31.9620 34.9996 0.0000 -4.8060 0.0000
# 2 31.9620 113.3378 66.6057 0.0000 2.1365 0.0000
# 3 34.9996 66.6057 159.3903 0.0000 -17.8984 0.0000
# 4 0.0000 0.0000 0.0000 23.1226 0.0000 -0.0415
# 5 -4.8060 2.1365 -17.8984 0.0000 44.5614 0.0000
# 6 0.0000 0.0000 0.0000 -0.0415 0.0000 25.8613
#
#
#
# Elastic Compliance Matrix: (Units=1/GPa)
#
#
# Indices 1 2 3 4 5 6 
#
# 1 0.031223 -0.006570 -0.003872 0.000000 0.002127 0.000000
# 2 -0.006570 0.013383 -0.004504 0.000000 -0.003159 0.000000
# 3 -0.003872 -0.004504 0.009408 0.000000 0.003577 0.000000
# 4 0.000000 0.000000 0.000000 0.043248 0.000000 0.000069
# 5 0.002127 -0.003159 0.003577 0.000000 0.024259 0.000000
# 6 0.000000 0.000000 0.000000 0.000069 0.000000 0.038668
#
#
# Mechanical properties :
#
#
# Convention : Reuss Voigt Hill
#
# Bulk Modulus (GPa) = 41.45647 64.80922 53.13284
# Shear Modulus (GPa) = 25.23703 30.88113 28.05908
#
# Velocity S-wave (km/s) = 3.48639 3.85659 3.67615
# Velocity P-wave (km/s) = 6.01441 7.14458 6.60372
#
# Compressibility (1/GPa) = 0.02412169
#
# Stress axis : x y z
#
# Youngs Moduli (GPa) = 32.02732 74.72357 106.29124
#
# Poissons Ratio (x) = 0.49093 0.41154
# Poissons Ratio (y) = 0.21042 0.47878
# Poissons Ratio (z) = 0.12400 0.33659
#
# Static dielectric constant tensor:
#      x y z
#    x 3.241830 0.000000 -0.312230 
#    y 0.000000 3.461230 0.000000 
#    z -0.312230 0.000000 4.380970 
# 
# 
# High freq. dielectric constant tensor:
#      x y z
#    x 1.795060 0.000000 -0.019790 
#    y 0.000000 1.787980 0.000000 
#    z -0.019790 0.000000 1.838360 
# 
# From -- ./inp_files/101260.got.cif
#   From: 2010.06.25/outbox.cif.g09.slc.cpg/sg15_51_cif.got.tgz:101260.got - 2010.06.28 07:06:18.
