data_PCOD8135864
_publ_section_title
;
Structure prediction by ZEFSAII (Michael W. Deem and Ramdas Pophale) SiO2 
 PCOD8135864
Probable space group: C 2/C
;
_chemical_formula_sum "Si O2"
_cell_formula_units_Z 44
_cell_length_a 14.019040
_cell_length_b 13.719117
_cell_length_c 19.667395
_cell_angle_alpha 90.000000
_cell_angle_beta 151.453178
_cell_angle_gamma 90.000000
_cell_volume 1807.620231
_symmetry_space_group_name_H-M "C 2/C"
_symmetry_group_IT_number 15
_symmetry_cell_setting 'monoclinic'
loop_
_space_group_symop_operation_xyz
x,y,z
-x,y,1/2-z
-x,-y,-z
x,-y,1/2+z
1/2+x,1/2+y,z
1/2-x,1/2+y,1/2-z
1/2-x,1/2-y,-z
1/2+x,1/2-y,1/2+z
loop_
_atom_site_type_symbol
_atom_site_label
_atom_site_fract_x
_atom_site_fract_y
_atom_site_fract_z
Si Si1 0.500000 0.360687 0.250000
Si Si2 0.338624 0.592710 0.974978
Si Si3 0.163912 0.200893 0.720492
Si Si4 0.891750 0.707582 0.451173
Si Si5 0.319888 0.979250 0.981612
Si Si6 0.234622 0.999546 0.705349
O O1 0.471202 0.289218 0.296366
O O2 0.305961 0.428202 0.120538
O O3 0.246326 0.568757 0.989614
O O4 0.582766 0.588586 0.128049
O O5 0.271218 0.701415 0.909378
O O6 0.249078 0.513771 0.865927
O O7 0.097978 0.281691 0.624157
O O8 0.122658 0.094120 0.664907
O O9 0.393612 0.211011 0.880863
O O10 0.789319 0.604441 0.405279
O O11 0.547618 0.017185 0.126483
#
# Coordination Sequence:
#
# PCOD8135864 Si02
#       6
#     4   8   8   8   8   8
#     4  12  26  42  68  94 142 176 238 270 334 410
#     4  10  19  40  67 102 136 177 221 287 335 411
#     4  10  23  44  62  98 133 182 221 290 335 411
#     4  10  24  41  70  96 140 171 228 285 355 378
#     4  11  23  40  67 103 132 184 230 277 329 417
#     4   9  20  39  66  97 143 174 219 279 349 398
#
# _framework density 24.341394999999999
#
# number of rings (size 3 to 8) (size 9 to 14) (size 15 to 20)
#    0.000    1.818    1.818    1.091    2.545    5.091 
#    3.273    0.000    0.000    0.000    0.000    0.000 
#    0.000    0.000    0.000    0.000    0.000    0.000 
#
# Total GULP energy -272835.198123 kJ/mol
# GULP energy per Si atom -12401.599915 kJ/mol
# Density = 2.428599 g / cm^3
# Si number density = 24.341395 Si / 1000 Ang^3
#
#
#
# Elastic Constant Matrix: (Units=GPa)
#
#
# Indices 1 2 3 4 5 6 
#
# 1 143.2129 27.5832 0.4364 -0.0016 -29.2758 0.0000
# 2 27.5832 23.9787 -15.1813 -0.0011 -2.4013 0.0042
# 3 0.4364 -15.1813 60.4957 0.0095 -3.1283 0.0058
# 4 -0.0016 -0.0011 0.0095 16.0692 0.0042 -6.2394
# 5 -29.2758 -2.4013 -3.1283 0.0042 39.5450 0.0008
# 6 0.0000 0.0042 0.0058 -6.2394 0.0008 27.9750
#
#
#
# Elastic Compliance Matrix: (Units=1/GPa)
#
#
# Indices 1 2 3 4 5 6 
#
# 1 0.011202 -0.014249 -0.003286 0.000001 0.007168 0.000003
# 2 -0.014249 0.068347 0.016993 -0.000012 -0.005054 -0.000016
# 3 -0.003286 0.016993 0.020831 -0.000016 0.000247 -0.000010
# 4 0.000001 -0.000012 -0.000016 0.068131 -0.000009 0.015196
# 5 0.007168 -0.005054 0.000247 -0.000009 0.030307 -0.000002
# 6 0.000003 -0.000016 -0.000010 0.015196 -0.000002 0.039135
#
#
# Mechanical properties :
#
#
# Convention : Reuss Voigt Hill
#
# Bulk Modulus (GPa) = 10.07082 28.15154 19.11118
# Shear Modulus (GPa) = 18.37321 31.04111 24.70716
#
# Velocity S-wave (km/s) = 2.75037 3.57492 3.18940
# Velocity P-wave (km/s) = 3.77258 5.35075 4.62941
#
# Compressibility (1/GPa) = 0.09929675
#
# Stress axis : x y z
#
# Youngs Moduli (GPa) = 89.26761 14.63129 48.00550
#
# Poissons Ratio (x) = 0.20848 0.15774
# Poissons Ratio (y) = 1.27195 -0.81575
# Poissons Ratio (z) = 0.29332 -0.24863
#
# Static dielectric constant tensor:
#      x y z
#    x 4.436870 0.000010 -0.261200 
#    y 0.000010 4.455760 -0.000020 
#    z -0.261200 -0.000020 4.374560 
# 
# 
# High freq. dielectric constant tensor:
#      x y z
#    x 1.968390 0.000000 -0.017970 
#    y 0.000000 1.959190 0.000000 
#    z -0.017970 0.000000 1.968730 
# 
# From -- ./inp_files/168401.got.cif
#   From: 2010.06.25/outbox.cif.g09.slc.cpg/sg15_85_cif.got.tgz:168401.got - 2010.06.28 07:06:18.
