data_PCOD8135044
_publ_section_title
;
Structure prediction by ZEFSAII (Michael W. Deem and Ramdas Pophale) SiO2 
 PCOD8135044
Probable space group: C 2/C
;
_chemical_formula_sum "Si O2"
_cell_formula_units_Z 60
_cell_length_a 17.616944
_cell_length_b 10.580037
_cell_length_c 16.682737
_cell_angle_alpha 90.000000
_cell_angle_beta 102.649815
_cell_angle_gamma 90.000000
_cell_volume 3033.983866
_symmetry_space_group_name_H-M "C 2/C"
_symmetry_group_IT_number 15
_symmetry_cell_setting 'monoclinic'
loop_
_space_group_symop_operation_xyz
x,y,z
-x,y,1/2-z
-x,-y,-z
x,-y,1/2+z
1/2+x,1/2+y,z
1/2-x,1/2+y,1/2-z
1/2-x,1/2-y,-z
1/2+x,1/2-y,1/2+z
loop_
_atom_site_type_symbol
_atom_site_label
_atom_site_fract_x
_atom_site_fract_y
_atom_site_fract_z
Si Si1 0.540986 0.075987 0.893415
Si Si2 0.282010 0.969598 0.091444
Si Si3 0.931647 0.372426 0.922711
Si Si4 0.500000 0.251782 0.750000
Si Si5 0.251872 0.768505 0.664334
Si Si6 0.344059 0.344814 0.325447
Si Si7 0.354713 0.401426 0.746554
Si Si8 0.770239 0.500079 0.906269
O O1 0.489095 0.164186 0.824929
O O2 0.628191 0.069608 0.878771
O O3 0.500988 0.936827 0.887264
O O4 0.539313 0.140824 0.979825
O O5 0.277687 0.114341 0.116730
O O6 0.229627 0.876995 0.133960
O O7 0.252838 0.957538 0.993128
O O8 0.911296 0.231882 0.887234
O O9 0.856617 0.462376 0.900114
O O10 0.427052 0.342359 0.717744
O O11 0.318332 0.739712 0.744558
O O12 0.173763 0.801007 0.694320
O O13 0.237092 0.650656 0.602630
O O14 0.381133 0.473092 0.300187
O O15 0.288310 0.429224 0.666244
#
# Coordination Sequence:
#
# PCOD8135044 Si02
#       8
#     8   8   8   4   8   8   8   8
#     4  10  24  37  62  89 118 157 195 248 304 351
#     4  10  22  37  61  94 113 154 204 245 298 354
#     4  10  21  41  59  88 121 155 195 243 305 359
#     4  12  24  40  58  82 122 150 204 246 296 362
#     4  10  19  37  60  86 116 152 190 243 296 354
#     4  10  21  37  62  83 123 156 197 243 296 363
#     4  10  22  38  59  87 113 161 194 242 304 358
#     4  10  20  36  64  86 118 149 201 247 287 359
#
# _framework density 19.775979
#
# number of rings (size 3 to 8) (size 9 to 14) (size 15 to 20)
#    0.000    1.867    1.333    2.000    3.733    1.067 
#    4.800    0.667    0.000    0.000    0.000    0.000 
#    0.000    0.000    0.000    0.000    0.000    0.000 
#
# Total GULP energy -372043.715463 kJ/mol
# GULP energy per Si atom -12401.457182 kJ/mol
# Density = 1.973097 g / cm^3
# Si number density = 19.775979 Si / 1000 Ang^3
#
#
#
# Elastic Constant Matrix: (Units=GPa)
#
#
# Indices 1 2 3 4 5 6 
#
# 1 70.7660 30.4073 38.3652 0.0000 1.1311 0.0000
# 2 30.4073 78.7018 41.4374 0.0000 7.2396 0.0000
# 3 38.3652 41.4374 96.9075 0.0000 7.8276 0.0000
# 4 0.0000 0.0000 0.0000 24.2943 0.0000 6.9029
# 5 1.1311 7.2396 7.8276 0.0000 26.1957 0.0000
# 6 0.0000 0.0000 0.0000 6.9029 0.0000 31.3774
#
#
#
# Elastic Compliance Matrix: (Units=1/GPa)
#
#
# Indices 1 2 3 4 5 6 
#
# 1 0.019216 -0.004551 -0.005837 0.000000 0.002172 0.000000
# 2 -0.004551 0.017637 -0.005494 0.000000 -0.003036 0.000000
# 3 -0.005837 -0.005494 0.015203 0.000000 -0.002772 0.000000
# 4 0.000000 0.000000 0.000000 0.043906 0.000000 -0.009659
# 5 0.002172 -0.003036 -0.002772 0.000000 0.039748 0.000000
# 6 0.000000 0.000000 0.000000 -0.009659 0.000000 0.033995
#
#
# Mechanical properties :
#
#
# Convention : Reuss Voigt Hill
#
# Bulk Modulus (GPa) = 49.28226 51.86613 50.57420
# Shear Modulus (GPa) = 24.01136 25.45118 24.73127
#
# Velocity S-wave (km/s) = 3.48827 3.59133 3.54018
# Velocity P-wave (km/s) = 6.41860 6.59399 6.50688
#
# Compressibility (1/GPa) = 0.02029128
#
# Stress axis : x y z
#
# Youngs Moduli (GPa) = 52.03885 56.70011 65.77487
#
# Poissons Ratio (x) = 0.25804 0.38394
# Poissons Ratio (y) = 0.23683 0.36140
# Poissons Ratio (z) = 0.30376 0.31154
#
# Static dielectric constant tensor:
#      x y z
#    x 3.467120 0.000000 -0.003300 
#    y 0.000000 3.690930 0.000000 
#    z -0.003300 0.000000 3.657300 
# 
# 
# High freq. dielectric constant tensor:
#      x y z
#    x 1.754640 0.000000 0.000030 
#    y 0.000000 1.777400 0.000000 
#    z 0.000030 0.000000 1.779800 
# 
# From -- ./inp_files/160959.got.cif
#   From: 2010.06.25/outbox.cif.g09.slc.cpg/sg15_81_cif.got.tgz:160959.got - 2010.06.28 07:06:18.
