data_PCOD8135188
_publ_section_title
;
Structure prediction by ZEFSAII (Michael W. Deem and Ramdas Pophale) SiO2 
 PCOD8135188
Probable space group: C 2/C
;
_chemical_formula_sum "Si O2"
_cell_formula_units_Z 56
_cell_length_a 14.310999
_cell_length_b 11.772171
_cell_length_c 17.648755
_cell_angle_alpha 90.000000
_cell_angle_beta 107.706809
_cell_angle_gamma 90.000000
_cell_volume 2832.453043
_symmetry_space_group_name_H-M "C 2/C"
_symmetry_group_IT_number 15
_symmetry_cell_setting 'monoclinic'
loop_
_space_group_symop_operation_xyz
x,y,z
-x,y,1/2-z
-x,-y,-z
x,-y,1/2+z
1/2+x,1/2+y,z
1/2-x,1/2+y,1/2-z
1/2-x,1/2-y,-z
1/2+x,1/2-y,1/2+z
loop_
_atom_site_type_symbol
_atom_site_label
_atom_site_fract_x
_atom_site_fract_y
_atom_site_fract_z
Si Si1 0.056370 0.843521 0.459514
Si Si2 0.726520 0.606839 0.543579
Si Si3 0.100097 0.023352 0.115863
Si Si4 0.757757 0.068676 0.575269
Si Si5 0.401717 0.737252 0.093279
Si Si6 0.897309 0.053383 0.217997
Si Si7 0.040182 0.375852 0.030639
O O1 0.060462 0.880728 0.549271
O O2 0.164609 0.849597 0.448216
O O3 0.022379 0.711295 0.455176
O O4 0.983348 0.925052 0.394697
O O5 0.699860 0.530827 0.608916
O O6 0.775108 0.533179 0.488555
O O7 0.623639 0.658627 0.486299
O O8 0.800446 0.701520 0.590555
O O9 0.130024 0.084020 0.201921
O O10 0.657171 0.128193 0.576136
O O11 0.808820 0.019251 0.662869
O O12 0.427728 0.661245 0.172601
O O13 0.485112 0.829010 0.092419
O O14 0.000000 0.983266 0.250000
O O15 0.000000 0.500000 0.000000
#
# Coordination Sequence:
#
# PCOD8135188 Si02
#       7
#     8   8   8   8   8   8   8
#     4  10  20  37  63  93 118 160 216 262 298 373
#     4   9  18  37  62  90 120 164 204 261 301 375
#     4  10  19  37  64  91 121 160 213 264 313 357
#     4  10  21  37  62  92 125 153 212 261 317 365
#     4  10  20  36  62  92 127 161 211 253 309 375
#     4  11  21  37  61  92 123 163 206 261 315 374
#     4  12  22  37  63  96 124 165 204 259 312 380
#
# _framework density 19.770849999999999
#
# number of rings (size 3 to 8) (size 9 to 14) (size 15 to 20)
#    0.000    1.714    4.286    1.286    0.000    0.000 
#    5.143    0.000    0.000    0.000   11.143    0.000 
#    0.000    0.000    0.000    0.000    0.000    0.000 
#
# Total GULP energy -346966.152098 kJ/mol
# GULP energy per Si atom -12391.648289 kJ/mol
# Density = 1.972585 g / cm^3
# Si number density = 19.770850 Si / 1000 Ang^3
#
#
#
# Elastic Constant Matrix: (Units=GPa)
#
#
# Indices 1 2 3 4 5 6 
#
# 1 106.4278 36.5429 49.5987 0.0000 -0.9038 0.0000
# 2 36.5429 104.0166 37.4271 0.0000 -6.2784 0.0000
# 3 49.5987 37.4271 113.9557 0.0000 -11.2432 0.0000
# 4 0.0000 0.0000 0.0000 19.2341 0.0000 -2.3063
# 5 -0.9038 -6.2784 -11.2432 0.0000 20.4817 0.0000
# 6 0.0000 0.0000 0.0000 -2.3063 0.0000 39.7220
#
#
#
# Elastic Compliance Matrix: (Units=1/GPa)
#
#
# Indices 1 2 3 4 5 6 
#
# 1 0.012612 -0.002869 -0.004841 0.000000 -0.002980 0.000000
# 2 -0.002869 0.011596 -0.002349 0.000000 0.002139 0.000000
# 3 -0.004841 -0.002349 0.012224 0.000000 0.005776 0.000000
# 4 0.000000 0.000000 0.000000 0.052356 0.000000 0.003040
# 5 -0.002980 0.002139 0.005776 0.000000 0.052519 0.000000
# 6 0.000000 0.000000 0.000000 0.003040 0.000000 0.025351
#
#
# Mechanical properties :
#
#
# Convention : Reuss Voigt Hill
#
# Bulk Modulus (GPa) = 61.29675 63.50418 62.40047
# Shear Modulus (GPa) = 26.01278 29.27631 27.64455
#
# Velocity S-wave (km/s) = 3.63121 3.85227 3.74337
# Velocity P-wave (km/s) = 6.97509 7.20947 7.09325
#
# Compressibility (1/GPa) = 0.01631408
#
# Stress axis : x y z
#
# Youngs Moduli (GPa) = 79.29051 86.23697 81.80763
#
# Poissons Ratio (x) = 0.24739 0.39604
# Poissons Ratio (y) = 0.22746 0.19216
# Poissons Ratio (z) = 0.38385 0.20256
#
# Static dielectric constant tensor:
#      x y z
#    x 3.695850 0.000000 -0.070380 
#    y 0.000000 3.587200 0.000000 
#    z -0.070380 0.000000 3.349590 
# 
# 
# High freq. dielectric constant tensor:
#      x y z
#    x 1.789410 0.000000 -0.005760 
#    y 0.000000 1.758770 0.000000 
#    z -0.005760 0.000000 1.736220 
# 
# From -- ./inp_files/204117.got.cif
#   From: 2010.06.25/outbox.cif.g09.slc.cpg/sg15_103_cif.got.tgz:204117.got - 2010.06.28 07:06:18.
