data_PCOD8135393
_publ_section_title
;
Structure prediction by ZEFSAII (Michael W. Deem and Ramdas Pophale) SiO2 
 PCOD8135393
Probable space group: C 2/C
;
_chemical_formula_sum "Si O2"
_cell_formula_units_Z 44
_cell_length_a 9.075634
_cell_length_b 29.152139
_cell_length_c 8.608932
_cell_angle_alpha 90.000000
_cell_angle_beta 116.007157
_cell_angle_gamma 90.000000
_cell_volume 2047.059191
_symmetry_space_group_name_H-M "C 2/C"
_symmetry_group_IT_number 15
_symmetry_cell_setting 'monoclinic'
loop_
_space_group_symop_operation_xyz
x,y,z
-x,y,1/2-z
-x,-y,-z
x,-y,1/2+z
1/2+x,1/2+y,z
1/2-x,1/2+y,1/2-z
1/2-x,1/2-y,-z
1/2+x,1/2-y,1/2+z
loop_
_atom_site_type_symbol
_atom_site_label
_atom_site_fract_x
_atom_site_fract_y
_atom_site_fract_z
Si Si1 0.432439 0.148790 0.876138
Si Si2 0.500000 0.742217 0.750000
Si Si3 0.824523 0.552745 0.739098
Si Si4 0.684478 0.522765 0.364373
Si Si5 0.234225 0.809645 0.551550
Si Si6 0.341418 0.893361 0.778737
O O1 0.500000 0.172738 0.750000
O O2 0.312329 0.106041 0.780829
O O3 0.335589 0.185156 0.936329
O O4 0.595366 0.129350 0.033964
O O5 0.340471 0.774456 0.708324
O O6 0.446076 0.710152 0.577302
O O7 0.694868 0.539573 0.546182
O O8 0.793681 0.522351 0.879089
O O9 0.000000 0.540680 0.750000
O O10 0.500000 0.508426 0.250000
O O11 0.736625 0.562055 0.266678
O O12 0.220932 0.858017 0.632695
O O13 0.500000 0.905979 0.750000
#
# Coordination Sequence:
#
# PCOD8135393 Si02
#       6
#     8   4   8   8   8   8
#     4  10  19  38  61  89 117 155 207 245 294 356
#     4  10  20  40  64  94 118 152 206 242 310 362
#     4  11  23  39  61  83 117 170 211 243 292 369
#     4  12  25  39  56  90 127 157 204 267 301 343
#     4  10  21  38  68  88 122 156 199 251 296 375
#     4  10  20  39  63  89 112 169 203 243 296 370
#
# _framework density 21.494249
#
# number of rings (size 3 to 8) (size 9 to 14) (size 15 to 20)
#    0.000    1.455    6.364    1.636    5.091    1.455 
#    1.636    0.909    0.000    0.000    0.000    0.000 
#    0.000    0.000    0.000    0.000    0.000    0.000 
#
# Total GULP energy -272701.376128 kJ/mol
# GULP energy per Si atom -12395.517097 kJ/mol
# Density = 2.144533 g / cm^3
# Si number density = 21.494249 Si / 1000 Ang^3
#
#
#
# Elastic Constant Matrix: (Units=GPa)
#
#
# Indices 1 2 3 4 5 6 
#
# 1 52.4834 18.2407 18.3511 0.0000 -0.3466 0.0000
# 2 18.2407 81.8710 12.4117 0.0000 -1.1378 0.0000
# 3 18.3511 12.4117 90.0787 0.0000 6.0125 0.0000
# 4 0.0000 0.0000 0.0000 33.0916 0.0000 5.7064
# 5 -0.3466 -1.1378 6.0125 0.0000 39.3339 0.0000
# 6 0.0000 0.0000 0.0000 5.7064 0.0000 8.4619
#
#
#
# Elastic Compliance Matrix: (Units=1/GPa)
#
#
# Indices 1 2 3 4 5 6 
#
# 1 0.021916 -0.004279 -0.003920 0.000000 0.000669 0.000000
# 2 -0.004279 0.013326 -0.000998 0.000000 0.000500 0.000000
# 3 -0.003920 -0.000998 0.012166 0.000000 -0.001923 0.000000
# 4 0.000000 0.000000 0.000000 0.034196 0.000000 -0.023060
# 5 0.000669 0.000500 -0.001923 0.000000 0.025738 0.000000
# 6 0.000000 0.000000 0.000000 -0.023060 0.000000 0.133727
#
#
# Mechanical properties :
#
#
# Convention : Reuss Voigt Hill
#
# Bulk Modulus (GPa) = 34.46608 35.82668 35.14638
# Shear Modulus (GPa) = 18.57815 27.87281 23.22548
#
# Velocity S-wave (km/s) = 2.94314 3.60496 3.29073
# Velocity P-wave (km/s) = 5.25540 5.83368 5.55208
#
# Compressibility (1/GPa) = 0.02901403
#
# Stress axis : x y z
#
# Youngs Moduli (GPa) = 45.62901 75.04151 82.19772
#
# Poissons Ratio (x) = 0.32112 0.32220
# Poissons Ratio (y) = 0.19526 0.08201
# Poissons Ratio (z) = 0.17886 0.07487
#
# Static dielectric constant tensor:
#      x y z
#    x 3.518430 0.000000 -0.116570 
#    y 0.000000 3.913090 0.000000 
#    z -0.116570 0.000000 4.261430 
# 
# 
# High freq. dielectric constant tensor:
#      x y z
#    x 1.798830 0.000000 0.001250 
#    y 0.000000 1.844840 0.000000 
#    z 0.001250 0.000000 1.856240 
# 
# From -- ./inp_files/26256.got.cif
#   From: 2010.06.25/outbox.cif.g09.slc.cpg/sg15_14_cif.got.tgz:26256.got - 2010.06.28 07:06:18.
