data_PCOD8135565
_publ_section_title
;
Structure prediction by ZEFSAII (Michael W. Deem and Ramdas Pophale) SiO2 
 PCOD8135565
Probable space group: C 2/C
;
_chemical_formula_sum "Si O2"
_cell_formula_units_Z 56
_cell_length_a 20.162984
_cell_length_b 9.879207
_cell_length_c 14.599966
_cell_angle_alpha 90.000000
_cell_angle_beta 63.585730
_cell_angle_gamma 90.000000
_cell_volume 2604.613585
_symmetry_space_group_name_H-M "C 2/C"
_symmetry_group_IT_number 15
_symmetry_cell_setting 'monoclinic'
loop_
_space_group_symop_operation_xyz
x,y,z
-x,y,1/2-z
-x,-y,-z
x,-y,1/2+z
1/2+x,1/2+y,z
1/2-x,1/2+y,1/2-z
1/2-x,1/2-y,-z
1/2+x,1/2-y,1/2+z
loop_
_atom_site_type_symbol
_atom_site_label
_atom_site_fract_x
_atom_site_fract_y
_atom_site_fract_z
Si Si1 0.527155 0.977789 0.636320
Si Si2 0.191216 0.752297 0.788277
Si Si3 0.312747 0.452370 0.266032
Si Si4 0.680745 0.439410 0.543899
Si Si5 0.461079 0.815768 0.045292
Si Si6 0.428186 0.410615 0.042618
Si Si7 0.330610 0.862182 0.395195
O O1 0.500000 0.914448 0.750000
O O2 0.465473 0.062763 0.616917
O O3 0.591868 0.075871 0.627165
O O4 0.553322 0.861939 0.550659
O O5 0.251070 0.665838 0.809050
O O6 0.220938 0.904713 0.750897
O O7 0.111937 0.771774 0.886605
O O8 0.179072 0.664770 0.705502
O O9 0.341888 0.481359 0.350602
O O10 0.383639 0.401124 0.165414
O O11 0.625172 0.482551 0.498203
O O12 0.673346 0.278120 0.549247
O O13 0.766466 0.467553 0.466026
O O14 0.539528 0.737049 0.002942
O O15 0.500000 0.500000 0.000000
#
# Coordination Sequence:
#
# PCOD8135565 Si02
#       7
#     8   8   8   8   8   8   8
#     4  11  22  39  64  99 134 178 224 286 334 406
#     4  11  22  43  69 100 134 180 227 287 342 406
#     4  11  25  43  71 100 134 181 233 285 343 408
#     4  10  22  40  66  97 125 176 223 279 326 409
#     4  11  24  40  66  97 138 178 225 283 341 400
#     4  12  24  45  65  95 138 179 227 274 341 415
#     4  10  19  38  68  93 127 168 232 273 331 400
#
# _framework density 21.500311
#
# number of rings (size 3 to 8) (size 9 to 14) (size 15 to 20)
#    0.000    1.143    5.714    0.857    0.000    2.857 
#    2.571    0.714    0.000    0.000    0.000    0.000 
#    0.000    0.000    0.000    0.000    0.000    0.000 
#
# Total GULP energy -347065.476353 kJ/mol
# GULP energy per Si atom -12395.195584 kJ/mol
# Density = 2.145138 g / cm^3
# Si number density = 21.500311 Si / 1000 Ang^3
#
#
#
# Elastic Constant Matrix: (Units=GPa)
#
#
# Indices 1 2 3 4 5 6 
#
# 1 61.1294 -5.8518 22.7119 0.0000 -8.7240 0.0000
# 2 -5.8518 38.9735 6.4942 0.0000 -1.5345 0.0000
# 3 22.7119 6.4942 130.9844 0.0000 -0.7978 0.0000
# 4 0.0000 0.0000 0.0000 33.0877 0.0000 -2.7586
# 5 -8.7240 -1.5345 -0.7978 0.0000 39.0488 0.0000
# 6 0.0000 0.0000 0.0000 -2.7586 0.0000 33.2630
#
#
#
# Elastic Compliance Matrix: (Units=1/GPa)
#
#
# Indices 1 2 3 4 5 6 
#
# 1 0.018546 0.003511 -0.003364 0.000000 0.004213 0.000000
# 2 0.003511 0.026575 -0.001916 0.000000 0.001790 0.000000
# 3 -0.003364 -0.001916 0.008309 0.000000 -0.000657 0.000000
# 4 0.000000 0.000000 0.000000 0.030433 0.000000 0.002524
# 5 0.004213 0.001790 -0.000657 0.000000 0.026607 0.000000
# 6 0.000000 0.000000 0.000000 0.002524 0.000000 0.030273
#
#
# Mechanical properties :
#
#
# Convention : Reuss Voigt Hill
#
# Bulk Modulus (GPa) = 20.04294 30.86621 25.45458
# Shear Modulus (GPa) = 31.07305 34.92876 33.00091
#
# Velocity S-wave (km/s) = 3.80575 4.03497 3.92203
# Velocity P-wave (km/s) = 5.35295 6.00794 5.68988
#
# Compressibility (1/GPa) = 0.04989287
#
# Stress axis : x y z
#
# Youngs Moduli (GPa) = 53.92003 37.62897 120.35445
#
# Poissons Ratio (x) = -0.13212 0.40489
# Poissons Ratio (y) = -0.18932 0.23054
# Poissons Ratio (z) = 0.18140 0.07208
#
# Static dielectric constant tensor:
#      x y z
#    x 8.075190 0.000000 -3.157480 
#    y 0.000000 4.041230 0.000000 
#    z -3.157480 0.000000 6.444510 
# 
# 
# High freq. dielectric constant tensor:
#      x y z
#    x 1.841200 0.000000 -0.002480 
#    y 0.000000 1.825830 0.000000 
#    z -0.002480 0.000000 1.854380 
# 
# From -- ./inp_files/160833.got.cif
#   From: 2010.06.25/outbox.cif.g09.slc.cpg/sg15_81_cif.got.tgz:160833.got - 2010.06.28 07:06:18.
