data_PCOD8135815
_publ_section_title
;
Structure prediction by ZEFSAII (Michael W. Deem and Ramdas Pophale) SiO2 
 PCOD8135815
Probable space group: C 2/C
;
_chemical_formula_sum "Si O2"
_cell_formula_units_Z 40
_cell_length_a 20.658631
_cell_length_b 7.713601
_cell_length_c 17.903740
_cell_angle_alpha 90.000000
_cell_angle_beta 138.091464
_cell_angle_gamma 90.000000
_cell_volume 1905.645694
_symmetry_space_group_name_H-M "C 2/C"
_symmetry_group_IT_number 15
_symmetry_cell_setting 'monoclinic'
loop_
_space_group_symop_operation_xyz
x,y,z
-x,y,1/2-z
-x,-y,-z
x,-y,1/2+z
1/2+x,1/2+y,z
1/2-x,1/2+y,1/2-z
1/2-x,1/2-y,-z
1/2+x,1/2-y,1/2+z
loop_
_atom_site_type_symbol
_atom_site_label
_atom_site_fract_x
_atom_site_fract_y
_atom_site_fract_z
Si Si1 0.512421 0.661064 0.846693
Si Si2 0.312908 0.147376 0.743025
Si Si3 0.858437 0.973178 0.319032
Si Si4 0.380667 0.351909 0.494648
Si Si5 0.490280 0.005411 0.580229
O O1 0.500000 0.705161 0.750000
O O2 0.406409 0.621903 0.790048
O O3 0.556104 0.830346 0.925891
O O4 0.584896 0.496992 0.916902
O O5 0.366482 0.323389 0.811694
O O6 0.237174 0.165123 0.608785
O O7 0.399328 0.019170 0.793502
O O8 0.255111 0.078309 0.767338
O O9 0.917288 0.917855 0.444520
O O10 0.425050 0.165425 0.552326
O O11 0.500000 0.000000 0.500000
#
# Coordination Sequence:
#
# PCOD8135815 Si02
#       5
#     8   8   8   8   8
#     4  12  25  42  65  96 138 178 212 269 336 396
#     4  10  21  36  71  98 126 158 233 272 312 374
#     4  10  19  40  63 100 122 167 215 274 313 381
#     4  10  23  41  68  95 129 171 220 272 320 384
#     4  12  21  42  69  99 124 173 225 270 325 380
#
# _framework density 20.990261
#
# number of rings (size 3 to 8) (size 9 to 14) (size 15 to 20)
#    1.200    0.000    4.000    4.200    0.000    0.800 
#    0.000    2.000    0.000    0.000    0.000    0.000 
#    0.000    0.000    0.000    0.000    0.000    0.000 
#
# Total GULP energy -247893.884270 kJ/mol
# GULP energy per Si atom -12394.694214 kJ/mol
# Density = 2.094249 g / cm^3
# Si number density = 20.990261 Si / 1000 Ang^3
#
#
#
# Elastic Constant Matrix: (Units=GPa)
#
#
# Indices 1 2 3 4 5 6 
#
# 1 21.3611 -4.5351 12.1391 0.0000 -4.9646 0.0000
# 2 -4.5351 130.1957 18.7729 0.0000 -8.5097 0.0000
# 3 12.1391 18.7729 67.7092 0.0000 -0.0998 0.0000
# 4 0.0000 0.0000 0.0000 37.9481 0.0000 5.5242
# 5 -4.9646 -8.5097 -0.0998 0.0000 42.3385 0.0000
# 6 0.0000 0.0000 0.0000 5.5242 0.0000 18.9499
#
#
#
# Elastic Compliance Matrix: (Units=1/GPa)
#
#
# Indices 1 2 3 4 5 6 
#
# 1 0.055662 0.004014 -0.011081 0.000000 0.007308 0.000000
# 2 0.004014 0.008400 -0.003046 0.000000 0.002152 0.000000
# 3 -0.011081 -0.003046 0.017597 0.000000 -0.001870 0.000000
# 4 0.000000 0.000000 0.000000 0.027520 0.000000 -0.008022
# 5 0.007308 0.002152 -0.001870 0.000000 0.024904 0.000000
# 6 0.000000 0.000000 0.000000 -0.008022 0.000000 0.055109
#
#
# Mechanical properties :
#
#
# Convention : Reuss Voigt Hill
#
# Bulk Modulus (GPa) = 16.27755 30.22444 23.25100
# Shear Modulus (GPa) = 21.74890 32.70658 27.22774
#
# Velocity S-wave (km/s) = 3.22241 3.95166 3.60552
# Velocity P-wave (km/s) = 4.64939 5.93728 5.33236
#
# Compressibility (1/GPa) = 0.06143430
#
# Stress axis : x y z
#
# Youngs Moduli (GPa) = 17.96557 119.04236 56.82645
#
# Poissons Ratio (x) = -0.47788 0.62972
# Poissons Ratio (y) = -0.07212 0.17307
# Poissons Ratio (z) = 0.19909 0.36256
#
# Static dielectric constant tensor:
#      x y z
#    x 3.417760 0.000000 0.275040 
#    y 0.000000 3.924510 0.000000 
#    z 0.275040 0.000000 3.572990 
# 
# 
# High freq. dielectric constant tensor:
#      x y z
#    x 1.782870 0.000000 0.027120 
#    y 0.000000 1.842010 0.000000 
#    z 0.027120 0.000000 1.804660 
# 
# From -- ./inp_files/218416.got.cif
#   From: 2010.06.25/outbox.cif.g09.slc.cpg/sg15_110_cif.got.tgz:218416.got - 2010.06.28 07:06:18.
