data_PCOD8135307
_publ_section_title
;
Structure prediction by ZEFSAII (Michael W. Deem and Ramdas Pophale) SiO2 
 PCOD8135307
Probable space group: C 2/C
;
_chemical_formula_sum "Si O2"
_cell_formula_units_Z 48
_cell_length_a 18.538143
_cell_length_b 20.324000
_cell_length_c 16.590950
_cell_angle_alpha 90.000000
_cell_angle_beta 156.958331
_cell_angle_gamma 90.000000
_cell_volume 2446.628410
_symmetry_space_group_name_H-M "C 2/C"
_symmetry_group_IT_number 15
_symmetry_cell_setting 'monoclinic'
loop_
_space_group_symop_operation_xyz
x,y,z
-x,y,1/2-z
-x,-y,-z
x,-y,1/2+z
1/2+x,1/2+y,z
1/2-x,1/2+y,1/2-z
1/2-x,1/2-y,-z
1/2+x,1/2-y,1/2+z
loop_
_atom_site_type_symbol
_atom_site_label
_atom_site_fract_x
_atom_site_fract_y
_atom_site_fract_z
Si Si1 0.931063 0.547606 0.764336
Si Si2 0.585231 0.700017 0.919231
Si Si3 0.157745 0.913522 0.106692
Si Si4 0.731562 0.830148 0.141082
Si Si5 0.375547 0.097216 0.239880
Si Si6 0.245511 0.051659 0.275111
O O1 0.752384 0.586230 0.615511
O O2 0.865898 0.472359 0.685015
O O3 0.000000 0.576918 0.750000
O O4 0.094671 0.554233 0.995640
O O5 0.500000 0.732184 0.750000
O O6 0.425884 0.658063 0.797572
O O7 0.663427 0.755150 0.060431
O O8 0.747160 0.649670 0.061485
O O9 0.231212 0.847840 0.227001
O O10 0.221644 0.976082 0.225252
O O11 0.936670 0.916556 0.872048
O O12 0.584931 0.878921 0.950756
O O13 0.305406 0.094407 0.259890
#
# Coordination Sequence:
#
# PCOD8135307 Si02
#       6
#     8   8   8   8   8   8
#     4  11  23  36  58  90 120 153 197 254 309 348
#     4  12  27  37  55  91 126 161 207 241 283 350
#     4  10  20  37  61  81 113 157 205 245 290 362
#     4  12  22  39  58  80 119 166 199 241 281 348
#     4  11  22  38  58  81 122 166 198 239 295 354
#     4  10  19  38  58  85 110 152 206 243 296 368
#
# _framework density 19.618836000000002
#
# number of rings (size 3 to 8) (size 9 to 14) (size 15 to 20)
#    0.000    1.000    6.667    1.500    2.333    0.667 
#    0.000    0.000    0.000    0.000    0.000    4.667 
#    0.000    0.000    0.000    0.000    0.000    0.000 
#
# Total GULP energy -297600.310934 kJ/mol
# GULP energy per Si atom -12400.012956 kJ/mol
# Density = 1.957418 g / cm^3
# Si number density = 19.618836 Si / 1000 Ang^3
#
#
#
# Elastic Constant Matrix: (Units=GPa)
#
#
# Indices 1 2 3 4 5 6 
#
# 1 115.8329 18.0429 21.3089 0.0000 16.2387 0.0000
# 2 18.0429 66.9585 23.5552 0.0000 -2.4354 0.0000
# 3 21.3089 23.5552 73.5762 -0.0002 19.1925 -0.0001
# 4 0.0000 0.0000 -0.0002 21.5597 -0.0001 2.2093
# 5 16.2387 -2.4354 19.1925 -0.0001 33.5840 -0.0001
# 6 0.0000 0.0000 -0.0001 2.2093 -0.0001 20.8977
#
#
#
# Elastic Compliance Matrix: (Units=1/GPa)
#
#
# Indices 1 2 3 4 5 6 
#
# 1 0.009803 -0.002488 -0.000892 0.000000 -0.004411 0.000000
# 2 -0.002488 0.018224 -0.006784 0.000000 0.006401 0.000000
# 3 -0.000892 -0.006784 0.018847 0.000000 -0.010831 0.000000
# 4 0.000000 0.000000 0.000000 0.046891 0.000000 -0.004957
# 5 -0.004411 0.006401 -0.010831 0.000000 0.038563 0.000000
# 6 0.000000 0.000000 0.000000 -0.004957 0.000000 0.048376
#
#
# Mechanical properties :
#
#
# Convention : Reuss Voigt Hill
#
# Bulk Modulus (GPa) = 37.66974 42.46461 40.06718
# Shear Modulus (GPa) = 23.82307 28.10567 25.96437
#
# Velocity S-wave (km/s) = 3.48846 3.78906 3.64186
# Velocity P-wave (km/s) = 5.95552 6.39018 6.17668
#
# Compressibility (1/GPa) = 0.02654651
#
# Stress axis : x y z
#
# Youngs Moduli (GPa) = 102.00797 54.87160 53.05950
#
# Poissons Ratio (x) = 0.13653 0.04733
# Poissons Ratio (y) = 0.25382 0.35994
# Poissons Ratio (z) = 0.09099 0.37223
#
# Static dielectric constant tensor:
#      x y z
#    x 3.728860 0.000000 0.330020 
#    y 0.000000 3.336610 0.000000 
#    z 0.330020 0.000000 3.723860 
# 
# 
# High freq. dielectric constant tensor:
#      x y z
#    x 1.758550 0.000000 0.029590 
#    y 0.000000 1.729760 0.000000 
#    z 0.029590 0.000000 1.774550 
# 
# From -- ./inp_files/216582.got.cif
#   From: 2010.06.25/outbox.cif.g09.slc.cpg/sg15_109_cif.got.tgz:216582.got - 2010.06.28 07:06:18.
