data_PCOD8135066
_publ_section_title
;
Structure prediction by ZEFSAII (Michael W. Deem and Ramdas Pophale) SiO2 
 PCOD8135066
Probable space group: C 2/C
;
_chemical_formula_sum "Si O2"
_cell_formula_units_Z 40
_cell_length_a 15.342372
_cell_length_b 10.041720
_cell_length_c 25.041923
_cell_angle_alpha 90.000000
_cell_angle_beta 25.203063
_cell_angle_gamma 90.000000
_cell_volume 1642.866079
_symmetry_space_group_name_H-M "C 2/C"
_symmetry_group_IT_number 15
_symmetry_cell_setting 'monoclinic'
loop_
_space_group_symop_operation_xyz
x,y,z
-x,y,1/2-z
-x,-y,-z
x,-y,1/2+z
1/2+x,1/2+y,z
1/2-x,1/2+y,1/2-z
1/2-x,1/2-y,-z
1/2+x,1/2-y,1/2+z
loop_
_atom_site_type_symbol
_atom_site_label
_atom_site_fract_x
_atom_site_fract_y
_atom_site_fract_z
Si Si1 0.043764 0.142090 0.001765
Si Si2 0.000000 0.038470 0.250000
Si Si3 0.392507 0.095071 0.397122
Si Si4 0.000000 0.412823 0.250000
Si Si5 0.410294 0.631432 0.410914
Si Si6 0.822494 0.675005 0.543704
O O1 0.289499 0.168956 0.872891
O O2 0.945794 0.152596 0.116043
O O3 0.954564 0.261704 0.017231
O O4 0.000000 0.000000 0.000000
O O5 0.975122 0.129530 0.210073
O O6 0.206080 0.951631 0.132594
O O7 0.344304 0.223806 0.388063
O O8 0.476941 0.134679 0.409177
O O9 0.544495 0.004008 0.278065
O O10 0.185609 0.013821 0.524894
O O11 0.250000 0.750000 0.500000
#
# Coordination Sequence:
#
# PCOD8135066 Si02
#       6
#     8   4   8   4   8   8
#     4  11  22  41  67 102 137 184 231 280 349 421
#     4  10  23  43  72 102 130 193 233 282 356 404
#     4   9  19  37  66  98 132 179 225 289 341 397
#     4  10  19  37  60  94 144 181 227 270 352 410
#     4  10  22  43  66  95 146 179 224 290 353 418
#     4  10  19  39  72  99 137 168 240 292 324 417
#
# _framework density 24.347691999999999
#
# number of rings (size 3 to 8) (size 9 to 14) (size 15 to 20)
#    0.000    2.000    4.000    0.600    0.000    3.200 
#    0.000   16.000    0.000    0.000    0.000    0.000 
#    0.000    0.000    0.000    2.400    0.000    0.000 
#
# Total GULP energy -247776.597136 kJ/mol
# GULP energy per Si atom -12388.829857 kJ/mol
# Density = 2.429228 g / cm^3
# Si number density = 24.347692 Si / 1000 Ang^3
#
#
#
# Elastic Constant Matrix: (Units=GPa)
#
#
# Indices 1 2 3 4 5 6 
#
# 1 220.5289 57.7284 65.8962 -0.0007 58.6028 -0.0001
# 2 57.7284 77.3215 27.3590 -0.0017 16.5803 0.0004
# 3 65.8962 27.3590 99.5434 -0.0232 36.3779 0.0011
# 4 -0.0007 -0.0017 -0.0232 38.5390 0.0019 10.9049
# 5 58.6028 16.5803 36.3779 0.0019 49.2038 0.0008
# 6 -0.0001 0.0004 0.0011 10.9049 0.0008 48.1024
#
#
#
# Elastic Compliance Matrix: (Units=1/GPa)
#
#
# Indices 1 2 3 4 5 6 
#
# 1 0.007839 -0.003804 -0.001645 -0.000001 -0.006839 0.000000
# 2 -0.003804 0.016424 -0.002232 -0.000001 0.000647 0.000000
# 3 -0.001645 -0.002232 0.014740 0.000010 -0.008187 -0.000002
# 4 -0.000001 -0.000001 0.000010 0.027726 -0.000007 -0.006286
# 5 -0.006839 0.000647 -0.008187 -0.000007 0.034304 0.000001
# 6 0.000000 0.000000 -0.000002 -0.006286 0.000001 0.022214
#
#
# Mechanical properties :
#
#
# Convention : Reuss Voigt Hill
#
# Bulk Modulus (GPa) = 42.29867 77.70677 60.00272
# Shear Modulus (GPa) = 34.13202 43.59637 38.86419
#
# Velocity S-wave (km/s) = 3.74820 4.23611 3.99960
# Velocity P-wave (km/s) = 6.01186 7.47736 6.78430
#
# Compressibility (1/GPa) = 0.02364141
#
# Stress axis : x y z
#
# Youngs Moduli (GPa) = 127.56450 60.88469 67.84310
#
# Poissons Ratio (x) = 0.23163 0.11157
# Poissons Ratio (y) = 0.48530 0.15143
# Poissons Ratio (z) = 0.20979 0.13590
#
# Static dielectric constant tensor:
#      x y z
#    x 4.999840 0.000060 0.670000 
#    y 0.000060 4.474240 -0.000140 
#    z 0.670000 -0.000140 4.843570 
# 
# 
# High freq. dielectric constant tensor:
#      x y z
#    x 1.971600 0.000000 0.052420 
#    y 0.000000 1.976490 0.000000 
#    z 0.052420 0.000000 1.940830 
# 
# From -- ./inp_files/273776.got.cif
#   From: 2010.06.25/outbox.cif.g09.slc.cpg/sg15_137_cif.got.tgz:273776.got - 2010.06.28 07:06:18.
