data_PCOD8135837
_publ_section_title
;
Structure prediction by ZEFSAII (Michael W. Deem and Ramdas Pophale) SiO2 
 PCOD8135837
Probable space group: C 2/C
;
_chemical_formula_sum "Si O2"
_cell_formula_units_Z 64
_cell_length_a 14.264601
_cell_length_b 12.247558
_cell_length_c 17.942021
_cell_angle_alpha 90.000000
_cell_angle_beta 80.932716
_cell_angle_gamma 90.000000
_cell_volume 3095.418239
_symmetry_space_group_name_H-M "C 2/C"
_symmetry_group_IT_number 15
_symmetry_cell_setting 'monoclinic'
loop_
_space_group_symop_operation_xyz
x,y,z
-x,y,1/2-z
-x,-y,-z
x,-y,1/2+z
1/2+x,1/2+y,z
1/2-x,1/2+y,1/2-z
1/2-x,1/2-y,-z
1/2+x,1/2-y,1/2+z
loop_
_atom_site_type_symbol
_atom_site_label
_atom_site_fract_x
_atom_site_fract_y
_atom_site_fract_z
Si Si1 0.555870 0.835606 0.069158
Si Si2 0.198474 0.160585 0.555356
Si Si3 0.260469 0.538271 0.808884
Si Si4 0.677311 0.670696 0.129706
Si Si5 0.679839 0.661217 0.840934
Si Si6 0.252725 0.433168 0.020881
Si Si7 0.956306 0.496113 0.674237
Si Si8 0.999427 0.721969 0.409174
O O1 0.579604 0.729344 0.117379
O O2 0.641895 0.924058 0.056117
O O3 0.470581 0.897631 0.120665
O O4 0.526318 0.796481 0.991488
O O5 0.250000 0.250000 0.500000
O O6 0.245948 0.137076 0.630186
O O7 0.092470 0.201923 0.583349
O O8 0.208489 0.050577 0.506927
O O9 0.334850 0.446088 0.829001
O O10 0.307123 0.577754 0.727523
O O11 0.157760 0.482117 0.808242
O O12 0.736230 0.750302 0.176121
O O13 0.736959 0.654652 0.046405
O O14 0.682515 0.596254 0.917629
O O15 0.577967 0.717140 0.850052
O O16 0.011294 0.394576 0.629951
O O17 0.000000 0.516644 0.750000
#
# Coordination Sequence:
#
# PCOD8135837 Si02
#       8
#     8   8   8   8   8   8   8   8
#     4  11  20  41  73  94 124 173 226 266 321 383
#     4  11  25  41  62  95 136 171 213 276 331 388
#     4  11  25  43  64  93 137 172 216 271 339 395
#     4  10  19  41  65  92 125 174 217 268 321 401
#     4  11  21  39  70  92 125 177 216 270 337 384
#     4  10  19  40  64  91 123 169 221 257 325 398
#     4  12  25  41  65 102 130 166 221 279 319 390
#     4  12  23  40  70  97 131 170 221 274 327 388
#
# _framework density 20.675719999999998
#
# number of rings (size 3 to 8) (size 9 to 14) (size 15 to 20)
#    0.000    1.000    3.750    4.875    1.750    1.500 
#    0.000    1.250    5.500    0.000    0.000    0.000 
#    0.000    0.000    0.000    0.000    0.000    0.000 
#
# Total GULP energy -396723.717957 kJ/mol
# GULP energy per Si atom -12397.616186 kJ/mol
# Density = 2.062866 g / cm^3
# Si number density = 20.675720 Si / 1000 Ang^3
#
#
#
# Elastic Constant Matrix: (Units=GPa)
#
#
# Indices 1 2 3 4 5 6 
#
# 1 61.7329 27.0405 16.7067 0.0000 9.1192 0.0000
# 2 27.0405 98.2160 48.5051 0.0000 4.1404 0.0000
# 3 16.7067 48.5051 105.3085 0.0000 10.1724 0.0000
# 4 0.0000 0.0000 0.0000 45.0443 0.0000 -3.9969
# 5 9.1192 4.1404 10.1724 0.0000 18.4524 0.0000
# 6 0.0000 0.0000 0.0000 -3.9969 0.0000 33.9563
#
#
#
# Elastic Compliance Matrix: (Units=1/GPa)
#
#
# Indices 1 2 3 4 5 6 
#
# 1 0.019683 -0.005080 0.000050 0.000000 -0.008615 0.000000
# 2 -0.005080 0.014494 -0.006124 0.000000 0.002635 0.000000
# 3 0.000050 -0.006124 0.012864 0.000000 -0.005742 0.000000
# 4 0.000000 0.000000 0.000000 0.022435 0.000000 0.002641
# 5 -0.008615 0.002635 -0.005742 0.000000 0.061025 0.000000
# 6 0.000000 0.000000 0.000000 0.002641 0.000000 0.029760
#
#
# Mechanical properties :
#
#
# Convention : Reuss Voigt Hill
#
# Bulk Modulus (GPa) = 40.43639 49.97355 45.20497
# Shear Modulus (GPa) = 26.20338 31.02426 28.61382
#
# Velocity S-wave (km/s) = 3.56385 3.87785 3.72416
# Velocity P-wave (km/s) = 6.04438 6.65379 6.35640
#
# Compressibility (1/GPa) = 0.02473020
#
# Stress axis : x y z
#
# Youngs Moduli (GPa) = 50.80433 68.99448 77.73883
#
# Poissons Ratio (x) = 0.35052 -0.00385
# Poissons Ratio (y) = 0.25811 0.47610
# Poissons Ratio (z) = -0.00252 0.42255
#
# Static dielectric constant tensor:
#      x y z
#    x 3.693730 0.000000 0.121980 
#    y 0.000000 4.600890 0.000000 
#    z 0.121980 0.000000 3.828080 
# 
# 
# High freq. dielectric constant tensor:
#      x y z
#    x 1.791770 0.000000 0.006650 
#    y 0.000000 1.816550 0.000000 
#    z 0.006650 0.000000 1.815710 
# 
# From -- ./inp_files/204452.got.cif
#   From: 2010.06.25/outbox.cif.g09.slc.cpg/sg15_103_cif.got.tgz:204452.got - 2010.06.28 07:06:18.
