data_PCOD8135733
_publ_section_title
;
Structure prediction by ZEFSAII (Michael W. Deem and Ramdas Pophale) SiO2 
 PCOD8135733
Probable space group: C 2/C
;
_chemical_formula_sum "Si O2"
_cell_formula_units_Z 44
_cell_length_a 8.462753
_cell_length_b 22.063603
_cell_length_c 12.503369
_cell_angle_alpha 90.000000
_cell_angle_beta 111.066218
_cell_angle_gamma 90.000000
_cell_volume 2178.581857
_symmetry_space_group_name_H-M "C 2/C"
_symmetry_group_IT_number 15
_symmetry_cell_setting 'monoclinic'
loop_
_space_group_symop_operation_xyz
x,y,z
-x,y,1/2-z
-x,-y,-z
x,-y,1/2+z
1/2+x,1/2+y,z
1/2-x,1/2+y,1/2-z
1/2-x,1/2-y,-z
1/2+x,1/2-y,1/2+z
loop_
_atom_site_type_symbol
_atom_site_label
_atom_site_fract_x
_atom_site_fract_y
_atom_site_fract_z
Si Si1 0.303284 0.336486 0.927206
Si Si2 0.082210 0.936483 0.990058
Si Si3 0.656138 0.983478 0.611350
Si Si4 0.184082 0.096733 0.742014
Si Si5 0.186009 0.785349 0.333555
Si Si6 0.000000 0.402422 0.750000
O O1 0.446263 0.384551 0.926376
O O2 0.311728 0.272533 0.864866
O O3 0.118203 0.363756 0.857907
O O4 0.325982 0.319965 0.055891
O O5 0.201811 0.946057 0.917748
O O6 0.191461 0.917200 0.118672
O O7 0.000000 0.000000 0.000000
O O8 0.616253 0.943716 0.704221
O O9 0.500000 0.000000 0.500000
O O10 0.717296 0.047995 0.665997
O O11 0.265156 0.163986 0.773697
O O12 0.000000 0.100641 0.750000
O O13 0.000000 0.763738 0.250000
#
# Coordination Sequence:
#
# PCOD8135733 Si02
#       6
#     8   8   8   8   8   4
#     4  11  22  38  67  98 126 177 225 266 325 398
#     4  12  22  38  66  98 131 168 221 269 335 398
#     4  12  25  41  63  96 135 170 216 277 335 396
#     4  11  20  38  65  93 125 173 216 261 327 391
#     4  10  19  39  65  95 129 174 227 262 320 401
#     4  12  26  40  62  96 136 172 216 278 342 386
#
# _framework density 20.196625999999998
#
# number of rings (size 3 to 8) (size 9 to 14) (size 15 to 20)
#    0.000    0.727    6.364    4.364    0.000    0.000 
#    0.000    0.000    0.000   26.182    0.000    0.000 
#    0.000    0.000    0.000    0.000    0.000    0.000 
#
# Total GULP energy -272710.534171 kJ/mol
# GULP energy per Si atom -12395.933371 kJ/mol
# Density = 2.015066 g / cm^3
# Si number density = 20.196626 Si / 1000 Ang^3
#
#
#
# Elastic Constant Matrix: (Units=GPa)
#
#
# Indices 1 2 3 4 5 6 
#
# 1 91.2260 59.5869 39.6256 0.0000 -5.5372 0.0000
# 2 59.5869 182.5992 62.0447 0.0000 6.0334 0.0000
# 3 39.6256 62.0447 117.2766 0.0000 12.3926 0.0000
# 4 0.0000 0.0000 0.0000 45.3844 0.0000 15.1831
# 5 -5.5372 6.0334 12.3926 0.0000 38.8055 0.0000
# 6 0.0000 0.0000 0.0000 15.1831 0.0000 21.8382
#
#
#
# Elastic Compliance Matrix: (Units=1/GPa)
#
#
# Indices 1 2 3 4 5 6 
#
# 1 0.015285 -0.003928 -0.003499 0.000000 0.003909 0.000000
# 2 -0.003928 0.007686 -0.002643 0.000000 -0.000912 0.000000
# 3 -0.003499 -0.002643 0.011505 0.000000 -0.003763 0.000000
# 4 0.000000 0.000000 0.000000 0.028712 0.000000 -0.019962
# 5 0.003909 -0.000912 -0.003763 0.000000 0.027671 0.000000
# 6 0.000000 0.000000 0.000000 -0.019962 0.000000 0.059670
#
#
# Mechanical properties :
#
#
# Convention : Reuss Voigt Hill
#
# Bulk Modulus (GPa) = 69.75669 79.29066 74.52368
# Shear Modulus (GPa) = 28.49834 36.52858 32.51346
#
# Velocity S-wave (km/s) = 3.76046 4.25743 4.01664
# Velocity P-wave (km/s) = 7.31222 7.96946 7.64790
#
# Compressibility (1/GPa) = 0.01433554
#
# Stress axis : x y z
#
# Youngs Moduli (GPa) = 65.42469 130.09955 86.91791
#
# Poissons Ratio (x) = 0.51102 0.30417
# Poissons Ratio (y) = 0.25698 0.22972
# Poissons Ratio (z) = 0.22895 0.34385
#
# Static dielectric constant tensor:
#      x y z
#    x 3.524860 0.000000 0.128630 
#    y 0.000000 20.336870 0.000000 
#    z 0.128630 0.000000 3.965000 
# 
# 
# High freq. dielectric constant tensor:
#      x y z
#    x 1.748130 0.000000 0.019770 
#    y 0.000000 1.814860 0.000000 
#    z 0.019770 0.000000 1.812370 
# 
# From -- ./inp_files/78107.got.cif
#   From: 2010.06.25/outbox.cif.g09.slc.cpg/sg15_40_cif.got.tgz:78107.got - 2010.06.28 07:06:18.
