data_PCOD8135631
_publ_section_title
;
Structure prediction by ZEFSAII (Michael W. Deem and Ramdas Pophale) SiO2 
 PCOD8135631
Probable space group: C 2/C
;
_chemical_formula_sum "Si O2"
_cell_formula_units_Z 48
_cell_length_a 31.316135
_cell_length_b 9.602997
_cell_length_c 18.750704
_cell_angle_alpha 90.000000
_cell_angle_beta 154.417061
_cell_angle_gamma 90.000000
_cell_volume 2434.963498
_symmetry_space_group_name_H-M "C 2/C"
_symmetry_group_IT_number 15
_symmetry_cell_setting 'monoclinic'
loop_
_space_group_symop_operation_xyz
x,y,z
-x,y,1/2-z
-x,-y,-z
x,-y,1/2+z
1/2+x,1/2+y,z
1/2-x,1/2+y,1/2-z
1/2-x,1/2-y,-z
1/2+x,1/2-y,1/2+z
loop_
_atom_site_type_symbol
_atom_site_label
_atom_site_fract_x
_atom_site_fract_y
_atom_site_fract_z
Si Si1 0.102793 0.009672 0.270608
Si Si2 0.000000 0.135865 0.250000
Si Si3 0.854877 0.778645 0.784571
Si Si4 0.676124 0.967775 0.360275
Si Si5 0.967880 0.716978 0.351627
Si Si6 0.146015 0.373550 0.470367
Si Si7 0.000000 0.607061 0.250000
O O1 0.214461 0.977191 0.461760
O O2 0.073957 0.866169 0.189501
O O3 0.032751 0.041128 0.232722
O O4 0.088692 0.129899 0.190072
O O5 0.090374 0.234085 0.411452
O O6 0.812194 0.640090 0.685437
O O7 0.759461 0.866470 0.669214
O O8 0.923212 0.719648 0.950305
O O9 0.601387 0.091504 0.224119
O O10 0.638171 0.884344 0.372527
O O11 0.969939 0.706320 0.269239
O O12 0.090523 0.511090 0.416000
#
# Coordination Sequence:
#
# PCOD8135631 Si02
#       7
#     8   4   8   8   8   8   4
#     4  11  21  36  61  85 116 155 195 235 283 345
#     4  11  17  34  62  82 110 152 198 234 272 342
#     4  11  20  39  60  91 110 152 199 241 275 340
#     4  10  19  39  61  83 111 155 197 227 283 352
#     4  11  23  37  58  87 123 147 188 242 297 334
#     4   9  18  36  63  80 109 152 199 230 276 344
#     4   9  21  40  56  80 118 164 184 232 296 346
#
# _framework density 19.712821999999999
#
# number of rings (size 3 to 8) (size 9 to 14) (size 15 to 20)
#    0.000    1.667    3.333    3.000    0.000    0.000 
#    3.000    0.000    0.000    0.000    0.000    0.000 
#    0.000    0.000    0.000    0.000    0.000    0.000 
#
# Total GULP energy -297500.681355 kJ/mol
# GULP energy per Si atom -12395.861723 kJ/mol
# Density = 1.966795 g / cm^3
# Si number density = 19.712822 Si / 1000 Ang^3
#
#
#
# Elastic Constant Matrix: (Units=GPa)
#
#
# Indices 1 2 3 4 5 6 
#
# 1 54.6043 10.5129 11.9212 0.0000 19.6924 0.0000
# 2 10.5129 69.7060 21.2576 0.0000 3.1766 0.0000
# 3 11.9212 21.2576 98.2561 0.0000 9.6873 0.0000
# 4 0.0000 0.0000 0.0000 34.1610 0.0000 4.4876
# 5 19.6924 3.1766 9.6873 0.0000 24.9904 0.0000
# 6 0.0000 0.0000 0.0000 4.4876 0.0000 8.8601
#
#
#
# Elastic Compliance Matrix: (Units=1/GPa)
#
#
# Indices 1 2 3 4 5 6 
#
# 1 0.026235 -0.002864 -0.000583 0.000000 -0.020083 0.000000
# 2 -0.002864 0.015683 -0.003194 0.000000 0.001501 0.000000
# 3 -0.000583 -0.003194 0.011285 0.000000 -0.003509 0.000000
# 4 0.000000 0.000000 0.000000 0.031360 0.000000 -0.015884
# 5 -0.020083 0.001501 -0.003509 0.000000 0.057010 0.000000
# 6 0.000000 0.000000 0.000000 -0.015884 0.000000 0.120911
#
#
# Mechanical properties :
#
#
# Convention : Reuss Voigt Hill
#
# Bulk Modulus (GPa) = 25.04878 34.43887 29.74383
# Shear Modulus (GPa) = 17.29669 25.52729 21.41199
#
# Velocity S-wave (km/s) = 2.96536 3.60246 3.29932
# Velocity P-wave (km/s) = 4.94560 5.90015 5.44384
#
# Compressibility (1/GPa) = 0.03992210
#
# Stress axis : x y z
#
# Youngs Moduli (GPa) = 38.11718 63.76179 88.61195
#
# Poissons Ratio (x) = 0.18259 0.05170
# Poissons Ratio (y) = 0.10915 0.28299
# Poissons Ratio (z) = 0.02224 0.20363
#
# Static dielectric constant tensor:
#      x y z
#    x 3.492370 0.000000 0.244280 
#    y 0.000000 3.623050 0.000000 
#    z 0.244280 0.000000 3.534300 
# 
# 
# High freq. dielectric constant tensor:
#      x y z
#    x 1.750720 0.000000 0.022980 
#    y 0.000000 1.776950 0.000000 
#    z 0.022980 0.000000 1.757470 
# 
# From -- ./inp_files/203031.got.cif
#   From: 2010.06.25/outbox.cif.g09.slc.cpg/sg15_102_cif.got.tgz:203031.got - 2010.06.28 07:06:18.
