data_PCOD8135993
_publ_section_title
;
Structure prediction by ZEFSAII (Michael W. Deem and Ramdas Pophale) SiO2 
 PCOD8135993
Probable space group: C 2/C
;
_chemical_formula_sum "Si O2"
_cell_formula_units_Z 36
_cell_length_a 15.539147
_cell_length_b 11.401953
_cell_length_c 9.069090
_cell_angle_alpha 90.000000
_cell_angle_beta 98.841334
_cell_angle_gamma 90.000000
_cell_volume 1587.737995
_symmetry_space_group_name_H-M "C 2/C"
_symmetry_group_IT_number 15
_symmetry_cell_setting 'monoclinic'
loop_
_space_group_symop_operation_xyz
x,y,z
-x,y,1/2-z
-x,-y,-z
x,-y,1/2+z
1/2+x,1/2+y,z
1/2-x,1/2+y,1/2-z
1/2-x,1/2-y,-z
1/2+x,1/2-y,1/2+z
loop_
_atom_site_type_symbol
_atom_site_label
_atom_site_fract_x
_atom_site_fract_y
_atom_site_fract_z
Si Si1 0.000000 0.799736 0.750000
Si Si2 0.828118 0.851413 0.265314
Si Si3 0.856022 0.045326 0.072383
Si Si4 0.163663 0.610195 0.094815
Si Si5 0.134600 0.621761 0.742827
O O1 0.941563 0.879620 0.629064
O O2 0.937935 0.714230 0.831002
O O3 0.842407 0.952051 0.393653
O O4 0.867368 0.727533 0.326819
O O5 0.726410 0.831460 0.208517
O O6 0.869989 0.909924 0.129454
O O7 0.769142 0.099488 0.126300
O O8 0.116004 0.504899 0.167074
O O9 0.130647 0.615679 0.919219
#
# Coordination Sequence:
#
# PCOD8135993 Si02
#       5
#     4   8   8   8   8
#     4  12  20  38  58  92 116 154 176 254 284 342
#     4  10  19  42  59  86 110 162 188 237 269 366
#     4  10  21  36  64  83 120 147 197 229 299 320
#     4  10  19  42  59  86 110 162 188 237 269 366
#     4  10  21  36  64  83 120 147 197 229 299 320
#
# _framework density 22.673767999999999
#
# number of rings (size 3 to 8) (size 9 to 14) (size 15 to 20)
#    0.000    1.778    4.444    1.333    0.000    1.778 
#    4.000    5.556    0.000    0.000    0.000    0.000 
#    0.000    0.000    0.000    0.000    0.000    0.000 
#
# Total GULP energy -223107.433314 kJ/mol
# GULP energy per Si atom -12394.857406 kJ/mol
# Density = 2.262216 g / cm^3
# Si number density = 22.673768 Si / 1000 Ang^3
#
#
#
# Elastic Constant Matrix: (Units=GPa)
#
#
# Indices 1 2 3 4 5 6 
#
# 1 80.4849 25.1816 22.4365 0.0000 21.1232 0.0000
# 2 25.1816 87.9327 16.2097 0.0000 -5.8914 0.0000
# 3 22.4365 16.2097 26.5473 0.0000 7.9060 0.0000
# 4 0.0000 0.0000 0.0000 35.4642 0.0000 3.2695
# 5 21.1232 -5.8914 7.9060 0.0000 15.9276 0.0000
# 6 0.0000 0.0000 0.0000 3.2695 0.0000 39.1870
#
#
#
# Elastic Compliance Matrix: (Units=1/GPa)
#
#
# Indices 1 2 3 4 5 6 
#
# 1 0.025888 -0.008516 -0.006473 0.000000 -0.034269 0.000000
# 2 -0.008516 0.017175 -0.010028 0.000000 0.022625 0.000000
# 3 -0.006473 -0.010028 0.056104 0.000000 -0.022973 0.000000
# 4 0.000000 0.000000 0.000000 0.028416 0.000000 -0.002371
# 5 -0.034269 0.022625 -0.022973 0.000000 0.128003 0.000000
# 6 0.000000 0.000000 0.000000 -0.002371 0.000000 0.025716
#
#
# Mechanical properties :
#
#
# Convention : Reuss Voigt Hill
#
# Bulk Modulus (GPa) = 20.35307 35.84672 28.09989
# Shear Modulus (GPa) = 14.37959 26.85823 20.61891
#
# Velocity S-wave (km/s) = 2.52106 3.44546 3.01885
# Velocity P-wave (km/s) = 4.17974 5.62782 4.95695
#
# Compressibility (1/GPa) = 0.04913264
#
# Stress axis : x y z
#
# Youngs Moduli (GPa) = 38.62842 58.22248 17.82406
#
# Poissons Ratio (x) = 0.49584 0.11538
# Poissons Ratio (y) = 0.32897 0.17873
# Poissons Ratio (z) = 0.25006 0.58383
#
# Static dielectric constant tensor:
#      x y z
#    x 3.921110 0.000000 0.210850 
#    y 0.000000 4.280860 0.000000 
#    z 0.210850 0.000000 3.908960 
# 
# 
# High freq. dielectric constant tensor:
#      x y z
#    x 1.866380 0.000000 0.021960 
#    y 0.000000 1.901280 0.000000 
#    z 0.021960 0.000000 1.877140 
# 
# From -- ./inp_files/45892.got.cif
#   From: 2010.06.25/outbox.cif.g09.slc.cpg/sg15_23_cif.got.tgz:45892.got - 2010.06.28 07:06:18.
