data_PCOD8135640
_publ_section_title
;
Structure prediction by ZEFSAII (Michael W. Deem and Ramdas Pophale) SiO2 
 PCOD8135640
Probable space group: C 2/C
;
_chemical_formula_sum "Si O2"
_cell_formula_units_Z 44
_cell_length_a 6.303128
_cell_length_b 13.451325
_cell_length_c 26.080520
_cell_angle_alpha 90.000000
_cell_angle_beta 78.505812
_cell_angle_gamma 90.000000
_cell_volume 2166.901180
_symmetry_space_group_name_H-M "C 2/C"
_symmetry_group_IT_number 15
_symmetry_cell_setting 'monoclinic'
loop_
_space_group_symop_operation_xyz
x,y,z
-x,y,1/2-z
-x,-y,-z
x,-y,1/2+z
1/2+x,1/2+y,z
1/2-x,1/2+y,1/2-z
1/2-x,1/2-y,-z
1/2+x,1/2-y,1/2+z
loop_
_atom_site_type_symbol
_atom_site_label
_atom_site_fract_x
_atom_site_fract_y
_atom_site_fract_z
Si Si1 0.660473 0.293649 0.844404
Si Si2 0.579971 0.909309 0.798086
Si Si3 0.278359 0.337097 0.430163
Si Si4 0.078492 0.695300 0.472803
Si Si5 0.303495 0.452474 0.885992
Si Si6 0.000000 0.210536 0.250000
O O1 0.644091 0.221617 0.893365
O O2 0.519526 0.393528 0.859868
O O3 0.561605 0.231776 0.799853
O O4 0.906823 0.325894 0.823066
O O5 0.500000 0.968766 0.750000
O O6 0.642394 0.973680 0.845229
O O7 0.795338 0.856843 0.770043
O O8 0.487926 0.275849 0.437204
O O9 0.370083 0.440887 0.404897
O O10 0.115859 0.353136 0.485261
O O11 0.250000 0.750000 0.500000
O O12 0.181950 0.606129 0.436458
#
# Coordination Sequence:
#
# PCOD8135640 Si02
#       6
#     8   8   8   8   8   4
#     4  10  19  39  61  89 122 156 200 250 297 362
#     4   9  18  37  65  87 121 160 193 249 305 356
#     4  11  24  39  62  91 121 160 206 248 298 363
#     4  11  23  42  60  87 127 160 206 254 298 355
#     4  11  22  39  63  89 122 160 201 249 305 354
#     4   8  18  34  66  86 118 162 190 246 312 348
#
# _framework density 20.305495000000001
#
# number of rings (size 3 to 8) (size 9 to 14) (size 15 to 20)
#    0.000    1.818    3.636    0.545    0.000    2.182 
#    1.636    0.000   32.000    0.000    0.000    0.000 
#    0.000    0.000    0.000    0.000    0.000    0.000 
#
# Total GULP energy -272592.475948 kJ/mol
# GULP energy per Si atom -12390.567089 kJ/mol
# Density = 2.025928 g / cm^3
# Si number density = 20.305495 Si / 1000 Ang^3
#
#
#
# Elastic Constant Matrix: (Units=GPa)
#
#
# Indices 1 2 3 4 5 6 
#
# 1 95.1537 29.6835 41.4171 0.0000 10.8526 0.0000
# 2 29.6835 84.2855 44.7005 0.0000 17.0983 0.0000
# 3 41.4171 44.7005 124.6126 0.0000 27.5144 0.0000
# 4 0.0000 0.0000 0.0000 14.9540 0.0000 -0.3340
# 5 10.8526 17.0983 27.5144 0.0000 50.1473 0.0000
# 6 0.0000 0.0000 0.0000 -0.3340 0.0000 17.5423
#
#
#
# Elastic Compliance Matrix: (Units=1/GPa)
#
#
# Indices 1 2 3 4 5 6 
#
# 1 0.012793 -0.002775 -0.003248 0.000000 -0.000041 0.000000
# 2 -0.002775 0.015513 -0.004104 0.000000 -0.002437 0.000000
# 3 -0.003248 -0.004104 0.011506 0.000000 -0.004211 0.000000
# 4 0.000000 0.000000 0.000000 0.066900 0.000000 0.001274
# 5 -0.000041 -0.002437 -0.004211 0.000000 0.023091 0.000000
# 6 0.000000 0.000000 0.000000 0.001274 0.000000 0.057029
#
#
# Mechanical properties :
#
#
# Convention : Reuss Voigt Hill
#
# Bulk Modulus (GPa) = 51.12861 59.51710 55.32286
# Shear Modulus (GPa) = 23.40757 29.07877 26.24317
#
# Velocity S-wave (km/s) = 3.39893 3.78837 3.59892
# Velocity P-wave (km/s) = 6.37479 6.96492 6.67638
#
# Compressibility (1/GPa) = 0.01955852
#
# Stress axis : x y z
#
# Youngs Moduli (GPa) = 78.16674 64.46322 86.90843
#
# Poissons Ratio (x) = 0.17887 0.28225
# Poissons Ratio (y) = 0.21690 0.35670
# Poissons Ratio (z) = 0.25386 0.26458
#
# Static dielectric constant tensor:
#      x y z
#    x 3.833450 0.000000 0.403390 
#    y 0.000000 3.130970 0.000000 
#    z 0.403390 0.000000 4.470540 
# 
# 
# High freq. dielectric constant tensor:
#      x y z
#    x 1.809470 0.000000 0.009190 
#    y 0.000000 1.738290 0.000000 
#    z 0.009190 0.000000 1.830030 
# 
# From -- ./inp_files/260358.got.cif
#   From: 2010.06.25/outbox.cif.g09.slc.cpg/sg15_131_cif.got.tgz:260358.got - 2010.06.28 07:06:18.
