data_PCOD8135842
_publ_section_title
;
Structure prediction by ZEFSAII (Michael W. Deem and Ramdas Pophale) SiO2 
 PCOD8135842
Probable space group: C 2/C
;
_chemical_formula_sum "Si O2"
_cell_formula_units_Z 56
_cell_length_a 19.460084
_cell_length_b 17.636169
_cell_length_c 14.057697
_cell_angle_alpha 90.000000
_cell_angle_beta 33.010636
_cell_angle_gamma 90.000000
_cell_volume 2628.427626
_symmetry_space_group_name_H-M "C 2/C"
_symmetry_group_IT_number 15
_symmetry_cell_setting 'monoclinic'
loop_
_space_group_symop_operation_xyz
x,y,z
-x,y,1/2-z
-x,-y,-z
x,-y,1/2+z
1/2+x,1/2+y,z
1/2-x,1/2+y,1/2-z
1/2-x,1/2-y,-z
1/2+x,1/2-y,1/2+z
loop_
_atom_site_type_symbol
_atom_site_label
_atom_site_fract_x
_atom_site_fract_y
_atom_site_fract_z
Si Si1 0.095578 0.063712 0.357194
Si Si2 0.934661 0.315417 0.548159
Si Si3 0.392746 0.658704 0.663336
Si Si4 0.123931 0.959935 0.160894
Si Si5 0.142021 0.766618 0.547540
Si Si6 0.799741 0.623910 0.756450
Si Si7 0.793592 0.450959 0.788780
O O1 0.196383 0.074416 0.321764
O O2 0.008113 0.138916 0.454569
O O3 0.159683 0.033310 0.185251
O O4 0.000000 0.000000 0.500000
O O5 0.899206 0.249398 0.664644
O O6 0.861131 0.298035 0.533393
O O7 0.907393 0.393934 0.635102
O O8 0.084303 0.320036 0.356248
O O9 0.411528 0.617081 0.741680
O O10 0.254806 0.631117 0.787155
O O11 0.000000 0.986476 0.250000
O O12 0.238607 0.939891 0.958089
O O13 0.250000 0.750000 0.500000
O O14 0.182725 0.847942 0.457448
O O15 0.000000 0.773784 0.750000
O O16 0.838851 0.537483 0.729605
#
# Coordination Sequence:
#
# PCOD8135842 Si02
#       7
#     8   8   8   8   8   8   8
#     4  10  19  40  64  97 131 162 232 295 341 402
#     4  11  27  42  67  93 146 185 218 287 353 425
#     4  10  22  41  66  96 129 173 227 290 345 407
#     4  11  20  38  69 101 126 167 231 290 347 407
#     4  11  24  47  73 109 137 182 242 293 356 415
#     4  11  23  44  66  94 143 178 224 281 353 419
#     4  12  24  41  67 100 135 183 225 288 356 421
#
# _framework density 21.305512
#
# number of rings (size 3 to 8) (size 9 to 14) (size 15 to 20)
#    0.000    1.143    7.143    0.429    4.000    4.571 
#    0.000    0.714    0.000    0.000    0.000    0.000 
#    0.000    0.000    0.000    0.000    0.000    0.000 
#
# Total GULP energy -346925.741565 kJ/mol
# GULP energy per Si atom -12390.205056 kJ/mol
# Density = 2.125702 g / cm^3
# Si number density = 21.305512 Si / 1000 Ang^3
#
#
#
# Elastic Constant Matrix: (Units=GPa)
#
#
# Indices 1 2 3 4 5 6 
#
# 1 103.6258 22.3841 34.5205 0.0000 0.3909 0.0000
# 2 22.3841 128.0083 39.1263 0.0000 8.8433 0.0000
# 3 34.5205 39.1263 102.2102 0.0001 7.8815 0.0000
# 4 0.0000 0.0000 0.0001 34.8599 0.0000 -3.6070
# 5 0.3909 8.8433 7.8815 0.0000 33.1389 0.0000
# 6 0.0000 0.0000 0.0000 -3.6070 0.0000 23.6045
#
#
#
# Elastic Compliance Matrix: (Units=1/GPa)
#
#
# Indices 1 2 3 4 5 6 
#
# 1 0.010990 -0.000940 -0.003424 0.000000 0.000936 0.000000
# 2 -0.000940 0.009010 -0.003002 0.000000 -0.001679 0.000000
# 3 -0.003424 -0.003002 0.012249 0.000000 -0.002072 0.000000
# 4 0.000000 0.000000 0.000000 0.029147 0.000000 0.004454
# 5 0.000936 -0.001679 -0.002072 0.000000 0.031106 0.000000
# 6 0.000000 0.000000 0.000000 0.004454 0.000000 0.043045
#
#
# Mechanical properties :
#
#
# Convention : Reuss Voigt Hill
#
# Bulk Modulus (GPa) = 57.08702 58.43403 57.76052
# Shear Modulus (GPa) = 32.02681 34.17489 33.10085
#
# Velocity S-wave (km/s) = 3.88134 4.00939 3.94589
# Velocity P-wave (km/s) = 6.85121 6.99428 6.92311
#
# Compressibility (1/GPa) = 0.01751712
#
# Stress axis : x y z
#
# Youngs Moduli (GPa) = 90.98941 110.98834 81.63773
#
# Poissons Ratio (x) = 0.10431 0.27955
# Poissons Ratio (y) = 0.08551 0.24509
# Poissons Ratio (z) = 0.31157 0.33320
#
# Static dielectric constant tensor:
#      x y z
#    x 4.038150 0.000000 0.245470 
#    y 0.000000 4.219930 0.000000 
#    z 0.245470 0.000000 3.842100 
# 
# 
# High freq. dielectric constant tensor:
#      x y z
#    x 1.834880 0.000000 -0.005020 
#    y 0.000000 1.836150 0.000000 
#    z -0.005020 0.000000 1.822670 
# 
# From -- ./inp_files/169131.got.cif
#   From: 2010.06.25/outbox.cif.g09.slc.cpg/sg15_85_cif.got.tgz:169131.got - 2010.06.28 07:06:18.
