data_PCOD8135612
_publ_section_title
;
Structure prediction by ZEFSAII (Michael W. Deem and Ramdas Pophale) SiO2 
 PCOD8135612
Probable space group: C 2/C
;
_chemical_formula_sum "Si O2"
_cell_formula_units_Z 56
_cell_length_a 9.561360
_cell_length_b 20.531900
_cell_length_c 14.659405
_cell_angle_alpha 90.000000
_cell_angle_beta 93.109128
_cell_angle_gamma 90.000000
_cell_volume 2873.594078
_symmetry_space_group_name_H-M "C 2/C"
_symmetry_group_IT_number 15
_symmetry_cell_setting 'monoclinic'
loop_
_space_group_symop_operation_xyz
x,y,z
-x,y,1/2-z
-x,-y,-z
x,-y,1/2+z
1/2+x,1/2+y,z
1/2-x,1/2+y,1/2-z
1/2-x,1/2-y,-z
1/2+x,1/2-y,1/2+z
loop_
_atom_site_type_symbol
_atom_site_label
_atom_site_fract_x
_atom_site_fract_y
_atom_site_fract_z
Si Si1 0.369237 0.336767 0.417474
Si Si2 0.067277 0.312589 0.343566
Si Si3 0.335154 0.675898 0.121977
Si Si4 0.033679 0.040140 0.353177
Si Si5 0.109262 0.928775 0.471889
Si Si6 0.833032 0.683432 0.990071
Si Si7 0.533398 0.204354 0.149464
O O1 0.210236 0.351062 0.376965
O O2 0.368421 0.307201 0.518657
O O3 0.461000 0.402401 0.424868
O O4 0.448180 0.282432 0.360232
O O5 0.110276 0.238308 0.320170
O O6 0.000000 0.344010 0.250000
O O7 0.949235 0.313435 0.416192
O O8 0.401905 0.610625 0.162352
O O9 0.170878 0.666126 0.125172
O O10 0.000000 0.013029 0.250000
O O11 0.905834 0.049705 0.422019
O O12 0.142251 0.990744 0.407701
O O13 0.229721 0.875875 0.465241
O O14 0.750000 0.750000 0.000000
O O15 0.908081 0.672391 0.088455
O O16 0.500000 0.186686 0.250000
#
# Coordination Sequence:
#
# PCOD8135612 Si02
#       7
#     8   8   8   8   8   8   8
#     4  10  19  41  56  80 124 156 186 236 299 355
#     4  11  22  34  59  89 119 156 191 234 304 357
#     4  10  19  39  59  79 119 159 193 238 290 349
#     4  10  22  40  61  85 112 158 205 239 279 352
#     4  10  23  39  65  86 115 157 198 242 293 338
#     4  12  22  38  57  93 125 148 191 248 292 355
#     4  11  22  33  58  92 121 152 190 244 301 344
#
# _framework density 19.487791999999999
#
# number of rings (size 3 to 8) (size 9 to 14) (size 15 to 20)
#    0.000    1.429    4.286    2.143    6.000    1.714 
#    0.000    0.714    0.000    0.857    0.000    0.000 
#    0.000    0.000    0.000    0.000    0.000    0.000 
#
# Total GULP energy -347019.199371 kJ/mol
# GULP energy per Si atom -12393.542835 kJ/mol
# Density = 1.944344 g / cm^3
# Si number density = 19.487792 Si / 1000 Ang^3
#
#
#
# Elastic Constant Matrix: (Units=GPa)
#
#
# Indices 1 2 3 4 5 6 
#
# 1 107.4398 29.5703 36.3881 0.0000 11.2628 0.0000
# 2 29.5703 64.4351 20.9070 0.0000 -4.0385 0.0000
# 3 36.3881 20.9070 105.3153 0.0000 19.6936 0.0000
# 4 0.0000 0.0000 0.0000 24.6348 0.0000 3.3079
# 5 11.2628 -4.0385 19.6936 0.0000 21.0955 0.0000
# 6 0.0000 0.0000 0.0000 3.3079 0.0000 25.8920
#
#
#
# Elastic Compliance Matrix: (Units=1/GPa)
#
#
# Indices 1 2 3 4 5 6 
#
# 1 0.012014 -0.005170 -0.002108 0.000000 -0.005436 0.000000
# 2 -0.005170 0.019875 -0.004103 0.000000 0.010396 0.000000
# 3 -0.002108 -0.004103 0.013296 0.000000 -0.012072 0.000000
# 4 0.000000 0.000000 0.000000 0.041302 0.000000 -0.005277
# 5 -0.005436 0.010396 -0.012072 0.000000 0.063566 0.000000
# 6 0.000000 0.000000 0.000000 -0.005277 0.000000 0.039296
#
#
# Mechanical properties :
#
#
# Convention : Reuss Voigt Hill
#
# Bulk Modulus (GPa) = 44.59917 50.10234 47.35075
# Shear Modulus (GPa) = 22.77015 27.01279 24.89147
#
# Velocity S-wave (km/s) = 3.42194 3.72713 3.57779
# Velocity P-wave (km/s) = 6.20873 6.65488 6.43567
#
# Compressibility (1/GPa) = 0.02242194
#
# Stress axis : x y z
#
# Youngs Moduli (GPa) = 83.23324 50.31422 75.21227
#
# Poissons Ratio (x) = 0.26014 0.15857
# Poissons Ratio (y) = 0.43034 0.30861
# Poissons Ratio (z) = 0.17548 0.20645
#
# Static dielectric constant tensor:
#      x y z
#    x 8.175340 0.000000 -0.087300 
#    y 0.000000 3.401530 0.000000 
#    z -0.087300 0.000000 3.577470 
# 
# 
# High freq. dielectric constant tensor:
#      x y z
#    x 1.754260 0.000000 0.001870 
#    y 0.000000 1.737060 0.000000 
#    z 0.001870 0.000000 1.766370 
# 
# From -- ./inp_files/136427.got.cif
#   From: 2010.06.25/outbox.cif.g09.slc.cpg/sg15_69_cif.got.tgz:136427.got - 2010.06.28 07:06:18.
