data_PCOD8135763
_publ_section_title
;
Structure prediction by ZEFSAII (Michael W. Deem and Ramdas Pophale) SiO2 
 PCOD8135763
Probable space group: C 2/C
;
_chemical_formula_sum "Si O2"
_cell_formula_units_Z 64
_cell_length_a 12.513129
_cell_length_b 25.324096
_cell_length_c 15.364704
_cell_angle_alpha 90.000000
_cell_angle_beta 38.463636
_cell_angle_gamma 90.000000
_cell_volume 3028.495219
_symmetry_space_group_name_H-M "C 2/C"
_symmetry_group_IT_number 15
_symmetry_cell_setting 'monoclinic'
loop_
_space_group_symop_operation_xyz
x,y,z
-x,y,1/2-z
-x,-y,-z
x,-y,1/2+z
1/2+x,1/2+y,z
1/2-x,1/2+y,1/2-z
1/2-x,1/2-y,-z
1/2+x,1/2-y,1/2+z
loop_
_atom_site_type_symbol
_atom_site_label
_atom_site_fract_x
_atom_site_fract_y
_atom_site_fract_z
Si Si1 0.343778 0.896596 0.910280
Si Si2 0.359372 0.455616 0.597169
Si Si3 0.446736 0.733378 0.376105
Si Si4 0.013913 0.514128 0.393690
Si Si5 0.353889 0.169772 0.680413
Si Si6 0.303664 0.298708 0.403327
Si Si7 0.096074 0.405562 0.102799
Si Si8 0.399697 0.635748 0.510894
O O1 0.500000 0.875021 0.750000
O O2 0.225846 0.940142 0.939498
O O3 0.427343 0.928925 0.935895
O O4 0.222979 0.849882 0.020042
O O5 0.500000 0.500000 0.500000
O O6 0.215838 0.482056 0.748295
O O7 0.438255 0.402414 0.585377
O O8 0.500000 0.708044 0.250000
O O9 0.250000 0.750000 0.500000
O O10 0.574621 0.781867 0.309440
O O11 0.476844 0.691828 0.433919
O O12 0.000000 0.500000 0.500000
O O13 0.921242 0.468590 0.395992
O O14 0.306719 0.191815 0.614415
O O15 0.507392 0.125680 0.577918
O O16 0.195297 0.143109 0.834833
O O17 0.500000 0.291607 0.250000
O O18 0.250000 0.250000 0.500000
O O19 0.290144 0.387745 0.999246
O O20 0.000000 0.385837 0.250000
#
# Coordination Sequence:
#
# PCOD8135763 Si02
#       8
#     8   8   8   8   8   8   8   8
#     4  10  23  46  65  92 136 176 227 280 333 403
#     4  11  23  42  69  98 131 179 223 277 335 405
#     4  12  23  43  65 101 137 175 221 282 344 411
#     4  11  23  40  66  98 134 175 222 279 343 395
#     4  11  23  41  70  95 137 177 226 281 347 405
#     4  12  28  46  67  98 128 179 232 280 337 408
#     4  10  19  39  67  96 132 174 218 269 339 409
#     4  11  23  41  67 103 136 178 230 279 350 416
#
# _framework density 21.132608000000001
#
# number of rings (size 3 to 8) (size 9 to 14) (size 15 to 20)
#    0.000    1.000    2.500    5.625    3.500    2.000 
#    4.500    1.250    0.000    0.000    0.000    0.000 
#    0.000    0.000    0.000    0.000    0.000    0.000 
#
# Total GULP energy -396656.203694 kJ/mol
# GULP energy per Si atom -12395.506365 kJ/mol
# Density = 2.108451 g / cm^3
# Si number density = 21.132608 Si / 1000 Ang^3
#
#
#
# Elastic Constant Matrix: (Units=GPa)
#
#
# Indices 1 2 3 4 5 6 
#
# 1 96.7698 26.4888 47.9642 0.0001 6.1560 -0.0001
# 2 26.4888 120.4728 53.8855 0.0000 -1.5217 -0.0001
# 3 47.9642 53.8855 113.4733 0.0001 3.8707 -0.0001
# 4 0.0001 0.0000 0.0001 37.7917 -0.0001 -1.0758
# 5 6.1560 -1.5217 3.8707 -0.0001 32.8486 0.0001
# 6 -0.0001 -0.0001 -0.0001 -1.0758 0.0001 41.1555
#
#
#
# Elastic Compliance Matrix: (Units=1/GPa)
#
#
# Indices 1 2 3 4 5 6 
#
# 1 0.013212 -0.000584 -0.005243 0.000000 -0.001885 0.000000
# 2 -0.000584 0.010603 -0.004828 0.000000 0.001170 0.000000
# 3 -0.005243 -0.004828 0.013350 0.000000 -0.000814 0.000000
# 4 0.000000 0.000000 0.000000 0.026481 0.000000 0.000692
# 5 -0.001885 0.001170 -0.000814 0.000000 0.030946 0.000000
# 6 0.000000 0.000000 0.000000 0.000692 0.000000 0.024316
#
#
# Mechanical properties :
#
#
# Convention : Reuss Voigt Hill
#
# Bulk Modulus (GPa) = 63.07321 65.26588 64.16954
# Shear Modulus (GPa) = 34.36335 35.85100 35.10718
#
# Velocity S-wave (km/s) = 4.03685 4.12330 4.08030
# Velocity P-wave (km/s) = 7.18605 7.32256 7.25463
#
# Compressibility (1/GPa) = 0.01585459
#
# Stress axis : x y z
#
# Youngs Moduli (GPa) = 75.68682 94.30919 74.90838
#
# Poissons Ratio (x) = 0.05504 0.39277
# Poissons Ratio (y) = 0.04417 0.36169
# Poissons Ratio (z) = 0.39685 0.45537
#
# Static dielectric constant tensor:
#      x y z
#    x 3.958360 0.000000 -0.040750 
#    y 0.000000 4.926300 0.000000 
#    z -0.040750 0.000000 3.627060 
# 
# 
# High freq. dielectric constant tensor:
#      x y z
#    x 1.833890 0.000000 -0.005490 
#    y 0.000000 1.842600 0.000000 
#    z -0.005490 0.000000 1.817200 
# 
# From -- ./inp_files/148737.got.cif
#   From: 2010.06.25/outbox.cif.g09.slc.cpg/sg15_75_cif.got.tgz:148737.got - 2010.06.28 07:06:18.
