data_PCOD8135225
_publ_section_title
;
Structure prediction by ZEFSAII (Michael W. Deem and Ramdas Pophale) SiO2 
 PCOD8135225
Probable space group: C 2/C
;
_chemical_formula_sum "Si O2"
_cell_formula_units_Z 40
_cell_length_a 7.508777
_cell_length_b 14.338479
_cell_length_c 18.437673
_cell_angle_alpha 90.000000
_cell_angle_beta 50.222654
_cell_angle_gamma 90.000000
_cell_volume 1525.607899
_symmetry_space_group_name_H-M "C 2/C"
_symmetry_group_IT_number 15
_symmetry_cell_setting 'monoclinic'
loop_
_space_group_symop_operation_xyz
x,y,z
-x,y,1/2-z
-x,-y,-z
x,-y,1/2+z
1/2+x,1/2+y,z
1/2-x,1/2+y,1/2-z
1/2-x,1/2-y,-z
1/2+x,1/2-y,1/2+z
loop_
_atom_site_type_symbol
_atom_site_label
_atom_site_fract_x
_atom_site_fract_y
_atom_site_fract_z
Si Si1 0.084504 0.833361 0.652471
Si Si2 0.354201 0.119727 0.851520
Si Si3 0.722009 0.202123 0.141117
Si Si4 0.860993 0.927560 0.487180
Si Si5 0.028657 0.392547 0.458771
O O1 0.046459 0.722537 0.665834
O O2 0.343393 0.857121 0.564732
O O3 0.000000 0.879816 0.750000
O O4 0.914280 0.862149 0.631729
O O5 0.500000 0.067754 0.750000
O O6 0.410409 0.066908 0.914779
O O7 0.085038 0.128670 0.898166
O O8 0.500000 0.207251 0.250000
O O9 0.802958 0.306406 0.102384
O O10 0.689842 0.142198 0.075849
O O11 0.701121 0.965305 0.459258
O O12 0.000000 0.000000 0.500000
#
# Coordination Sequence:
#
# PCOD8135225 Si02
#       5
#     8   8   8   8   8
#     4  10  19  37  66 101 128 167 223 294 343 389
#     4  10  22  40  64  95 131 165 228 285 336 402
#     4  11  22  39  68 100 129 171 237 289 337 401
#     4  12  26  41  62  94 139 184 220 273 348 423
#     4  11  22  41  69  98 129 175 227 289 343 389
#
# _framework density 26.219059000000001
#
# number of rings (size 3 to 8) (size 9 to 14) (size 15 to 20)
#    0.000    1.200    4.000    3.000    8.400    1.600 
#    0.000    0.000    0.000    0.000    0.000    0.000 
#    0.000    0.000    0.000    0.000    0.000    0.000 
#
# Total GULP energy -247811.485912 kJ/mol
# GULP energy per Si atom -12390.574296 kJ/mol
# Density = 2.615938 g / cm^3
# Si number density = 26.219059 Si / 1000 Ang^3
#
#
#
# Elastic Constant Matrix: (Units=GPa)
#
#
# Indices 1 2 3 4 5 6 
#
# 1 226.1007 8.1327 62.7559 -0.0008 0.0974 0.0001
# 2 8.1327 11.6689 8.6745 -0.0009 4.9238 0.0000
# 3 62.7559 8.6745 214.1644 -0.0039 -7.5819 0.0009
# 4 -0.0008 -0.0009 -0.0039 4.7177 0.0023 10.3105
# 5 0.0974 4.9238 -7.5819 0.0023 44.4902 -0.0005
# 6 0.0001 0.0000 0.0009 10.3105 -0.0005 26.7191
#
#
#
# Elastic Compliance Matrix: (Units=1/GPa)
#
#
# Indices 1 2 3 4 5 6 
#
# 1 0.004879 -0.002425 -0.001330 -0.000005 0.000031 0.000002
# 2 -0.002425 0.094673 -0.003516 0.000130 -0.011072 -0.000050
# 3 -0.001330 -0.003516 0.005247 0.000020 0.001286 -0.000008
# 4 -0.000005 0.000130 0.000020 1.353229 -0.000086 -0.522193
# 5 0.000031 -0.011072 0.001286 -0.000086 0.023921 0.000033
# 6 0.000002 -0.000050 -0.000008 -0.522193 0.000033 0.238933
#
#
# Mechanical properties :
#
#
# Convention : Reuss Voigt Hill
#
# Bulk Modulus (GPa) = 11.07945 67.89558 39.48751
# Shear Modulus (GPa) = 2.83204 40.01013 21.42108
#
# Velocity S-wave (km/s) = 1.04043 3.91064 2.86143
# Velocity P-wave (km/s) = 2.38290 6.80753 5.10003
#
# Compressibility (1/GPa) = 0.09025720
#
# Stress axis : x y z
#
# Youngs Moduli (GPa) = 204.94804 10.56265 190.58060
#
# Poissons Ratio (x) = 0.02561 0.25356
# Poissons Ratio (y) = 0.49692 0.67011
# Poissons Ratio (z) = 0.27267 0.03714
#
# Static dielectric constant tensor:
#      x y z
#    x 17.501420 0.000990 -10.118690 
#    y 0.000990 4.571660 -0.000870 
#    z -10.118690 -0.000870 14.370370 
# 
# 
# High freq. dielectric constant tensor:
#      x y z
#    x 2.077040 0.000000 0.001750 
#    y 0.000000 2.036660 0.000000 
#    z 0.001750 0.000000 2.060660 
# 
# From -- ./inp_files/232432.got.cif
#   From: 2010.06.25/outbox.cif.g09.slc.cpg/sg15_117_cif.got.tgz:232432.got - 2010.06.28 07:06:18.
