data_PCOD8135245
_publ_section_title
;
Structure prediction by ZEFSAII (Michael W. Deem and Ramdas Pophale) SiO2 
 PCOD8135245
Probable space group: C 2/C
;
_chemical_formula_sum "Si O2"
_cell_formula_units_Z 56
_cell_length_a 17.366556
_cell_length_b 24.293115
_cell_length_c 9.436343
_cell_angle_alpha 90.000000
_cell_angle_beta 41.887455
_cell_angle_gamma 90.000000
_cell_volume 2658.044269
_symmetry_space_group_name_H-M "C 2/C"
_symmetry_group_IT_number 15
_symmetry_cell_setting 'monoclinic'
loop_
_space_group_symop_operation_xyz
x,y,z
-x,y,1/2-z
-x,-y,-z
x,-y,1/2+z
1/2+x,1/2+y,z
1/2-x,1/2+y,1/2-z
1/2-x,1/2-y,-z
1/2+x,1/2-y,1/2+z
loop_
_atom_site_type_symbol
_atom_site_label
_atom_site_fract_x
_atom_site_fract_y
_atom_site_fract_z
Si Si1 0.000000 0.969779 0.250000
Si Si2 0.740567 0.343675 0.656236
Si Si3 0.244602 0.020603 0.875009
Si Si4 0.776149 0.257111 0.129078
Si Si5 0.631724 0.047358 0.522676
Si Si6 0.694067 0.641233 0.903519
Si Si7 0.500000 0.287266 0.250000
Si Si8 0.988607 0.124220 0.558253
O O1 0.043560 0.933497 0.323803
O O2 0.890967 0.005889 0.449476
O O3 0.780597 0.289596 0.689681
O O4 0.845101 0.387111 0.520923
O O5 0.704763 0.330298 0.542611
O O6 0.626922 0.371432 0.878220
O O7 0.281652 0.018020 0.987364
O O8 0.262448 0.083719 0.800822
O O9 0.334678 0.981363 0.670913
O O10 0.748630 0.318051 0.215272
O O11 0.750000 0.250000 0.000000
O O12 0.913414 0.250771 0.956718
O O13 0.500000 0.037855 0.750000
O O14 0.562183 0.629053 0.031415
O O15 0.566068 0.326095 0.273546
#
# Coordination Sequence:
#
# PCOD8135245 Si02
#       8
#     4   8   8   8   8   8   4   8
#     4  11  22  38  70 102 138 164 221 274 336 396
#     4  10  23  41  64  94 128 165 217 271 326 387
#     4  11  25  40  66 100 131 175 216 275 330 393
#     4  11  22  43  64  91 124 170 218 267 327 396
#     4  11  24  46  65  92 133 179 225 264 323 395
#     4  11  23  38  61  97 130 165 209 268 336 391
#     4   9  20  38  62  90 118 162 215 268 312 382
#     4  10  19  37  66  96 127 164 204 268 333 390
#
# _framework density 21.06812
#
# number of rings (size 3 to 8) (size 9 to 14) (size 15 to 20)
#    0.000    1.429    2.857    2.143    4.000    2.286 
#    6.429    1.429    0.000    0.000    0.000    0.000 
#    0.000    0.000    0.000    0.000    0.000    0.000 
#
# Total GULP energy -347031.294313 kJ/mol
# GULP energy per Si atom -12393.974797 kJ/mol
# Density = 2.102017 g / cm^3
# Si number density = 21.068120 Si / 1000 Ang^3
#
#
#
# Elastic Constant Matrix: (Units=GPa)
#
#
# Indices 1 2 3 4 5 6 
#
# 1 85.8927 40.1363 20.5136 0.0000 20.6939 0.0000
# 2 40.1363 106.5946 46.6676 0.0000 7.0441 0.0000
# 3 20.5136 46.6676 100.5895 0.0000 -1.7991 0.0000
# 4 0.0000 0.0000 0.0000 35.4784 0.0000 8.1546
# 5 20.6939 7.0441 -1.7991 0.0000 43.3673 0.0000
# 6 0.0000 0.0000 0.0000 8.1546 0.0000 15.5168
#
#
#
# Elastic Compliance Matrix: (Units=1/GPa)
#
#
# Indices 1 2 3 4 5 6 
#
# 1 0.015903 -0.005102 -0.000998 0.000000 -0.006801 0.000000
# 2 -0.005102 0.013611 -0.005274 0.000000 0.000005 0.000000
# 3 -0.000998 -0.005274 0.012625 0.000000 0.001857 0.000000
# 4 0.000000 0.000000 0.000000 0.032059 0.000000 -0.016848
# 5 -0.006801 0.000005 0.001857 0.000000 0.026381 0.000000
# 6 0.000000 0.000000 0.000000 -0.016848 0.000000 0.073301
#
#
# Mechanical properties :
#
#
# Convention : Reuss Voigt Hill
#
# Bulk Modulus (GPa) = 51.56872 56.41243 53.99057
# Shear Modulus (GPa) = 24.61950 31.25644 27.93797
#
# Velocity S-wave (km/s) = 3.42214 3.85592 3.64549
# Velocity P-wave (km/s) = 6.33601 6.83070 6.58800
#
# Compressibility (1/GPa) = 0.01939160
#
# Stress axis : x y z
#
# Youngs Moduli (GPa) = 62.87962 73.46963 79.20763
#
# Poissons Ratio (x) = 0.37482 0.07905
# Poissons Ratio (y) = 0.32080 0.41776
# Poissons Ratio (z) = 0.06275 0.38749
#
# Static dielectric constant tensor:
#      x y z
#    x 3.851080 0.000000 0.172560 
#    y 0.000000 3.857720 0.000000 
#    z 0.172560 0.000000 3.794420 
# 
# 
# High freq. dielectric constant tensor:
#      x y z
#    x 1.823000 0.000000 0.018190 
#    y 0.000000 1.825180 0.000000 
#    z 0.018190 0.000000 1.819490 
# 
# From -- ./inp_files/52335.got.cif
#   From: 2010.06.25/outbox.cif.g09.slc.cpg/sg15_27_cif.got.tgz:52335.got - 2010.06.28 07:06:18.
