data_PCOD8135621
_publ_section_title
;
Structure prediction by ZEFSAII (Michael W. Deem and Ramdas Pophale) SiO2 
 PCOD8135621
Probable space group: C 2/C
;
_chemical_formula_sum "Si O2"
_cell_formula_units_Z 52
_cell_length_a 11.626445
_cell_length_b 8.102943
_cell_length_c 26.132747
_cell_angle_alpha 90.000000
_cell_angle_beta 99.686627
_cell_angle_gamma 90.000000
_cell_volume 2426.824601
_symmetry_space_group_name_H-M "C 2/C"
_symmetry_group_IT_number 15
_symmetry_cell_setting 'monoclinic'
loop_
_space_group_symop_operation_xyz
x,y,z
-x,y,1/2-z
-x,-y,-z
x,-y,1/2+z
1/2+x,1/2+y,z
1/2-x,1/2+y,1/2-z
1/2-x,1/2-y,-z
1/2+x,1/2-y,1/2+z
loop_
_atom_site_type_symbol
_atom_site_label
_atom_site_fract_x
_atom_site_fract_y
_atom_site_fract_z
Si Si1 0.000000 0.930537 0.250000
Si Si2 0.340511 0.233414 0.932247
Si Si3 0.902251 0.817590 0.556455
Si Si4 0.391274 0.312887 0.669146
Si Si5 0.720006 0.593321 0.717076
Si Si6 0.712846 0.994025 0.984160
Si Si7 0.848975 0.724532 0.818370
O O1 0.910355 0.828967 0.279642
O O2 0.908254 0.039448 0.210380
O O3 0.459847 0.338711 0.940956
O O4 0.351743 0.076275 0.970355
O O5 0.309855 0.173507 0.872594
O O6 0.236847 0.350207 0.945006
O O7 0.864923 0.879888 0.610207
O O8 0.871284 0.624591 0.548887
O O9 0.835956 0.924677 0.509324
O O10 0.282728 0.198630 0.677809
O O11 0.511641 0.209953 0.676363
O O12 0.797660 0.594487 0.774312
O O13 0.700048 0.407326 0.696755
#
# Coordination Sequence:
#
# PCOD8135621 Si02
#       7
#     4   8   8   8   8   8   8
#     4  10  22  36  56  84 114 154 182 236 282 330
#     4  10  21  38  57  85 115 148 187 237 283 332
#     4  10  21  36  62  84 112 150 190 229 283 339
#     4  10  19  39  60  82 116 153 183 233 286 334
#     4  11  19  39  57  81 119 144 193 233 275 346
#     4  10  21  37  59  85 114 148 188 236 282 330
#     4  10  22  36  62  83 114 158 189 232 291 329
#
# _framework density 21.427175999999999
#
# number of rings (size 3 to 8) (size 9 to 14) (size 15 to 20)
#    0.000    1.846    3.077    1.846    2.154    0.000 
#    2.769    0.000    3.385    0.000    0.000    0.000 
#    0.000    0.000    0.000    0.000    0.000    0.000 
#
# Total GULP energy -322332.075451 kJ/mol
# GULP energy per Si atom -12397.387517 kJ/mol
# Density = 2.137841 g / cm^3
# Si number density = 21.427176 Si / 1000 Ang^3
#
#
#
# Elastic Constant Matrix: (Units=GPa)
#
#
# Indices 1 2 3 4 5 6 
#
# 1 95.4113 10.5698 12.8473 0.0000 -22.3419 0.0000
# 2 10.5698 25.8036 -6.0661 0.0000 -6.8428 0.0000
# 3 12.8473 -6.0661 79.9258 0.0000 -15.4038 0.0000
# 4 0.0000 0.0000 0.0000 16.4332 0.0000 -8.3764
# 5 -22.3419 -6.8428 -15.4038 0.0000 32.7748 0.0000
# 6 0.0000 0.0000 0.0000 -8.3764 0.0000 24.2037
#
#
#
# Elastic Compliance Matrix: (Units=1/GPa)
#
#
# Indices 1 2 3 4 5 6 
#
# 1 0.012748 -0.003411 -0.000847 0.000000 0.007580 0.000000
# 2 -0.003411 0.044035 0.005734 0.000000 0.009563 0.000000
# 3 -0.000847 0.005734 0.014517 0.000000 0.007443 0.000000
# 4 0.000000 0.000000 0.000000 0.073886 0.000000 0.025570
# 5 0.007580 0.009563 0.007443 0.000000 0.041173 0.000000
# 6 0.000000 0.000000 0.000000 0.025570 0.000000 0.050165
#
#
# Mechanical properties :
#
#
# Convention : Reuss Voigt Hill
#
# Bulk Modulus (GPa) = 13.46777 26.20473 19.83625
# Shear Modulus (GPa) = 19.35551 26.93498 23.14524
#
# Velocity S-wave (km/s) = 3.00878 3.54933 3.29018
# Velocity P-wave (km/s) = 4.28595 5.39011 4.86943
#
# Compressibility (1/GPa) = 0.07425132
#
# Stress axis : x y z
#
# Youngs Moduli (GPa) = 78.44520 22.70897 68.88327
#
# Poissons Ratio (x) = 0.07746 0.05836
# Poissons Ratio (y) = 0.26757 -0.39494
# Poissons Ratio (z) = 0.06646 -0.13020
#
# Static dielectric constant tensor:
#      x y z
#    x 3.939780 0.000000 -0.134230 
#    y 0.000000 3.446860 0.000000 
#    z -0.134230 0.000000 4.051750 
# 
# 
# High freq. dielectric constant tensor:
#      x y z
#    x 1.850130 0.000000 -0.013760 
#    y 0.000000 1.805980 0.000000 
#    z -0.013760 0.000000 1.851750 
# 
# From -- ./inp_files/291153.got.cif
#   From: 2010.06.25/outbox.cif.g09.slc.cpg/sg15_146_cif.got.tgz:291153.got - 2010.06.28 07:06:18.
