data_PCOD8135832
_publ_section_title
;
Structure prediction by ZEFSAII (Michael W. Deem and Ramdas Pophale) SiO2 
 PCOD8135832
Probable space group: C 2/C
;
_chemical_formula_sum "Si O2"
_cell_formula_units_Z 56
_cell_length_a 9.357344
_cell_length_b 15.085038
_cell_length_c 22.526229
_cell_angle_alpha 90.000000
_cell_angle_beta 121.907281
_cell_angle_gamma 90.000000
_cell_volume 2699.270131
_symmetry_space_group_name_H-M "C 2/C"
_symmetry_group_IT_number 15
_symmetry_cell_setting 'monoclinic'
loop_
_space_group_symop_operation_xyz
x,y,z
-x,y,1/2-z
-x,-y,-z
x,-y,1/2+z
1/2+x,1/2+y,z
1/2-x,1/2+y,1/2-z
1/2-x,1/2-y,-z
1/2+x,1/2-y,1/2+z
loop_
_atom_site_type_symbol
_atom_site_label
_atom_site_fract_x
_atom_site_fract_y
_atom_site_fract_z
Si Si1 0.282878 0.382436 0.939006
Si Si2 0.828041 0.431816 0.131348
Si Si3 0.412432 0.745175 0.672360
Si Si4 0.187611 0.016171 0.935006
Si Si5 0.155216 0.839874 0.996035
Si Si6 0.812592 0.590681 0.847220
Si Si7 0.870111 0.918874 0.305787
O O1 0.244535 0.471371 0.895874
O O2 0.131024 0.316083 0.888461
O O3 0.452988 0.337117 0.950839
O O4 0.292135 0.405582 0.011193
O O5 0.807403 0.415575 0.197303
O O6 0.011341 0.414871 0.146502
O O7 0.703892 0.361273 0.073963
O O8 0.500000 0.790067 0.750000
O O9 0.240873 0.692367 0.652226
O O10 0.545921 0.677668 0.674075
O O11 0.317473 0.035041 0.909515
O O12 0.999790 0.014384 0.866206
O O13 0.226206 0.919527 0.969989
O O14 0.250000 0.750000 0.000000
O O15 0.671977 0.551165 0.770840
#
# Coordination Sequence:
#
# PCOD8135832 Si02
#       7
#     8   8   8   8   8   8   8
#     4  11  21  39  65  88 123 163 208 255 301 376
#     4  11  21  40  62  90 123 161 210 248 313 371
#     4   9  21  39  60  89 123 160 206 257 309 365
#     4  10  20  41  62  90 126 161 210 253 312 370
#     4  11  22  39  63  89 126 161 205 266 313 359
#     4  10  22  37  63  93 124 161 202 259 308 366
#     4  10  19  40  64  87 125 163 202 252 311 370
#
# _framework density 20.746348000000001
#
# number of rings (size 3 to 8) (size 9 to 14) (size 15 to 20)
#    0.000    1.714    2.857    3.429    0.000    5.714 
#    5.143    0.000    0.000    1.714    0.000    0.000 
#    0.000    0.000    0.000    0.000    0.000    0.000 
#
# Total GULP energy -346930.728165 kJ/mol
# GULP energy per Si atom -12390.383149 kJ/mol
# Density = 2.069913 g / cm^3
# Si number density = 20.746348 Si / 1000 Ang^3
#
#
#
# Elastic Constant Matrix: (Units=GPa)
#
#
# Indices 1 2 3 4 5 6 
#
# 1 124.4852 32.2717 24.0004 0.0000 -0.1453 0.0000
# 2 32.2717 93.6199 44.4041 0.0000 -6.7438 0.0000
# 3 24.0004 44.4041 103.2216 0.0000 -12.3815 0.0000
# 4 0.0000 0.0000 0.0000 20.4151 0.0000 5.2744
# 5 -0.1453 -6.7438 -12.3815 0.0000 27.4291 0.0000
# 6 0.0000 0.0000 0.0000 5.2744 0.0000 14.9390
#
#
#
# Elastic Compliance Matrix: (Units=1/GPa)
#
#
# Indices 1 2 3 4 5 6 
#
# 1 0.008924 -0.002649 -0.001066 0.000000 -0.001085 0.000000
# 2 -0.002649 0.014220 -0.005375 0.000000 0.001056 0.000000
# 3 -0.001066 -0.005375 0.012781 0.000000 0.004442 0.000000
# 4 0.000000 0.000000 0.000000 0.053900 0.000000 -0.019030
# 5 -0.001085 0.001056 0.004442 0.000000 0.038717 0.000000
# 6 0.000000 0.000000 0.000000 -0.019030 0.000000 0.073658
#
#
# Mechanical properties :
#
#
# Convention : Reuss Voigt Hill
#
# Bulk Modulus (GPa) = 56.34993 58.07543 57.21268
# Shear Modulus (GPa) = 22.09534 27.26669 24.68102
#
# Velocity S-wave (km/s) = 3.26701 3.62924 3.45288
# Velocity P-wave (km/s) = 6.43828 6.75394 6.59800
#
# Compressibility (1/GPa) = 0.01774625
#
# Stress axis : x y z
#
# Youngs Moduli (GPa) = 112.05784 70.32436 78.24415
#
# Poissons Ratio (x) = 0.18628 0.08337
# Poissons Ratio (y) = 0.29683 0.42053
# Poissons Ratio (z) = 0.11940 0.37796
#
# Static dielectric constant tensor:
#      x y z
#    x 4.046070 0.000000 -0.247340 
#    y 0.000000 3.951370 0.000000 
#    z -0.247340 0.000000 4.292430 
# 
# 
# High freq. dielectric constant tensor:
#      x y z
#    x 1.813530 0.000000 -0.002850 
#    y 0.000000 1.780850 0.000000 
#    z -0.002850 0.000000 1.830520 
# 
# From -- ./inp_files/264794.got.cif
#   From: 2010.06.25/outbox.cif.g09.slc.cpg/sg15_133_cif.got.tgz:264794.got - 2010.06.28 07:06:18.
