data_PCOD8135050
_publ_section_title
;
Structure prediction by ZEFSAII (Michael W. Deem and Ramdas Pophale) SiO2 
 PCOD8135050
Probable space group: C 2/C
;
_chemical_formula_sum "Si O2"
_cell_formula_units_Z 48
_cell_length_a 10.991570
_cell_length_b 10.304942
_cell_length_c 21.237373
_cell_angle_alpha 90.000000
_cell_angle_beta 129.191914
_cell_angle_gamma 90.000000
_cell_volume 1864.346582
_symmetry_space_group_name_H-M "C 2/C"
_symmetry_group_IT_number 15
_symmetry_cell_setting 'monoclinic'
loop_
_space_group_symop_operation_xyz
x,y,z
-x,y,1/2-z
-x,-y,-z
x,-y,1/2+z
1/2+x,1/2+y,z
1/2-x,1/2+y,1/2-z
1/2-x,1/2-y,-z
1/2+x,1/2-y,1/2+z
loop_
_atom_site_type_symbol
_atom_site_label
_atom_site_fract_x
_atom_site_fract_y
_atom_site_fract_z
Si Si1 0.563799 0.821090 0.062433
Si Si2 0.584371 0.249876 0.870417
Si Si3 0.740824 0.186801 0.799737
Si Si4 0.541249 0.095348 0.103378
Si Si5 0.493970 0.537106 0.673421
Si Si6 0.373434 0.196998 0.153338
O O1 0.407132 0.792733 0.053367
O O2 0.694143 0.708644 0.119721
O O3 0.620021 0.963647 0.104283
O O4 0.519693 0.820435 0.975389
O O5 0.713506 0.184193 0.867047
O O6 0.418464 0.195784 0.790840
O O7 0.592169 0.405951 0.875295
O O8 0.830937 0.321593 0.816030
O O9 0.836590 0.060819 0.805931
O O10 0.400020 0.082865 0.109564
O O11 0.500000 0.529628 0.750000
O O12 0.391588 0.664011 0.622777
O O13 0.500000 0.178516 0.250000
#
# Coordination Sequence:
#
# PCOD8135050 Si02
#       6
#     8   8   8   8   8   8
#     4  11  23  39  62  90 127 168 202 263 331 371
#     4  11  22  37  60  92 122 162 211 269 312 378
#     4  10  22  38  59  88 122 160 214 261 312 376
#     4  10  23  41  61  88 127 165 212 260 316 394
#     4  10  19  37  60  87 118 161 204 261 319 360
#     4  10  21  41  64  92 118 166 218 261 315 375
#
# _framework density 25.746286000000001
#
# number of rings (size 3 to 8) (size 9 to 14) (size 15 to 20)
#    0.000    1.667    1.667    4.500    4.667    2.000 
#    3.000    3.333    0.000    0.000    0.000    0.000 
#    0.000    0.000    0.000    0.000    0.000    0.000 
#
# Total GULP energy -297322.588589 kJ/mol
# GULP energy per Si atom -12388.441191 kJ/mol
# Density = 2.568769 g / cm^3
# Si number density = 25.746286 Si / 1000 Ang^3
#
#
#
# Elastic Constant Matrix: (Units=GPa)
#
#
# Indices 1 2 3 4 5 6 
#
# 1 144.7048 23.5168 20.9111 0.0000 -35.3674 0.0000
# 2 23.5168 38.1953 19.7220 0.0000 -17.9694 0.0000
# 3 20.9111 19.7220 38.7272 0.0000 -25.7628 0.0000
# 4 0.0000 0.0000 0.0000 36.3203 0.0000 -13.9554
# 5 -35.3674 -17.9694 -25.7628 0.0000 43.5014 0.0000
# 6 0.0000 0.0000 0.0000 -13.9554 0.0000 33.1424
#
#
#
# Elastic Compliance Matrix: (Units=1/GPa)
#
#
# Indices 1 2 3 4 5 6 
#
# 1 0.008847 -0.002895 0.001133 0.000000 0.006668 0.000000
# 2 -0.002895 0.037632 -0.014563 0.000000 0.004566 0.000000
# 3 0.001133 -0.014563 0.048244 0.000000 0.023477 0.000000
# 4 0.000000 0.000000 0.000000 0.032847 0.000000 0.013831
# 5 0.006668 0.004566 0.023477 0.000000 0.044199 0.000000
# 6 0.000000 0.000000 0.000000 0.013831 0.000000 0.035997
#
#
# Mechanical properties :
#
#
# Convention : Reuss Voigt Hill
#
# Bulk Modulus (GPa) = 16.11031 38.88077 27.49554
# Shear Modulus (GPa) = 19.14923 33.09132 26.12027
#
# Velocity S-wave (km/s) = 2.73017 3.58898 3.18862
# Velocity P-wave (km/s) = 4.02608 5.68407 4.92534
#
# Compressibility (1/GPa) = 0.06207205
#
# Stress axis : x y z
#
# Youngs Moduli (GPa) = 113.03105 26.57340 20.72792
#
# Poissons Ratio (x) = 0.07694 -0.02349
# Poissons Ratio (y) = 0.32725 0.30187
# Poissons Ratio (z) = -0.12808 0.38700
#
# Static dielectric constant tensor:
#      x y z
#    x 5.462620 0.000000 -0.294340 
#    y 0.000000 4.931280 0.000000 
#    z -0.294340 0.000000 4.207920 
# 
# 
# High freq. dielectric constant tensor:
#      x y z
#    x 2.054850 0.000000 -0.024190 
#    y 0.000000 2.007200 0.000000 
#    z -0.024190 0.000000 1.998320 
# 
# From -- ./inp_files/268552.got.cif
#   From: 2010.06.25/outbox.cif.g09.slc.cpg/sg15_135_cif.got.tgz:268552.got - 2010.06.28 07:06:18.
