data_PCOD8135212
_publ_section_title
;
Structure prediction by ZEFSAII (Michael W. Deem and Ramdas Pophale) SiO2 
 PCOD8135212
Probable space group: C 2/C
;
_chemical_formula_sum "Si O2"
_cell_formula_units_Z 52
_cell_length_a 12.247601
_cell_length_b 12.389667
_cell_length_c 26.003643
_cell_angle_alpha 90.000000
_cell_angle_beta 139.437394
_cell_angle_gamma 90.000000
_cell_volume 2565.926910
_symmetry_space_group_name_H-M "C 2/C"
_symmetry_group_IT_number 15
_symmetry_cell_setting 'monoclinic'
loop_
_space_group_symop_operation_xyz
x,y,z
-x,y,1/2-z
-x,-y,-z
x,-y,1/2+z
1/2+x,1/2+y,z
1/2-x,1/2+y,1/2-z
1/2-x,1/2-y,-z
1/2+x,1/2-y,1/2+z
loop_
_atom_site_type_symbol
_atom_site_label
_atom_site_fract_x
_atom_site_fract_y
_atom_site_fract_z
Si Si1 0.667274 0.614367 0.165382
Si Si2 0.500000 0.774644 0.750000
Si Si3 0.910365 0.869794 0.387178
Si Si4 0.824419 0.821876 0.715486
Si Si5 0.506429 0.736810 0.483633
Si Si6 0.828317 0.147901 0.600955
Si Si7 0.170806 0.437485 0.569743
O O1 0.852361 0.646425 0.214165
O O2 0.642003 0.490653 0.143161
O O3 0.639163 0.631755 0.215360
O O4 0.535343 0.688581 0.086794
O O5 0.456225 0.695471 0.688041
O O6 0.764416 0.793893 0.312270
O O7 0.929691 0.857235 0.455534
O O8 0.088192 0.836156 0.424911
O O9 0.703758 0.904773 0.641091
O O10 0.000000 0.807181 0.750000
O O11 0.349987 0.794051 0.456640
O O12 0.654896 0.826534 0.530745
O O13 0.817943 0.017416 0.604203
O O14 0.000000 0.500000 0.500000
#
# Coordination Sequence:
#
# PCOD8135212 Si02
#       7
#     8   4   8   8   8   8   8
#     4  11  23  40  63  86 127 160 204 251 311 364
#     4  10  22  38  58  94 120 154 204 258 296 370
#     4  11  22  38  62  88 123 169 202 250 317 370
#     4  11  24  41  61  94 126 161 213 261 304 365
#     4   9  21  40  59  90 127 155 207 252 308 377
#     4  10  19  37  65  90 119 157 208 257 302 357
#     4   9  20  38  64  91 123 157 206 258 308 362
#
# _framework density 20.265581000000001
#
# number of rings (size 3 to 8) (size 9 to 14) (size 15 to 20)
#    0.000    1.846    1.538    1.846    4.308    1.231 
#    0.000    8.462    0.000    0.000    0.000    0.000 
#    0.000    0.000    0.000    0.000    0.000    0.000 
#
# Total GULP energy -322313.776071 kJ/mol
# GULP energy per Si atom -12396.683695 kJ/mol
# Density = 2.021946 g / cm^3
# Si number density = 20.265581 Si / 1000 Ang^3
#
#
#
# Elastic Constant Matrix: (Units=GPa)
#
#
# Indices 1 2 3 4 5 6 
#
# 1 75.9569 41.9277 30.7987 0.0000 -5.4382 0.0000
# 2 41.9277 141.0997 69.4681 0.0000 -5.5677 0.0000
# 3 30.7987 69.4681 125.0079 0.0000 -17.4213 0.0000
# 4 0.0000 0.0000 0.0000 25.0222 0.0000 -1.5854
# 5 -5.4382 -5.5677 -17.4213 0.0000 24.1910 0.0000
# 6 0.0000 0.0000 0.0000 -1.5854 0.0000 22.1418
#
#
#
# Elastic Compliance Matrix: (Units=1/GPa)
#
#
# Indices 1 2 3 4 5 6 
#
# 1 0.016090 -0.003959 -0.001542 0.000000 0.001596 0.000000
# 2 -0.003959 0.010805 -0.005343 0.000000 -0.002251 0.000000
# 3 -0.001542 -0.005343 0.012370 0.000000 0.007332 0.000000
# 4 0.000000 0.000000 0.000000 0.040147 0.000000 0.002875
# 5 0.001596 -0.002251 0.007332 0.000000 0.046459 0.000000
# 6 0.000000 0.000000 0.000000 0.002875 0.000000 0.045369
#
#
# Mechanical properties :
#
#
# Convention : Reuss Voigt Hill
#
# Bulk Modulus (GPa) = 56.88841 69.60593 63.24717
# Shear Modulus (GPa) = 25.15256 27.59569 26.37412
#
# Velocity S-wave (km/s) = 3.52681 3.69413 3.61144
# Velocity P-wave (km/s) = 6.68707 7.25375 6.97617
#
# Compressibility (1/GPa) = 0.01757827
#
# Stress axis : x y z
#
# Youngs Moduli (GPa) = 62.14977 92.54715 80.83941
#
# Poissons Ratio (x) = 0.36641 0.12463
# Poissons Ratio (y) = 0.24606 0.43191
# Poissons Ratio (z) = 0.09581 0.49446
#
# Static dielectric constant tensor:
#      x y z
#    x 3.615780 0.000000 0.083500 
#    y 0.000000 3.909330 0.000000 
#    z 0.083500 0.000000 3.877960 
# 
# 
# High freq. dielectric constant tensor:
#      x y z
#    x 1.774630 0.000000 0.006260 
#    y 0.000000 1.803230 0.000000 
#    z 0.006260 0.000000 1.804790 
# 
# From -- ./inp_files/269304.got.cif
#   From: 2010.06.25/outbox.cif.g09.slc.cpg/sg15_135_cif.got.tgz:269304.got - 2010.06.28 07:06:18.
