data_PCOD8135217
_publ_section_title
;
Structure prediction by ZEFSAII (Michael W. Deem and Ramdas Pophale) SiO2 
 PCOD8135217
Probable space group: C 2/C
;
_chemical_formula_sum "Si O2"
_cell_formula_units_Z 52
_cell_length_a 10.777631
_cell_length_b 16.914717
_cell_length_c 18.678810
_cell_angle_alpha 90.000000
_cell_angle_beta 47.597712
_cell_angle_gamma 90.000000
_cell_volume 2514.465318
_symmetry_space_group_name_H-M "C 2/C"
_symmetry_group_IT_number 15
_symmetry_cell_setting 'monoclinic'
loop_
_space_group_symop_operation_xyz
x,y,z
-x,y,1/2-z
-x,-y,-z
x,-y,1/2+z
1/2+x,1/2+y,z
1/2-x,1/2+y,1/2-z
1/2-x,1/2-y,-z
1/2+x,1/2-y,1/2+z
loop_
_atom_site_type_symbol
_atom_site_label
_atom_site_fract_x
_atom_site_fract_y
_atom_site_fract_z
Si Si1 0.699610 0.847563 0.675974
Si Si2 0.618623 0.421911 0.264251
Si Si3 0.500000 0.281389 0.750000
Si Si4 0.107575 0.299789 0.346818
Si Si5 0.749530 0.409331 0.698764
Si Si6 0.116970 0.847369 0.042973
Si Si7 0.039704 0.680260 0.026086
O O1 0.500000 0.851988 0.750000
O O2 0.750235 0.762132 0.685304
O O3 0.766890 0.908781 0.708959
O O4 0.791855 0.870539 0.566561
O O5 0.500000 0.381737 0.250000
O O6 0.794463 0.379296 0.211475
O O7 0.667814 0.507143 0.211639
O O8 0.510738 0.416081 0.380517
O O9 0.506315 0.227444 0.676099
O O10 0.661163 0.337851 0.690284
O O11 0.988212 0.314789 0.462190
O O12 0.942685 0.393166 0.600920
O O13 0.260979 0.836975 0.046922
O O14 0.010201 0.765238 0.076756
#
# Coordination Sequence:
#
# PCOD8135217 Si02
#       7
#     8   8   4   8   8   8   8
#     4  10  19  37  65  93 120 162 211 272 307 370
#     4  12  23  40  61  91 127 169 209 268 315 383
#     4  10  22  42  60  92 128 176 200 260 316 386
#     4  10  22  38  65  92 127 163 217 256 317 369
#     4  11  23  39  61  88 135 169 208 252 330 383
#     4  10  20  36  65  97 121 150 222 275 310 362
#     4  10  20  37  65  97 117 163 214 271 312 373
#
# _framework density 20.680342
#
# number of rings (size 3 to 8) (size 9 to 14) (size 15 to 20)
#    0.000    1.538    3.846    2.308    2.154    1.846 
#    1.385    1.538    0.000    0.000    0.000    0.000 
#    0.000    0.000    0.000    0.000    0.000    0.000 
#
# Total GULP energy -322191.119694 kJ/mol
# GULP energy per Si atom -12391.966142 kJ/mol
# Density = 2.063327 g / cm^3
# Si number density = 20.680342 Si / 1000 Ang^3
#
#
#
# Elastic Constant Matrix: (Units=GPa)
#
#
# Indices 1 2 3 4 5 6 
#
# 1 96.3015 34.2816 42.0502 0.0003 20.7919 -0.0002
# 2 34.2816 77.5745 52.2057 0.0008 -0.0186 -0.0004
# 3 42.0502 52.2057 129.9319 0.0012 9.2408 -0.0006
# 4 0.0003 0.0008 0.0012 31.5289 -0.0005 -3.9974
# 5 20.7919 -0.0186 9.2408 -0.0005 29.4832 0.0002
# 6 -0.0002 -0.0004 -0.0006 -3.9974 0.0002 23.1309
#
#
#
# Elastic Compliance Matrix: (Units=1/GPa)
#
#
# Indices 1 2 3 4 5 6 
#
# 1 0.015434 -0.005416 -0.002091 0.000000 -0.010232 0.000000
# 2 -0.005416 0.019721 -0.006590 0.000000 0.005897 0.000000
# 3 -0.002091 -0.006590 0.011165 0.000000 -0.002029 0.000000
# 4 0.000000 0.000000 0.000000 0.032427 0.000001 0.005604
# 5 -0.010232 0.005897 -0.002029 0.000001 0.041773 0.000000
# 6 0.000000 0.000000 0.000000 0.005604 0.000000 0.044201
#
#
# Mechanical properties :
#
#
# Convention : Reuss Voigt Hill
#
# Bulk Modulus (GPa) = 55.17051 62.32033 58.74542
# Shear Modulus (GPa) = 25.13086 28.51329 26.82207
#
# Velocity S-wave (km/s) = 3.48976 3.71720 3.60527
# Velocity P-wave (km/s) = 6.55542 6.97308 6.76748
#
# Compressibility (1/GPa) = 0.01812562
#
# Stress axis : x y z
#
# Youngs Moduli (GPa) = 64.79045 50.70804 89.56235
#
# Poissons Ratio (x) = 0.27462 0.18730
# Poissons Ratio (y) = 0.35089 0.59025
# Poissons Ratio (z) = 0.13550 0.33418
#
# Static dielectric constant tensor:
#      x y z
#    x 3.799230 0.000000 0.243870 
#    y 0.000000 3.437360 0.000000 
#    z 0.243870 0.000000 3.738750 
# 
# 
# High freq. dielectric constant tensor:
#      x y z
#    x 1.805740 0.000000 0.011080 
#    y 0.000000 1.776260 0.000000 
#    z 0.011080 0.000000 1.814290 
# 
# From -- ./inp_files/238670.got.cif
#   From: 2010.06.25/outbox.cif.g09.slc.cpg/sg15_120_cif.got.tgz:238670.got - 2010.06.28 07:06:18.
