data_PCOD8135342
_publ_section_title
;
Structure prediction by ZEFSAII (Michael W. Deem and Ramdas Pophale) SiO2 
 PCOD8135342
Probable space group: C 2/C
;
_chemical_formula_sum "Si O2"
_cell_formula_units_Z 48
_cell_length_a 13.208114
_cell_length_b 20.997431
_cell_length_c 15.917578
_cell_angle_alpha 90.000000
_cell_angle_beta 144.920477
_cell_angle_gamma 90.000000
_cell_volume 2537.083963
_symmetry_space_group_name_H-M "C 2/C"
_symmetry_group_IT_number 15
_symmetry_cell_setting 'monoclinic'
loop_
_space_group_symop_operation_xyz
x,y,z
-x,y,1/2-z
-x,-y,-z
x,-y,1/2+z
1/2+x,1/2+y,z
1/2-x,1/2+y,1/2-z
1/2-x,1/2-y,-z
1/2+x,1/2-y,1/2+z
loop_
_atom_site_type_symbol
_atom_site_label
_atom_site_fract_x
_atom_site_fract_y
_atom_site_fract_z
Si Si1 0.834658 0.969149 0.576621
Si Si2 0.139883 0.114379 0.919133
Si Si3 0.497123 0.063189 0.550797
Si Si4 0.885839 0.681025 0.969615
Si Si5 0.603156 0.693570 0.638869
Si Si6 0.310262 0.107596 0.665411
O O1 0.685203 0.933737 0.526180
O O2 0.833776 0.929683 0.488859
O O3 0.000000 0.962200 0.750000
O O4 0.793546 0.042009 0.522813
O O5 0.000000 0.112499 0.750000
O O6 0.049766 0.141966 0.942235
O O7 0.303728 0.159523 0.003752
O O8 0.507417 0.121924 0.494954
O O9 0.654920 0.065641 0.726601
O O10 0.500000 0.000000 0.500000
O O11 0.021586 0.737828 0.069518
O O12 0.730166 0.702953 0.803619
O O13 0.712441 0.672066 0.630186
O O14 0.500000 0.122798 0.750000
#
# Coordination Sequence:
#
# PCOD8135342 Si02
#       6
#     8   8   8   8   8   8
#     4  10  20  36  58  87 113 147 190 236 283 333
#     4   9  18  34  56  81 117 147 177 230 288 333
#     4  10  19  38  60  79 113 153 187 231 286 332
#     4  10  20  37  57  82 114 151 186 228 281 338
#     4  10  21  37  56  81 113 152 184 229 284 336
#     4   9  21  39  57  83 115 150 188 235 288 329
#
# _framework density 18.919359
#
# number of rings (size 3 to 8) (size 9 to 14) (size 15 to 20)
#    0.000    2.333    1.667    0.500    2.333    2.000 
#    3.000    8.333    0.000    0.000    0.000    0.000 
#    0.000    0.000    0.000    0.000    0.000    0.000 
#
# Total GULP energy -297419.073303 kJ/mol
# GULP energy per Si atom -12392.461388 kJ/mol
# Density = 1.887630 g / cm^3
# Si number density = 18.919359 Si / 1000 Ang^3
#
#
#
# Elastic Constant Matrix: (Units=GPa)
#
#
# Indices 1 2 3 4 5 6 
#
# 1 99.4484 65.2103 26.1844 0.0000 1.0770 0.0000
# 2 65.2103 125.0763 58.2012 0.0000 12.9303 0.0000
# 3 26.1844 58.2012 71.4583 0.0001 2.3799 0.0000
# 4 0.0000 0.0000 0.0001 30.5598 0.0000 9.3649
# 5 1.0770 12.9303 2.3799 0.0000 18.4354 0.0000
# 6 0.0000 0.0000 0.0000 9.3649 0.0000 29.9625
#
#
#
# Elastic Compliance Matrix: (Units=1/GPa)
#
#
# Indices 1 2 3 4 5 6 
#
# 1 0.015895 -0.009784 0.001956 0.000000 0.005682 0.000000
# 2 -0.009784 0.020090 -0.012380 0.000000 -0.011921 0.000000
# 3 0.001956 -0.012380 0.023175 0.000000 0.005577 0.000000
# 4 0.000000 0.000000 0.000000 0.036189 0.000000 -0.011311
# 5 0.005682 -0.011921 0.005577 0.000000 0.061553 0.000000
# 6 0.000000 0.000000 0.000000 -0.011311 0.000000 0.036910
#
#
# Mechanical properties :
#
#
# Convention : Reuss Voigt Hill
#
# Bulk Modulus (GPa) = 53.35699 66.13055 59.74377
# Shear Modulus (GPa) = 20.79204 25.55067 23.17136
#
# Velocity S-wave (km/s) = 3.31869 3.67891 3.50343
# Velocity P-wave (km/s) = 6.55351 7.28530 6.92907
#
# Compressibility (1/GPa) = 0.01874169
#
# Stress axis : x y z
#
# Youngs Moduli (GPa) = 62.91352 49.77721 43.14948
#
# Poissons Ratio (x) = 0.48704 -0.08438
# Poissons Ratio (y) = 0.61557 0.53420
# Poissons Ratio (z) = -0.12303 0.61625
#
# Static dielectric constant tensor:
#      x y z
#    x 3.500650 0.000000 0.234250 
#    y 0.000000 3.442090 0.000000 
#    z 0.234250 0.000000 3.378350 
# 
# 
# High freq. dielectric constant tensor:
#      x y z
#    x 1.746330 0.000000 0.003130 
#    y 0.000000 1.730090 0.000000 
#    z 0.003130 0.000000 1.719610 
# 
# From -- ./inp_files/39629.got.cif
#   From: 2010.06.25/outbox.cif.g09.slc.cpg/sg15_20_cif.got.tgz:39629.got - 2010.06.28 07:06:18.
