data_PCOD8135010
_publ_section_title
;
Structure prediction by ZEFSAII (Michael W. Deem and Ramdas Pophale) SiO2 
 PCOD8135010
Probable space group: C 2/C
;
_chemical_formula_sum "Si O2"
_cell_formula_units_Z 64
_cell_length_a 18.495509
_cell_length_b 8.980249
_cell_length_c 28.226822
_cell_angle_alpha 90.000000
_cell_angle_beta 137.537625
_cell_angle_gamma 90.000000
_cell_volume 3165.108183
_symmetry_space_group_name_H-M "C 2/C"
_symmetry_group_IT_number 15
_symmetry_cell_setting 'monoclinic'
loop_
_space_group_symop_operation_xyz
x,y,z
-x,y,1/2-z
-x,-y,-z
x,-y,1/2+z
1/2+x,1/2+y,z
1/2-x,1/2+y,1/2-z
1/2-x,1/2-y,-z
1/2+x,1/2-y,1/2+z
loop_
_atom_site_type_symbol
_atom_site_label
_atom_site_fract_x
_atom_site_fract_y
_atom_site_fract_z
Si Si1 0.742183 0.078668 0.195685
Si Si2 0.876794 0.481891 0.452374
Si Si3 0.130729 0.180398 0.703128
Si Si4 0.766099 0.798835 0.938587
Si Si5 0.612842 0.594822 0.919861
Si Si6 0.885325 0.382606 0.714988
Si Si7 0.228600 0.821288 0.938726
Si Si8 0.382841 0.785075 0.203996
O O1 0.684389 0.986773 0.126830
O O2 0.661667 0.200812 0.178048
O O3 0.840414 0.166275 0.220565
O O4 0.787873 0.960596 0.256196
O O5 0.852422 0.324909 0.465067
O O6 0.838339 0.610020 0.470451
O O7 0.000000 0.500000 0.500000
O O8 0.139283 0.266741 0.756212
O O9 0.013292 0.117937 0.635690
O O10 0.665787 0.736776 0.920107
O O11 0.713946 0.878058 0.868784
O O12 0.832348 0.919145 0.001619
O O13 0.638432 0.448745 0.901531
O O14 0.888510 0.554511 0.732676
O O15 0.000000 0.334170 0.750000
O O16 0.183336 0.706238 0.877664
O O17 0.250000 0.750000 0.000000
O O18 0.500000 0.725972 0.250000
#
# Coordination Sequence:
#
# PCOD8135010 Si02
#       8
#     8   8   8   8   8   8   8   8
#     4  11  24  41  61  85 124 163 208 263 311 381
#     4  10  21  40  60  86 124 167 201 252 322 376
#     4  12  23  41  62  90 124 163 217 258 321 370
#     4  10  19  37  59  92 122 157 206 249 306 376
#     4  10  21  35  63  91 124 163 204 259 309 377
#     4  11  21  37  64  92 122 161 206 256 311 375
#     4  10  21  40  62  93 125 161 209 262 308 380
#     4  10  22  40  61  88 124 160 203 253 314 368
#
# _framework density 20.220478
#
# number of rings (size 3 to 8) (size 9 to 14) (size 15 to 20)
#    0.000    1.500    2.500    3.000    0.000    0.500 
#    9.000    0.000    0.000    5.250    0.000    0.000 
#    0.000    0.000    0.000    0.000    0.000    0.000 
#
# Total GULP energy -396773.200187 kJ/mol
# GULP energy per Si atom -12399.162506 kJ/mol
# Density = 2.017446 g / cm^3
# Si number density = 20.220478 Si / 1000 Ang^3
#
#
#
# Elastic Constant Matrix: (Units=GPa)
#
#
# Indices 1 2 3 4 5 6 
#
# 1 91.1976 25.2284 32.9610 0.0000 17.3830 0.0000
# 2 25.2284 56.3977 17.4904 0.0000 9.4357 0.0000
# 3 32.9610 17.4904 74.6753 0.0000 7.8006 0.0000
# 4 0.0000 0.0000 0.0000 28.0156 0.0000 -4.5193
# 5 17.3830 9.4357 7.8006 0.0000 40.0318 0.0000
# 6 0.0000 0.0000 0.0000 -4.5193 0.0000 28.0991
#
#
#
# Elastic Compliance Matrix: (Units=1/GPa)
#
#
# Indices 1 2 3 4 5 6 
#
# 1 0.014841 -0.004323 -0.005075 0.000000 -0.004437 0.000000
# 2 -0.004323 0.020934 -0.002732 0.000000 -0.002525 0.000000
# 3 -0.005075 -0.002732 0.016305 0.000000 -0.000330 0.000000
# 4 0.000000 0.000000 0.000000 0.036645 0.000000 0.005894
# 5 -0.004437 -0.002525 -0.000330 0.000000 0.027566 0.000000
# 6 0.000000 0.000000 0.000000 0.005894 0.000000 0.036536
#
#
# Mechanical properties :
#
#
# Convention : Reuss Voigt Hill
#
# Bulk Modulus (GPa) = 35.94153 41.51448 38.72801
# Shear Modulus (GPa) = 26.82975 29.00200 27.91588
#
# Velocity S-wave (km/s) = 3.64656 3.79131 3.71964
# Velocity P-wave (km/s) = 5.96182 6.30403 6.13531
#
# Compressibility (1/GPa) = 0.02782297
#
# Stress axis : x y z
#
# Youngs Moduli (GPa) = 67.38201 47.76816 61.32911
#
# Poissons Ratio (x) = 0.20649 0.31123
# Poissons Ratio (y) = 0.29127 0.16752
# Poissons Ratio (z) = 0.34194 0.13048
#
# Static dielectric constant tensor:
#      x y z
#    x 3.818060 0.000000 0.216860 
#    y 0.000000 3.457860 0.000000 
#    z 0.216860 0.000000 4.277850 
# 
# 
# High freq. dielectric constant tensor:
#      x y z
#    x 1.787340 0.000000 -0.000970 
#    y 0.000000 1.789720 0.000000 
#    z -0.000970 0.000000 1.791280 
# 
# From -- ./inp_files/315732.got.cif
#   From: 2010.06.25/outbox.cif.g09.slc.cpg/sg15_158_cif.got.tgz:315732.got - 2010.06.28 07:06:18.
