data_PCOD8135611
_publ_section_title
;
Structure prediction by ZEFSAII (Michael W. Deem and Ramdas Pophale) SiO2 
 PCOD8135611
Probable space group: C 2/C
;
_chemical_formula_sum "Si O2"
_cell_formula_units_Z 40
_cell_length_a 29.713487
_cell_length_b 9.177102
_cell_length_c 14.864173
_cell_angle_alpha 90.000000
_cell_angle_beta 148.976428
_cell_angle_gamma 90.000000
_cell_volume 2088.990620
_symmetry_space_group_name_H-M "C 2/C"
_symmetry_group_IT_number 15
_symmetry_cell_setting 'monoclinic'
loop_
_space_group_symop_operation_xyz
x,y,z
-x,y,1/2-z
-x,-y,-z
x,-y,1/2+z
1/2+x,1/2+y,z
1/2-x,1/2+y,1/2-z
1/2-x,1/2-y,-z
1/2+x,1/2-y,1/2+z
loop_
_atom_site_type_symbol
_atom_site_label
_atom_site_fract_x
_atom_site_fract_y
_atom_site_fract_z
Si Si1 0.324292 0.928553 0.891269
Si Si2 0.212181 0.065678 0.024073
Si Si3 0.415637 0.690277 0.160081
Si Si4 0.994091 0.543644 0.887756
Si Si5 0.828977 0.608425 0.062671
O O1 0.250649 0.914491 0.689547
O O2 0.345379 0.776253 0.977615
O O3 0.413031 0.982051 0.997842
O O4 0.286285 0.047301 0.897232
O O5 0.285432 0.028459 0.074746
O O6 0.172204 0.219542 0.927367
O O7 0.135718 0.946404 0.886730
O O8 0.500000 0.632965 0.250000
O O9 0.454527 0.793584 0.305766
O O10 0.930072 0.432903 0.728351
O O11 0.000000 0.500000 0.000000
#
# Coordination Sequence:
#
# PCOD8135611 Si02
#       5
#     8   8   8   8   8
#     4  10  20  38  61  81 111 153 189 228 282 341
#     4  11  21  38  58  85 119 142 186 245 278 331
#     4   9  21  37  59  83 114 150 191 232 284 336
#     4  10  19  39  59  79 113 154 188 227 280 342
#     4  10  22  36  59  85 115 148 187 230 289 333
#
# _framework density 19.148002999999999
#
# number of rings (size 3 to 8) (size 9 to 14) (size 15 to 20)
#    0.000    2.000    2.000    3.000    0.000    4.800 
#    3.600    1.000    0.000    0.000    0.000    0.000 
#    0.000    0.000    0.000    0.000    0.000    0.000 
#
# Total GULP energy -247909.135635 kJ/mol
# GULP energy per Si atom -12395.456782 kJ/mol
# Density = 1.910442 g / cm^3
# Si number density = 19.148003 Si / 1000 Ang^3
#
#
#
# Elastic Constant Matrix: (Units=GPa)
#
#
# Indices 1 2 3 4 5 6 
#
# 1 94.3887 49.2330 19.0158 0.0000 -14.8219 0.0000
# 2 49.2330 90.6830 27.7176 0.0000 8.0880 0.0000
# 3 19.0158 27.7176 62.1249 0.0000 -6.6997 0.0000
# 4 0.0000 0.0000 0.0000 16.0511 0.0000 5.7971
# 5 -14.8219 8.0880 -6.6997 0.0000 34.9639 0.0000
# 6 0.0000 0.0000 0.0000 5.7971 0.0000 33.9167
#
#
#
# Elastic Compliance Matrix: (Units=1/GPa)
#
#
# Indices 1 2 3 4 5 6 
#
# 1 0.017589 -0.010563 0.000405 0.000000 0.009978 0.000000
# 2 -0.010563 0.019725 -0.006680 0.000000 -0.010321 0.000000
# 3 0.000405 -0.006680 0.019542 0.000000 0.005462 0.000000
# 4 0.000000 0.000000 0.000000 0.066400 0.000000 -0.011349
# 5 0.009978 -0.010321 0.005462 0.000000 0.036265 0.000000
# 6 0.000000 0.000000 0.000000 -0.011349 0.000000 0.031424
#
#
# Mechanical properties :
#
#
# Convention : Reuss Voigt Hill
#
# Bulk Modulus (GPa) = 43.14171 48.79217 45.96694
# Shear Modulus (GPa) = 21.51951 27.06835 24.29393
#
# Velocity S-wave (km/s) = 3.35603 3.76392 3.56581
# Velocity P-wave (km/s) = 6.13162 6.66531 6.40403
#
# Compressibility (1/GPa) = 0.02317942
#
# Stress axis : x y z
#
# Youngs Moduli (GPa) = 56.85225 50.69810 51.17181
#
# Poissons Ratio (x) = 0.53553 -0.02072
# Poissons Ratio (y) = 0.60054 0.34183
# Poissons Ratio (z) = -0.02302 0.33867
#
# Static dielectric constant tensor:
#      x y z
#    x 4.041130 0.000000 -0.520190 
#    y 0.000000 3.350080 0.000000 
#    z -0.520190 0.000000 4.301090 
# 
# 
# High freq. dielectric constant tensor:
#      x y z
#    x 1.756040 0.000000 -0.003880 
#    y 0.000000 1.730840 0.000000 
#    z -0.003880 0.000000 1.741580 
# 
# From -- ./inp_files/150532.got.cif
#   From: 2010.06.25/outbox.cif.g09.slc.cpg/sg15_76_cif.got.tgz:150532.got - 2010.06.28 07:06:18.
