data_PCOD8135147
_publ_section_title
;
Structure prediction by ZEFSAII (Michael W. Deem and Ramdas Pophale) SiO2 
 PCOD8135147
Probable space group: C 2/C
;
_chemical_formula_sum "Si O2"
_cell_formula_units_Z 48
_cell_length_a 16.438633
_cell_length_b 16.051466
_cell_length_c 20.346980
_cell_angle_alpha 90.000000
_cell_angle_beta 26.860642
_cell_angle_gamma 90.000000
_cell_volume 2425.759483
_symmetry_space_group_name_H-M "C 2/C"
_symmetry_group_IT_number 15
_symmetry_cell_setting 'monoclinic'
loop_
_space_group_symop_operation_xyz
x,y,z
-x,y,1/2-z
-x,-y,-z
x,-y,1/2+z
1/2+x,1/2+y,z
1/2-x,1/2+y,1/2-z
1/2-x,1/2-y,-z
1/2+x,1/2-y,1/2+z
loop_
_atom_site_type_symbol
_atom_site_label
_atom_site_fract_x
_atom_site_fract_y
_atom_site_fract_z
Si Si1 0.364735 0.764773 0.075353
Si Si2 0.702727 0.893296 0.619158
Si Si3 0.304792 0.669706 0.919739
Si Si4 0.198376 0.580870 0.632900
Si Si5 0.083316 0.813911 0.618530
Si Si6 0.242462 0.718120 0.706257
O O1 0.296829 0.673726 0.099146
O O2 0.334070 0.835228 0.041392
O O3 0.252385 0.795983 0.219213
O O4 0.572208 0.763019 0.946791
O O5 0.500000 0.864159 0.750000
O O6 0.794250 0.904396 0.480479
O O7 0.714669 0.984564 0.642496
O O8 0.500000 0.678439 0.750000
O O9 0.250000 0.750000 0.000000
O O10 0.343286 0.604043 0.471681
O O11 0.230780 0.631307 0.676365
O O12 0.000000 0.603203 0.750000
O O13 0.250000 0.750000 0.500000
O O14 0.000000 0.835445 0.750000
O O15 0.922364 0.777796 0.691560
#
# Coordination Sequence:
#
# PCOD8135147 Si02
#       6
#     8   8   8   8   8   8
#     4  11  21  35  62  90 120 151 196 244 300 361
#     4  10  22  41  62  86 122 161 201 245 299 356
#     4  10  19  37  63  89 117 158 205 241 283 360
#     4  11  23  40  63  86 118 160 202 250 298 353
#     4  12  20  38  61  82 114 156 213 244 280 355
#     4  12  21  35  58  91 116 154 194 249 300 353
#
# _framework density 19.787617999999998
#
# number of rings (size 3 to 8) (size 9 to 14) (size 15 to 20)
#    0.000    1.000    5.000    5.000    0.000    1.333 
#    0.000    0.000    0.000    3.000    0.000    0.000 
#    0.000    0.000    0.000    0.000    0.000    0.000 
#
# Total GULP energy -297464.449914 kJ/mol
# GULP energy per Si atom -12394.352080 kJ/mol
# Density = 1.974258 g / cm^3
# Si number density = 19.787618 Si / 1000 Ang^3
#
#
#
# Elastic Constant Matrix: (Units=GPa)
#
#
# Indices 1 2 3 4 5 6 
#
# 1 111.2731 36.4815 44.7372 -0.0333 14.4084 0.0101
# 2 36.4815 59.8686 32.4177 -0.0199 3.4800 0.0124
# 3 44.7372 32.4177 134.4285 -0.0519 9.5658 0.0224
# 4 -0.0333 -0.0199 -0.0519 17.7256 0.0231 9.0709
# 5 14.4084 3.4800 9.5658 0.0231 54.6922 -0.0064
# 6 0.0101 0.0124 0.0224 9.0709 -0.0064 23.4921
#
#
#
# Elastic Compliance Matrix: (Units=1/GPa)
#
#
# Indices 1 2 3 4 5 6 
#
# 1 0.012254 -0.005994 -0.002461 0.000016 -0.002417 -0.000006
# 2 -0.005994 0.022154 -0.003402 0.000007 0.000765 -0.000008
# 3 -0.002461 -0.003402 0.009130 0.000028 -0.000732 -0.000017
# 4 0.000016 0.000007 0.000028 0.070309 -0.000042 -0.027148
# 5 -0.002417 0.000765 -0.000732 -0.000042 0.019000 0.000023
# 6 -0.000006 -0.000008 -0.000017 -0.027148 0.000023 0.053050
#
#
# Mechanical properties :
#
#
# Convention : Reuss Voigt Hill
#
# Bulk Modulus (GPa) = 50.44303 59.20477 54.82390
# Shear Modulus (GPa) = 23.12465 31.97755 27.55110
#
# Velocity S-wave (km/s) = 3.42225 4.02436 3.73546
# Velocity P-wave (km/s) = 6.41586 7.18185 6.80964
#
# Compressibility (1/GPa) = 0.01982434
#
# Stress axis : x y z
#
# Youngs Moduli (GPa) = 81.60299 45.13934 109.52561
#
# Poissons Ratio (x) = 0.27059 0.26951
# Poissons Ratio (y) = 0.48917 0.37259
# Poissons Ratio (z) = 0.20080 0.15356
#
# Static dielectric constant tensor:
#      x y z
#    x 3.861080 0.000040 0.336810 
#    y 0.000040 3.437790 0.000090 
#    z 0.336810 0.000090 4.308970 
# 
# 
# High freq. dielectric constant tensor:
#      x y z
#    x 1.782510 0.000000 0.003380 
#    y 0.000000 1.732630 0.000010 
#    z 0.003380 0.000010 1.795840 
# 
# From -- ./inp_files/48068.got.cif
#   From: 2010.06.25/outbox.cif.g09.slc.cpg/sg15_25_cif.got.tgz:48068.got - 2010.06.28 07:06:18.
