data_PCOD8135778
_publ_section_title
;
Structure prediction by ZEFSAII (Michael W. Deem and Ramdas Pophale) SiO2 
 PCOD8135778
Probable space group: C 2/C
;
_chemical_formula_sum "Si O2"
_cell_formula_units_Z 56
_cell_length_a 27.065577
_cell_length_b 13.763105
_cell_length_c 8.698975
_cell_angle_alpha 90.000000
_cell_angle_beta 49.402930
_cell_angle_gamma 90.000000
_cell_volume 2460.468553
_symmetry_space_group_name_H-M "C 2/C"
_symmetry_group_IT_number 15
_symmetry_cell_setting 'monoclinic'
loop_
_space_group_symop_operation_xyz
x,y,z
-x,y,1/2-z
-x,-y,-z
x,-y,1/2+z
1/2+x,1/2+y,z
1/2-x,1/2+y,1/2-z
1/2-x,1/2-y,-z
1/2+x,1/2-y,1/2+z
loop_
_atom_site_type_symbol
_atom_site_label
_atom_site_fract_x
_atom_site_fract_y
_atom_site_fract_z
Si Si1 0.681000 0.154004 0.551630
Si Si2 0.592261 0.284393 0.318810
Si Si3 0.000000 0.285850 0.750000
Si Si4 0.451194 0.909163 0.099988
Si Si5 0.208089 0.340931 0.643387
Si Si6 0.688986 0.630726 0.048106
Si Si7 0.000000 0.738258 0.750000
Si Si8 0.683979 0.554058 0.718984
O O1 0.624227 0.073444 0.698337
O O2 0.711874 0.141752 0.319528
O O3 0.652512 0.265108 0.623491
O O4 0.734421 0.145337 0.576361
O O5 0.542607 0.281432 0.276805
O O6 0.633222 0.182372 0.247476
O O7 0.555786 0.302978 0.556801
O O8 0.639616 0.375849 0.203383
O O9 0.049742 0.358311 0.563817
O O10 0.477561 0.830301 0.160961
O O11 0.500000 0.000000 0.000000
O O12 0.250000 0.250000 0.500000
O O13 0.240459 0.434372 0.493800
O O14 0.678879 0.578870 0.906407
O O15 0.661497 0.557104 0.234108
#
# Coordination Sequence:
#
# PCOD8135778 Si02
#       8
#     8   8   4   8   8   8   4   8
#     4  11  23  43  67  99 139 186 227 290 355 434
#     4  10  21  41  69  92 135 175 232 284 343 418
#     4  10  25  38  64  99 124 186 230 281 335 402
#     4  11  23  41  62  92 134 182 236 280 333 411
#     4  10  19  39  69  97 135 183 224 286 363 417
#     4  11  24  40  68 104 136 178 227 286 367 415
#     4  10  19  40  64  91 124 182 232 267 343 388
#     4  11  23  42  66 104 139 176 229 293 355 433
#
# _framework density 22.759893000000002
#
# number of rings (size 3 to 8) (size 9 to 14) (size 15 to 20)
#    0.000    1.429    4.286    1.286    2.000    4.571 
#    5.143    0.000    0.000   14.571    0.000    0.000 
#    0.000    0.000    0.000    0.000    0.000    0.000 
#
# Total GULP energy -346938.245207 kJ/mol
# GULP energy per Si atom -12390.651615 kJ/mol
# Density = 2.270809 g / cm^3
# Si number density = 22.759893 Si / 1000 Ang^3
#
#
#
# Elastic Constant Matrix: (Units=GPa)
#
#
# Indices 1 2 3 4 5 6 
#
# 1 93.9927 27.5703 38.0255 0.0000 8.7985 0.0000
# 2 27.5703 66.2284 17.4674 0.0000 1.8363 0.0000
# 3 38.0255 17.4674 111.2819 0.0000 -1.7656 0.0000
# 4 0.0000 0.0000 0.0000 -4.6924 0.0000 -57.6096
# 5 8.7985 1.8363 -1.7656 0.0000 40.3598 0.0000
# 6 0.0000 0.0000 0.0000 -57.6096 0.0000 -52.8263
#
#
#
# Elastic Compliance Matrix: (Units=1/GPa)
#
#
# Indices 1 2 3 4 5 6 
#
# 1 0.013932 -0.004640 -0.004080 0.000000 -0.003005 0.000000
# 2 -0.004640 0.017324 -0.001131 0.000000 0.000174 0.000000
# 3 -0.004080 -0.001131 0.010580 0.000000 0.001404 0.000000
# 4 0.000000 0.000000 0.000000 0.017202 0.000000 -0.018759
# 5 -0.003005 0.000174 0.001404 0.000000 0.025486 0.000000
# 6 0.000000 0.000000 0.000000 -0.018759 0.000000 0.001528
#
#
# Mechanical properties :
#
#
# Convention : Reuss Voigt Hill
#
# Bulk Modulus (GPa) = 45.17919 48.62549 46.90234
# Shear Modulus (GPa) = 44.19590 9.13089 26.66339
#
# Velocity S-wave (km/s) = 4.41140 2.00513 3.42644
# Velocity P-wave (km/s) = 6.77058 5.17413 6.02546
#
# Compressibility (1/GPa) = 0.02213409
#
# Stress axis : x y z
#
# Youngs Moduli (GPa) = 71.77672 57.72182 94.51695
#
# Poissons Ratio (x) = 0.26785 0.38562
# Poissons Ratio (y) = 0.33307 0.10689
# Poissons Ratio (z) = 0.29285 0.06528
#
# Static dielectric constant tensor:
#      x y z
#    x 4.160930 0.000000 -0.307280 
#    y 0.000000 4.313810 0.000000 
#    z -0.307280 0.000000 4.912650 
# 
# 
# High freq. dielectric constant tensor:
#      x y z
#    x 1.900560 0.000000 0.008860 
#    y 0.000000 1.880160 0.000000 
#    z 0.008860 0.000000 1.898640 
# 
# From -- ./inp_files/69908.got.cif
#   From: 2010.06.25/outbox.cif.g09.slc.cpg/sg15_35_cif.got.tgz:69908.got - 2010.06.28 07:06:18.
