data_PCOD8135739
_publ_section_title
;
Structure prediction by ZEFSAII (Michael W. Deem and Ramdas Pophale) SiO2 
 PCOD8135739
Probable space group: C 2/C
;
_chemical_formula_sum "Si O2"
_cell_formula_units_Z 44
_cell_length_a 9.329013
_cell_length_b 16.403642
_cell_length_c 13.573387
_cell_angle_alpha 90.000000
_cell_angle_beta 78.253445
_cell_angle_gamma 90.000000
_cell_volume 2033.632653
_symmetry_space_group_name_H-M "C 2/C"
_symmetry_group_IT_number 15
_symmetry_cell_setting 'monoclinic'
loop_
_space_group_symop_operation_xyz
x,y,z
-x,y,1/2-z
-x,-y,-z
x,-y,1/2+z
1/2+x,1/2+y,z
1/2-x,1/2+y,1/2-z
1/2-x,1/2-y,-z
1/2+x,1/2-y,1/2+z
loop_
_atom_site_type_symbol
_atom_site_label
_atom_site_fract_x
_atom_site_fract_y
_atom_site_fract_z
Si Si1 0.291047 0.094561 0.204375
Si Si2 0.243410 0.736639 0.615089
Si Si3 0.381992 0.887547 0.904277
Si Si4 0.000000 0.366100 0.250000
Si Si5 0.727808 0.069231 0.872434
Si Si6 0.547970 0.715623 0.640650
O O1 0.224455 0.178926 0.176121
O O2 0.454721 0.084607 0.140669
O O3 0.279523 0.091097 0.324994
O O4 0.202615 0.018029 0.168567
O O5 0.250000 0.750000 0.500000
O O6 0.394950 0.687635 0.614088
O O7 0.103049 0.685431 0.664220
O O8 0.373965 0.789584 0.929238
O O9 0.327665 0.935570 0.007668
O O10 0.097761 0.418246 0.311428
O O11 0.849263 0.139629 0.850225
O O12 0.500000 0.759001 0.750000
#
# Coordination Sequence:
#
# PCOD8135739 Si02
#       6
#     8   8   8   4   8   8
#     4  10  21  40  60  93 133 161 206 275 315 372
#     4  11  24  43  67  92 128 173 214 266 321 386
#     4  10  19  39  66  88 125 176 215 247 319 394
#     4  12  22  40  64  98 122 164 228 266 306 398
#     4  12  24  37  69  98 121 169 217 265 322 377
#     4  11  20  44  65  87 131 170 204 260 323 377
#
# _framework density 21.636161000000001
#
# number of rings (size 3 to 8) (size 9 to 14) (size 15 to 20)
#    0.000    1.091    5.455    4.364    0.000    2.909 
#    1.636    0.909    0.000    0.000    0.000    0.000 
#    0.000    0.000    0.000    0.000    0.000    0.000 
#
# Total GULP energy -272691.942560 kJ/mol
# GULP energy per Si atom -12395.088298 kJ/mol
# Density = 2.158692 g / cm^3
# Si number density = 21.636161 Si / 1000 Ang^3
#
#
#
# Elastic Constant Matrix: (Units=GPa)
#
#
# Indices 1 2 3 4 5 6 
#
# 1 71.6805 22.5069 14.8226 0.0000 13.9919 0.0000
# 2 22.5069 99.4728 1.1757 0.0000 1.2223 0.0000
# 3 14.8226 1.1757 127.8646 0.0000 12.4988 0.0000
# 4 0.0000 0.0000 0.0000 29.0607 0.0000 2.6779
# 5 13.9919 1.2223 12.4988 0.0000 27.3983 0.0000
# 6 0.0000 0.0000 0.0000 2.6779 0.0000 23.8167
#
#
#
# Elastic Compliance Matrix: (Units=1/GPa)
#
#
# Indices 1 2 3 4 5 6 
#
# 1 0.016905 -0.003714 -0.001149 0.000000 -0.007943 0.000000
# 2 -0.003714 0.010875 0.000202 0.000000 0.001319 0.000000
# 3 -0.001149 0.000202 0.008264 0.000000 -0.003192 0.000000
# 4 0.000000 0.000000 0.000000 0.034771 0.000000 -0.003910
# 5 -0.007943 0.001319 -0.003192 0.000000 0.041952 0.000000
# 6 0.000000 0.000000 0.000000 -0.003910 0.000000 0.042427
#
#
# Mechanical properties :
#
#
# Convention : Reuss Voigt Hill
#
# Bulk Modulus (GPa) = 37.42347 41.78094 39.60220
# Shear Modulus (GPa) = 28.83108 33.42265 31.12687
#
# Velocity S-wave (km/s) = 3.65436 3.93461 3.79707
# Velocity P-wave (km/s) = 5.92791 6.32409 6.12920
#
# Compressibility (1/GPa) = 0.02672120
#
# Stress axis : x y z
#
# Youngs Moduli (GPa) = 59.15409 91.95671 121.00439
#
# Poissons Ratio (x) = 0.34151 0.13905
# Poissons Ratio (y) = 0.21968 -0.02439
# Poissons Ratio (z) = 0.06797 -0.01853
#
# Static dielectric constant tensor:
#      x y z
#    x 3.743310 0.000000 0.308640 
#    y 0.000000 3.997010 0.000000 
#    z 0.308640 0.000000 4.190380 
# 
# 
# High freq. dielectric constant tensor:
#      x y z
#    x 1.825840 0.000000 0.014440 
#    y 0.000000 1.852010 0.000000 
#    z 0.014440 0.000000 1.862120 
# 
# From -- ./inp_files/134387.got.cif
#   From: 2010.06.25/outbox.cif.g09.slc.cpg/sg15_68_cif.got.tgz:134387.got - 2010.06.28 07:06:18.
