data_PCOD8135831
_publ_section_title
;
Structure prediction by ZEFSAII (Michael W. Deem and Ramdas Pophale) SiO2 
 PCOD8135831
Probable space group: C 2/C
;
_chemical_formula_sum "Si O2"
_cell_formula_units_Z 40
_cell_length_a 16.241215
_cell_length_b 7.537668
_cell_length_c 15.564097
_cell_angle_alpha 90.000000
_cell_angle_beta 97.456388
_cell_angle_gamma 90.000000
_cell_volume 1889.258601
_symmetry_space_group_name_H-M "C 2/C"
_symmetry_group_IT_number 15
_symmetry_cell_setting 'monoclinic'
loop_
_space_group_symop_operation_xyz
x,y,z
-x,y,1/2-z
-x,-y,-z
x,-y,1/2+z
1/2+x,1/2+y,z
1/2-x,1/2+y,1/2-z
1/2-x,1/2-y,-z
1/2+x,1/2-y,1/2+z
loop_
_atom_site_type_symbol
_atom_site_label
_atom_site_fract_x
_atom_site_fract_y
_atom_site_fract_z
Si Si1 0.269136 0.025983 0.595617
Si Si2 0.666148 0.139127 0.074613
Si Si3 0.151417 0.275447 0.136484
Si Si4 0.983331 0.190115 0.036819
Si Si5 0.583954 0.811363 0.300763
O O1 0.282017 0.052695 0.496411
O O2 0.210768 0.187813 0.619894
O O3 0.356941 0.031435 0.657107
O O4 0.226457 0.838076 0.607983
O O5 0.670836 0.985855 0.147523
O O6 0.572202 0.191896 0.035042
O O7 0.128606 0.204025 0.228873
O O8 0.073788 0.274791 0.060311
O O9 0.936356 0.177149 0.123217
O O10 0.000000 0.000000 0.000000
O O11 0.500000 0.898082 0.250000
#
# Coordination Sequence:
#
# PCOD8135831 Si02
#       5
#     8   8   8   8   8
#     4  10  21  38  59  88 122 155 204 254 297 365
#     4  10  21  37  61  90 119 156 206 249 302 365
#     4  11  21  37  64  88 121 162 202 251 311 359
#     4  10  19  40  64  86 124 165 200 249 308 367
#     4   9  22  39  60  85 128 162 197 259 310 359
#
# _framework density 21.172326999999999
#
# number of rings (size 3 to 8) (size 9 to 14) (size 15 to 20)
#    0.000    2.000    2.000    1.200    2.800    0.000 
#    0.000    0.000   13.200    0.000    0.000    0.000 
#    0.000    0.000    0.000    0.000    0.000    0.000 
#
# Total GULP energy -247876.171713 kJ/mol
# GULP energy per Si atom -12393.808586 kJ/mol
# Density = 2.112414 g / cm^3
# Si number density = 21.172327 Si / 1000 Ang^3
#
#
#
# Elastic Constant Matrix: (Units=GPa)
#
#
# Indices 1 2 3 4 5 6 
#
# 1 104.9209 40.2886 34.8243 0.0000 11.4638 0.0000
# 2 40.2886 120.6186 32.3772 0.0000 -2.8494 0.0000
# 3 34.8243 32.3772 72.3798 0.0000 4.9483 0.0000
# 4 0.0000 0.0000 0.0000 19.3023 0.0000 -2.0194
# 5 11.4638 -2.8494 4.9483 0.0000 30.1475 0.0000
# 6 0.0000 0.0000 0.0000 -2.0194 0.0000 34.7624
#
#
#
# Elastic Compliance Matrix: (Units=1/GPa)
#
#
# Indices 1 2 3 4 5 6 
#
# 1 0.012682 -0.003163 -0.004386 0.000000 -0.004401 0.000000
# 2 -0.003163 0.010288 -0.003266 0.000000 0.002711 0.000000
# 3 -0.004386 -0.003266 0.017490 0.000000 -0.001512 0.000000
# 4 0.000000 0.000000 0.000000 0.052124 0.000000 0.003028
# 5 -0.004401 0.002711 -0.001512 0.000000 0.035348 0.000000
# 6 0.000000 0.000000 0.000000 0.003028 0.000000 0.028943
#
#
# Mechanical properties :
#
#
# Convention : Reuss Voigt Hill
#
# Bulk Modulus (GPa) = 53.10277 56.98885 55.04581
# Shear Modulus (GPa) = 27.05906 29.53773 28.29840
#
# Velocity S-wave (km/s) = 3.57885 3.73917 3.65989
# Velocity P-wave (km/s) = 6.49717 6.75403 6.62684
#
# Compressibility (1/GPa) = 0.01883141
#
# Stress axis : x y z
#
# Youngs Moduli (GPa) = 78.85104 97.20464 57.17413
#
# Poissons Ratio (x) = 0.30743 0.25077
# Poissons Ratio (y) = 0.24938 0.18671
# Poissons Ratio (z) = 0.34585 0.31743
#
# Static dielectric constant tensor:
#      x y z
#    x 4.223490 0.000000 0.059790 
#    y 0.000000 3.529880 0.000000 
#    z 0.059790 0.000000 3.837990 
# 
# 
# High freq. dielectric constant tensor:
#      x y z
#    x 1.845680 0.000000 0.006560 
#    y 0.000000 1.796250 0.000000 
#    z 0.006560 0.000000 1.827450 
# 
# From -- ./inp_files/207980.got.cif
#   From: 2010.06.25/outbox.cif.g09.slc.cpg/sg15_104_cif.got.tgz:207980.got - 2010.06.28 07:06:18.
