data_PCOD8135378
_publ_section_title
;
Structure prediction by ZEFSAII (Michael W. Deem and Ramdas Pophale) SiO2 
 PCOD8135378
Probable space group: C 2/C
;
_chemical_formula_sum "Si O2"
_cell_formula_units_Z 48
_cell_length_a 28.073635
_cell_length_b 9.970353
_cell_length_c 15.794686
_cell_angle_alpha 90.000000
_cell_angle_beta 32.953879
_cell_angle_gamma 90.000000
_cell_volume 2404.861929
_symmetry_space_group_name_H-M "C 2/C"
_symmetry_group_IT_number 15
_symmetry_cell_setting 'monoclinic'
loop_
_space_group_symop_operation_xyz
x,y,z
-x,y,1/2-z
-x,-y,-z
x,-y,1/2+z
1/2+x,1/2+y,z
1/2-x,1/2+y,1/2-z
1/2-x,1/2-y,-z
1/2+x,1/2-y,1/2+z
loop_
_atom_site_type_symbol
_atom_site_label
_atom_site_fract_x
_atom_site_fract_y
_atom_site_fract_z
Si Si1 0.926061 0.495007 0.429594
Si Si2 0.426367 0.488949 0.922529
Si Si3 0.673187 0.378833 0.567548
Si Si4 0.248595 0.874989 0.621284
Si Si5 0.998254 0.762281 0.596887
Si Si6 0.587984 0.731787 0.453108
O O1 0.836535 0.445392 0.520221
O O2 0.898864 0.622357 0.526615
O O3 0.000000 0.532573 0.250000
O O4 0.963150 0.381357 0.435694
O O5 0.500000 0.436372 0.750000
O O6 0.340594 0.483668 0.989789
O O7 0.427798 0.377453 0.996145
O O8 0.453708 0.635861 0.913590
O O9 0.742714 0.275744 0.426069
O O10 0.709993 0.455710 0.596545
O O11 0.588282 0.291338 0.719865
O O12 0.177162 0.854177 0.801828
O O13 0.976506 0.759010 0.530081
#
# Coordination Sequence:
#
# PCOD8135378 Si02
#       6
#     8   8   8   8   8   8
#     4  12  22  40  61  89 119 156 193 243 295 347
#     4  10  19  38  61  84 114 156 192 236 291 354
#     4   9  18  37  62  79 104 153 206 227 269 356
#     4  10  21  37  58  83 111 154 194 235 281 347
#     4  10  19  39  62  84 109 160 200 232 280 362
#     4  11  25  35  57  92 125 142 191 254 298 329
#
# _framework density 19.959565999999999
#
# number of rings (size 3 to 8) (size 9 to 14) (size 15 to 20)
#    0.000    1.667    3.333    2.000    2.333    0.000 
#    0.000    0.833    0.000    0.000    0.000    0.000 
#    0.000    0.000    0.000    0.000    0.000    0.000 
#
# Total GULP energy -297316.618909 kJ/mol
# GULP energy per Si atom -12388.192455 kJ/mol
# Density = 1.991414 g / cm^3
# Si number density = 19.959566 Si / 1000 Ang^3
#
#
#
# Elastic Constant Matrix: (Units=GPa)
#
#
# Indices 1 2 3 4 5 6 
#
# 1 178.5035 65.6830 48.1771 0.0000 4.5081 0.0000
# 2 65.6830 102.6302 17.0845 -0.0003 11.8984 0.0001
# 3 48.1771 17.0845 41.4399 -0.0001 -0.9957 0.0001
# 4 0.0000 -0.0003 -0.0001 16.5165 0.0001 7.7989
# 5 4.5081 11.8984 -0.9957 0.0001 25.1879 0.0000
# 6 0.0000 0.0001 0.0001 7.7989 0.0000 18.5098
#
#
#
# Elastic Compliance Matrix: (Units=1/GPa)
#
#
# Indices 1 2 3 4 5 6 
#
# 1 0.009948 -0.004781 -0.009591 0.000000 0.000099 0.000000
# 2 -0.004781 0.013463 -0.000124 0.000000 -0.005509 0.000000
# 3 -0.009591 -0.000124 0.035409 0.000000 0.003175 0.000000
# 4 0.000000 0.000000 0.000000 0.075583 0.000000 -0.031846
# 5 0.000099 -0.005509 0.003175 0.000000 0.042412 0.000000
# 6 0.000000 0.000000 0.000000 -0.031846 0.000000 0.067444
#
#
# Mechanical properties :
#
#
# Convention : Reuss Voigt Hill
#
# Bulk Modulus (GPa) = 33.52717 64.94029 49.23373
# Shear Modulus (GPa) = 17.65575 24.81811 21.23693
#
# Velocity S-wave (km/s) = 2.97741 3.53004 3.26544
# Velocity P-wave (km/s) = 5.35294 7.01580 6.24001
#
# Compressibility (1/GPa) = 0.02982656
#
# Stress axis : x y z
#
# Youngs Moduli (GPa) = 100.52667 74.27722 28.24112
#
# Poissons Ratio (x) = 0.35514 0.27087
# Poissons Ratio (y) = 0.48065 0.00351
# Poissons Ratio (z) = 0.96418 0.00922
#
# Static dielectric constant tensor:
#      x y z
#    x 4.598880 0.000000 0.050990 
#    y 0.000000 3.312040 0.000000 
#    z 0.050990 0.000000 3.509060 
# 
# 
# High freq. dielectric constant tensor:
#      x y z
#    x 1.804740 0.000000 0.007030 
#    y 0.000000 1.753910 0.000000 
#    z 0.007030 0.000000 1.762300 
# 
# From -- ./inp_files/176845.got.cif
#   From: 2010.06.25/outbox.cif.g09.slc.cpg/sg15_89_cif.got.tgz:176845.got - 2010.06.28 07:06:18.
