data_PCOD8135917
_publ_section_title
;
Structure prediction by ZEFSAII (Michael W. Deem and Ramdas Pophale) SiO2 
 PCOD8135917
Probable space group: C 2/C
;
_chemical_formula_sum "Si O2"
_cell_formula_units_Z 28
_cell_length_a 11.465397
_cell_length_b 7.361551
_cell_length_c 20.575404
_cell_angle_alpha 90.000000
_cell_angle_beta 139.619447
_cell_angle_gamma 90.000000
_cell_volume 1125.094211
_symmetry_space_group_name_H-M "C 2/C"
_symmetry_group_IT_number 15
_symmetry_cell_setting 'monoclinic'
loop_
_space_group_symop_operation_xyz
x,y,z
-x,y,1/2-z
-x,-y,-z
x,-y,1/2+z
1/2+x,1/2+y,z
1/2-x,1/2+y,1/2-z
1/2-x,1/2-y,-z
1/2+x,1/2-y,1/2+z
loop_
_atom_site_type_symbol
_atom_site_label
_atom_site_fract_x
_atom_site_fract_y
_atom_site_fract_z
Si Si1 0.995577 0.311539 0.122489
Si Si2 0.372177 0.597498 0.826307
Si Si3 0.000000 0.088613 0.750000
Si Si4 0.696233 0.818992 0.582856
O O1 0.157910 0.420082 0.224209
O O2 0.824436 0.322356 0.097845
O O3 0.046156 0.101430 0.132096
O O4 0.946087 0.399164 0.030714
O O5 0.468401 0.697476 0.804092
O O6 0.414105 0.712003 0.908478
O O7 0.818350 0.969382 0.669028
#
# Coordination Sequence:
#
# PCOD8135917 Si02
#       4
#     8   8   4   8
#     4  10  22  36  68  87 117 157 203 236 305 344
#     4  11  19  41  57  89 122 154 195 251 284 359
#     4  10  22  38  60  88 126 152 200 238 298 348
#     4  10  19  41  62  87 117 164 191 245 294 355
#
# _framework density 24.886804000000001
#
# number of rings (size 3 to 8) (size 9 to 14) (size 15 to 20)
#    0.000    1.714    5.714    0.857    0.000    1.143 
#    5.143    1.429    0.000    0.000    0.000    0.000 
#    0.000    0.000    0.000    0.000    0.000    0.000 
#
# Total GULP energy -173535.901825 kJ/mol
# GULP energy per Si atom -12395.421559 kJ/mol
# Density = 2.483016 g / cm^3
# Si number density = 24.886804 Si / 1000 Ang^3
#
#
#
# Elastic Constant Matrix: (Units=GPa)
#
#
# Indices 1 2 3 4 5 6 
#
# 1 141.2050 18.4210 13.0943 0.0000 -48.4037 0.0000
# 2 18.4210 25.8367 2.7175 0.0000 -5.5723 0.0000
# 3 13.0943 2.7175 101.6289 0.0000 -18.6919 0.0000
# 4 0.0000 0.0000 0.0000 26.6881 0.0000 -9.8751
# 5 -48.4037 -5.5723 -18.6919 0.0000 49.6080 0.0000
# 6 0.0000 0.0000 0.0000 -9.8751 0.0000 19.1194
#
#
#
# Elastic Compliance Matrix: (Units=1/GPa)
#
#
# Indices 1 2 3 4 5 6 
#
# 1 0.011498 -0.005938 0.000664 0.000000 0.010802 0.000000
# 2 -0.005938 0.042738 -0.000602 0.000000 -0.001220 0.000000
# 3 0.000664 -0.000602 0.010612 0.000000 0.004579 0.000000
# 4 0.000000 0.000000 0.000000 0.046323 0.000000 0.023926
# 5 0.010802 -0.001220 0.004579 0.000000 0.032286 0.000000
# 6 0.000000 0.000000 0.000000 0.023926 0.000000 0.064660
#
#
# Mechanical properties :
#
#
# Convention : Reuss Voigt Hill
#
# Bulk Modulus (GPa) = 18.83351 37.45957 28.14654
# Shear Modulus (GPa) = 21.04657 34.71230 27.87943
#
# Velocity S-wave (km/s) = 2.91123 3.73876 3.35064
# Velocity P-wave (km/s) = 4.34563 5.80710 5.12869
#
# Compressibility (1/GPa) = 0.05309684
#
# Stress axis : x y z
#
# Youngs Moduli (GPa) = 86.97387 23.39816 94.22909
#
# Poissons Ratio (x) = 0.13893 -0.06257
# Poissons Ratio (y) = 0.51643 0.05674
# Poissons Ratio (z) = -0.05776 0.01409
#
# Static dielectric constant tensor:
#      x y z
#    x 5.043590 0.000000 -0.191150 
#    y 0.000000 3.749100 0.000000 
#    z -0.191150 0.000000 4.769130 
# 
# 
# High freq. dielectric constant tensor:
#      x y z
#    x 2.017880 0.000000 -0.016390 
#    y 0.000000 1.930560 0.000000 
#    z -0.016390 0.000000 2.005300 
# 
# From -- ./inp_files/131831.got.cif
#   From: 2010.06.25/outbox.cif.g09.slc.cpg/sg15_66_cif.got.tgz:131831.got - 2010.06.28 07:06:18.
