data_PCOD8135047
_publ_section_title
;
Structure prediction by ZEFSAII (Michael W. Deem and Ramdas Pophale) SiO2 
 PCOD8135047
Probable space group: C 2/C
;
_chemical_formula_sum "Si O2"
_cell_formula_units_Z 56
_cell_length_a 16.191201
_cell_length_b 7.770812
_cell_length_c 22.690954
_cell_angle_alpha 90.000000
_cell_angle_beta 104.440935
_cell_angle_gamma 90.000000
_cell_volume 2764.746719
_symmetry_space_group_name_H-M "C 2/C"
_symmetry_group_IT_number 15
_symmetry_cell_setting 'monoclinic'
loop_
_space_group_symop_operation_xyz
x,y,z
-x,y,1/2-z
-x,-y,-z
x,-y,1/2+z
1/2+x,1/2+y,z
1/2-x,1/2+y,1/2-z
1/2-x,1/2-y,-z
1/2+x,1/2-y,1/2+z
loop_
_atom_site_type_symbol
_atom_site_label
_atom_site_fract_x
_atom_site_fract_y
_atom_site_fract_z
Si Si1 0.843117 0.139951 0.787386
Si Si2 0.416580 0.897795 0.888950
Si Si3 0.511100 0.576399 0.145379
Si Si4 0.037369 0.859929 0.463893
Si Si5 0.041105 0.425059 0.319553
Si Si6 0.790171 0.394589 0.679420
Si Si7 0.855988 0.746308 0.918597
O O1 0.851786 0.274331 0.842564
O O2 0.828361 0.235854 0.723225
O O3 0.763435 0.015241 0.785969
O O4 0.930670 0.029631 0.797813
O O5 0.467976 0.792925 0.947681
O O6 0.485647 0.980405 0.858111
O O7 0.359124 0.041116 0.910398
O O8 0.448592 0.444648 0.098610
O O9 0.455833 0.719191 0.169288
O O10 0.573699 0.665903 0.110064
O O11 0.124657 0.788944 0.509011
O O12 0.000000 0.000000 0.500000
O O13 0.136855 0.493687 0.338283
O O14 0.000000 0.468383 0.250000
O O15 0.735798 0.318979 0.615666
#
# Coordination Sequence:
#
# PCOD8135047 Si02
#       7
#     8   8   8   8   8   8   8
#     4  10  20  36  56  83 114 152 192 241 282 347
#     4  10  19  37  60  87 114 155 197 235 286 352
#     4   8  19  36  57  81 113 149 197 233 282 345
#     4   9  17  35  60  87 110 148 204 245 276 337
#     4  11  22  39  55  85 121 154 190 237 294 351
#     4  11  22  36  57  86 121 149 193 241 294 343
#     4   9  18  34  59  84 112 150 190 242 287 333
#
# _framework density 20.255019999999998
#
# number of rings (size 3 to 8) (size 9 to 14) (size 15 to 20)
#    0.000    2.286    1.429    2.143    4.000    0.000 
#    5.143    1.429    0.000    0.000    0.000    0.000 
#    0.000    0.000    0.000    0.000    0.000    0.000 
#
# Total GULP energy -347155.272140 kJ/mol
# GULP energy per Si atom -12398.402576 kJ/mol
# Density = 2.020892 g / cm^3
# Si number density = 20.255020 Si / 1000 Ang^3
#
#
#
# Elastic Constant Matrix: (Units=GPa)
#
#
# Indices 1 2 3 4 5 6 
#
# 1 74.2250 47.6778 42.8503 0.0000 15.0835 0.0000
# 2 47.6778 134.0565 48.1866 0.0000 17.6077 0.0000
# 3 42.8503 48.1866 105.6662 0.0000 36.8898 0.0000
# 4 0.0000 0.0000 0.0000 48.8508 0.0000 -1.7505
# 5 15.0835 17.6077 36.8898 0.0000 27.1768 0.0000
# 6 0.0000 0.0000 0.0000 -1.7505 0.0000 34.9698
#
#
#
# Elastic Compliance Matrix: (Units=1/GPa)
#
#
# Indices 1 2 3 4 5 6 
#
# 1 0.020087 -0.005043 -0.005882 0.000000 0.000103 0.000000
# 2 -0.005043 0.010192 -0.002422 0.000000 -0.000516 0.000000
# 3 -0.005882 -0.002422 0.021414 0.000000 -0.024233 0.000000
# 4 0.000000 0.000000 0.000000 0.020507 0.000000 0.001027
# 5 0.000103 -0.000516 -0.024233 0.000000 0.069968 0.000000
# 6 0.000000 0.000000 0.000000 0.001027 0.000000 0.028647
#
#
# Mechanical properties :
#
#
# Convention : Reuss Voigt Hill
#
# Bulk Modulus (GPa) = 40.00408 65.70855 52.85631
# Shear Modulus (GPa) = 24.29048 33.88168 29.08608
#
# Velocity S-wave (km/s) = 3.46675 4.09437 3.79356
# Velocity P-wave (km/s) = 5.98478 7.40695 6.73351
#
# Compressibility (1/GPa) = 0.02499745
#
# Stress axis : x y z
#
# Youngs Moduli (GPa) = 49.78429 98.11919 46.69859
#
# Poissons Ratio (x) = 0.49484 0.27467
# Poissons Ratio (y) = 0.25107 0.11312
# Poissons Ratio (z) = 0.29282 0.23769
#
# Static dielectric constant tensor:
#      x y z
#    x 3.226910 0.000000 0.316250 
#    y 0.000000 4.172100 0.000000 
#    z 0.316250 0.000000 3.965870 
# 
# 
# High freq. dielectric constant tensor:
#      x y z
#    x 1.742720 0.000000 0.023480 
#    y 0.000000 1.815440 0.000000 
#    z 0.023480 0.000000 1.795230 
# 
# From -- ./inp_files/272833.got.cif
#   From: 2010.06.25/outbox.cif.g09.slc.cpg/sg15_137_cif.got.tgz:272833.got - 2010.06.28 07:06:18.
