data_PCOD8135700
_publ_section_title
;
Structure prediction by ZEFSAII (Michael W. Deem and Ramdas Pophale) SiO2 
 PCOD8135700
Probable space group: C 2/C
;
_chemical_formula_sum "Si O2"
_cell_formula_units_Z 48
_cell_length_a 10.969006
_cell_length_b 15.317300
_cell_length_c 19.047169
_cell_angle_alpha 90.000000
_cell_angle_beta 45.847969
_cell_angle_gamma 90.000000
_cell_volume 2296.139250
_symmetry_space_group_name_H-M "C 2/C"
_symmetry_group_IT_number 15
_symmetry_cell_setting 'monoclinic'
loop_
_space_group_symop_operation_xyz
x,y,z
-x,y,1/2-z
-x,-y,-z
x,-y,1/2+z
1/2+x,1/2+y,z
1/2-x,1/2+y,1/2-z
1/2-x,1/2-y,-z
1/2+x,1/2-y,1/2+z
loop_
_atom_site_type_symbol
_atom_site_label
_atom_site_fract_x
_atom_site_fract_y
_atom_site_fract_z
Si Si1 0.307449 0.780876 0.237644
Si Si2 0.160076 0.964624 0.979714
Si Si3 0.978022 0.127802 0.836232
Si Si4 0.356360 0.225589 0.063799
Si Si5 0.343823 0.134027 0.932143
Si Si6 0.718837 0.277496 0.906426
O O1 0.272779 0.717060 0.318459
O O2 0.484931 0.831494 0.173544
O O3 0.302172 0.725386 0.168946
O O4 0.160485 0.853436 0.297358
O O5 0.246306 0.878680 0.912601
O O6 0.311329 0.034819 0.922834
O O7 0.108340 0.944387 0.080651
O O8 0.000000 0.000000 0.000000
O O9 0.873288 0.218701 0.872070
O O10 0.000000 0.086643 0.750000
O O11 0.313146 0.309559 0.033382
O O12 0.349293 0.141287 0.015327
O O13 0.549068 0.241280 0.013033
#
# Coordination Sequence:
#
# PCOD8135700 Si02
#       6
#     8   8   8   8   8   8
#     4  10  20  39  64  92 122 172 213 250 305 383
#     4  12  22  41  64  95 129 163 204 267 320 360
#     4  10  22  42  66  91 126 170 210 256 312 377
#     4  10  19  39  64  88 121 171 206 249 311 376
#     4  10  22  37  62  94 127 162 205 259 316 369
#     4  10  21  39  69  89 121 170 210 251 311 375
#
# _framework density 20.904654000000001
#
# number of rings (size 3 to 8) (size 9 to 14) (size 15 to 20)
#    0.000    1.667    3.333    1.000    0.000    0.000 
#    3.000   17.500    0.000    0.000    0.000    0.000 
#    0.000    0.000    0.000    0.000    0.000    0.000 
#
# Total GULP energy -297563.395292 kJ/mol
# GULP energy per Si atom -12398.474804 kJ/mol
# Density = 2.085707 g / cm^3
# Si number density = 20.904654 Si / 1000 Ang^3
#
#
#
# Elastic Constant Matrix: (Units=GPa)
#
#
# Indices 1 2 3 4 5 6 
#
# 1 72.4625 37.5515 39.0530 -0.0002 2.2504 0.0001
# 2 37.5515 97.4790 36.2361 -0.0001 5.3708 0.0001
# 3 39.0530 36.2361 137.8363 -0.0005 14.4091 0.0002
# 4 -0.0002 -0.0001 -0.0005 28.7403 0.0003 -1.9153
# 5 2.2504 5.3708 14.4091 0.0003 41.9882 -0.0001
# 6 0.0001 0.0001 0.0002 -1.9153 -0.0001 27.6199
#
#
#
# Elastic Compliance Matrix: (Units=1/GPa)
#
#
# Indices 1 2 3 4 5 6 
#
# 1 0.018939 -0.005895 -0.003930 0.000000 0.001088 0.000000
# 2 -0.005895 0.013213 -0.001721 0.000000 -0.000783 0.000000
# 3 -0.003930 -0.001721 0.009103 0.000000 -0.002693 0.000000
# 4 0.000000 0.000000 0.000000 0.034956 0.000000 0.002424
# 5 0.001088 -0.000783 -0.002693 0.000000 0.024782 0.000000
# 6 0.000000 0.000000 0.000000 0.002424 0.000000 0.036374
#
#
# Mechanical properties :
#
#
# Convention : Reuss Voigt Hill
#
# Bulk Modulus (GPa) = 55.06078 59.27320 57.16699
# Shear Modulus (GPa) = 30.02766 32.66551 31.34658
#
# Velocity S-wave (km/s) = 3.79411 3.95726 3.87654
# Velocity P-wave (km/s) = 6.75203 7.02107 6.88786
#
# Compressibility (1/GPa) = 0.01816175
#
# Stress axis : x y z
#
# Youngs Moduli (GPa) = 52.79991 75.68551 109.85966
#
# Poissons Ratio (x) = 0.44616 0.43175
# Poissons Ratio (y) = 0.31125 0.18911
# Poissons Ratio (z) = 0.20751 0.13028
#
# Static dielectric constant tensor:
#      x y z
#    x 3.962560 0.000000 0.120730 
#    y 0.000000 3.415680 0.000000 
#    z 0.120730 0.000000 4.054860 
# 
# 
# High freq. dielectric constant tensor:
#      x y z
#    x 1.835490 0.000000 0.006860 
#    y 0.000000 1.776050 0.000000 
#    z 0.006860 0.000000 1.830760 
# 
# From -- ./inp_files/238938.got.cif
#   From: 2010.06.25/outbox.cif.g09.slc.cpg/sg15_120_cif.got.tgz:238938.got - 2010.06.28 07:06:18.
