data_PCOD8135178
_publ_section_title
;
Structure prediction by ZEFSAII (Michael W. Deem and Ramdas Pophale) SiO2 
 PCOD8135178
Probable space group: C 2/C
;
_chemical_formula_sum "Si O2"
_cell_formula_units_Z 40
_cell_length_a 14.082631
_cell_length_b 11.690252
_cell_length_c 25.959094
_cell_angle_alpha 90.000000
_cell_angle_beta 155.601621
_cell_angle_gamma 90.000000
_cell_volume 1765.346531
_symmetry_space_group_name_H-M "C 2/C"
_symmetry_group_IT_number 15
_symmetry_cell_setting 'monoclinic'
loop_
_space_group_symop_operation_xyz
x,y,z
-x,y,1/2-z
-x,-y,-z
x,-y,1/2+z
1/2+x,1/2+y,z
1/2-x,1/2+y,1/2-z
1/2-x,1/2-y,-z
1/2+x,1/2-y,1/2+z
loop_
_atom_site_type_symbol
_atom_site_label
_atom_site_fract_x
_atom_site_fract_y
_atom_site_fract_z
Si Si1 0.902186 0.798398 0.253228
Si Si2 0.599262 0.208029 0.032803
Si Si3 0.846199 0.351733 0.082623
Si Si4 0.602832 0.462039 0.879523
Si Si5 0.278892 0.783802 0.795928
O O1 0.931808 0.722776 0.319515
O O2 0.000000 0.735274 0.250000
O O3 0.632338 0.820672 0.112097
O O4 0.050167 0.912669 0.333387
O O5 0.713623 0.330209 0.071490
O O6 0.776981 0.105247 0.108318
O O7 0.554841 0.212823 0.072147
O O8 0.120303 0.331788 0.222992
O O9 0.750000 0.250000 0.000000
O O10 0.770368 0.466181 0.013752
O O11 0.367889 0.399351 0.779504
#
# Coordination Sequence:
#
# PCOD8135178 Si02
#       5
#     8   8   8   8   8
#     4  12  24  36  57  92 123 152 193 246 300 346
#     4  10  19  39  63  85 115 155 202 244 283 350
#     4   8  14  35  63  81 106 151 202 241 274 335
#     4  10  19  37  64  88 112 151 201 249 284 341
#     4  10  19  38  61  84 116 160 194 242 295 344
#
# _framework density 22.658439000000001
#
# number of rings (size 3 to 8) (size 9 to 14) (size 15 to 20)
#    0.000    2.400    6.000    3.600    0.000    4.000 
#    0.000    1.000    0.000    2.400    0.000    0.000 
#    0.000    0.000    0.000    0.000    0.000    0.000 
#
# Total GULP energy -247784.906260 kJ/mol
# GULP energy per Si atom -12389.245313 kJ/mol
# Density = 2.260687 g / cm^3
# Si number density = 22.658439 Si / 1000 Ang^3
#
#
#
# Elastic Constant Matrix: (Units=GPa)
#
#
# Indices 1 2 3 4 5 6 
#
# 1 176.2191 27.4406 3.2660 0.0042 -12.6511 -0.0027
# 2 27.4406 21.2792 9.1357 0.0010 -3.8856 -0.0010
# 3 3.2660 9.1357 41.0481 0.0092 -11.4315 -0.0015
# 4 0.0042 0.0010 0.0092 19.9906 -0.0019 -1.0266
# 5 -12.6511 -3.8856 -11.4315 -0.0019 34.0672 0.0008
# 6 -0.0027 -0.0010 -0.0015 -1.0266 0.0008 17.6438
#
#
#
# Elastic Compliance Matrix: (Units=1/GPa)
#
#
# Indices 1 2 3 4 5 6 
#
# 1 0.007369 -0.010063 0.002312 -0.000002 0.002364 0.000001
# 2 -0.010063 0.065859 -0.014126 0.000005 -0.000965 0.000001
# 3 0.002312 -0.014126 0.029907 -0.000013 0.009283 0.000001
# 4 -0.000002 0.000005 -0.000013 0.050174 -0.000002 0.002919
# 5 0.002364 -0.000965 0.009283 -0.000002 0.033237 0.000000
# 6 0.000001 0.000001 0.000001 0.002919 0.000000 0.056847
#
#
# Mechanical properties :
#
#
# Convention : Reuss Voigt Hill
#
# Bulk Modulus (GPa) = 16.84049 35.35899 26.09974
# Shear Modulus (GPa) = 16.28985 27.58725 21.93855
#
# Velocity S-wave (km/s) = 2.68420 3.49309 3.11501
# Velocity P-wave (km/s) = 4.12977 5.64872 4.94788
#
# Compressibility (1/GPa) = 0.05938069
#
# Stress axis : x y z
#
# Youngs Moduli (GPa) = 135.70993 15.18387 33.43726
#
# Poissons Ratio (x) = 0.15280 -0.07730
# Poissons Ratio (y) = 1.36565 0.47233
# Poissons Ratio (z) = -0.31373 0.21448
#
# Static dielectric constant tensor:
#      x y z
#    x 4.809290 0.000160 -0.527150 
#    y 0.000160 3.709990 -0.000230 
#    z -0.527150 -0.000230 4.373930 
# 
# 
# High freq. dielectric constant tensor:
#      x y z
#    x 1.904740 0.000000 -0.013540 
#    y 0.000000 1.815550 0.000000 
#    z -0.013540 0.000000 1.893920 
# 
# From -- ./inp_files/270034.got.cif
#   From: 2010.06.25/outbox.cif.g09.slc.cpg/sg15_136_cif.got.tgz:270034.got - 2010.06.28 07:06:18.
