data_PCOD8135432
_publ_section_title
;
Structure prediction by ZEFSAII (Michael W. Deem and Ramdas Pophale) SiO2 
 PCOD8135432
Probable space group: C 2/C
;
_chemical_formula_sum "Si O2"
_cell_formula_units_Z 52
_cell_length_a 10.597974
_cell_length_b 27.513511
_cell_length_c 8.962477
_cell_angle_alpha 90.000000
_cell_angle_beta 100.504294
_cell_angle_gamma 90.000000
_cell_volume 2569.549611
_symmetry_space_group_name_H-M "C 2/C"
_symmetry_group_IT_number 15
_symmetry_cell_setting 'monoclinic'
loop_
_space_group_symop_operation_xyz
x,y,z
-x,y,1/2-z
-x,-y,-z
x,-y,1/2+z
1/2+x,1/2+y,z
1/2-x,1/2+y,1/2-z
1/2-x,1/2-y,-z
1/2+x,1/2-y,1/2+z
loop_
_atom_site_type_symbol
_atom_site_label
_atom_site_fract_x
_atom_site_fract_y
_atom_site_fract_z
Si Si1 0.238319 0.872573 0.340972
Si Si2 0.661317 0.770663 0.666013
Si Si3 0.637505 0.196148 0.845970
Si Si4 0.629398 0.470700 0.371464
Si Si5 0.140268 0.364216 0.829383
Si Si6 0.000000 0.188553 0.750000
Si Si7 0.135947 0.936267 0.713088
O O1 0.283305 0.850466 0.194066
O O2 0.220181 0.929861 0.319568
O O3 0.346361 0.865528 0.489873
O O4 0.104045 0.845574 0.356637
O O5 0.633048 0.806505 0.522632
O O6 0.803081 0.747871 0.691419
O O7 0.649439 0.806302 0.803330
O O8 0.564727 0.724719 0.643789
O O9 0.500000 0.192972 0.750000
O O10 0.500000 0.468475 0.250000
O O11 0.610971 0.461444 0.545004
O O12 0.689218 0.523531 0.343240
O O13 0.256623 0.394229 0.776690
O O14 0.000000 0.384614 0.750000
O O15 0.000000 0.915599 0.750000
#
# Coordination Sequence:
#
# PCOD8135432 Si02
#       7
#     8   8   8   8   8   4   8
#     4  10  22  38  63  84 120 158 204 245 306 359
#     4  10  22  36  57  81 116 155 203 242 301 345
#     4  10  22  36  52  85 116 152 198 249 294 361
#     4  10  19  38  62  92 118 156 200 258 301 359
#     4  11  23  41  60  88 124 167 199 247 306 375
#     4  10  20  38  62  88 108 162 206 248 296 350
#     4  10  22  38  62  93 119 157 204 254 306 355
#
# _framework density 20.237010000000001
#
# number of rings (size 3 to 8) (size 9 to 14) (size 15 to 20)
#    0.000    1.846    1.538    2.769    2.154    4.308 
#    5.538    3.846    0.000    0.000    0.000    0.000 
#    0.000    0.000    0.000    0.000    0.000    0.000 
#
# Total GULP energy -322197.363885 kJ/mol
# GULP energy per Si atom -12392.206303 kJ/mol
# Density = 2.019095 g / cm^3
# Si number density = 20.237010 Si / 1000 Ang^3
#
#
#
# Elastic Constant Matrix: (Units=GPa)
#
#
# Indices 1 2 3 4 5 6 
#
# 1 76.2998 24.8874 8.4822 0.0000 5.7056 0.0000
# 2 24.8874 57.3869 6.6383 0.0000 8.8845 0.0000
# 3 8.4822 6.6383 55.2977 0.0000 -1.2758 0.0000
# 4 0.0000 0.0000 0.0000 26.2971 0.0000 -9.7109
# 5 5.7056 8.8845 -1.2758 0.0000 25.8426 0.0000
# 6 0.0000 0.0000 0.0000 -9.7109 0.0000 29.2707
#
#
#
# Elastic Compliance Matrix: (Units=1/GPa)
#
#
# Indices 1 2 3 4 5 6 
#
# 1 0.015444 -0.006303 -0.001643 0.000000 -0.001324 0.000000
# 2 -0.006303 0.021290 -0.001728 0.000000 -0.006013 0.000000
# 3 -0.001643 -0.001728 0.018587 0.000000 0.001874 0.000000
# 4 0.000000 0.000000 0.000000 0.043336 0.000000 0.014377
# 5 -0.001324 -0.006013 0.001874 0.000000 0.041148 0.000000
# 6 0.000000 0.000000 0.000000 0.014377 0.000000 0.038934
#
#
# Mechanical properties :
#
#
# Convention : Reuss Voigt Hill
#
# Bulk Modulus (GPa) = 27.79815 29.88889 28.84352
# Shear Modulus (GPa) = 23.80104 26.21386 25.00745
#
# Velocity S-wave (km/s) = 3.43317 3.60299 3.51911
# Velocity P-wave (km/s) = 5.42970 5.66659 5.54941
#
# Compressibility (1/GPa) = 0.03597362
#
# Stress axis : x y z
#
# Youngs Moduli (GPa) = 64.75182 46.97121 53.80223
#
# Poissons Ratio (x) = 0.29604 0.08839
# Poissons Ratio (y) = 0.40810 0.09296
# Poissons Ratio (z) = 0.10638 0.08115
#
# Static dielectric constant tensor:
#      x y z
#    x 3.790250 0.000000 -0.115800 
#    y 0.000000 4.103250 0.000000 
#    z -0.115800 0.000000 3.872370 
# 
# 
# High freq. dielectric constant tensor:
#      x y z
#    x 1.786530 0.000000 -0.003420 
#    y 0.000000 1.791070 0.000000 
#    z -0.003420 0.000000 1.784210 
# 
# From -- ./inp_files/34831.got.cif
#   From: 2010.06.25/outbox.cif.g09.slc.cpg/sg15_18_cif.got.tgz:34831.got - 2010.06.28 07:06:18.
