data_PCOD8135813
_publ_section_title
;
Structure prediction by ZEFSAII (Michael W. Deem and Ramdas Pophale) SiO2 
 PCOD8135813
Probable space group: C 2/C
;
_chemical_formula_sum "Si O2"
_cell_formula_units_Z 44
_cell_length_a 12.795857
_cell_length_b 6.914102
_cell_length_c 25.875257
_cell_angle_alpha 90.000000
_cell_angle_beta 63.009815
_cell_angle_gamma 90.000000
_cell_volume 2039.898765
_symmetry_space_group_name_H-M "C 2/C"
_symmetry_group_IT_number 15
_symmetry_cell_setting 'monoclinic'
loop_
_space_group_symop_operation_xyz
x,y,z
-x,y,1/2-z
-x,-y,-z
x,-y,1/2+z
1/2+x,1/2+y,z
1/2-x,1/2+y,1/2-z
1/2-x,1/2-y,-z
1/2+x,1/2-y,1/2+z
loop_
_atom_site_type_symbol
_atom_site_label
_atom_site_fract_x
_atom_site_fract_y
_atom_site_fract_z
Si Si1 0.183158 0.641068 0.940796
Si Si2 0.431274 0.639985 0.657386
Si Si3 0.440648 0.204021 0.628735
Si Si4 0.746201 0.417332 0.667391
Si Si5 0.383997 0.099898 0.429874
Si Si6 0.500000 0.564192 0.750000
O O1 0.075864 0.720131 0.929955
O O2 0.249183 0.464902 0.895503
O O3 0.266716 0.828078 0.928615
O O4 0.138633 0.558166 0.004839
O O5 0.440997 0.409084 0.655815
O O6 0.518052 0.732015 0.595748
O O7 0.472942 0.699855 0.706210
O O8 0.299819 0.708831 0.671724
O O9 0.331219 0.078255 0.676049
O O10 0.564957 0.092841 0.609454
O O11 0.613198 0.427338 0.716357
#
# Coordination Sequence:
#
# PCOD8135813 Si02
#       6
#     8   8   8   8   8   4
#     4   9  19  39  61  91 130 162 199 258 326 372
#     4  11  23  40  64  89 124 163 221 259 317 383
#     4   9  21  38  60  91 120 162 208 252 319 380
#     4   9  23  41  60  90 126 159 211 265 317 381
#     4  10  19  40  62  90 130 162 201 262 315 385
#     4  12  24  44  64  88 124 172 214 276 316 372
#
# _framework density 21.569697999999999
#
# number of rings (size 3 to 8) (size 9 to 14) (size 15 to 20)
#    1.091    1.091    1.818    0.545    2.545    2.182 
#    0.000    6.364    0.000    0.000    0.000    0.000 
#    0.000    0.000    0.000    0.000    0.000    0.000 
#
# Total GULP energy -272568.126130 kJ/mol
# GULP energy per Si atom -12389.460279 kJ/mol
# Density = 2.152060 g / cm^3
# Si number density = 21.569698 Si / 1000 Ang^3
#
#
#
# Elastic Constant Matrix: (Units=GPa)
#
#
# Indices 1 2 3 4 5 6 
#
# 1 84.9382 36.2539 43.7462 0.0000 -7.8128 0.0000
# 2 36.2539 112.0081 44.5020 0.0001 -6.3915 0.0000
# 3 43.7462 44.5020 107.4740 0.0000 -15.1202 0.0000
# 4 0.0000 0.0001 0.0000 12.6994 0.0000 -4.8120
# 5 -7.8128 -6.3915 -15.1202 0.0000 38.6706 0.0000
# 6 0.0000 0.0000 0.0000 -4.8120 0.0000 33.9783
#
#
#
# Elastic Compliance Matrix: (Units=1/GPa)
#
#
# Indices 1 2 3 4 5 6 
#
# 1 0.015737 -0.003050 -0.005044 0.000000 0.000703 0.000000
# 2 -0.003050 0.011277 -0.003442 0.000000 -0.000098 0.000000
# 3 -0.005044 -0.003442 0.013291 0.000000 0.003609 0.000000
# 4 0.000000 0.000000 0.000000 0.083209 0.000000 0.011784
# 5 0.000703 -0.000098 0.003609 0.000000 0.027396 0.000000
# 6 0.000000 0.000000 0.000000 0.011784 0.000000 0.031099
#
#
# Mechanical properties :
#
#
# Convention : Reuss Voigt Hill
#
# Bulk Modulus (GPa) = 58.02564 61.49163 59.75863
# Shear Modulus (GPa) = 23.71632 29.06422 26.39027
#
# Velocity S-wave (km/s) = 3.31950 3.67475 3.50163
# Velocity P-wave (km/s) = 6.45383 6.82461 6.64181
#
# Compressibility (1/GPa) = 0.01723376
#
# Stress axis : x y z
#
# Youngs Moduli (GPa) = 63.54258 88.67670 75.24097
#
# Poissons Ratio (x) = 0.27043 0.37952
# Poissons Ratio (y) = 0.19378 0.25898
# Poissons Ratio (z) = 0.32051 0.30522
#
# Static dielectric constant tensor:
#      x y z
#    x 3.956600 0.000000 0.013270 
#    y 0.000000 3.505450 0.000000 
#    z 0.013270 0.000000 3.793960 
# 
# 
# High freq. dielectric constant tensor:
#      x y z
#    x 1.849590 0.000000 -0.004860 
#    y 0.000000 1.811790 0.000000 
#    z -0.004860 0.000000 1.841220 
# 
# From -- ./inp_files/312028.got.cif
#   From: 2010.06.25/outbox.cif.g09.slc.cpg/sg15_157_cif.got.tgz:312028.got - 2010.06.28 07:06:18.
