data_PCOD8135584
_publ_section_title
;
Structure prediction by ZEFSAII (Michael W. Deem and Ramdas Pophale) SiO2 
 PCOD8135584
Probable space group: C 2/C
;
_chemical_formula_sum "Si O2"
_cell_formula_units_Z 52
_cell_length_a 7.976104
_cell_length_b 21.218157
_cell_length_c 14.332249
_cell_angle_alpha 90.000000
_cell_angle_beta 78.350373
_cell_angle_gamma 90.000000
_cell_volume 2375.599522
_symmetry_space_group_name_H-M "C 2/C"
_symmetry_group_IT_number 15
_symmetry_cell_setting 'monoclinic'
loop_
_space_group_symop_operation_xyz
x,y,z
-x,y,1/2-z
-x,-y,-z
x,-y,1/2+z
1/2+x,1/2+y,z
1/2-x,1/2+y,1/2-z
1/2-x,1/2-y,-z
1/2+x,1/2-y,1/2+z
loop_
_atom_site_type_symbol
_atom_site_label
_atom_site_fract_x
_atom_site_fract_y
_atom_site_fract_z
Si Si1 0.446897 0.116826 0.120042
Si Si2 0.664902 0.105703 0.562245
Si Si3 0.796442 0.310109 0.272829
Si Si4 0.255785 0.969023 0.961508
Si Si5 0.322084 0.549274 0.229450
Si Si6 0.500000 0.216406 0.250000
Si Si7 0.207788 0.426847 0.343683
O O1 0.548375 0.053188 0.079915
O O2 0.314078 0.098340 0.215508
O O3 0.555946 0.173552 0.154011
O O4 0.363692 0.141680 0.032848
O O5 0.747471 0.156280 0.623407
O O6 0.496808 0.074214 0.626826
O O7 0.779386 0.043918 0.528588
O O8 0.669380 0.252510 0.267009
O O9 0.741570 0.357789 0.196950
O O10 0.000000 0.290925 0.250000
O O11 0.152136 0.942858 0.884683
O O12 0.199011 0.939466 0.067196
O O13 0.500000 0.569975 0.250000
O O14 0.267732 0.477947 0.261026
#
# Coordination Sequence:
#
# PCOD8135584 Si02
#       7
#     8   8   8   8   8   4   8
#     4  11  22  42  66  93 121 168 218 263 328 385
#     4  10  19  38  72  94 123 161 215 270 329 384
#     4  10  24  43  64  94 130 178 224 268 312 381
#     4  11  19  38  68  97 122 163 207 265 334 393
#     4  12  23  34  59 101 135 159 197 268 334 391
#     4  12  26  44  68  86 134 182 224 264 312 388
#     4  10  20  37  63  97 129 157 206 264 328 383
#
# _framework density 21.889211
#
# number of rings (size 3 to 8) (size 9 to 14) (size 15 to 20)
#    0.000    1.231    6.154    0.923    1.077    1.846 
#    2.769    6.923    0.000    0.000    0.000    0.000 
#    0.000    0.000    0.000    0.000    0.000    0.000 
#
# Total GULP energy -322158.571845 kJ/mol
# GULP energy per Si atom -12390.714302 kJ/mol
# Density = 2.183939 g / cm^3
# Si number density = 21.889211 Si / 1000 Ang^3
#
#
#
# Elastic Constant Matrix: (Units=GPa)
#
#
# Indices 1 2 3 4 5 6 
#
# 1 72.3569 35.6563 27.6139 0.0000 23.2565 0.0000
# 2 35.6563 100.8896 46.9956 0.0000 10.9002 0.0000
# 3 27.6139 46.9956 137.6322 0.0000 43.3223 0.0000
# 4 0.0000 0.0000 0.0000 26.0382 0.0000 14.8124
# 5 23.2565 10.9002 43.3223 0.0000 29.6633 0.0000
# 6 0.0000 0.0000 0.0000 14.8124 0.0000 26.0976
#
#
#
# Elastic Compliance Matrix: (Units=1/GPa)
#
#
# Indices 1 2 3 4 5 6 
#
# 1 0.023244 -0.008247 0.005432 0.000000 -0.023127 0.000000
# 2 -0.008247 0.014845 -0.006908 0.000000 0.011100 0.000000
# 3 0.005432 -0.006908 0.016799 0.000000 -0.026254 0.000000
# 4 0.000000 0.000000 0.000000 0.056718 0.000000 -0.032192
# 5 -0.023127 0.011100 -0.026254 0.000000 0.086108 0.000000
# 6 0.000000 0.000000 0.000000 -0.032192 0.000000 0.056589
#
#
# Mechanical properties :
#
#
# Convention : Reuss Voigt Hill
#
# Bulk Modulus (GPa) = 28.21508 59.04561 43.63035
# Shear Modulus (GPa) = 17.50923 29.73401 23.62162
#
# Velocity S-wave (km/s) = 2.83132 3.68963 3.28860
# Velocity P-wave (km/s) = 4.85865 6.72194 5.86476
#
# Compressibility (1/GPa) = 0.03544203
#
# Stress axis : x y z
#
# Youngs Moduli (GPa) = 43.02111 67.36259 59.52813
#
# Poissons Ratio (x) = 0.55551 -0.32334
# Poissons Ratio (y) = 0.35478 0.41123
# Poissons Ratio (z) = -0.23368 0.46536
#
# Static dielectric constant tensor:
#      x y z
#    x 3.628490 0.000000 0.267530 
#    y 0.000000 3.803740 0.000000 
#    z 0.267530 0.000000 4.419420 
# 
# 
# High freq. dielectric constant tensor:
#      x y z
#    x 1.833390 0.000000 0.026630 
#    y 0.000000 1.837050 0.000000 
#    z 0.026630 0.000000 1.880320 
# 
# From -- ./inp_files/135997.got.cif
#   From: 2010.06.25/outbox.cif.g09.slc.cpg/sg15_68_cif.got.tgz:135997.got - 2010.06.28 07:06:18.
