data_PCOD8135142
_publ_section_title
;
Structure prediction by ZEFSAII (Michael W. Deem and Ramdas Pophale) SiO2 
 PCOD8135142
Probable space group: C 2/C
;
_chemical_formula_sum "Si O2"
_cell_formula_units_Z 44
_cell_length_a 25.870933
_cell_length_b 13.499135
_cell_length_c 15.817857
_cell_angle_alpha 90.000000
_cell_angle_beta 21.277702
_cell_angle_gamma 90.000000
_cell_volume 2004.652122
_symmetry_space_group_name_H-M "C 2/C"
_symmetry_group_IT_number 15
_symmetry_cell_setting 'monoclinic'
loop_
_space_group_symop_operation_xyz
x,y,z
-x,y,1/2-z
-x,-y,-z
x,-y,1/2+z
1/2+x,1/2+y,z
1/2-x,1/2+y,1/2-z
1/2-x,1/2-y,-z
1/2+x,1/2-y,1/2+z
loop_
_atom_site_type_symbol
_atom_site_label
_atom_site_fract_x
_atom_site_fract_y
_atom_site_fract_z
Si Si1 0.034594 0.783128 0.794231
Si Si2 0.500000 0.689798 0.750000
Si Si3 0.173223 0.384456 0.177383
Si Si4 0.959018 0.716860 0.477359
Si Si5 0.564900 0.392442 0.407403
Si Si6 0.243217 0.395865 0.536358
O O1 0.050202 0.674019 0.812565
O O2 0.176994 0.847132 0.584886
O O3 0.000000 0.766622 0.750000
O O4 0.916135 0.849905 0.025140
O O5 0.579779 0.761590 0.561073
O O6 0.618091 0.620745 0.615606
O O7 0.147217 0.362108 0.317304
O O8 0.164521 0.501395 0.177553
O O9 0.945556 0.820088 0.548408
O O10 0.126196 0.688166 0.229057
O O11 0.500000 0.500000 0.500000
O O12 0.711908 0.392762 0.130706
#
# Coordination Sequence:
#
# PCOD8135142 Si02
#       6
#     8   4   8   8   8   8
#     4  10  22  39  64  93 125 165 213 258 309 374
#     4  10  22  40  62  94 120 172 214 248 304 382
#     4  10  22  40  64  93 127 164 203 264 317 362
#     4  10  23  40  61  91 131 161 202 262 318 366
#     4  10  19  37  63  88 121 162 204 257 302 362
#     4  11  22  41  67  91 129 162 213 259 314 371
#
# _framework density 21.948945999999999
#
# number of rings (size 3 to 8) (size 9 to 14) (size 15 to 20)
#    0.000    1.818    1.818    2.727    1.273    4.364 
#    1.636    0.000    8.000    0.000    0.000    0.000 
#    0.000    0.000    0.000    0.000    0.000    0.000 
#
# Total GULP energy -272673.822091 kJ/mol
# GULP energy per Si atom -12394.264640 kJ/mol
# Density = 2.189899 g / cm^3
# Si number density = 21.948946 Si / 1000 Ang^3
#
#
#
# Elastic Constant Matrix: (Units=GPa)
#
#
# Indices 1 2 3 4 5 6 
#
# 1 119.5829 53.0732 33.7583 0.0000 35.2097 0.0000
# 2 53.0732 122.9415 43.5894 -0.0001 15.4094 0.0001
# 3 33.7583 43.5894 99.6163 -0.0001 34.2898 0.0001
# 4 0.0000 -0.0001 -0.0001 37.3473 0.0001 10.5157
# 5 35.2097 15.4094 34.2898 0.0001 45.5440 0.0000
# 6 0.0000 0.0001 0.0001 10.5157 0.0000 20.5571
#
#
#
# Elastic Compliance Matrix: (Units=1/GPa)
#
#
# Indices 1 2 3 4 5 6 
#
# 1 0.012864 -0.004709 0.000777 0.000000 -0.008937 0.000000
# 2 -0.004709 0.011352 -0.004458 0.000000 0.003156 0.000000
# 3 0.000777 -0.004458 0.015406 0.000000 -0.010692 0.000000
# 4 0.000000 0.000000 0.000000 0.031281 0.000000 -0.016001
# 5 -0.008937 0.003156 -0.010692 0.000000 0.035848 0.000000
# 6 0.000000 0.000000 0.000000 -0.016001 0.000000 0.056830
#
#
# Mechanical properties :
#
#
# Convention : Reuss Voigt Hill
#
# Bulk Modulus (GPa) = 43.77601 66.99806 55.38703
# Shear Modulus (GPa) = 26.59931 34.80433 30.70182
#
# Velocity S-wave (km/s) = 3.48497 3.98640 3.74409
# Velocity P-wave (km/s) = 6.01508 7.19578 6.63176
#
# Compressibility (1/GPa) = 0.02284356
#
# Stress axis : x y z
#
# Youngs Moduli (GPa) = 77.73419 88.09240 64.90974
#
# Poissons Ratio (x) = 0.41482 -0.05046
# Poissons Ratio (y) = 0.36604 0.28935
# Poissons Ratio (z) = -0.06043 0.39269
#
# Static dielectric constant tensor:
#      x y z
#    x 3.879510 0.000000 0.535450 
#    y 0.000000 3.970480 0.000000 
#    z 0.535450 0.000000 4.085590 
# 
# 
# High freq. dielectric constant tensor:
#      x y z
#    x 1.843210 0.000000 0.040970 
#    y 0.000000 1.867960 0.000000 
#    z 0.040970 0.000000 1.865330 
# 
# From -- ./inp_files/225374.got.cif
#   From: 2010.06.25/outbox.cif.g09.slc.cpg/sg15_113_cif.got.tgz:225374.got - 2010.06.28 07:06:18.
