data_PCOD8135560
_publ_section_title
;
Structure prediction by ZEFSAII (Michael W. Deem and Ramdas Pophale) SiO2 
 PCOD8135560
Probable space group: C 2/C
;
_chemical_formula_sum "Si O2"
_cell_formula_units_Z 48
_cell_length_a 11.095330
_cell_length_b 15.815710
_cell_length_c 20.203113
_cell_angle_alpha 90.000000
_cell_angle_beta 137.262469
_cell_angle_gamma 90.000000
_cell_volume 2405.953636
_symmetry_space_group_name_H-M "C 2/C"
_symmetry_group_IT_number 15
_symmetry_cell_setting 'monoclinic'
loop_
_space_group_symop_operation_xyz
x,y,z
-x,y,1/2-z
-x,-y,-z
x,-y,1/2+z
1/2+x,1/2+y,z
1/2-x,1/2+y,1/2-z
1/2-x,1/2-y,-z
1/2+x,1/2-y,1/2+z
loop_
_atom_site_type_symbol
_atom_site_label
_atom_site_fract_x
_atom_site_fract_y
_atom_site_fract_z
Si Si1 0.611169 0.725453 0.653085
Si Si2 0.662467 0.130928 0.854752
Si Si3 0.006308 0.338454 0.495839
Si Si4 0.195268 0.932329 0.954542
Si Si5 0.525151 0.728168 0.140318
Si Si6 0.380238 0.602696 0.640179
O O1 0.680238 0.650976 0.632930
O O2 0.532513 0.804279 0.580592
O O3 0.766358 0.761561 0.762456
O O4 0.457322 0.686557 0.636552
O O5 0.500000 0.085226 0.750000
O O6 0.590350 0.220755 0.852775
O O7 0.728032 0.070510 0.939891
O O8 0.027000 0.260732 0.453419
O O9 0.814164 0.379154 0.410282
O O10 0.151192 0.409671 0.536415
O O11 0.028930 0.869591 0.877959
O O12 0.125410 0.026301 0.914323
O O13 0.500000 0.574439 0.750000
#
# Coordination Sequence:
#
# PCOD8135560 Si02
#       6
#     8   8   8   8   8   8
#     4  11  21  39  66  86 125 166 200 243 302 376
#     4   9  18  35  64  91 113 157 208 253 294 353
#     4  11  21  43  65  87 121 166 209 242 295 375
#     4  11  22  40  66  96 120 153 209 262 297 355
#     4  10  19  38  67  95 114 153 216 253 287 363
#     4  12  27  40  57  93 135 159 190 256 324 351
#
# _framework density 19.950510000000001
#
# number of rings (size 3 to 8) (size 9 to 14) (size 15 to 20)
#    0.000    1.333    5.000    2.000    2.333    0.667 
#    0.000    0.000    0.000    0.000    0.000    0.000 
#    0.000    0.000    0.000    0.000    0.000    0.000 
#
# Total GULP energy -297720.568965 kJ/mol
# GULP energy per Si atom -12405.023707 kJ/mol
# Density = 1.990510 g / cm^3
# Si number density = 19.950510 Si / 1000 Ang^3
#
#
#
# Elastic Constant Matrix: (Units=GPa)
#
#
# Indices 1 2 3 4 5 6 
#
# 1 59.4414 24.7707 19.3936 0.0000 7.3207 0.0000
# 2 24.7707 50.7799 34.5950 0.0000 9.5983 0.0000
# 3 19.3936 34.5950 121.3600 0.0000 -3.6340 0.0000
# 4 0.0000 0.0000 0.0000 22.2345 0.0000 -5.4352
# 5 7.3207 9.5983 -3.6340 0.0000 34.2625 0.0000
# 6 0.0000 0.0000 0.0000 -5.4352 0.0000 15.5747
#
#
#
# Elastic Compliance Matrix: (Units=1/GPa)
#
#
# Indices 1 2 3 4 5 6 
#
# 1 0.021265 -0.009490 -0.000752 0.000000 -0.001965 0.000000
# 2 -0.009490 0.030825 -0.007492 0.000000 -0.007402 0.000000
# 3 -0.000752 -0.007492 0.010597 0.000000 0.003384 0.000000
# 4 0.000000 0.000000 0.000000 0.049169 0.000000 0.017159
# 5 -0.001965 -0.007402 0.003384 0.000000 0.032039 0.000000
# 6 0.000000 0.000000 0.000000 0.017159 0.000000 0.070195
#
#
# Mechanical properties :
#
#
# Convention : Reuss Voigt Hill
#
# Bulk Modulus (GPa) = 36.73757 43.23333 39.98545
# Shear Modulus (GPa) = 19.33249 24.60248 21.96749
#
# Velocity S-wave (km/s) = 3.11629 3.51547 3.32188
# Velocity P-wave (km/s) = 5.60381 6.18024 5.89907
#
# Compressibility (1/GPa) = 0.02722009
#
# Stress axis : x y z
#
# Youngs Moduli (GPa) = 47.02526 32.44078 94.36461
#
# Poissons Ratio (x) = 0.30785 0.07096
# Poissons Ratio (y) = 0.44625 0.70701
# Poissons Ratio (z) = 0.03536 0.24306
#
# Static dielectric constant tensor:
#      x y z
#    x 3.510900 0.000000 -0.011380 
#    y 0.000000 3.167230 0.000000 
#    z -0.011380 0.000000 3.904320 
# 
# 
# High freq. dielectric constant tensor:
#      x y z
#    x 1.774200 0.000000 0.000750 
#    y 0.000000 1.740060 0.000000 
#    z 0.000750 0.000000 1.799600 
# 
# From -- ./inp_files/143447.got.cif
#   From: 2010.06.25/outbox.cif.g09.slc.cpg/sg15_72_cif.got.tgz:143447.got - 2010.06.28 07:06:18.
