data_PCOD8135867
_publ_section_title
;
Structure prediction by ZEFSAII (Michael W. Deem and Ramdas Pophale) SiO2 
 PCOD8135867
Probable space group: C 2/C
;
_chemical_formula_sum "Si O2"
_cell_formula_units_Z 52
_cell_length_a 25.887446
_cell_length_b 11.274259
_cell_length_c 15.236386
_cell_angle_alpha 90.000000
_cell_angle_beta 143.152604
_cell_angle_gamma 90.000000
_cell_volume 2666.753813
_symmetry_space_group_name_H-M "C 2/C"
_symmetry_group_IT_number 15
_symmetry_cell_setting 'monoclinic'
loop_
_space_group_symop_operation_xyz
x,y,z
-x,y,1/2-z
-x,-y,-z
x,-y,1/2+z
1/2+x,1/2+y,z
1/2-x,1/2+y,1/2-z
1/2-x,1/2-y,-z
1/2+x,1/2-y,1/2+z
loop_
_atom_site_type_symbol
_atom_site_label
_atom_site_fract_x
_atom_site_fract_y
_atom_site_fract_z
Si Si1 0.723803 0.993363 0.577788
Si Si2 0.847320 0.293225 0.116647
Si Si3 0.361344 0.210228 0.969558
Si Si4 0.863076 0.034997 0.116169
Si Si5 0.092854 0.560233 0.635750
Si Si6 0.000000 0.135608 0.750000
Si Si7 0.741886 0.436753 0.682400
O O1 0.658049 0.882686 0.473521
O O2 0.794953 0.997091 0.598884
O O3 0.769087 0.985035 0.733768
O O4 0.666568 0.112595 0.496510
O O5 0.898293 0.170890 0.167678
O O6 0.894064 0.365442 0.257586
O O7 0.750000 0.250000 0.000000
O O8 0.388004 0.152471 0.914767
O O9 0.280316 0.297953 0.848035
O O10 0.443688 0.281544 0.112446
O O11 0.943619 0.947438 0.237702
O O12 0.821792 0.014090 0.964425
O O13 0.161351 0.452933 0.722624
O O14 0.000000 0.500000 0.500000
#
# Coordination Sequence:
#
# PCOD8135867 Si02
#       7
#     8   8   8   8   8   4   8
#     4  10  21  36  68  88 113 167 213 249 317 374
#     4  10  19  40  67  83 121 163 213 253 310 387
#     4  10  23  39  60  88 131 164 209 256 323 388
#     4  10  21  42  64  90 123 164 216 259 315 387
#     4  11  23  40  63 100 129 162 214 280 320 374
#     4  10  24  40  58  90 132 160 200 270 322 380
#     4  10  21  40  63  92 123 166 212 260 314 389
#
# _framework density 19.499361
#
# number of rings (size 3 to 8) (size 9 to 14) (size 15 to 20)
#    0.000    1.846    3.077    1.846    4.308    3.692 
#    5.538    6.923    0.000    0.000    0.000    0.000 
#    0.000    0.000    0.000    0.000    0.000    0.000 
#
# Total GULP energy -322285.145125 kJ/mol
# GULP energy per Si atom -12395.582505 kJ/mol
# Density = 1.945498 g / cm^3
# Si number density = 19.499361 Si / 1000 Ang^3
#
#
#
# Elastic Constant Matrix: (Units=GPa)
#
#
# Indices 1 2 3 4 5 6 
#
# 1 88.3425 63.4347 53.2796 0.0000 -13.1234 0.0000
# 2 63.4347 166.4765 77.5259 0.0000 3.1924 0.0000
# 3 53.2796 77.5259 114.9825 0.0000 0.8690 0.0000
# 4 0.0000 0.0000 0.0000 33.8549 0.0000 0.0607
# 5 -13.1234 3.1924 0.8690 0.0000 33.6539 0.0000
# 6 0.0000 0.0000 0.0000 0.0607 0.0000 36.1817
#
#
#
# Elastic Compliance Matrix: (Units=1/GPa)
#
#
# Indices 1 2 3 4 5 6 
#
# 1 0.019584 -0.004906 -0.005829 0.000000 0.008253 0.000000
# 2 -0.004906 0.010001 -0.004449 0.000000 -0.002747 0.000000
# 3 -0.005829 -0.004449 0.014414 0.000000 -0.002223 0.000000
# 4 0.000000 0.000000 0.000000 0.029538 0.000000 -0.000050
# 5 0.008253 -0.002747 -0.002223 0.000000 0.033250 0.000000
# 6 0.000000 0.000000 0.000000 -0.000050 0.000000 0.027638
#
#
# Mechanical properties :
#
#
# Convention : Reuss Voigt Hill
#
# Bulk Modulus (GPa) = 73.36195 84.25355 78.80775
# Shear Modulus (GPa) = 29.52688 32.44218 30.98453
#
# Velocity S-wave (km/s) = 3.89556 4.08334 3.99055
# Velocity P-wave (km/s) = 7.61172 8.09529 7.85722
#
# Compressibility (1/GPa) = 0.01363104
#
# Stress axis : x y z
#
# Youngs Moduli (GPa) = 51.06240 99.99332 69.37501
#
# Poissons Ratio (x) = 0.49057 0.40440
# Poissons Ratio (y) = 0.25051 0.30864
# Poissons Ratio (z) = 0.29765 0.44485
#
# Static dielectric constant tensor:
#      x y z
#    x 3.494280 0.000000 0.016420 
#    y 0.000000 4.240100 0.000000 
#    z 0.016420 0.000000 3.690640 
# 
# 
# High freq. dielectric constant tensor:
#      x y z
#    x 1.743760 0.000000 -0.009210 
#    y 0.000000 1.780480 0.000000 
#    z -0.009210 0.000000 1.758150 
# 
# From -- ./inp_files/173193.got.cif
#   From: 2010.06.25/outbox.cif.g09.slc.cpg/sg15_87_cif.got.tgz:173193.got - 2010.06.28 07:06:18.
