data_PCOD8135058
_publ_section_title
;
Structure prediction by ZEFSAII (Michael W. Deem and Ramdas Pophale) SiO2 
 PCOD8135058
Probable space group: C 2/C
;
_chemical_formula_sum "Si O2"
_cell_formula_units_Z 60
_cell_length_a 16.884666
_cell_length_b 5.890969
_cell_length_c 28.526758
_cell_angle_alpha 90.000000
_cell_angle_beta 82.331217
_cell_angle_gamma 90.000000
_cell_volume 2812.094092
_symmetry_space_group_name_H-M "C 2/C"
_symmetry_group_IT_number 15
_symmetry_cell_setting 'monoclinic'
loop_
_space_group_symop_operation_xyz
x,y,z
-x,y,1/2-z
-x,-y,-z
x,-y,1/2+z
1/2+x,1/2+y,z
1/2-x,1/2+y,1/2-z
1/2-x,1/2-y,-z
1/2+x,1/2-y,1/2+z
loop_
_atom_site_type_symbol
_atom_site_label
_atom_site_fract_x
_atom_site_fract_y
_atom_site_fract_z
Si Si1 0.000000 0.777351 0.250000
Si Si2 0.643358 0.142920 0.047926
Si Si3 0.642959 0.350195 0.877327
Si Si4 0.218344 0.658237 0.617488
Si Si5 0.998105 0.821665 0.101138
Si Si6 0.084117 0.911446 0.672673
Si Si7 0.044322 0.544659 0.825307
Si Si8 0.713017 0.031012 0.949075
O O1 0.944989 0.626904 0.219286
O O2 0.933101 0.935157 0.280249
O O3 0.552287 0.239664 0.052997
O O4 0.703476 0.354282 0.043981
O O5 0.653139 0.990042 0.094154
O O6 0.659565 0.995680 0.999923
O O7 0.720701 0.499900 0.857989
O O8 0.571971 0.502957 0.905090
O O9 0.615606 0.225024 0.830881
O O10 0.663288 0.177918 0.916521
O O11 0.176217 0.832083 0.657598
O O12 0.271189 0.786387 0.574427
O O13 0.960245 0.598768 0.126993
O O14 0.061795 0.939337 0.130095
O O15 0.035622 0.679179 0.680482
#
# Coordination Sequence:
#
# PCOD8135058 Si02
#       8
#     4   8   8   8   8   8   8   8
#     4  10  22  36  68 106 108 142 204 268 304 366
#     4  10  20  35  61  88 127 167 217 251 291 345
#     4  10  23  36  59  92 126 166 197 246 317 354
#     4  11  20  38  61  94 124 168 202 248 304 364
#     4  10  19  37  60  90 119 166 202 250 299 359
#     4  10  20  36  65  98 115 151 206 252 306 364
#     4  10  20  40  61  96 120 150 199 257 304 372
#     4  10  21  37  55  93 128 167 210 256 291 351
#
# _framework density 21.336411999999999
#
# number of rings (size 3 to 8) (size 9 to 14) (size 15 to 20)
#    0.000    1.867    2.667    1.600    0.000    0.533 
#    0.000    2.667    0.000    0.000  156.000    0.000 
#    0.000    0.000    0.000    0.000    0.000    0.000 
#
# Total GULP energy -371851.068089 kJ/mol
# GULP energy per Si atom -12395.035603 kJ/mol
# Density = 2.128785 g / cm^3
# Si number density = 21.336412 Si / 1000 Ang^3
#
#
#
# Elastic Constant Matrix: (Units=GPa)
#
#
# Indices 1 2 3 4 5 6 
#
# 1 95.1998 33.3898 32.7103 0.0000 -3.1803 0.0000
# 2 33.3898 89.4311 22.7182 0.0000 -3.6422 0.0000
# 3 32.7103 22.7182 83.6331 0.0000 -12.4897 0.0000
# 4 0.0000 0.0000 0.0000 27.9094 0.0000 -0.3396
# 5 -3.1803 -3.6422 -12.4897 0.0000 20.5860 0.0000
# 6 0.0000 0.0000 0.0000 -0.3396 0.0000 32.1312
#
#
#
# Elastic Compliance Matrix: (Units=1/GPa)
#
#
# Indices 1 2 3 4 5 6 
#
# 1 0.013329 -0.003927 -0.004336 0.000000 -0.001266 0.000000
# 2 -0.003927 0.013168 -0.001962 0.000000 0.000533 0.000000
# 3 -0.004336 -0.001962 0.015432 0.000000 0.008346 0.000000
# 4 0.000000 0.000000 0.000000 0.035835 0.000000 0.000379
# 5 -0.001266 0.000533 0.008346 0.000000 0.053539 0.000000
# 6 0.000000 0.000000 0.000000 0.000379 0.000000 0.031126
#
#
# Mechanical properties :
#
#
# Convention : Reuss Voigt Hill
#
# Bulk Modulus (GPa) = 46.55257 49.54450 48.04854
# Shear Modulus (GPa) = 26.31073 28.08837 27.19955
#
# Velocity S-wave (km/s) = 3.51542 3.63223 3.57430
# Velocity P-wave (km/s) = 6.19219 6.39233 6.29306
#
# Compressibility (1/GPa) = 0.02148109
#
# Stress axis : x y z
#
# Youngs Moduli (GPa) = 75.02546 75.94271 64.80090
#
# Poissons Ratio (x) = 0.29820 0.28095
# Poissons Ratio (y) = 0.29460 0.12711
# Poissons Ratio (z) = 0.32528 0.14897
#
# Static dielectric constant tensor:
#      x y z
#    x 3.692920 0.000000 -0.051110 
#    y 0.000000 4.142890 0.000000 
#    z -0.051110 0.000000 3.692210 
# 
# 
# High freq. dielectric constant tensor:
#      x y z
#    x 1.818310 0.000000 -0.007230 
#    y 0.000000 1.858680 0.000000 
#    z -0.007230 0.000000 1.807940 
# 
# From -- ./inp_files/314880.got.cif
#   From: 2010.06.25/outbox.cif.g09.slc.cpg/sg15_158_cif.got.tgz:314880.got - 2010.06.28 07:06:18.
