data_PCOD8135189
_publ_section_title
;
Structure prediction by ZEFSAII (Michael W. Deem and Ramdas Pophale) SiO2 
 PCOD8135189
Probable space group: C 2/C
;
_chemical_formula_sum "Si O2"
_cell_formula_units_Z 44
_cell_length_a 7.039114
_cell_length_b 28.224319
_cell_length_c 14.568136
_cell_angle_alpha 90.000000
_cell_angle_beta 37.216031
_cell_angle_gamma 90.000000
_cell_volume 1750.543897
_symmetry_space_group_name_H-M "C 2/C"
_symmetry_group_IT_number 15
_symmetry_cell_setting 'monoclinic'
loop_
_space_group_symop_operation_xyz
x,y,z
-x,y,1/2-z
-x,-y,-z
x,-y,1/2+z
1/2+x,1/2+y,z
1/2-x,1/2+y,1/2-z
1/2-x,1/2-y,-z
1/2+x,1/2-y,1/2+z
loop_
_atom_site_type_symbol
_atom_site_label
_atom_site_fract_x
_atom_site_fract_y
_atom_site_fract_z
Si Si1 0.109822 0.855423 0.489357
Si Si2 0.000000 0.428591 0.250000
Si Si3 0.174730 0.753495 0.424177
Si Si4 0.789779 0.394314 0.704905
Si Si5 0.674716 0.001405 0.839178
Si Si6 0.656466 0.838093 0.426730
O O1 0.192042 0.896376 0.384437
O O2 0.057270 0.807278 0.449722
O O3 0.406932 0.850088 0.443171
O O4 0.790658 0.869499 0.666299
O O5 0.973615 0.460743 0.170935
O O6 0.500000 0.740177 0.250000
O O7 0.250000 0.750000 0.500000
O O8 0.902702 0.714881 0.508869
O O9 0.500000 0.383309 0.750000
O O10 0.820540 0.450240 0.711513
O O11 0.103457 0.373191 0.535162
O O12 0.000000 0.021012 0.750000
O O13 0.500000 0.000000 0.000000
O O14 0.000000 0.842723 0.250000
#
# Coordination Sequence:
#
# PCOD8135189 Si02
#       6
#     8   4   8   8   8   8
#     4  10  21  39  63  94 129 181 233 278 345 430
#     4  12  24  42  76 102 140 188 244 298 356 422
#     4  10  19  37  64  91 126 179 230 275 340 427
#     4   9  19  39  62  90 132 178 224 280 347 422
#     4  11  25  44  70 104 140 184 242 296 358 426
#     4  10  20  37  65  97 132 176 228 289 349 407
#
# _framework density 25.135045000000002
#
# number of rings (size 3 to 8) (size 9 to 14) (size 15 to 20)
#    0.000    1.818    0.909    6.000    0.000    5.818 
#    0.000    8.182    6.000    0.000    0.000    0.000 
#    0.000    0.000    0.000    0.000    0.000    0.000 
#
# Total GULP energy -272719.194776 kJ/mol
# GULP energy per Si atom -12396.327035 kJ/mol
# Density = 2.507784 g / cm^3
# Si number density = 25.135045 Si / 1000 Ang^3
#
#
#
# Elastic Constant Matrix: (Units=GPa)
#
#
# Indices 1 2 3 4 5 6 
#
# 1 28.8669 29.0965 32.8219 0.0000 12.9782 0.0000
# 2 29.0965 145.1895 51.1072 0.0000 9.4846 0.0000
# 3 32.8219 51.1072 216.4876 0.0000 12.7177 0.0000
# 4 0.0000 0.0000 0.0000 47.0818 0.0000 7.7261
# 5 12.9782 9.4846 12.7177 0.0000 38.9593 0.0000
# 6 0.0000 0.0000 0.0000 7.7261 0.0000 22.8231
#
#
#
# Elastic Compliance Matrix: (Units=1/GPa)
#
#
# Indices 1 2 3 4 5 6 
#
# 1 0.056107 -0.008276 -0.005682 0.000000 -0.014821 0.000000
# 2 -0.008276 0.008795 -0.000875 0.000000 0.000901 0.000000
# 3 -0.005682 -0.000875 0.005672 0.000000 0.000254 0.000000
# 4 0.000000 0.000000 0.000000 0.022489 0.000000 -0.007613
# 5 -0.014821 0.000901 0.000254 0.000000 0.030303 0.000000
# 6 0.000000 0.000000 0.000000 -0.007613 0.000000 0.046392
#
#
# Mechanical properties :
#
#
# Convention : Reuss Voigt Hill
#
# Bulk Modulus (GPa) = 24.44410 68.51057 46.47734
# Shear Modulus (GPa) = 23.46760 40.27409 31.87084
#
# Velocity S-wave (km/s) = 3.05890 4.00723 3.56474
# Velocity P-wave (km/s) = 4.71403 6.98045 5.95603
#
# Compressibility (1/GPa) = 0.04090967
#
# Stress axis : x y z
#
# Youngs Moduli (GPa) = 17.82300 113.70090 176.29867
#
# Poissons Ratio (x) = 0.94096 1.00175
# Poissons Ratio (y) = 0.14750 0.15418
# Poissons Ratio (z) = 0.10127 0.09943
#
# Static dielectric constant tensor:
#      x y z
#    x 4.209720 0.000000 0.247110 
#    y 0.000000 6.594300 0.000000 
#    z 0.247110 0.000000 4.629410 
# 
# 
# High freq. dielectric constant tensor:
#      x y z
#    x 1.985080 0.000000 0.014990 
#    y 0.000000 2.016690 0.000000 
#    z 0.014990 0.000000 2.019160 
# 
# From -- ./inp_files/194044.got.cif
#   From: 2010.06.25/outbox.cif.g09.slc.cpg/sg15_98_cif.got.tgz:194044.got - 2010.06.28 07:06:18.
