data_PCOD8135726
_publ_section_title
;
Structure prediction by ZEFSAII (Michael W. Deem and Ramdas Pophale) SiO2 
 PCOD8135726
Probable space group: C 2/C
;
_chemical_formula_sum "Si O2"
_cell_formula_units_Z 48
_cell_length_a 8.404332
_cell_length_b 27.772923
_cell_length_c 18.911167
_cell_angle_alpha 90.000000
_cell_angle_beta 31.569688
_cell_angle_gamma 90.000000
_cell_volume 2310.941933
_symmetry_space_group_name_H-M "C 2/C"
_symmetry_group_IT_number 15
_symmetry_cell_setting 'monoclinic'
loop_
_space_group_symop_operation_xyz
x,y,z
-x,y,1/2-z
-x,-y,-z
x,-y,1/2+z
1/2+x,1/2+y,z
1/2-x,1/2+y,1/2-z
1/2-x,1/2-y,-z
1/2+x,1/2-y,1/2+z
loop_
_atom_site_type_symbol
_atom_site_label
_atom_site_fract_x
_atom_site_fract_y
_atom_site_fract_z
Si Si1 0.582845 0.936483 0.538029
Si Si2 0.847434 0.108119 0.732186
Si Si3 0.838807 0.453602 0.474601
Si Si4 0.185166 0.290085 0.333226
Si Si5 0.229847 0.105627 0.297566
Si Si6 0.575164 0.698315 0.140562
O O1 0.429916 0.938490 0.519333
O O2 0.346129 0.909238 0.676633
O O3 0.897475 0.906349 0.421413
O O4 0.650148 0.989611 0.541587
O O5 0.567094 0.071157 0.832301
O O6 0.733529 0.162805 0.765813
O O7 0.000000 0.101890 0.750000
O O8 0.500873 0.434948 0.586773
O O9 0.500000 0.274391 0.250000
O O10 0.937937 0.300309 0.488752
O O11 0.074731 0.248893 0.322662
O O12 0.500000 0.110330 0.250000
O O13 0.062056 0.156746 0.356614
O O14 0.500000 0.687281 0.250000
#
# Coordination Sequence:
#
# PCOD8135726 Si02
#       6
#     8   8   8   8   8   8
#     4  10  21  37  65  94 119 162 210 254 306 364
#     4   9  18  35  60  91 120 155 195 255 307 358
#     4  10  19  39  65  91 123 158 211 256 302 366
#     4  10  22  42  64  94 125 155 201 261 314 369
#     4  12  25  40  59  91 130 168 205 253 307 365
#     4  11  24  43  67  91 122 164 206 252 311 374
#
# _framework density 20.770752999999999
#
# number of rings (size 3 to 8) (size 9 to 14) (size 15 to 20)
#    0.000    1.667    1.667    3.000    4.667    4.000 
#    6.000    0.833    0.000    0.000    0.000    0.000 
#    0.000    0.000    0.000    0.000    0.000    0.000 
#
# Total GULP energy -297680.060128 kJ/mol
# GULP energy per Si atom -12403.335839 kJ/mol
# Density = 2.072348 g / cm^3
# Si number density = 20.770753 Si / 1000 Ang^3
#
#
#
# Elastic Constant Matrix: (Units=GPa)
#
#
# Indices 1 2 3 4 5 6 
#
# 1 51.7141 18.5932 21.6849 -0.0002 -20.9915 -0.0001
# 2 18.5932 110.1840 47.0290 -0.0004 -17.1015 0.0000
# 3 21.6849 47.0290 128.3793 -0.0003 -29.8361 -0.0003
# 4 -0.0002 -0.0004 -0.0003 38.6383 -0.0001 -6.0028
# 5 -20.9915 -17.1015 -29.8361 -0.0001 28.8220 0.0005
# 6 -0.0001 0.0000 -0.0003 -6.0028 0.0005 17.2052
#
#
#
# Elastic Compliance Matrix: (Units=1/GPa)
#
#
# Indices 1 2 3 4 5 6 
#
# 1 0.027769 -0.001873 0.000576 0.000000 0.019710 0.000000
# 2 -0.001873 0.011089 -0.003337 0.000000 0.001762 0.000000
# 3 0.000576 -0.003337 0.011261 0.000000 0.010097 0.000000
# 4 0.000000 0.000000 0.000000 0.027364 0.000000 0.009547
# 5 0.019710 0.001762 0.010097 0.000000 0.060549 -0.000002
# 6 0.000000 0.000000 0.000000 0.009547 -0.000002 0.061453
#
#
# Mechanical properties :
#
#
# Convention : Reuss Voigt Hill
#
# Bulk Modulus (GPa) = 24.47764 51.65461 38.06613
# Shear Modulus (GPa) = 22.48507 30.46445 26.47476
#
# Velocity S-wave (km/s) = 3.29376 3.83391 3.57405
# Velocity P-wave (km/s) = 5.12595 6.67243 5.94965
#
# Compressibility (1/GPa) = 0.04085362
#
# Stress axis : x y z
#
# Youngs Moduli (GPa) = 36.01080 90.17681 88.80223
#
# Poissons Ratio (x) = 0.16888 -0.05117
# Poissons Ratio (y) = 0.06744 0.29629
# Poissons Ratio (z) = -0.02075 0.30088
#
# Static dielectric constant tensor:
#      x y z
#    x 3.266740 0.000000 -0.201480 
#    y 0.000000 3.952300 0.000000 
#    z -0.201480 0.000000 4.090130 
# 
# 
# High freq. dielectric constant tensor:
#      x y z
#    x 1.772300 0.000000 -0.018170 
#    y 0.000000 1.829730 0.000000 
#    z -0.018170 0.000000 1.832380 
# 
# From -- ./inp_files/234739.got.cif
#   From: 2010.06.25/outbox.cif.g09.slc.cpg/sg15_118_cif.got.tgz:234739.got - 2010.06.28 07:06:18.
