data_PCOD8135474
_publ_section_title
;
Structure prediction by ZEFSAII (Michael W. Deem and Ramdas Pophale) SiO2 
 PCOD8135474
Probable space group: C 2/C
;
_chemical_formula_sum "Si O2"
_cell_formula_units_Z 48
_cell_length_a 11.345027
_cell_length_b 21.638163
_cell_length_c 9.573186
_cell_angle_alpha 90.000000
_cell_angle_beta 77.020688
_cell_angle_gamma 90.000000
_cell_volume 2290.037135
_symmetry_space_group_name_H-M "C 2/C"
_symmetry_group_IT_number 15
_symmetry_cell_setting 'monoclinic'
loop_
_space_group_symop_operation_xyz
x,y,z
-x,y,1/2-z
-x,-y,-z
x,-y,1/2+z
1/2+x,1/2+y,z
1/2-x,1/2+y,1/2-z
1/2-x,1/2-y,-z
1/2+x,1/2-y,1/2+z
loop_
_atom_site_type_symbol
_atom_site_label
_atom_site_fract_x
_atom_site_fract_y
_atom_site_fract_z
Si Si1 0.500000 0.498791 0.250000
Si Si2 0.121716 0.461774 0.490380
Si Si3 0.304499 0.128635 0.300773
Si Si4 0.158800 0.195078 0.548342
Si Si5 0.799911 0.934310 0.943554
Si Si6 0.500000 0.227958 0.250000
Si Si7 0.709227 0.596430 0.760894
O O1 0.561453 0.545107 0.120566
O O2 0.394920 0.455960 0.216229
O O3 0.110033 0.410749 0.616233
O O4 0.228207 0.505646 0.515598
O O5 0.163784 0.430419 0.332929
O O6 0.000000 0.500000 0.500000
O O7 0.178207 0.148324 0.413055
O O8 0.266573 0.091661 0.175038
O O9 0.383592 0.187927 0.236501
O O10 0.250000 0.250000 0.500000
O O11 0.029264 0.228400 0.606142
O O12 0.179966 0.158617 0.686864
O O13 0.786067 0.886118 0.075667
#
# Coordination Sequence:
#
# PCOD8135474 Si02
#       7
#     4   8   8   8   8   4   8
#     4  10  21  36  56  84 122 154 185 224 284 354
#     4  10  20  36  56  84 123 160 188 220 277 354
#     4  10  21  37  58  87 116 147 188 236 288 338
#     4   9  20  38  58  77 103 147 197 235 275 331
#     4  11  22  35  56  90 121 147 183 235 289 346
#     4  10  19  38  64  78 102 150 195 236 282 338
#     4  10  21  36  59  84 112 154 197 233 281 346
#
# _framework density 20.960359
#
# number of rings (size 3 to 8) (size 9 to 14) (size 15 to 20)
#    0.000    2.000    0.000    4.000    0.000    6.000 
#    0.000    3.333    0.000    8.000    0.000    0.000 
#    0.000    0.000    0.000    0.000    0.000    0.000 
#
# Total GULP energy -297315.233400 kJ/mol
# GULP energy per Si atom -12388.134725 kJ/mol
# Density = 2.091265 g / cm^3
# Si number density = 20.960359 Si / 1000 Ang^3
#
#
#
# Elastic Constant Matrix: (Units=GPa)
#
#
# Indices 1 2 3 4 5 6 
#
# 1 83.8291 34.7102 51.7169 0.0000 -21.5563 0.0000
# 2 34.7102 95.8400 59.6826 0.0000 -8.9885 0.0000
# 3 51.7169 59.6826 156.6769 0.0000 -2.9760 0.0000
# 4 0.0000 0.0000 0.0000 35.8163 0.0000 -18.9002
# 5 -21.5563 -8.9885 -2.9760 0.0000 34.0886 0.0000
# 6 0.0000 0.0000 0.0000 -18.9002 0.0000 21.0349
#
#
#
# Elastic Compliance Matrix: (Units=1/GPa)
#
#
# Indices 1 2 3 4 5 6 
#
# 1 0.018924 -0.002724 -0.005004 0.000000 0.010812 0.000000
# 2 -0.002724 0.014419 -0.004562 0.000000 0.001681 0.000000
# 3 -0.005004 -0.004562 0.009705 0.000000 -0.003520 0.000000
# 4 0.000000 0.000000 0.000000 0.053095 0.000000 0.047707
# 5 0.010812 0.001681 -0.003520 0.000000 0.036308 0.000000
# 6 0.000000 0.000000 0.000000 0.047707 0.000000 0.090405
#
#
# Mechanical properties :
#
#
# Convention : Reuss Voigt Hill
#
# Bulk Modulus (GPa) = 54.14213 69.84059 61.99136
# Shear Modulus (GPa) = 19.71680 30.87039 25.29360
#
# Velocity S-wave (km/s) = 3.07036 3.84187 3.47758
# Velocity P-wave (km/s) = 6.20132 7.28509 6.76494
#
# Compressibility (1/GPa) = 0.01846990
#
# Stress axis : x y z
#
# Youngs Moduli (GPa) = 52.84329 69.35398 103.04034
#
# Poissons Ratio (x) = 0.18890 0.51557
# Poissons Ratio (y) = 0.14393 0.47002
# Poissons Ratio (z) = 0.26441 0.31636
#
# Static dielectric constant tensor:
#      x y z
#    x 5.024950 0.000000 -0.868090 
#    y 0.000000 3.983900 0.000000 
#    z -0.868090 0.000000 4.295780 
# 
# 
# High freq. dielectric constant tensor:
#      x y z
#    x 1.788490 0.000000 -0.040940 
#    y 0.000000 1.824380 0.000000 
#    z -0.040940 0.000000 1.835550 
# 
# From -- ./inp_files/32571.got.cif
#   From: 2010.06.25/outbox.cif.g09.slc.cpg/sg15_17_cif.got.tgz:32571.got - 2010.06.28 07:06:18.
