data_PCOD8135690
_publ_section_title
;
Structure prediction by ZEFSAII (Michael W. Deem and Ramdas Pophale) SiO2 
 PCOD8135690
Probable space group: C 2/C
;
_chemical_formula_sum "Si O2"
_cell_formula_units_Z 48
_cell_length_a 19.524030
_cell_length_b 8.885535
_cell_length_c 17.118385
_cell_angle_alpha 90.000000
_cell_angle_beta 55.703629
_cell_angle_gamma 90.000000
_cell_volume 2453.388506
_symmetry_space_group_name_H-M "C 2/C"
_symmetry_group_IT_number 15
_symmetry_cell_setting 'monoclinic'
loop_
_space_group_symop_operation_xyz
x,y,z
-x,y,1/2-z
-x,-y,-z
x,-y,1/2+z
1/2+x,1/2+y,z
1/2-x,1/2+y,1/2-z
1/2-x,1/2-y,-z
1/2+x,1/2-y,1/2+z
loop_
_atom_site_type_symbol
_atom_site_label
_atom_site_fract_x
_atom_site_fract_y
_atom_site_fract_z
Si Si1 0.087211 0.355678 0.731232
Si Si2 0.194232 0.752313 0.843649
Si Si3 0.234196 0.307393 0.863867
Si Si4 0.184717 0.082885 0.627469
Si Si5 0.085915 0.515352 0.403246
Si Si6 0.262570 0.511260 0.077016
O O1 0.101913 0.176252 0.705135
O O2 0.080701 0.391491 0.826886
O O3 0.164654 0.446844 0.644261
O O4 0.000000 0.406140 0.750000
O O5 0.254576 0.749271 0.731065
O O6 0.237702 0.675293 0.889693
O O7 0.113067 0.658881 0.871739
O O8 0.184154 0.922932 0.882768
O O9 0.311926 0.415232 0.837317
O O10 0.148771 0.400964 0.921941
O O11 0.229482 0.168877 0.926476
O O12 0.194377 0.072161 0.528466
O O13 0.000000 0.500000 0.500000
#
# Coordination Sequence:
#
# PCOD8135690 Si02
#       6
#     8   8   8   8   8   8
#     4  11  23  39  60  87 128 161 199 252 323 367
#     4  10  19  39  64  86 118 165 212 247 302 378
#     4  11  20  41  65  90 122 160 215 258 303 374
#     4  10  22  37  61  91 121 160 209 248 306 378
#     4  11  24  39  62  94 122 160 212 265 314 368
#     4  11  21  39  66  94 117 165 211 260 303 378
#
# _framework density 19.564779000000001
#
# number of rings (size 3 to 8) (size 9 to 14) (size 15 to 20)
#    0.000    1.333    5.000    3.500    7.000    0.000 
#    0.000    3.333    0.000    0.000    0.000    0.000 
#    0.000    0.000    0.000    0.000    0.000    0.000 
#
# Total GULP energy -297397.776440 kJ/mol
# GULP energy per Si atom -12391.574018 kJ/mol
# Density = 1.952025 g / cm^3
# Si number density = 19.564779 Si / 1000 Ang^3
#
#
#
# Elastic Constant Matrix: (Units=GPa)
#
#
# Indices 1 2 3 4 5 6 
#
# 1 73.4313 37.6464 46.0385 -0.0001 -10.1955 0.0001
# 2 37.6464 115.0693 38.6474 -0.0003 -9.7660 0.0003
# 3 46.0385 38.6474 118.9699 0.0001 -1.0810 -0.0002
# 4 -0.0001 -0.0003 0.0001 30.3594 0.0001 2.6143
# 5 -10.1955 -9.7660 -1.0810 0.0001 32.0248 -0.0001
# 6 0.0001 0.0003 -0.0002 2.6143 -0.0001 25.4963
#
#
#
# Elastic Compliance Matrix: (Units=1/GPa)
#
#
# Indices 1 2 3 4 5 6 
#
# 1 0.020537 -0.004080 -0.006576 0.000000 0.005072 0.000000
# 2 -0.004080 0.010836 -0.001924 0.000000 0.001941 0.000000
# 3 -0.006576 -0.001924 0.011554 0.000000 -0.002290 0.000000
# 4 0.000000 0.000000 0.000000 0.033232 0.000000 -0.003407
# 5 0.005072 0.001941 -0.002290 0.000000 0.033355 0.000000
# 6 0.000000 0.000000 0.000000 -0.003407 0.000000 0.039571
#
#
# Mechanical properties :
#
#
# Convention : Reuss Voigt Hill
#
# Bulk Modulus (GPa) = 56.27960 61.34836 58.81398
# Shear Modulus (GPa) = 27.75213 29.91867 28.83540
#
# Velocity S-wave (km/s) = 3.77035 3.91475 3.84323
# Velocity P-wave (km/s) = 6.91247 7.20127 7.05835
#
# Compressibility (1/GPa) = 0.01776843
#
# Stress axis : x y z
#
# Youngs Moduli (GPa) = 48.69298 92.28528 86.54816
#
# Poissons Ratio (x) = 0.37651 0.56913
# Poissons Ratio (y) = 0.19866 0.16649
# Poissons Ratio (z) = 0.32020 0.17752
#
# Static dielectric constant tensor:
#      x y z
#    x 3.554840 0.000000 0.115050 
#    y 0.000000 4.400820 0.000000 
#    z 0.115050 0.000000 3.572470 
# 
# 
# High freq. dielectric constant tensor:
#      x y z
#    x 1.739550 0.000000 0.023970 
#    y 0.000000 1.774350 0.000000 
#    z 0.023970 0.000000 1.753870 
# 
# From -- ./inp_files/176998.got.cif
#   From: 2010.06.25/outbox.cif.g09.slc.cpg/sg15_89_cif.got.tgz:176998.got - 2010.06.28 07:06:18.
