data_PCOD8135192
_publ_section_title
;
Structure prediction by ZEFSAII (Michael W. Deem and Ramdas Pophale) SiO2 
 PCOD8135192
Probable space group: C 2/C
;
_chemical_formula_sum "Si O2"
_cell_formula_units_Z 60
_cell_length_a 12.245601
_cell_length_b 17.523025
_cell_length_c 25.762604
_cell_angle_alpha 90.000000
_cell_angle_beta 146.016944
_cell_angle_gamma 90.000000
_cell_volume 3089.940549
_symmetry_space_group_name_H-M "C 2/C"
_symmetry_group_IT_number 15
_symmetry_cell_setting 'monoclinic'
loop_
_space_group_symop_operation_xyz
x,y,z
-x,y,1/2-z
-x,-y,-z
x,-y,1/2+z
1/2+x,1/2+y,z
1/2-x,1/2+y,1/2-z
1/2-x,1/2-y,-z
1/2+x,1/2-y,1/2+z
loop_
_atom_site_type_symbol
_atom_site_label
_atom_site_fract_x
_atom_site_fract_y
_atom_site_fract_z
Si Si1 0.624240 0.695965 0.486454
Si Si2 0.470061 0.118303 0.681706
Si Si3 0.679693 0.230509 0.560560
Si Si4 0.106534 0.445423 0.855040
Si Si5 0.809844 0.079380 0.334083
Si Si6 0.000000 0.856821 0.250000
Si Si7 0.871255 0.916738 0.304822
Si Si8 0.758899 0.857879 0.997909
O O1 0.750000 0.750000 0.500000
O O2 0.775834 0.643928 0.576869
O O3 0.514139 0.747549 0.485241
O O4 0.476292 0.644632 0.392978
O O5 0.500000 0.157454 0.750000
O O6 0.667006 0.129318 0.726247
O O7 0.455539 0.028969 0.684674
O O8 0.832871 0.199394 0.662919
O O9 0.630601 0.166381 0.497409
O O10 0.767211 0.300792 0.561504
O O11 0.287258 0.426602 0.887756
O O12 0.906802 0.394823 0.770328
O O13 0.178337 0.437676 0.943013
O O14 0.873429 0.002731 0.328328
O O15 0.069730 0.914715 0.232340
O O16 0.017438 0.865918 0.396942
#
# Coordination Sequence:
#
# PCOD8135192 Si02
#       8
#     8   8   8   8   8   4   8   8
#     4  12  25  39  55  85 125 162 189 229 291 366
#     4  11  21  37  60  89 116 148 191 248 304 335
#     4  10  22  36  55  86 118 158 194 231 296 355
#     4  10  19  37  64  93 111 141 194 262 295 323
#     4  10  21  37  62  89 114 146 199 245 296 334
#     4  10  22  38  60  80 122 164 196 238 288 358
#     4  10  20  39  59  89 113 155 201 248 292 345
#     4  10  20  35  61  87 116 147 196 248 291 340
#
# _framework density 19.417850000000001
#
# number of rings (size 3 to 8) (size 9 to 14) (size 15 to 20)
#    0.000    1.600    4.000    2.400    1.867    1.067 
#    4.800    2.667    0.000    9.600    0.000    0.000 
#    0.000    0.000    0.000    0.000    0.000    0.000 
#
# Total GULP energy -371675.554839 kJ/mol
# GULP energy per Si atom -12389.185161 kJ/mol
# Density = 1.937365 g / cm^3
# Si number density = 19.417850 Si / 1000 Ang^3
#
#
#
# Elastic Constant Matrix: (Units=GPa)
#
#
# Indices 1 2 3 4 5 6 
#
# 1 138.2086 52.4761 67.5333 -0.0001 3.3110 0.0000
# 2 52.4761 59.4469 42.2042 0.0000 3.2081 0.0000
# 3 67.5333 42.2042 116.0728 -0.0003 0.0552 -0.0001
# 4 -0.0001 0.0000 -0.0003 33.3839 -0.0002 0.2698
# 5 3.3110 3.2081 0.0552 -0.0002 35.1506 0.0000
# 6 0.0000 0.0000 -0.0001 0.2698 0.0000 36.2653
#
#
#
# Elastic Compliance Matrix: (Units=1/GPa)
#
#
# Indices 1 2 3 4 5 6 
#
# 1 0.012316 -0.007765 -0.004342 0.000000 -0.000445 0.000000
# 2 -0.007765 0.027721 -0.005560 0.000000 -0.001790 0.000000
# 3 -0.004342 -0.005560 0.013163 0.000000 0.000896 0.000000
# 4 0.000000 0.000000 0.000000 0.029956 0.000000 -0.000223
# 5 -0.000445 -0.001790 0.000896 0.000000 0.028653 0.000000
# 6 0.000000 0.000000 0.000000 -0.000223 0.000000 0.027576
#
#
# Mechanical properties :
#
#
# Convention : Reuss Voigt Hill
#
# Bulk Modulus (GPa) = 55.97807 70.90617 63.44212
# Shear Modulus (GPa) = 27.67393 31.06094 29.36743
#
# Velocity S-wave (km/s) = 3.77925 4.00385 3.89317
# Velocity P-wave (km/s) = 6.92347 7.61378 7.27681
#
# Compressibility (1/GPa) = 0.01786414
#
# Stress axis : x y z
#
# Youngs Moduli (GPa) = 81.19412 36.07421 75.97095
#
# Poissons Ratio (x) = 0.28013 0.32987
# Poissons Ratio (y) = 0.63050 0.42243
# Poissons Ratio (z) = 0.35255 0.20059
#
# Static dielectric constant tensor:
#      x y z
#    x 3.696080 0.000000 0.064910 
#    y 0.000000 3.523620 0.000000 
#    z 0.064910 0.000000 3.492910 
# 
# 
# High freq. dielectric constant tensor:
#      x y z
#    x 1.753080 0.000000 -0.003510 
#    y 0.000000 1.735980 0.000000 
#    z -0.003510 0.000000 1.768810 
# 
# From -- ./inp_files/293562.got.cif
#   From: 2010.06.25/outbox.cif.g09.slc.cpg/sg15_147_cif.got.tgz:293562.got - 2010.06.28 07:06:18.
