data_PCOD8135020
_publ_section_title
;
Structure prediction by ZEFSAII (Michael W. Deem and Ramdas Pophale) SiO2 
 PCOD8135020
Probable space group: C 2/C
;
_chemical_formula_sum "Si O2"
_cell_formula_units_Z 56
_cell_length_a 8.883712
_cell_length_b 16.530911
_cell_length_c 27.901400
_cell_angle_alpha 90.000000
_cell_angle_beta 138.270160
_cell_angle_gamma 90.000000
_cell_volume 2727.363608
_symmetry_space_group_name_H-M "C 2/C"
_symmetry_group_IT_number 15
_symmetry_cell_setting 'monoclinic'
loop_
_space_group_symop_operation_xyz
x,y,z
-x,y,1/2-z
-x,-y,-z
x,-y,1/2+z
1/2+x,1/2+y,z
1/2-x,1/2+y,1/2-z
1/2-x,1/2-y,-z
1/2+x,1/2-y,1/2+z
loop_
_atom_site_type_symbol
_atom_site_label
_atom_site_fract_x
_atom_site_fract_y
_atom_site_fract_z
Si Si1 0.882119 0.891319 0.673395
Si Si2 0.572866 0.628693 0.887025
Si Si3 0.286052 0.646199 0.731288
Si Si4 0.186463 0.669251 0.257140
Si Si5 0.965010 0.687257 0.103273
Si Si6 0.114705 0.551559 0.611295
Si Si7 0.165911 0.955780 0.502696
O O1 0.663704 0.833490 0.611653
O O2 0.000000 0.860808 0.750000
O O3 0.083046 0.883145 0.681839
O O4 0.807270 0.983431 0.658871
O O5 0.344311 0.622944 0.800236
O O6 0.604154 0.719128 0.915749
O O7 0.800502 0.613620 0.909710
O O8 0.545074 0.564186 0.923297
O O9 0.500000 0.624864 0.750000
O O10 0.227969 0.739948 0.713169
O O11 0.090147 0.593416 0.658589
O O12 0.000000 0.638698 0.250000
O O13 0.064543 0.660245 0.177618
O O14 0.748811 0.630114 0.043365
O O15 0.872515 0.515919 0.540015
O O16 0.000000 0.000000 0.500000
#
# Coordination Sequence:
#
# PCOD8135020 Si02
#       7
#     8   8   8   8   8   8   8
#     4   9  17  31  53  79 109 142 176 218 276 332
#     4  10  19  37  60  79 105 147 189 225 271 334
#     4   8  16  32  57  83 107 137 180 230 275 325
#     4   9  17  31  55  86 112 137 180 235 277 317
#     4   9  20  37  55  76 109 151 186 221 272 335
#     4  10  20  37  59  82 109 147 186 229 281 331
#     4  11  24  39  53  79 117 149 184 232 278 326
#
# _framework density 20.532648999999999
#
# number of rings (size 3 to 8) (size 9 to 14) (size 15 to 20)
#    0.000    2.571    0.000    3.000    0.000    2.286 
#    0.000    2.857    0.000    7.714    0.000    0.000 
#    0.000    0.000    0.000    0.000    0.000    0.000 
#
# Total GULP energy -346966.615022 kJ/mol
# GULP energy per Si atom -12391.664822 kJ/mol
# Density = 2.048592 g / cm^3
# Si number density = 20.532649 Si / 1000 Ang^3
#
#
#
# Elastic Constant Matrix: (Units=GPa)
#
#
# Indices 1 2 3 4 5 6 
#
# 1 116.3628 45.4693 39.5547 0.0000 9.8673 0.0000
# 2 45.4693 94.9631 38.1876 0.0000 6.7128 0.0000
# 3 39.5547 38.1876 59.7986 0.0001 -4.3341 0.0001
# 4 0.0000 0.0000 0.0001 25.5331 0.0000 -0.9072
# 5 9.8673 6.7128 -4.3341 0.0000 26.9918 0.0000
# 6 0.0000 0.0000 0.0001 -0.9072 0.0000 32.1053
#
#
#
# Elastic Compliance Matrix: (Units=1/GPa)
#
#
# Indices 1 2 3 4 5 6 
#
# 1 0.012429 -0.002900 -0.006724 0.000000 -0.004902 0.000000
# 2 -0.002900 0.015556 -0.008316 0.000000 -0.004144 0.000000
# 3 -0.006724 -0.008316 0.027125 0.000000 0.008882 0.000000
# 4 0.000000 0.000000 0.000000 0.039204 0.000000 0.001108
# 5 -0.004902 -0.004144 0.008882 0.000000 0.041297 0.000000
# 6 0.000000 0.000000 0.000000 0.001108 0.000000 0.031179
#
#
# Mechanical properties :
#
#
# Convention : Reuss Voigt Hill
#
# Bulk Modulus (GPa) = 52.00607 57.50533 54.75570
# Shear Modulus (GPa) = 23.91425 26.78688 25.35057
#
# Velocity S-wave (km/s) = 3.41646 3.61584 3.51757
# Velocity P-wave (km/s) = 6.39894 6.74537 6.57444
#
# Compressibility (1/GPa) = 0.01922853
#
# Stress axis : x y z
#
# Youngs Moduli (GPa) = 80.46010 64.28293 36.86648
#
# Poissons Ratio (x) = 0.18645 0.24789
# Poissons Ratio (y) = 0.23337 0.30658
# Poissons Ratio (z) = 0.54102 0.53458
#
# Static dielectric constant tensor:
#      x y z
#    x 3.809760 0.000000 -0.015830 
#    y 0.000000 3.744010 0.000000 
#    z -0.015830 0.000000 3.823060 
# 
# 
# High freq. dielectric constant tensor:
#      x y z
#    x 1.780000 0.000000 -0.004520 
#    y 0.000000 1.805480 0.000000 
#    z -0.004520 0.000000 1.792490 
# 
# From -- ./inp_files/289747.got.cif
#   From: 2010.06.25/outbox.cif.g09.slc.cpg/sg15_145_cif.got.tgz:289747.got - 2010.06.28 07:06:18.
