data_PCOD8135515
_publ_section_title
;
Structure prediction by ZEFSAII (Michael W. Deem and Ramdas Pophale) SiO2 
 PCOD8135515
Probable space group: C 2/C
;
_chemical_formula_sum "Si O2"
_cell_formula_units_Z 56
_cell_length_a 19.086474
_cell_length_b 11.563453
_cell_length_c 12.062334
_cell_angle_alpha 90.000000
_cell_angle_beta 78.217923
_cell_angle_gamma 90.000000
_cell_volume 2606.134429
_symmetry_space_group_name_H-M "C 2/C"
_symmetry_group_IT_number 15
_symmetry_cell_setting 'monoclinic'
loop_
_space_group_symop_operation_xyz
x,y,z
-x,y,1/2-z
-x,-y,-z
x,-y,1/2+z
1/2+x,1/2+y,z
1/2-x,1/2+y,1/2-z
1/2-x,1/2-y,-z
1/2+x,1/2-y,1/2+z
loop_
_atom_site_type_symbol
_atom_site_label
_atom_site_fract_x
_atom_site_fract_y
_atom_site_fract_z
Si Si1 0.652887 0.538015 0.156968
Si Si2 0.819555 0.136434 0.125995
Si Si3 0.004449 0.344570 0.618608
Si Si4 0.113628 0.494555 0.958128
Si Si5 0.257099 0.074830 0.938918
Si Si6 0.954986 0.912913 0.439196
Si Si7 0.227650 0.372017 0.299502
O O1 0.646375 0.623566 0.262359
O O2 0.573350 0.488138 0.156799
O O3 0.702490 0.429823 0.171917
O O4 0.689837 0.605315 0.040616
O O5 0.780463 0.257429 0.126223
O O6 0.757442 0.045320 0.120461
O O7 0.883285 0.128180 0.020478
O O8 0.936496 0.395565 0.575968
O O9 0.000000 0.375953 0.750000
O O10 0.073171 0.405676 0.540965
O O11 0.002793 0.204309 0.606228
O O12 0.156535 0.551024 0.841850
O O13 0.168634 0.428770 0.020529
O O14 0.263465 0.163256 0.833504
O O15 0.000000 0.000000 0.500000
#
# Coordination Sequence:
#
# PCOD8135515 Si02
#       7
#     8   8   8   8   8   8   8
#     4   9  22  39  59  90 120 156 202 252 300 371
#     4  10  21  39  63  89 120 160 200 254 312 357
#     4  11  24  40  62  90 122 168 204 251 301 364
#     4  10  21  40  61  93 124 153 204 252 309 363
#     4   9  20  37  60  91 120 150 197 255 302 369
#     4  11  25  42  60  87 124 168 211 245 300 372
#     4  10  19  38  65  90 119 156 198 255 315 361
#
# _framework density 21.487763999999999
#
# number of rings (size 3 to 8) (size 9 to 14) (size 15 to 20)
#    0.000    2.000    1.429    0.857    4.000    3.429 
#    0.000    0.000    0.000    0.000    0.000    0.000 
#    0.000    0.000    0.000    0.000    0.000    0.000 
#
# Total GULP energy -347082.584012 kJ/mol
# GULP energy per Si atom -12395.806572 kJ/mol
# Density = 2.143886 g / cm^3
# Si number density = 21.487764 Si / 1000 Ang^3
#
#
#
# Elastic Constant Matrix: (Units=GPa)
#
#
# Indices 1 2 3 4 5 6 
#
# 1 84.3586 22.1206 10.5551 0.0000 22.6871 0.0000
# 2 22.1206 47.8907 -1.2435 0.0000 2.4509 0.0000
# 3 10.5551 -1.2435 90.5684 0.0000 16.2829 0.0000
# 4 0.0000 0.0000 0.0000 29.1118 0.0000 -3.9780
# 5 22.6871 2.4509 16.2829 0.0000 19.7975 0.0000
# 6 0.0000 0.0000 0.0000 -3.9780 0.0000 22.3031
#
#
#
# Elastic Compliance Matrix: (Units=1/GPa)
#
#
# Indices 1 2 3 4 5 6 
#
# 1 0.020030 -0.008008 0.001765 0.000000 -0.023414 0.000000
# 2 -0.008008 0.024276 0.000184 0.000000 0.006019 0.000000
# 3 0.001765 0.000184 0.013151 0.000000 -0.012862 0.000000
# 4 0.000000 0.000000 0.000000 0.035208 0.000000 0.006280
# 5 -0.023414 0.006019 -0.012862 0.000000 0.087176 0.000000
# 6 0.000000 0.000000 0.000000 0.006280 0.000000 0.045957
#
#
# Mechanical properties :
#
#
# Convention : Reuss Voigt Hill
#
# Bulk Modulus (GPa) = 22.05532 31.74247 26.89890
# Shear Modulus (GPa) = 19.76069 27.00153 23.38111
#
# Velocity S-wave (km/s) = 3.03582 3.54870 3.30223
# Velocity P-wave (km/s) = 4.75128 5.62098 5.20433
#
# Compressibility (1/GPa) = 0.04534053
#
# Stress axis : x y z
#
# Youngs Moduli (GPa) = 49.92527 41.19240 76.04255
#
# Poissons Ratio (x) = 0.32986 -0.13423
# Poissons Ratio (y) = 0.39979 -0.01402
# Poissons Ratio (z) = -0.08813 -0.00759
#
# Static dielectric constant tensor:
#      x y z
#    x 3.833940 0.000000 -0.042660 
#    y 0.000000 3.815950 0.000000 
#    z -0.042660 0.000000 4.354390 
# 
# 
# High freq. dielectric constant tensor:
#      x y z
#    x 1.838610 0.000000 0.001960 
#    y 0.000000 1.830700 0.000000 
#    z 0.001960 0.000000 1.860720 
# 
# From -- ./inp_files/110974.got.cif
#   From: 2010.06.25/outbox.cif.g09.slc.cpg/sg15_56_cif.got.tgz:110974.got - 2010.06.28 07:06:18.
