data_PCOD8135902
_publ_section_title
;
Structure prediction by ZEFSAII (Michael W. Deem and Ramdas Pophale) SiO2 
 PCOD8135902
Probable space group: C 2/C
;
_chemical_formula_sum "Si O2"
_cell_formula_units_Z 48
_cell_length_a 27.695274
_cell_length_b 10.499148
_cell_length_c 9.125318
_cell_angle_alpha 90.000000
_cell_angle_beta 67.078491
_cell_angle_gamma 90.000000
_cell_volume 2443.913754
_symmetry_space_group_name_H-M "C 2/C"
_symmetry_group_IT_number 15
_symmetry_cell_setting 'monoclinic'
loop_
_space_group_symop_operation_xyz
x,y,z
-x,y,1/2-z
-x,-y,-z
x,-y,1/2+z
1/2+x,1/2+y,z
1/2-x,1/2+y,1/2-z
1/2-x,1/2-y,-z
1/2+x,1/2-y,1/2+z
loop_
_atom_site_type_symbol
_atom_site_label
_atom_site_fract_x
_atom_site_fract_y
_atom_site_fract_z
Si Si1 0.086619 0.667018 0.305932
Si Si2 0.467426 0.415273 0.145120
Si Si3 0.852843 0.098377 0.737281
Si Si4 0.196593 0.907590 0.510634
Si Si5 0.123112 0.520647 0.996717
Si Si6 0.815826 0.359373 0.338369
O O1 0.037304 0.763204 0.386997
O O2 0.141305 0.749194 0.242075
O O3 0.086331 0.570333 0.442207
O O4 0.084377 0.598985 0.149762
O O5 0.500000 0.433258 0.250000
O O6 0.407928 0.469971 0.218852
O O7 0.500000 0.500000 0.000000
O O8 0.842034 0.076649 0.579817
O O9 0.807214 0.036329 0.888856
O O10 0.178182 0.789378 0.632622
O O11 0.255348 0.892902 0.383817
O O12 0.154424 0.612656 0.848751
O O13 0.163108 0.441465 0.050182
#
# Coordination Sequence:
#
# PCOD8135902 Si02
#       6
#     8   8   8   8   8   8
#     4   9  22  37  65  83 118 157 197 235 301 349
#     4  10  21  39  62  91 117 144 195 249 302 350
#     4  10  22  37  58  86 117 151 198 247 299 347
#     4  11  21  36  53  88 118 158 203 243 293 337
#     4  10  19  41  55  85 119 167 194 235 289 351
#     4  10  21  34  57  80 123 162 202 241 276 347
#
# _framework density 19.640626999999999
#
# number of rings (size 3 to 8) (size 9 to 14) (size 15 to 20)
#    1.000    1.000    1.667    2.000    2.333    0.000 
#    0.000    5.000    0.000    0.000    0.000    0.000 
#    0.000    0.000    0.000    0.000    0.000    0.000 
#
# Total GULP energy -297384.646717 kJ/mol
# GULP energy per Si atom -12391.026947 kJ/mol
# Density = 1.959592 g / cm^3
# Si number density = 19.640627 Si / 1000 Ang^3
#
#
#
# Elastic Constant Matrix: (Units=GPa)
#
#
# Indices 1 2 3 4 5 6 
#
# 1 85.5477 27.0883 43.5927 0.0000 15.5488 0.0000
# 2 27.0883 105.6262 70.8671 0.0000 0.1732 0.0000
# 3 43.5927 70.8671 116.4240 0.0000 24.5639 0.0000
# 4 0.0000 0.0000 0.0000 36.3430 0.0000 -2.4486
# 5 15.5488 0.1732 24.5639 0.0000 26.4548 0.0000
# 6 0.0000 0.0000 0.0000 -2.4486 0.0000 27.9891
#
#
#
# Elastic Compliance Matrix: (Units=1/GPa)
#
#
# Indices 1 2 3 4 5 6 
#
# 1 0.014957 -0.001422 -0.003584 0.000000 -0.005454 0.000000
# 2 -0.001422 0.019284 -0.014122 0.000000 0.013822 0.000000
# 3 -0.003584 -0.014122 0.022464 0.000000 -0.018660 0.000000
# 4 0.000000 0.000000 0.000000 0.027679 0.000000 0.002421
# 5 -0.005454 0.013822 -0.018660 0.000000 0.058241 0.000000
# 6 0.000000 0.000000 0.000000 0.002421 0.000000 0.035940
#
#
# Mechanical properties :
#
#
# Convention : Reuss Voigt Hill
#
# Bulk Modulus (GPa) = 54.20319 65.63267 59.91793
# Shear Modulus (GPa) = 22.42428 29.22736 25.82582
#
# Velocity S-wave (km/s) = 3.38261 3.86178 3.63011
# Velocity P-wave (km/s) = 6.55084 7.30574 6.93856
#
# Compressibility (1/GPa) = 0.01844910
#
# Stress axis : x y z
#
# Youngs Moduli (GPa) = 66.85669 51.85569 44.51523
#
# Poissons Ratio (x) = 0.07376 0.15954
# Poissons Ratio (y) = 0.09510 0.62865
# Poissons Ratio (z) = 0.23961 0.73231
#
# Static dielectric constant tensor:
#      x y z
#    x 3.438870 0.000000 0.156270 
#    y 0.000000 3.664470 0.000000 
#    z 0.156270 0.000000 3.436110 
# 
# 
# High freq. dielectric constant tensor:
#      x y z
#    x 1.753430 0.000000 0.024170 
#    y 0.000000 1.767650 0.000000 
#    z 0.024170 0.000000 1.763200 
# 
# From -- ./inp_files/64845.got.cif
#   From: 2010.06.25/outbox.cif.g09.slc.cpg/sg15_33_cif.got.tgz:64845.got - 2010.06.28 07:06:18.
