data_PCOD8135630
_publ_section_title
;
Structure prediction by ZEFSAII (Michael W. Deem and Ramdas Pophale) SiO2 
 PCOD8135630
Probable space group: C 2/C
;
_chemical_formula_sum "Si O2"
_cell_formula_units_Z 48
_cell_length_a 9.377263
_cell_length_b 25.473450
_cell_length_c 15.323238
_cell_angle_alpha 90.000000
_cell_angle_beta 41.103668
_cell_angle_gamma 90.000000
_cell_volume 2406.354608
_symmetry_space_group_name_H-M "C 2/C"
_symmetry_group_IT_number 15
_symmetry_cell_setting 'monoclinic'
loop_
_space_group_symop_operation_xyz
x,y,z
-x,y,1/2-z
-x,-y,-z
x,-y,1/2+z
1/2+x,1/2+y,z
1/2-x,1/2+y,1/2-z
1/2-x,1/2-y,-z
1/2+x,1/2-y,1/2+z
loop_
_atom_site_type_symbol
_atom_site_label
_atom_site_fract_x
_atom_site_fract_y
_atom_site_fract_z
Si Si1 0.258710 0.263883 0.894685
Si Si2 0.846664 0.093406 0.894914
Si Si3 0.036292 0.633336 0.535806
Si Si4 0.737197 0.037540 0.119377
Si Si5 0.170524 0.836303 0.335582
Si Si6 0.831185 0.925488 0.024420
O O1 0.500000 0.266138 0.750000
O O2 0.131924 0.221525 0.893067
O O3 0.250000 0.250000 0.000000
O O4 0.156248 0.320917 0.927564
O O5 0.609810 0.103704 0.967016
O O6 0.000000 0.067292 0.750000
O O7 0.962447 0.147559 0.873245
O O8 0.823368 0.053000 0.984182
O O9 0.207240 0.589663 0.492403
O O10 0.891517 0.660087 0.678159
O O11 0.500000 0.061054 0.250000
O O12 0.723483 0.974486 0.125181
O O13 0.912427 0.060264 0.108500
O O14 0.197835 0.874826 0.403480
#
# Coordination Sequence:
#
# PCOD8135630 Si02
#       6
#     8   8   8   8   8   8
#     4  12  22  36  60  89 113 148 195 247 285 343
#     4   9  22  40  59  82 117 158 190 235 295 348
#     4  11  21  37  60  86 114 152 197 239 285 347
#     4  10  21  38  60  87 118 152 195 239 286 342
#     4  10  19  39  61  81 114 155 196 230 290 359
#     4  10  20  36  62  85 115 160 192 230 293 353
#
# _framework density 19.947185000000001
#
# number of rings (size 3 to 8) (size 9 to 14) (size 15 to 20)
#    0.000    1.667    3.333    1.500    0.000    4.000 
#    0.000    0.833    0.000    0.000    0.000    0.000 
#    0.000    0.000    0.000    0.000    0.000    0.000 
#
# Total GULP energy -297539.652253 kJ/mol
# GULP energy per Si atom -12397.485511 kJ/mol
# Density = 1.990178 g / cm^3
# Si number density = 19.947185 Si / 1000 Ang^3
#
#
#
# Elastic Constant Matrix: (Units=GPa)
#
#
# Indices 1 2 3 4 5 6 
#
# 1 135.1093 39.7841 35.1785 0.0000 -32.0029 0.0000
# 2 39.7841 85.8659 18.0284 0.0000 -12.8114 0.0000
# 3 35.1785 18.0284 91.2249 0.0000 -20.9193 0.0000
# 4 0.0000 0.0000 0.0000 8.0622 0.0000 -2.1019
# 5 -32.0029 -12.8114 -20.9193 0.0000 17.8442 0.0000
# 6 0.0000 0.0000 0.0000 -2.1019 0.0000 27.6564
#
#
#
# Elastic Compliance Matrix: (Units=1/GPa)
#
#
# Indices 1 2 3 4 5 6 
#
# 1 0.013533 -0.002991 0.000610 0.000000 0.022838 0.000000
# 2 -0.002991 0.013727 -0.000724 0.000000 0.003643 0.000000
# 3 0.000610 -0.000724 0.015046 0.000000 0.018213 0.000000
# 4 0.000000 0.000000 0.000000 0.126543 0.000000 0.009617
# 5 0.022838 0.003643 0.018213 0.000000 0.120967 0.000000
# 6 0.000000 0.000000 0.000000 0.009617 0.000000 0.036889
#
#
# Mechanical properties :
#
#
# Convention : Reuss Voigt Hill
#
# Bulk Modulus (GPa) = 27.70382 55.35359 41.52870
# Shear Modulus (GPa) = 14.49490 25.32649 19.91070
#
# Velocity S-wave (km/s) = 2.69860 3.56712 3.16281
# Velocity P-wave (km/s) = 4.86093 6.69149 5.84828
#
# Compressibility (1/GPa) = 0.03609611
#
# Stress axis : x y z
#
# Youngs Moduli (GPa) = 73.89361 72.84746 66.46091
#
# Poissons Ratio (x) = 0.21786 -0.04051
# Poissons Ratio (y) = 0.22099 0.04813
# Poissons Ratio (z) = -0.04504 0.05276
#
# Static dielectric constant tensor:
#      x y z
#    x 3.798700 0.000000 -0.167290 
#    y 0.000000 3.727550 0.000000 
#    z -0.167290 0.000000 3.532990 
# 
# 
# High freq. dielectric constant tensor:
#      x y z
#    x 1.785030 0.000000 -0.011750 
#    y 0.000000 1.769440 0.000000 
#    z -0.011750 0.000000 1.768430 
# 
# From -- ./inp_files/138906.got.cif
#   From: 2010.06.25/outbox.cif.g09.slc.cpg/sg15_70_cif.got.tgz:138906.got - 2010.06.28 07:06:18.
