data_PCOD8135358
_publ_section_title
;
Structure prediction by ZEFSAII (Michael W. Deem and Ramdas Pophale) SiO2 
 PCOD8135358
Probable space group: C 2/C
;
_chemical_formula_sum "Si O2"
_cell_formula_units_Z 40
_cell_length_a 6.112607
_cell_length_b 23.572814
_cell_length_c 15.103853
_cell_angle_alpha 90.000000
_cell_angle_beta 110.964265
_cell_angle_gamma 90.000000
_cell_volume 2032.269366
_symmetry_space_group_name_H-M "C 2/C"
_symmetry_group_IT_number 15
_symmetry_cell_setting 'monoclinic'
loop_
_space_group_symop_operation_xyz
x,y,z
-x,y,1/2-z
-x,-y,-z
x,-y,1/2+z
1/2+x,1/2+y,z
1/2-x,1/2+y,1/2-z
1/2-x,1/2-y,-z
1/2+x,1/2-y,1/2+z
loop_
_atom_site_type_symbol
_atom_site_label
_atom_site_fract_x
_atom_site_fract_y
_atom_site_fract_z
Si Si1 0.956682 0.100974 0.345906
Si Si2 0.337038 0.207158 0.141212
Si Si3 0.528541 0.790912 0.479437
Si Si4 0.747929 0.019797 0.433687
Si Si5 0.932442 0.415046 0.016589
O O1 0.855646 0.158980 0.371188
O O2 0.770623 0.050363 0.340938
O O3 0.000000 0.108200 0.250000
O O4 0.200532 0.084444 0.424128
O O5 0.500000 0.215573 0.250000
O O6 0.199478 0.264813 0.099478
O O7 0.499198 0.194663 0.079605
O O8 0.750000 0.750000 0.500000
O O9 0.549932 0.852757 0.436368
O O10 0.652760 0.067957 0.487579
O O11 0.584088 0.963616 0.409005
O O12 0.000000 0.000000 0.500000
#
# Coordination Sequence:
#
# PCOD8135358 Si02
#       5
#     8   8   8   8   8
#     4  11  21  34  60  93 120 149 202 266 313 361
#     4  11  24  37  58  96 125 156 212 267 313 379
#     4  11  22  39  64  88 123 168 209 253 325 378
#     4   9  20  35  59  87 114 153 200 252 302 367
#     4  10  19  38  60  86 118 163 203 246 304 381
#
# _framework density 19.68243
#
# number of rings (size 3 to 8) (size 9 to 14) (size 15 to 20)
#    0.000    1.600    4.000    1.200    0.000    0.000 
#    0.000    0.000    0.000   28.800    0.000    0.000 
#    0.000    0.000    0.000    0.000    0.000    0.000 
#
# Total GULP energy -247823.343360 kJ/mol
# GULP energy per Si atom -12391.167168 kJ/mol
# Density = 1.963763 g / cm^3
# Si number density = 19.682430 Si / 1000 Ang^3
#
#
#
# Elastic Constant Matrix: (Units=GPa)
#
#
# Indices 1 2 3 4 5 6 
#
# 1 107.3965 48.7756 25.6339 0.0000 -18.4852 0.0000
# 2 48.7756 157.9154 21.6268 0.0000 -18.1300 0.0000
# 3 25.6339 21.6268 62.0500 0.0000 -8.4000 0.0000
# 4 0.0000 0.0000 0.0000 19.7431 0.0000 -4.1337
# 5 -18.4852 -18.1300 -8.4000 0.0000 36.3318 0.0000
# 6 0.0000 0.0000 0.0000 -4.1337 0.0000 47.9937
#
#
#
# Elastic Compliance Matrix: (Units=1/GPa)
#
#
# Indices 1 2 3 4 5 6 
#
# 1 0.012097 -0.002806 -0.003485 0.000000 0.003949 0.000000
# 2 -0.002806 0.007604 -0.001209 0.000000 0.002088 0.000000
# 3 -0.003485 -0.001209 0.018226 0.000000 0.001838 0.000000
# 4 0.000000 0.000000 0.000000 0.051581 0.000000 0.004443
# 5 0.003949 0.002088 0.001838 0.000000 0.031000 0.000000
# 6 0.000000 0.000000 0.000000 0.004443 0.000000 0.021219
#
#
# Mechanical properties :
#
#
# Convention : Reuss Voigt Hill
#
# Bulk Modulus (GPa) = 43.61421 57.71493 50.66457
# Shear Modulus (GPa) = 30.41949 36.23543 33.32746
#
# Velocity S-wave (km/s) = 3.93557 4.29535 4.11939
# Velocity P-wave (km/s) = 6.54665 7.34757 6.95864
#
# Compressibility (1/GPa) = 0.02292831
#
# Stress axis : x y z
#
# Youngs Moduli (GPa) = 82.66445 131.50376 54.86735
#
# Poissons Ratio (x) = 0.36897 0.19121
# Poissons Ratio (y) = 0.23194 0.06632
# Poissons Ratio (z) = 0.28808 0.15894
#
# Static dielectric constant tensor:
#      x y z
#    x 4.030240 0.000000 -0.243950 
#    y 0.000000 4.236590 0.000000 
#    z -0.243950 0.000000 3.265200 
# 
# 
# High freq. dielectric constant tensor:
#      x y z
#    x 1.793880 0.000000 -0.006880 
#    y 0.000000 1.788570 0.000000 
#    z -0.006880 0.000000 1.715470 
# 
# From -- ./inp_files/73073.got.cif
#   From: 2010.06.25/outbox.cif.g09.slc.cpg/sg15_37_cif.got.tgz:73073.got - 2010.06.28 07:06:18.
