data_PCOD8135257
_publ_section_title
;
Structure prediction by ZEFSAII (Michael W. Deem and Ramdas Pophale) SiO2 
 PCOD8135257
Probable space group: C 2/C
;
_chemical_formula_sum "Si O2"
_cell_formula_units_Z 52
_cell_length_a 8.393951
_cell_length_b 28.750410
_cell_length_c 12.425692
_cell_angle_alpha 90.000000
_cell_angle_beta 120.950149
_cell_angle_gamma 90.000000
_cell_volume 2571.718752
_symmetry_space_group_name_H-M "C 2/C"
_symmetry_group_IT_number 15
_symmetry_cell_setting 'monoclinic'
loop_
_space_group_symop_operation_xyz
x,y,z
-x,y,1/2-z
-x,-y,-z
x,-y,1/2+z
1/2+x,1/2+y,z
1/2-x,1/2+y,1/2-z
1/2-x,1/2-y,-z
1/2+x,1/2-y,1/2+z
loop_
_atom_site_type_symbol
_atom_site_label
_atom_site_fract_x
_atom_site_fract_y
_atom_site_fract_z
Si Si1 0.795783 0.815042 0.675640
Si Si2 0.297405 0.874664 0.655153
Si Si3 0.003458 0.946043 0.022542
Si Si4 0.500000 0.586676 0.750000
Si Si5 0.317131 0.148019 0.810416
Si Si6 0.115160 0.292416 0.977210
Si Si7 0.778464 0.628312 0.560829
O O1 0.795375 0.853235 0.770075
O O2 0.607773 0.782889 0.622035
O O3 0.793565 0.839440 0.559210
O O4 0.000000 0.788875 0.750000
O O5 0.500000 0.895000 0.750000
O O6 0.182147 0.918965 0.575558
O O7 0.315249 0.835084 0.570680
O O8 0.036170 0.945263 0.160923
O O9 0.175380 0.921208 0.022500
O O10 0.000000 0.000000 0.000000
O O11 0.674521 0.619761 0.833705
O O12 0.240529 0.155329 0.661948
O O13 0.504498 0.117548 0.874471
O O14 0.357520 0.196543 0.886101
O O15 0.250000 0.250000 0.000000
#
# Coordination Sequence:
#
# PCOD8135257 Si02
#       7
#     8   8   8   4   8   8   8
#     4  10  19  37  68  86 123 164 202 252 317 379
#     4  10  21  40  61  88 127 162 202 257 320 372
#     4  11  22  38  60  90 124 164 215 256 305 376
#     4  10  20  38  60  84 118 162 206 254 312 362
#     4   9  18  37  64  86 118 156 201 256 311 364
#     4  10  21  40  67  92 117 161 213 259 315 385
#     4   9  19  36  61  89 118 164 197 250 318 362
#
# _framework density 20.219940000000001
#
# number of rings (size 3 to 8) (size 9 to 14) (size 15 to 20)
#    0.000    2.154    3.077    0.000    0.000    1.231 
#    9.692    1.538    6.769    0.000    0.000    0.000 
#    0.000    0.000    0.000    0.000    0.000    0.000 
#
# Total GULP energy -322133.347108 kJ/mol
# GULP energy per Si atom -12389.744120 kJ/mol
# Density = 2.017392 g / cm^3
# Si number density = 20.219940 Si / 1000 Ang^3
#
#
#
# Elastic Constant Matrix: (Units=GPa)
#
#
# Indices 1 2 3 4 5 6 
#
# 1 138.2291 60.7563 49.7947 0.0000 28.1889 0.0000
# 2 60.7563 95.6426 39.2332 0.0000 21.3209 0.0000
# 3 49.7947 39.2332 92.2927 0.0000 9.4877 0.0000
# 4 0.0000 0.0000 0.0000 19.5193 0.0000 1.8322
# 5 28.1889 21.3209 9.4877 0.0000 40.7271 0.0000
# 6 0.0000 0.0000 0.0000 1.8322 0.0000 26.2132
#
#
#
# Elastic Compliance Matrix: (Units=1/GPa)
#
#
# Indices 1 2 3 4 5 6 
#
# 1 0.011662 -0.004824 -0.003761 0.000000 -0.004670 0.000000
# 2 -0.004824 0.015992 -0.003768 0.000000 -0.004155 0.000000
# 3 -0.003761 -0.003768 0.014339 0.000000 0.001235 0.000000
# 4 0.000000 0.000000 0.000000 0.051570 0.000000 -0.003605
# 5 -0.004670 -0.004155 0.001235 0.000000 0.029673 0.000000
# 6 0.000000 0.000000 0.000000 -0.003605 0.000000 0.038401
#
#
# Mechanical properties :
#
#
# Convention : Reuss Voigt Hill
#
# Bulk Modulus (GPa) = 57.85004 69.52590 63.68797
# Shear Modulus (GPa) = 26.02722 29.05061 27.53891
#
# Velocity S-wave (km/s) = 3.59166 3.79454 3.69449
# Velocity P-wave (km/s) = 6.77292 7.32513 7.05443
#
# Compressibility (1/GPa) = 0.01728607
#
# Stress axis : x y z
#
# Youngs Moduli (GPa) = 85.74797 62.53045 69.73900
#
# Poissons Ratio (x) = 0.30167 0.26230
# Poissons Ratio (y) = 0.41368 0.26279
# Poissons Ratio (z) = 0.32251 0.23563
#
# Static dielectric constant tensor:
#      x y z
#    x 4.085690 0.000000 0.068140 
#    y 0.000000 3.127570 0.000000 
#    z 0.068140 0.000000 4.123900 
# 
# 
# High freq. dielectric constant tensor:
#      x y z
#    x 1.814640 0.000000 0.000550 
#    y 0.000000 1.729900 0.000000 
#    z 0.000550 0.000000 1.815400 
# 
# From -- ./inp_files/138303.got.cif
#   From: 2010.06.25/outbox.cif.g09.slc.cpg/sg15_70_cif.got.tgz:138303.got - 2010.06.28 07:06:18.
