data_PCOD8135598
_publ_section_title
;
Structure prediction by ZEFSAII (Michael W. Deem and Ramdas Pophale) SiO2 
 PCOD8135598
Probable space group: C 2/C
;
_chemical_formula_sum "Si O2"
_cell_formula_units_Z 44
_cell_length_a 19.188472
_cell_length_b 18.752294
_cell_length_c 12.130465
_cell_angle_alpha 90.000000
_cell_angle_beta 150.565681
_cell_angle_gamma 90.000000
_cell_volume 2145.013044
_symmetry_space_group_name_H-M "C 2/C"
_symmetry_group_IT_number 15
_symmetry_cell_setting 'monoclinic'
loop_
_space_group_symop_operation_xyz
x,y,z
-x,y,1/2-z
-x,-y,-z
x,-y,1/2+z
1/2+x,1/2+y,z
1/2-x,1/2+y,1/2-z
1/2-x,1/2-y,-z
1/2+x,1/2-y,1/2+z
loop_
_atom_site_type_symbol
_atom_site_label
_atom_site_fract_x
_atom_site_fract_y
_atom_site_fract_z
Si Si1 0.891979 0.539100 0.203985
Si Si2 0.061958 0.941641 0.221929
Si Si3 0.531800 0.109427 0.591281
Si Si4 0.310234 0.321456 0.493047
Si Si5 0.000000 0.307143 0.250000
Si Si6 0.517237 0.601551 0.114591
O O1 0.896250 0.465127 0.275690
O O2 0.000000 0.539484 0.250000
O O3 0.935302 0.600949 0.350396
O O4 0.732240 0.555171 0.946015
O O5 0.000000 0.909323 0.250000
O O6 0.002685 0.890143 0.043964
O O7 0.992242 0.019420 0.112462
O O8 0.651554 0.168924 0.730738
O O9 0.446095 0.142305 0.576146
O O10 0.359819 0.239939 0.587895
O O11 0.330027 0.370577 0.631093
O O12 0.406973 0.348515 0.525964
#
# Coordination Sequence:
#
# PCOD8135598 Si02
#       6
#     8   8   8   8   4   8
#     4  11  23  36  58  86 129 153 179 249 302 364
#     4  11  19  33  54  85 118 156 190 239 288 359
#     4  11  21  37  56  87 119 151 197 235 310 347
#     4  10  19  39  58  81 113 155 199 250 283 339
#     4  10  22  36  60  84 112 156 210 246 274 348
#     4   9  18  31  55  80 113 149 199 230 291 340
#
# _framework density 20.512695999999998
#
# number of rings (size 3 to 8) (size 9 to 14) (size 15 to 20)
#    0.000    1.818    4.545    1.636    0.000    5.818 
#    0.000    0.000    0.000   14.182    0.000    0.000 
#    0.000    0.000    0.000    0.000    0.000    0.000 
#
# Total GULP energy -272673.786553 kJ/mol
# GULP energy per Si atom -12394.263025 kJ/mol
# Density = 2.046601 g / cm^3
# Si number density = 20.512696 Si / 1000 Ang^3
#
#
#
# Elastic Constant Matrix: (Units=GPa)
#
#
# Indices 1 2 3 4 5 6 
#
# 1 93.3203 5.7045 33.5780 0.0000 -18.3462 0.0000
# 2 5.7045 59.9711 19.0091 0.0000 -14.9689 0.0000
# 3 33.5780 19.0091 77.9116 0.0000 -15.8153 0.0000
# 4 0.0000 0.0000 0.0000 21.7285 0.0000 -10.8269
# 5 -18.3462 -14.9689 -15.8153 0.0000 42.8408 0.0000
# 6 0.0000 0.0000 0.0000 -10.8269 0.0000 20.5551
#
#
#
# Elastic Compliance Matrix: (Units=1/GPa)
#
#
# Indices 1 2 3 4 5 6 
#
# 1 0.013357 0.001463 -0.005241 0.000000 0.004296 0.000000
# 2 0.001463 0.019311 -0.004157 0.000000 0.005839 0.000000
# 3 -0.005241 -0.004157 0.016602 0.000000 0.002432 0.000000
# 4 0.000000 0.000000 0.000000 0.062400 0.000000 0.032868
# 5 0.004296 0.005839 0.002432 0.000000 0.028120 0.000000
# 6 0.000000 0.000000 0.000000 0.032868 0.000000 0.065962
#
#
# Mechanical properties :
#
#
# Convention : Reuss Voigt Hill
#
# Bulk Modulus (GPa) = 29.94060 38.64293 34.29176
# Shear Modulus (GPa) = 21.48183 28.55229 25.01706
#
# Velocity S-wave (km/s) = 3.23963 3.73491 3.49605
# Velocity P-wave (km/s) = 5.34990 6.12200 5.74892
#
# Compressibility (1/GPa) = 0.03339946
#
# Stress axis : x y z
#
# Youngs Moduli (GPa) = 74.86770 51.78496 60.23450
#
# Poissons Ratio (x) = -0.07577 0.31571
# Poissons Ratio (y) = -0.10955 0.25038
# Poissons Ratio (z) = 0.39241 0.21526
#
# Static dielectric constant tensor:
#      x y z
#    x 3.734000 0.000000 -0.145860 
#    y 0.000000 3.635780 0.000000 
#    z -0.145860 0.000000 3.900580 
# 
# 
# High freq. dielectric constant tensor:
#      x y z
#    x 1.809810 0.000000 -0.001170 
#    y 0.000000 1.778410 0.000000 
#    z -0.001170 0.000000 1.794530 
# 
# From -- ./inp_files/114150.got.cif
#   From: 2010.06.25/outbox.cif.g09.slc.cpg/sg15_58_cif.got.tgz:114150.got - 2010.06.28 07:06:18.
