data_PCOD8135133
_publ_section_title
;
Structure prediction by ZEFSAII (Michael W. Deem and Ramdas Pophale) SiO2 
 PCOD8135133
Probable space group: C 2/C
;
_chemical_formula_sum "Si O2"
_cell_formula_units_Z 60
_cell_length_a 8.009978
_cell_length_b 18.295794
_cell_length_c 18.581508
_cell_angle_alpha 90.000000
_cell_angle_beta 90.696769
_cell_angle_gamma 90.000000
_cell_volume 2722.898342
_symmetry_space_group_name_H-M "C 2/C"
_symmetry_group_IT_number 15
_symmetry_cell_setting 'monoclinic'
loop_
_space_group_symop_operation_xyz
x,y,z
-x,y,1/2-z
-x,-y,-z
x,-y,1/2+z
1/2+x,1/2+y,z
1/2-x,1/2+y,1/2-z
1/2-x,1/2-y,-z
1/2+x,1/2-y,1/2+z
loop_
_atom_site_type_symbol
_atom_site_label
_atom_site_fract_x
_atom_site_fract_y
_atom_site_fract_z
Si Si1 0.067281 0.766298 0.971187
Si Si2 0.589911 0.750327 0.176878
Si Si3 0.937273 0.376574 0.508763
Si Si4 0.176773 0.082364 0.501111
Si Si5 0.245388 0.601707 0.346200
Si Si6 0.994055 0.008582 0.615677
Si Si7 0.189882 0.409455 0.147674
Si Si8 0.000000 0.514804 0.250000
O O1 0.041098 0.851960 0.986645
O O2 0.051156 0.750299 0.886032
O O3 0.250000 0.750000 0.000000
O O4 0.933497 0.712894 0.010278
O O5 0.500000 0.732001 0.250000
O O6 0.728075 0.687978 0.164088
O O7 0.680178 0.828728 0.181568
O O8 0.846160 0.410098 0.577461
O O9 0.848917 0.407787 0.437556
O O10 0.131698 0.397766 0.509018
O O11 0.145563 0.055904 0.582538
O O12 0.133531 0.018455 0.446038
O O13 0.423296 0.559700 0.342954
O O14 0.140236 0.569092 0.280388
O O15 0.877571 0.060312 0.664502
O O16 0.061688 0.463649 0.185779
#
# Coordination Sequence:
#
# PCOD8135133 Si02
#       8
#     8   8   8   8   8   8   8   4
#     4   9  20  38  69 101 135 179 230 287 340 415
#     4  11  25  46  71  99 142 191 230 287 359 428
#     4  10  22  41  69 100 138 181 227 287 344 412
#     4  10  19  37  63 106 137 171 220 283 348 399
#     4  12  27  44  71 106 138 184 236 293 355 413
#     4  11  23  37  67  98 136 171 226 290 338 403
#     4  11  25  46  71  97 139 184 237 283 349 427
#     4  12  28  48  68  98 140 194 230 284 358 434
#
# _framework density 22.035343999999998
#
# number of rings (size 3 to 8) (size 9 to 14) (size 15 to 20)
#    0.000    1.333    2.000    3.200    3.733    4.800 
#    0.000    1.333    0.000    0.000    0.000    0.000 
#    0.000    0.000    0.000    0.000    0.000    0.000 
#
# Total GULP energy -371939.844004 kJ/mol
# GULP energy per Si atom -12397.994800 kJ/mol
# Density = 2.198519 g / cm^3
# Si number density = 22.035344 Si / 1000 Ang^3
#
#
#
# Elastic Constant Matrix: (Units=GPa)
#
#
# Indices 1 2 3 4 5 6 
#
# 1 100.8489 53.9438 26.2550 0.0000 -1.6214 0.0000
# 2 53.9438 125.7300 34.7614 0.0000 0.3802 0.0000
# 3 26.2550 34.7614 71.2915 0.0000 3.1258 0.0000
# 4 0.0000 0.0000 0.0000 22.8347 0.0000 -5.0801
# 5 -1.6214 0.3802 3.1258 0.0000 26.5797 0.0000
# 6 0.0000 0.0000 0.0000 -5.0801 0.0000 40.6102
#
#
#
# Elastic Compliance Matrix: (Units=1/GPa)
#
#
# Indices 1 2 3 4 5 6 
#
# 1 0.013260 -0.005003 -0.002496 0.000000 0.001174 0.000000
# 2 -0.005003 0.011085 -0.003560 0.000000 -0.000045 0.000000
# 3 -0.002496 -0.003560 0.016773 0.000000 -0.002074 0.000000
# 4 0.000000 0.000000 0.000000 0.045047 0.000000 0.005635
# 5 0.001174 -0.000045 -0.002074 0.000000 0.037939 0.000000
# 6 0.000000 0.000000 0.000000 0.005635 0.000000 0.025329
#
#
# Mechanical properties :
#
#
# Convention : Reuss Voigt Hill
#
# Bulk Modulus (GPa) = 52.63098 58.64344 55.63721
# Shear Modulus (GPa) = 28.10824 30.19892 29.15358
#
# Velocity S-wave (km/s) = 3.57543 3.70601 3.64130
# Velocity P-wave (km/s) = 6.40168 6.70700 6.55612
#
# Compressibility (1/GPa) = 0.01900022
#
# Stress axis : x y z
#
# Youngs Moduli (GPa) = 75.41226 90.21603 59.61987
#
# Poissons Ratio (x) = 0.45134 0.14879
# Poissons Ratio (y) = 0.37728 0.21227
# Poissons Ratio (z) = 0.18820 0.32120
#
# Static dielectric constant tensor:
#      x y z
#    x 3.839070 0.000000 -0.015310 
#    y 0.000000 4.848520 0.000000 
#    z -0.015310 0.000000 3.776230 
# 
# 
# High freq. dielectric constant tensor:
#      x y z
#    x 1.860950 0.000000 0.000950 
#    y 0.000000 1.892940 0.000000 
#    z 0.000950 0.000000 1.849540 
# 
# From -- ./inp_files/190978.got.cif
#   From: 2010.06.25/outbox.cif.g09.slc.cpg/sg15_96_cif.got.tgz:190978.got - 2010.06.28 07:06:18.
