data_PCOD8135452
_publ_section_title
;
Structure prediction by ZEFSAII (Michael W. Deem and Ramdas Pophale) SiO2 
 PCOD8135452
Probable space group: C 2/C
;
_chemical_formula_sum "Si O2"
_cell_formula_units_Z 56
_cell_length_a 19.300301
_cell_length_b 12.474855
_cell_length_c 14.719020
_cell_angle_alpha 90.000000
_cell_angle_beta 125.298293
_cell_angle_gamma 90.000000
_cell_volume 2892.351204
_symmetry_space_group_name_H-M "C 2/C"
_symmetry_group_IT_number 15
_symmetry_cell_setting 'monoclinic'
loop_
_space_group_symop_operation_xyz
x,y,z
-x,y,1/2-z
-x,-y,-z
x,-y,1/2+z
1/2+x,1/2+y,z
1/2-x,1/2+y,1/2-z
1/2-x,1/2-y,-z
1/2+x,1/2-y,1/2+z
loop_
_atom_site_type_symbol
_atom_site_label
_atom_site_fract_x
_atom_site_fract_y
_atom_site_fract_z
Si Si1 0.899757 0.893301 0.162017
Si Si2 0.166553 0.432823 0.837968
Si Si3 0.948172 0.406637 0.915639
Si Si4 0.893729 0.689355 0.043601
Si Si5 0.308578 0.781675 0.910599
Si Si6 0.731560 0.717115 0.816577
Si Si7 0.206664 0.090413 0.475211
O O1 0.878523 0.808861 0.067438
O O2 0.849866 0.854942 0.215254
O O3 0.000000 0.899520 0.250000
O O4 0.867638 0.008813 0.106280
O O5 0.107979 0.458528 0.707065
O O6 0.107889 0.398772 0.877983
O O7 0.227712 0.333770 0.860007
O O8 0.220961 0.536021 0.907455
O O9 0.891893 0.347990 0.948064
O O10 0.013134 0.316815 0.928867
O O11 0.000000 0.500000 0.000000
O O12 0.818661 0.661065 0.915380
O O13 0.265749 0.728691 0.789578
O O14 0.243982 0.863601 0.909588
O O15 0.334698 0.687167 0.999203
#
# Coordination Sequence:
#
# PCOD8135452 Si02
#       7
#     8   8   8   8   8   8   8
#     4  11  21  39  65  91 117 156 203 254 298 352
#     4  10  19  38  63  89 117 161 201 243 304 362
#     4  11  24  38  61  96 125 153 203 254 299 361
#     4  11  19  38  62  94 122 152 204 252 300 349
#     4  10  25  41  58  87 124 162 197 255 302 356
#     4  10  20  38  64  91 120 156 204 248 299 356
#     4  11  22  43  62  82 124 167 202 241 312 366
#
# _framework density 19.361411
#
# number of rings (size 3 to 8) (size 9 to 14) (size 15 to 20)
#    0.000    1.429    2.857    4.714    2.000    1.143 
#    2.571    1.429    0.000    0.000    0.000    0.000 
#    0.000    0.000    0.000    0.000    0.000    0.000 
#
# Total GULP energy -347225.265519 kJ/mol
# GULP energy per Si atom -12400.902340 kJ/mol
# Density = 1.931734 g / cm^3
# Si number density = 19.361411 Si / 1000 Ang^3
#
#
#
# Elastic Constant Matrix: (Units=GPa)
#
#
# Indices 1 2 3 4 5 6 
#
# 1 115.1976 37.6270 66.5554 0.0000 -4.2876 0.0000
# 2 37.6270 88.0815 47.4055 0.0000 -3.0746 0.0000
# 3 66.5554 47.4055 125.0782 0.0000 9.1184 0.0000
# 4 0.0000 0.0000 0.0000 33.3163 0.0000 7.1255
# 5 -4.2876 -3.0746 9.1184 0.0000 34.2320 0.0000
# 6 0.0000 0.0000 0.0000 7.1255 0.0000 24.5143
#
#
#
# Elastic Compliance Matrix: (Units=1/GPa)
#
#
# Indices 1 2 3 4 5 6 
#
# 1 0.013218 -0.002040 -0.006494 0.000000 0.003202 0.000000
# 2 -0.002040 0.014840 -0.004709 0.000000 0.002332 0.000000
# 3 -0.006494 -0.004709 0.013589 0.000000 -0.004856 0.000000
# 4 0.000000 0.000000 0.000000 0.032005 0.000000 -0.009303
# 5 0.003202 0.002332 -0.004856 0.000000 0.031116 0.000000
# 6 0.000000 0.000000 0.000000 -0.009303 0.000000 0.043497
#
#
# Mechanical properties :
#
#
# Convention : Reuss Voigt Hill
#
# Bulk Modulus (GPa) = 65.95408 70.17035 68.06221
# Shear Modulus (GPa) = 27.80790 30.19715 29.00252
#
# Velocity S-wave (km/s) = 3.79391 3.95353 3.87454
# Velocity P-wave (km/s) = 7.30276 7.56053 7.43276
#
# Compressibility (1/GPa) = 0.01516207
#
# Stress axis : x y z
#
# Youngs Moduli (GPa) = 75.65483 67.38367 73.58763
#
# Poissons Ratio (x) = 0.13745 0.47786
# Poissons Ratio (y) = 0.15432 0.34654
# Poissons Ratio (z) = 0.49128 0.31732
#
# Static dielectric constant tensor:
#      x y z
#    x 3.783110 0.000000 -0.048500 
#    y 0.000000 3.572380 0.000000 
#    z -0.048500 0.000000 3.613850 
# 
# 
# High freq. dielectric constant tensor:
#      x y z
#    x 1.754730 0.000000 -0.003190 
#    y 0.000000 1.749800 0.000000 
#    z -0.003190 0.000000 1.752950 
# 
# From -- ./inp_files/161399.got.cif
#   From: 2010.06.25/outbox.cif.g09.slc.cpg/sg15_81_cif.got.tgz:161399.got - 2010.06.28 07:06:18.
