data_PCOD8135977
_publ_section_title
;
Structure prediction by ZEFSAII (Michael W. Deem and Ramdas Pophale) SiO2 
 PCOD8135977
Probable space group: C 2/C
;
_chemical_formula_sum "Si O2"
_cell_formula_units_Z 44
_cell_length_a 29.228844
_cell_length_b 8.198797
_cell_length_c 14.146606
_cell_angle_alpha 90.000000
_cell_angle_beta 147.460845
_cell_angle_gamma 90.000000
_cell_volume 1823.459285
_symmetry_space_group_name_H-M "C 2/C"
_symmetry_group_IT_number 15
_symmetry_cell_setting 'monoclinic'
loop_
_space_group_symop_operation_xyz
x,y,z
-x,y,1/2-z
-x,-y,-z
x,-y,1/2+z
1/2+x,1/2+y,z
1/2-x,1/2+y,1/2-z
1/2-x,1/2-y,-z
1/2+x,1/2-y,1/2+z
loop_
_atom_site_type_symbol
_atom_site_label
_atom_site_fract_x
_atom_site_fract_y
_atom_site_fract_z
Si Si1 0.063898 0.331082 0.529429
Si Si2 0.500000 0.686002 0.750000
Si Si3 0.623175 0.097742 0.768175
Si Si4 0.643082 0.535165 0.582778
Si Si5 0.617236 0.041116 0.451407
Si Si6 0.730770 0.771520 0.297260
O O1 0.113804 0.428759 0.696580
O O2 0.112618 0.158808 0.611037
O O3 0.062831 0.424797 0.426617
O O4 0.965703 0.304569 0.386980
O O5 0.440566 0.572961 0.582736
O O6 0.439523 0.817012 0.700037
O O7 0.693564 0.204300 0.836900
O O8 0.657300 0.066799 0.934833
O O9 0.721353 0.419971 0.754176
O O10 0.674199 0.649394 0.547986
O O11 0.684568 0.133141 0.632458
#
# Coordination Sequence:
#
# PCOD8135977 Si02
#       6
#     8   4   8   8   8   8
#     4  10  21  37  67  93 131 170 218 266 325 384
#     4  10  22  38  70  98 128 176 226 260 326 394
#     4  10  20  38  69  97 127 172 222 268 326 391
#     4  11  24  45  66  97 135 179 215 274 328 394
#     4  10  19  41  68  94 129 176 213 272 326 392
#     4  10  23  43  64  93 137 172 218 272 334 379
#
# _framework density 24.129960000000001
#
# number of rings (size 3 to 8) (size 9 to 14) (size 15 to 20)
#    0.000    1.818    1.818    2.182    5.091    0.727 
#    0.000   11.818    0.000    0.000    0.000    0.000 
#    0.000    0.000    0.000    0.000    0.000    0.000 
#
# Total GULP energy -272552.268716 kJ/mol
# GULP energy per Si atom -12388.739487 kJ/mol
# Density = 2.407504 g / cm^3
# Si number density = 24.129960 Si / 1000 Ang^3
#
#
#
# Elastic Constant Matrix: (Units=GPa)
#
#
# Indices 1 2 3 4 5 6 
#
# 1 140.4864 52.0996 11.8335 0.0000 -6.8283 0.0000
# 2 52.0996 126.9898 25.8413 0.0000 9.6721 0.0000
# 3 11.8335 25.8413 57.8994 0.0000 -13.8148 0.0000
# 4 0.0000 0.0000 0.0000 30.0488 0.0000 11.7778
# 5 -6.8283 9.6721 -13.8148 0.0000 31.5984 0.0000
# 6 0.0000 0.0000 0.0000 11.7778 0.0000 54.4703
#
#
#
# Elastic Compliance Matrix: (Units=1/GPa)
#
#
# Indices 1 2 3 4 5 6 
#
# 1 0.008702 -0.004005 0.000838 0.000000 0.003472 0.000000
# 2 -0.004005 0.011225 -0.005825 0.000000 -0.006848 0.000000
# 3 0.000838 -0.005825 0.022518 0.000000 0.011809 0.000000
# 4 0.000000 0.000000 0.000000 0.036361 0.000000 -0.007862
# 5 0.003472 -0.006848 0.011809 0.000000 0.039656 0.000000
# 6 0.000000 0.000000 0.000000 -0.007862 0.000000 0.020059
#
#
# Mechanical properties :
#
#
# Convention : Reuss Voigt Hill
#
# Bulk Modulus (GPa) = 40.88505 56.10269 48.49387
# Shear Modulus (GPa) = 30.36607 38.93024 34.64815
#
# Velocity S-wave (km/s) = 3.55130 4.02102 3.79344
# Velocity P-wave (km/s) = 5.81344 6.69767 6.27116
#
# Compressibility (1/GPa) = 0.02445882
#
# Stress axis : x y z
#
# Youngs Moduli (GPa) = 114.92186 89.08979 44.40982
#
# Poissons Ratio (x) = 0.35679 -0.03719
# Poissons Ratio (y) = 0.46024 0.25869
# Poissons Ratio (z) = -0.09625 0.51896
#
# Static dielectric constant tensor:
#      x y z
#    x 4.375180 0.000000 0.259060 
#    y 0.000000 4.579020 0.000000 
#    z 0.259060 0.000000 4.295370 
# 
# 
# High freq. dielectric constant tensor:
#      x y z
#    x 1.946470 0.000000 0.019850 
#    y 0.000000 1.972230 0.000000 
#    z 0.019850 0.000000 1.958910 
# 
# From -- ./inp_files/180610.got.cif
#   From: 2010.06.25/outbox.cif.g09.slc.cpg/sg15_91_cif.got.tgz:180610.got - 2010.06.28 07:06:18.
