data_PCOD8135260
_publ_section_title
;
Structure prediction by ZEFSAII (Michael W. Deem and Ramdas Pophale) SiO2 
 PCOD8135260
Probable space group: C 2/C
;
_chemical_formula_sum "Si O2"
_cell_formula_units_Z 40
_cell_length_a 11.434491
_cell_length_b 9.418801
_cell_length_c 14.692375
_cell_angle_alpha 90.000000
_cell_angle_beta 92.156772
_cell_angle_gamma 90.000000
_cell_volume 1581.236014
_symmetry_space_group_name_H-M "C 2/C"
_symmetry_group_IT_number 15
_symmetry_cell_setting 'monoclinic'
loop_
_space_group_symop_operation_xyz
x,y,z
-x,y,1/2-z
-x,-y,-z
x,-y,1/2+z
1/2+x,1/2+y,z
1/2-x,1/2+y,1/2-z
1/2-x,1/2-y,-z
1/2+x,1/2-y,1/2+z
loop_
_atom_site_type_symbol
_atom_site_label
_atom_site_fract_x
_atom_site_fract_y
_atom_site_fract_z
Si Si1 0.191228 0.962926 0.255495
Si Si2 0.212795 0.046749 0.447800
Si Si3 0.098734 0.216965 0.598472
Si Si4 0.614633 0.753512 0.196213
Si Si5 0.915222 0.632314 0.998611
O O1 0.105872 0.860168 0.195677
O O2 0.320704 0.893352 0.262329
O O3 0.144975 0.979970 0.358601
O O4 0.198832 0.115847 0.206312
O O5 0.121377 0.111189 0.514719
O O6 0.304893 0.158439 0.406996
O O7 0.281877 0.922073 0.505403
O O8 0.964296 0.271034 0.583000
O O9 0.500000 0.720346 0.250000
O O10 0.573023 0.777147 0.092689
O O11 0.000000 0.500000 0.000000
#
# Coordination Sequence:
#
# PCOD8135260 Si02
#       5
#     8   8   8   8   8
#     4  11  22  41  68 103 130 173 227 273 324 405
#     4   9  19  37  62  95 127 170 221 261 326 395
#     4  10  19  37  68  88 128 179 211 263 335 383
#     4  11  24  43  68  93 134 177 216 273 340 386
#     4   9  20  36  63  92 124 167 221 269 317 399
#
# _framework density 25.296665999999998
#
# number of rings (size 3 to 8) (size 9 to 14) (size 15 to 20)
#    0.000    2.000    2.000    1.200    5.600    0.800 
#    0.000    7.000    0.000    0.000    0.000    0.000 
#    0.000    0.000    0.000    0.000    0.000    0.000 
#
# Total GULP energy -247904.215203 kJ/mol
# GULP energy per Si atom -12395.210760 kJ/mol
# Density = 2.523909 g / cm^3
# Si number density = 25.296666 Si / 1000 Ang^3
#
#
#
# Elastic Constant Matrix: (Units=GPa)
#
#
# Indices 1 2 3 4 5 6 
#
# 1 36.0393 35.3457 38.8825 0.0000 19.1697 0.0000
# 2 35.3457 123.2607 69.5706 0.0000 19.1610 0.0000
# 3 38.8825 69.5706 157.3313 0.0000 45.2083 0.0000
# 4 0.0000 0.0000 0.0000 64.9916 0.0000 19.3987
# 5 19.1697 19.1610 45.2083 0.0000 31.4660 0.0000
# 6 0.0000 0.0000 0.0000 19.3987 0.0000 31.1512
#
#
#
# Elastic Compliance Matrix: (Units=1/GPa)
#
#
# Indices 1 2 3 4 5 6 
#
# 1 0.051915 -0.010394 -0.001643 0.000000 -0.022938 0.000000
# 2 -0.010394 0.012896 -0.004593 0.000000 0.005078 0.000000
# 3 -0.001643 -0.004593 0.013117 0.000000 -0.015048 0.000000
# 4 0.000000 0.000000 0.000000 0.018899 0.000000 -0.011769
# 5 -0.022938 0.005078 -0.015048 0.000000 0.064282 0.000000
# 6 0.000000 0.000000 0.000000 -0.011769 0.000000 0.039430
#
#
# Mechanical properties :
#
#
# Convention : Reuss Voigt Hill
#
# Bulk Modulus (GPa) = 22.38722 67.13653 44.76188
# Shear Modulus (GPa) = 20.10539 37.04392 28.57465
#
# Velocity S-wave (km/s) = 2.82225 3.83087 3.36457
# Velocity P-wave (km/s) = 4.41466 6.79446 5.72948
#
# Compressibility (1/GPa) = 0.04466834
#
# Stress axis : x y z
#
# Youngs Moduli (GPa) = 19.26233 77.54086 76.23685
#
# Poissons Ratio (x) = 0.80594 0.12526
# Poissons Ratio (y) = 0.20021 0.35017
# Poissons Ratio (z) = 0.03165 0.35616
#
# Static dielectric constant tensor:
#      x y z
#    x 4.001480 0.000000 0.545980 
#    y 0.000000 5.076100 0.000000 
#    z 0.545980 0.000000 4.695800 
# 
# 
# High freq. dielectric constant tensor:
#      x y z
#    x 1.974500 0.000000 0.035750 
#    y 0.000000 2.028150 0.000000 
#    z 0.035750 0.000000 2.017520 
# 
# From -- ./inp_files/150773.got.cif
#   From: 2010.06.25/outbox.cif.g09.slc.cpg/sg15_76_cif.got.tgz:150773.got - 2010.06.28 07:06:18.
