data_PCOD8135923
_publ_section_title
;
Structure prediction by ZEFSAII (Michael W. Deem and Ramdas Pophale) SiO2 
 PCOD8135923
Probable space group: C 2/C
;
_chemical_formula_sum "Si O2"
_cell_formula_units_Z 52
_cell_length_a 9.415008
_cell_length_b 16.686253
_cell_length_c 22.665707
_cell_angle_alpha 90.000000
_cell_angle_beta 136.947699
_cell_angle_gamma 90.000000
_cell_volume 2430.842684
_symmetry_space_group_name_H-M "C 2/C"
_symmetry_group_IT_number 15
_symmetry_cell_setting 'monoclinic'
loop_
_space_group_symop_operation_xyz
x,y,z
-x,y,1/2-z
-x,-y,-z
x,-y,1/2+z
1/2+x,1/2+y,z
1/2-x,1/2+y,1/2-z
1/2-x,1/2-y,-z
1/2+x,1/2-y,1/2+z
loop_
_atom_site_type_symbol
_atom_site_label
_atom_site_fract_x
_atom_site_fract_y
_atom_site_fract_z
Si Si1 0.116229 0.181411 0.070485
Si Si2 0.506044 0.363672 0.659708
Si Si3 0.334698 0.987400 0.899592
Si Si4 0.538921 0.868678 0.655454
Si Si5 0.559731 0.305429 0.110579
Si Si6 0.327489 0.342656 0.151578
Si Si7 0.500000 0.229309 0.750000
O O1 0.971884 0.146352 0.079061
O O2 0.335899 0.133476 0.135394
O O3 0.149161 0.275432 0.094526
O O4 0.998119 0.169623 0.973003
O O5 0.367982 0.436899 0.641808
O O6 0.441533 0.284249 0.675793
O O7 0.752210 0.375734 0.743045
O O8 0.464547 0.945095 0.887708
O O9 0.261394 0.073231 0.853051
O O10 0.500000 0.000000 0.000000
O O11 0.527381 0.789209 0.611354
O O12 0.421009 0.355402 0.114395
O O13 0.799999 0.327151 0.198113
O O14 0.500000 0.311144 0.250000
#
# Coordination Sequence:
#
# PCOD8135923 Si02
#       7
#     8   8   8   8   8   8   4
#     4  11  22  38  68  94 120 155 213 259 304 362
#     4  11  21  39  65  90 120 167 214 242 305 387
#     4  12  23  40  63  90 123 166 209 252 305 369
#     4  10  19  41  63  88 122 171 202 250 307 379
#     4  10  20  38  59  92 128 160 200 258 306 363
#     4  11  22  38  63  94 121 156 207 257 309 355
#     4  10  20  38  64  84 130 168 208 246 310 374
#
# _framework density 21.391759
#
# number of rings (size 3 to 8) (size 9 to 14) (size 15 to 20)
#    0.000    1.231    3.077    7.846    0.000    0.615 
#    2.769    3.077    3.385    0.000    0.000    0.000 
#    0.000    0.000    0.000    0.000    0.000    0.000 
#
# Total GULP energy -322393.627436 kJ/mol
# GULP energy per Si atom -12399.754901 kJ/mol
# Density = 2.134307 g / cm^3
# Si number density = 21.391759 Si / 1000 Ang^3
#
#
#
# Elastic Constant Matrix: (Units=GPa)
#
#
# Indices 1 2 3 4 5 6 
#
# 1 87.2052 29.9471 2.7272 0.0000 -11.2876 0.0000
# 2 29.9471 75.9912 6.3570 0.0000 2.7303 0.0000
# 3 2.7272 6.3570 72.8334 0.0001 -13.5508 0.0000
# 4 0.0000 0.0000 0.0001 27.4441 0.0000 -0.6005
# 5 -11.2876 2.7303 -13.5508 0.0000 46.8552 0.0000
# 6 0.0000 0.0000 0.0000 -0.6005 0.0000 24.8175
#
#
#
# Elastic Compliance Matrix: (Units=1/GPa)
#
#
# Indices 1 2 3 4 5 6 
#
# 1 0.013896 -0.005674 0.000697 0.000000 0.003880 0.000000
# 2 -0.005674 0.015634 -0.001666 0.000000 -0.002760 0.000000
# 3 0.000697 -0.001666 0.014689 0.000000 0.004513 0.000000
# 4 0.000000 0.000000 0.000000 0.036457 0.000000 0.000882
# 5 0.003880 -0.002760 0.004513 0.000000 0.023743 0.000000
# 6 0.000000 0.000000 0.000000 0.000882 0.000000 0.040315
#
#
# Mechanical properties :
#
#
# Convention : Reuss Voigt Hill
#
# Bulk Modulus (GPa) = 32.32745 34.89915 33.61330
# Shear Modulus (GPa) = 29.70340 32.95660 31.33000
#
# Velocity S-wave (km/s) = 3.73036 3.92933 3.83114
# Velocity P-wave (km/s) = 5.80509 6.07749 5.94285
#
# Compressibility (1/GPa) = 0.03093347
#
# Stress axis : x y z
#
# Youngs Moduli (GPa) = 71.96274 63.96357 68.07864
#
# Poissons Ratio (x) = 0.36292 -0.04743
# Poissons Ratio (y) = 0.40831 0.11339
# Poissons Ratio (z) = -0.05014 0.10653
#
# Static dielectric constant tensor:
#      x y z
#    x 3.975180 0.000000 0.196750 
#    y 0.000000 3.830120 0.000000 
#    z 0.196750 0.000000 3.888160 
# 
# 
# High freq. dielectric constant tensor:
#      x y z
#    x 1.842500 0.000000 0.000110 
#    y 0.000000 1.803630 0.000000 
#    z 0.000110 0.000000 1.848730 
# 
# From -- ./inp_files/233131.got.cif
#   From: 2010.06.25/outbox.cif.g09.slc.cpg/sg15_117_cif.got.tgz:233131.got - 2010.06.28 07:06:18.
