data_PCOD8135305
_publ_section_title
;
Structure prediction by ZEFSAII (Michael W. Deem and Ramdas Pophale) SiO2 
 PCOD8135305
Probable space group: C 2/C
;
_chemical_formula_sum "Si O2"
_cell_formula_units_Z 48
_cell_length_a 12.135017
_cell_length_b 14.211483
_cell_length_c 21.218353
_cell_angle_alpha 90.000000
_cell_angle_beta 138.221070
_cell_angle_gamma 90.000000
_cell_volume 2438.002130
_symmetry_space_group_name_H-M "C 2/C"
_symmetry_group_IT_number 15
_symmetry_cell_setting 'monoclinic'
loop_
_space_group_symop_operation_xyz
x,y,z
-x,y,1/2-z
-x,-y,-z
x,-y,1/2+z
1/2+x,1/2+y,z
1/2-x,1/2+y,1/2-z
1/2-x,1/2-y,-z
1/2+x,1/2-y,1/2+z
loop_
_atom_site_type_symbol
_atom_site_label
_atom_site_fract_x
_atom_site_fract_y
_atom_site_fract_z
Si Si1 0.906543 0.160215 0.869381
Si Si2 0.662233 0.762738 0.362776
Si Si3 0.161228 0.949874 0.637565
Si Si4 0.933330 0.315486 0.791012
Si Si5 0.746743 0.912799 0.962946
Si Si6 0.193092 0.107997 0.474904
O O1 0.824371 0.220941 0.889973
O O2 0.869214 0.215284 0.788729
O O3 0.836745 0.054954 0.833601
O O4 0.104157 0.159033 0.961680
O O5 0.500000 0.777276 0.250000
O O6 0.671384 0.836741 0.424793
O O7 0.666639 0.658682 0.395987
O O8 0.283002 0.888038 0.731523
O O9 0.228665 0.957953 0.595702
O O10 0.981400 0.901393 0.562169
O O11 0.000000 0.299442 0.750000
O O12 0.077396 0.355911 0.897209
O O13 0.742403 0.001368 0.009469
#
# Coordination Sequence:
#
# PCOD8135305 Si02
#       6
#     8   8   8   8   8   8
#     4  11  20  38  59  82 116 154 188 245 298 338
#     4  11  22  33  59  90 118 148 196 246 293 346
#     4  10  19  38  58  84 115 155 199 236 291 354
#     4  10  23  37  59  88 113 152 204 242 285 357
#     4  10  19  38  59  81 115 157 195 236 288 363
#     4  10  20  37  56  88 118 152 192 245 293 339
#
# _framework density 19.688251999999999
#
# number of rings (size 3 to 8) (size 9 to 14) (size 15 to 20)
#    0.000    1.667    3.333    2.500    2.333    0.000 
#    0.000    7.500    0.000    0.000    0.000    0.000 
#    0.000    0.000    0.000    0.000    0.000    0.000 
#
# Total GULP energy -297548.704444 kJ/mol
# GULP energy per Si atom -12397.862685 kJ/mol
# Density = 1.964344 g / cm^3
# Si number density = 19.688252 Si / 1000 Ang^3
#
#
#
# Elastic Constant Matrix: (Units=GPa)
#
#
# Indices 1 2 3 4 5 6 
#
# 1 33.4008 45.2434 21.1292 0.0000 -4.5438 0.0000
# 2 45.2434 127.5044 50.9735 0.0000 -3.6460 0.0000
# 3 21.1292 50.9735 107.0106 0.0000 5.2586 0.0000
# 4 0.0000 0.0000 0.0000 26.9121 0.0000 -13.4625
# 5 -4.5438 -3.6460 5.2586 0.0000 15.0097 0.0000
# 6 0.0000 0.0000 0.0000 -13.4625 0.0000 29.2488
#
#
#
# Elastic Compliance Matrix: (Units=1/GPa)
#
#
# Indices 1 2 3 4 5 6 
#
# 1 0.060994 -0.019906 -0.003288 0.000000 0.014781 0.000000
# 2 -0.019906 0.016431 -0.003863 0.000000 -0.000681 0.000000
# 3 -0.003288 -0.003863 0.012138 0.000000 -0.006186 0.000000
# 4 0.000000 0.000000 0.000000 0.048273 0.000000 0.022219
# 5 0.014781 -0.000681 -0.006186 0.000000 0.073100 0.000000
# 6 0.000000 0.000000 0.000000 0.022219 0.000000 0.044416
#
#
# Mechanical properties :
#
#
# Convention : Reuss Voigt Hill
#
# Bulk Modulus (GPa) = 28.20871 55.84533 42.02702
# Shear Modulus (GPa) = 15.56271 24.27208 19.91740
#
# Velocity S-wave (km/s) = 2.81456 3.51496 3.18408
# Velocity P-wave (km/s) = 4.99210 6.70072 5.90850
#
# Compressibility (1/GPa) = 0.03545004
#
# Stress axis : x y z
#
# Youngs Moduli (GPa) = 16.39519 60.86049 82.38579
#
# Poissons Ratio (x) = 1.21148 0.27085
# Poissons Ratio (y) = 0.32636 0.31825
# Poissons Ratio (z) = 0.05390 0.23510
#
# Static dielectric constant tensor:
#      x y z
#    x 3.394160 0.000000 0.147710 
#    y 0.000000 3.699500 0.000000 
#    z 0.147710 0.000000 3.670430 
# 
# 
# High freq. dielectric constant tensor:
#      x y z
#    x 1.742890 0.000000 0.015000 
#    y 0.000000 1.774120 0.000000 
#    z 0.015000 0.000000 1.765120 
# 
# From -- ./inp_files/143461.got.cif
#   From: 2010.06.25/outbox.cif.g09.slc.cpg/sg15_72_cif.got.tgz:143461.got - 2010.06.28 07:06:18.
