data_PCOD8135164
_publ_section_title
;
Structure prediction by ZEFSAII (Michael W. Deem and Ramdas Pophale) SiO2 
 PCOD8135164
Probable space group: C 2/C
;
_chemical_formula_sum "Si O2"
_cell_formula_units_Z 40
_cell_length_a 8.540514
_cell_length_b 17.142778
_cell_length_c 17.293131
_cell_angle_alpha 90.000000
_cell_angle_beta 131.259768
_cell_angle_gamma 90.000000
_cell_volume 1903.264798
_symmetry_space_group_name_H-M "C 2/C"
_symmetry_group_IT_number 15
_symmetry_cell_setting 'monoclinic'
loop_
_space_group_symop_operation_xyz
x,y,z
-x,y,1/2-z
-x,-y,-z
x,-y,1/2+z
1/2+x,1/2+y,z
1/2-x,1/2+y,1/2-z
1/2-x,1/2-y,-z
1/2+x,1/2-y,1/2+z
loop_
_atom_site_type_symbol
_atom_site_label
_atom_site_fract_x
_atom_site_fract_y
_atom_site_fract_z
Si Si1 0.146662 0.292952 0.687911
Si Si2 0.281467 0.700700 0.932911
Si Si3 0.294501 0.745671 0.405395
Si Si4 0.754239 0.952721 0.658570
Si Si5 0.488000 0.901166 0.065247
O O1 0.277804 0.249622 0.663190
O O2 0.239634 0.266639 0.798572
O O3 0.166531 0.385813 0.686476
O O4 0.904097 0.266759 0.603903
O O5 0.131214 0.626444 0.894985
O O6 0.250000 0.750000 0.000000
O O7 0.529760 0.682623 0.011390
O O8 0.389525 0.833284 0.442196
O O9 0.690675 0.935127 0.549348
O O10 0.000000 0.960296 0.750000
O O11 0.650434 0.034665 0.648088
#
# Coordination Sequence:
#
# PCOD8135164 Si02
#       5
#     8   8   8   8   8
#     4  11  22  37  65  95 126 166 214 254 313 371
#     4  10  19  37  63  92 120 160 215 256 304 370
#     4  10  22  39  65  95 126 166 214 261 306 377
#     4  11  23  40  64  90 130 171 202 261 323 377
#     4  10  23  41  63  93 126 166 212 257 324 371
#
# _framework density 21.016518000000001
#
# number of rings (size 3 to 8) (size 9 to 14) (size 15 to 20)
#    0.000    1.600    4.000    1.800    5.600    0.000 
#    0.000    5.000    0.000    0.000    0.000    0.000 
#    0.000    0.000    0.000    0.000    0.000    0.000 
#
# Total GULP energy -247909.848882 kJ/mol
# GULP energy per Si atom -12395.492444 kJ/mol
# Density = 2.096868 g / cm^3
# Si number density = 21.016518 Si / 1000 Ang^3
#
#
#
# Elastic Constant Matrix: (Units=GPa)
#
#
# Indices 1 2 3 4 5 6 
#
# 1 130.7719 79.4824 44.5561 -0.0001 7.8157 0.0000
# 2 79.4824 131.3623 36.2278 0.0000 24.2363 0.0000
# 3 44.5561 36.2278 63.3516 0.0000 33.4521 0.0000
# 4 -0.0001 0.0000 0.0000 26.8550 -0.0001 6.9559
# 5 7.8157 24.2363 33.4521 -0.0001 41.2744 0.0000
# 6 0.0000 0.0000 0.0000 6.9559 0.0000 36.7495
#
#
#
# Elastic Compliance Matrix: (Units=1/GPa)
#
#
# Indices 1 2 3 4 5 6 
#
# 1 0.016978 -0.008897 -0.013835 0.000000 0.013222 0.000000
# 2 -0.008897 0.013791 0.003072 0.000000 -0.008903 0.000000
# 3 -0.013835 0.003072 0.040780 0.000000 -0.032236 0.000000
# 4 0.000000 0.000000 0.000000 0.039157 0.000000 -0.007412
# 5 0.013222 -0.008903 -0.032236 0.000000 0.053079 0.000000
# 6 0.000000 0.000000 0.000000 -0.007412 0.000000 0.028614
#
#
# Mechanical properties :
#
#
# Convention : Reuss Voigt Hill
#
# Bulk Modulus (GPa) = 31.02731 71.77981 51.40356
# Shear Modulus (GPa) = 20.62183 31.99041 26.30612
#
# Velocity S-wave (km/s) = 3.13584 3.90571 3.54176
# Velocity P-wave (km/s) = 5.28268 7.38699 6.42162
#
# Compressibility (1/GPa) = 0.03222967
#
# Stress axis : x y z
#
# Youngs Moduli (GPa) = 58.90041 72.51110 24.52160
#
# Poissons Ratio (x) = 0.64510 0.33926
# Poissons Ratio (y) = 0.52402 -0.07533
# Poissons Ratio (z) = 0.81489 -0.22275
#
# Static dielectric constant tensor:
#      x y z
#    x 4.456740 0.000000 0.423320 
#    y 0.000000 3.923490 0.000000 
#    z 0.423320 0.000000 3.994270 
# 
# 
# High freq. dielectric constant tensor:
#      x y z
#    x 1.828240 0.000000 0.011730 
#    y 0.000000 1.796390 0.000000 
#    z 0.011730 0.000000 1.841470 
# 
# From -- ./inp_files/190165.got.cif
#   From: 2010.06.25/outbox.cif.g09.slc.cpg/sg15_96_cif.got.tgz:190165.got - 2010.06.28 07:06:18.
