data_PCOD8135160
_publ_section_title
;
Structure prediction by ZEFSAII (Michael W. Deem and Ramdas Pophale) SiO2 
 PCOD8135160
Probable space group: C 2/C
;
_chemical_formula_sum "Si O2"
_cell_formula_units_Z 56
_cell_length_a 25.366764
_cell_length_b 13.084340
_cell_length_c 9.092316
_cell_angle_alpha 90.000000
_cell_angle_beta 122.307375
_cell_angle_gamma 90.000000
_cell_volume 2550.629188
_symmetry_space_group_name_H-M "C 2/C"
_symmetry_group_IT_number 15
_symmetry_cell_setting 'monoclinic'
loop_
_space_group_symop_operation_xyz
x,y,z
-x,y,1/2-z
-x,-y,-z
x,-y,1/2+z
1/2+x,1/2+y,z
1/2-x,1/2+y,1/2-z
1/2-x,1/2-y,-z
1/2+x,1/2-y,1/2+z
loop_
_atom_site_type_symbol
_atom_site_label
_atom_site_fract_x
_atom_site_fract_y
_atom_site_fract_z
Si Si1 0.389287 0.825705 0.056938
Si Si2 0.724315 0.493978 0.977839
Si Si3 0.231194 0.790616 0.130091
Si Si4 0.466258 0.894117 0.913483
Si Si5 0.412042 0.799325 0.427463
Si Si6 0.649450 0.949975 0.962908
Si Si7 0.176008 0.135432 0.133402
O O1 0.415684 0.807350 0.257675
O O2 0.352901 0.932774 0.992257
O O3 0.340937 0.735812 0.941956
O O4 0.446482 0.831145 0.029088
O O5 0.690909 0.437842 0.793347
O O6 0.741249 0.413365 0.135295
O O7 0.783767 0.561732 0.016583
O O8 0.676779 0.574288 0.981425
O O9 0.275606 0.730796 0.309817
O O10 0.250000 0.750000 0.000000
O O11 0.406097 0.914752 0.726432
O O12 0.518829 0.825883 0.908835
O O13 0.500000 0.000000 0.000000
O O14 0.359302 0.880078 0.405179
O O15 0.392531 0.684995 0.447416
#
# Coordination Sequence:
#
# PCOD8135160 Si02
#       7
#     8   8   8   8   8   8   8
#     4  12  20  39  62  93 129 175 212 257 331 398
#     4  11  24  42  66  93 136 169 219 264 331 403
#     4  10  19  37  63  91 127 171 209 256 329 399
#     4  12  25  37  61  96 133 170 214 266 331 385
#     4  12  25  40  61  95 137 170 219 262 326 399
#     4  12  23  37  62  99 134 168 203 275 331 389
#     4  11  24  42  64  95 130 175 215 276 328 387
#
# _framework density 21.955366000000001
#
# number of rings (size 3 to 8) (size 9 to 14) (size 15 to 20)
#    0.000    0.571    8.571    1.714    4.000    0.571 
#    2.571    0.000    0.000    0.857    0.000    0.000 
#    0.000    0.000    0.000    0.000    0.000    0.000 
#
# Total GULP energy -347061.841222 kJ/mol
# GULP energy per Si atom -12395.065758 kJ/mol
# Density = 2.190539 g / cm^3
# Si number density = 21.955366 Si / 1000 Ang^3
#
#
#
# Elastic Constant Matrix: (Units=GPa)
#
#
# Indices 1 2 3 4 5 6 
#
# 1 157.0065 71.7133 31.1152 0.0000 2.9654 0.0000
# 2 71.7133 73.9045 16.1741 0.0000 -3.3290 0.0000
# 3 31.1152 16.1741 45.1706 0.0000 8.8456 0.0000
# 4 0.0000 0.0000 0.0000 27.7398 0.0000 1.9657
# 5 2.9654 -3.3290 8.8456 0.0000 26.2237 0.0000
# 6 0.0000 0.0000 0.0000 1.9657 0.0000 49.7434
#
#
#
# Elastic Compliance Matrix: (Units=1/GPa)
#
#
# Indices 1 2 3 4 5 6 
#
# 1 0.012283 -0.011053 -0.004236 0.000000 -0.001363 0.000000
# 2 -0.011053 0.025009 -0.002364 0.000000 0.005222 0.000000
# 3 -0.004236 -0.002364 0.027697 0.000000 -0.009164 0.000000
# 4 0.000000 0.000000 0.000000 0.036150 0.000000 -0.001429
# 5 -0.001363 0.005222 -0.009164 0.000000 0.042042 0.000000
# 6 0.000000 0.000000 0.000000 -0.001429 0.000000 0.020160
#
#
# Mechanical properties :
#
#
# Convention : Reuss Voigt Hill
#
# Bulk Modulus (GPa) = 33.68932 57.12077 45.40505
# Shear Modulus (GPa) = 23.97607 31.21333 27.59470
#
# Velocity S-wave (km/s) = 3.30818 3.77460 3.54906
# Velocity P-wave (km/s) = 5.47447 6.71342 6.12535
#
# Compressibility (1/GPa) = 0.02968299
#
# Stress axis : x y z
#
# Youngs Moduli (GPa) = 81.41333 39.98578 36.10465
#
# Poissons Ratio (x) = 0.44197 0.15295
# Poissons Ratio (y) = 0.89987 0.08534
# Poissons Ratio (z) = 0.34489 0.09451
#
# Static dielectric constant tensor:
#      x y z
#    x 4.366960 0.000000 0.032510 
#    y 0.000000 4.398650 0.000000 
#    z 0.032510 0.000000 4.035730 
# 
# 
# High freq. dielectric constant tensor:
#      x y z
#    x 1.864340 0.000000 -0.011420 
#    y 0.000000 1.842940 0.000000 
#    z -0.011420 0.000000 1.851230 
# 
# From -- ./inp_files/62006.got.cif
#   From: 2010.06.25/outbox.cif.g09.slc.cpg/sg15_32_cif.got.tgz:62006.got - 2010.06.28 07:06:18.
