data_PCOD8135126
_publ_section_title
;
Structure prediction by ZEFSAII (Michael W. Deem and Ramdas Pophale) SiO2 
 PCOD8135126
Probable space group: C 2/C
;
_chemical_formula_sum "Si O2"
_cell_formula_units_Z 56
_cell_length_a 20.284279
_cell_length_b 21.794674
_cell_length_c 8.908579
_cell_angle_alpha 90.000000
_cell_angle_beta 44.426947
_cell_angle_gamma 90.000000
_cell_volume 2756.868096
_symmetry_space_group_name_H-M "C 2/C"
_symmetry_group_IT_number 15
_symmetry_cell_setting 'monoclinic'
loop_
_space_group_symop_operation_xyz
x,y,z
-x,y,1/2-z
-x,-y,-z
x,-y,1/2+z
1/2+x,1/2+y,z
1/2-x,1/2+y,1/2-z
1/2-x,1/2-y,-z
1/2+x,1/2-y,1/2+z
loop_
_atom_site_type_symbol
_atom_site_label
_atom_site_fract_x
_atom_site_fract_y
_atom_site_fract_z
Si Si1 0.000000 0.508617 0.250000
Si Si2 0.932376 0.786469 0.992551
Si Si3 0.253016 0.147572 0.453460
Si Si4 0.410770 0.419266 0.125352
Si Si5 0.068759 0.581877 0.399369
Si Si6 0.030230 0.694734 0.032918
Si Si7 0.284567 0.237484 0.652537
Si Si8 0.500000 0.494314 0.250000
O O1 0.929346 0.549644 0.266637
O O2 0.938087 0.467347 0.459408
O O3 0.000000 0.764578 0.750000
O O4 0.958596 0.855841 0.996354
O O5 0.823433 0.775678 0.120361
O O6 0.957261 0.745836 0.095421
O O7 0.193357 0.099071 0.649129
O O8 0.330536 0.111765 0.233269
O O9 0.307539 0.193867 0.474666
O O10 0.196595 0.191230 0.427023
O O11 0.457582 0.450598 0.192874
O O12 0.419669 0.464094 0.964736
O O13 0.984022 0.632257 0.541390
O O14 0.000000 0.679438 0.250000
O O15 0.138940 0.718728 0.844258
#
# Coordination Sequence:
#
# PCOD8135126 Si02
#       8
#     4   8   8   8   8   8   8   4
#     4  10  24  38  62  84 124 168 210 250 306 376
#     4  11  24  40  62  94 130 161 205 270 322 368
#     4  10  19  37  62  91 127 154 208 263 310 379
#     4  10  22  39  63  86 123 163 208 263 301 376
#     4  11  21  41  61  91 122 168 208 259 315 377
#     4  12  21  37  67  90 123 164 208 258 323 383
#     4  10  20  37  60  96 125 162 204 253 328 391
#     4  10  22  42  60  88 120 172 218 246 320 368
#
# _framework density 20.312905000000001
#
# number of rings (size 3 to 8) (size 9 to 14) (size 15 to 20)
#    0.000    1.429    4.286    1.714    4.000    1.714 
#    0.000    1.429    0.000    0.000    0.000    0.000 
#    0.000    0.000    0.000    0.000    0.000    0.000 
#
# Total GULP energy -346943.198863 kJ/mol
# GULP energy per Si atom -12390.828531 kJ/mol
# Density = 2.026667 g / cm^3
# Si number density = 20.312905 Si / 1000 Ang^3
#
#
#
# Elastic Constant Matrix: (Units=GPa)
#
#
# Indices 1 2 3 4 5 6 
#
# 1 82.7057 42.6129 34.1005 0.0000 -16.7368 0.0000
# 2 42.6129 112.5407 33.7364 0.0000 -8.1040 0.0000
# 3 34.1005 33.7364 85.8449 0.0000 -12.9309 0.0000
# 4 0.0000 0.0000 0.0000 -5.1502 0.0000 -25.1123
# 5 -16.7368 -8.1040 -12.9309 0.0000 32.1056 0.0000
# 6 0.0000 0.0000 0.0000 -25.1123 0.0000 0.6002
#
#
#
# Elastic Compliance Matrix: (Units=1/GPa)
#
#
# Indices 1 2 3 4 5 6 
#
# 1 0.017621 -0.004994 -0.004092 0.000000 0.006278 0.000000
# 2 -0.004994 0.011518 -0.002658 0.000000 -0.000766 0.000000
# 3 -0.004092 -0.002658 0.014794 0.000000 0.003154 0.000000
# 4 0.000000 0.000000 0.000000 -0.000947 0.000000 -0.039627
# 5 0.006278 -0.000766 0.003154 0.000000 0.035497 0.000000
# 6 0.000000 0.000000 0.000000 -0.039627 0.000000 0.008127
#
#
# Mechanical properties :
#
#
# Convention : Reuss Voigt Hill
#
# Bulk Modulus (GPa) = 48.90868 55.77675 52.34272
# Shear Modulus (GPa) = 42.76673 16.88722 29.82697
#
# Velocity S-wave (km/s) = 4.59344 2.88645 3.83610
# Velocity P-wave (km/s) = 7.22930 6.21508 6.74129
#
# Compressibility (1/GPa) = 0.02044627
#
# Stress axis : x y z
#
# Youngs Moduli (GPa) = 56.74921 86.81920 67.59410
#
# Poissons Ratio (x) = 0.43354 0.27658
# Poissons Ratio (y) = 0.28338 0.17969
# Poissons Ratio (z) = 0.23220 0.23080
#
# Static dielectric constant tensor:
#      x y z
#    x 3.581170 0.000000 0.009910 
#    y 0.000000 3.997400 0.000000 
#    z 0.009910 0.000000 3.574990 
# 
# 
# High freq. dielectric constant tensor:
#      x y z
#    x 1.769760 0.000000 -0.001330 
#    y 0.000000 1.811520 0.000000 
#    z -0.001330 0.000000 1.785980 
# 
# From -- ./inp_files/57817.got.cif
#   From: 2010.06.25/outbox.cif.g09.slc.cpg/sg15_29_cif.got.tgz:57817.got - 2010.06.28 07:06:18.
