data_PCOD8135294
_publ_section_title
;
Structure prediction by ZEFSAII (Michael W. Deem and Ramdas Pophale) SiO2 
 PCOD8135294
Probable space group: C 2/C
;
_chemical_formula_sum "Si O2"
_cell_formula_units_Z 64
_cell_length_a 7.941193
_cell_length_b 14.937051
_cell_length_c 26.148462
_cell_angle_alpha 90.000000
_cell_angle_beta 101.220627
_cell_angle_gamma 90.000000
_cell_volume 3042.390323
_symmetry_space_group_name_H-M "C 2/C"
_symmetry_group_IT_number 15
_symmetry_cell_setting 'monoclinic'
loop_
_space_group_symop_operation_xyz
x,y,z
-x,y,1/2-z
-x,-y,-z
x,-y,1/2+z
1/2+x,1/2+y,z
1/2-x,1/2+y,1/2-z
1/2-x,1/2-y,-z
1/2+x,1/2-y,1/2+z
loop_
_atom_site_type_symbol
_atom_site_label
_atom_site_fract_x
_atom_site_fract_y
_atom_site_fract_z
Si Si1 0.194720 0.608503 0.002895
Si Si2 0.176005 0.673895 0.109550
Si Si3 0.540161 0.352563 0.069963
Si Si4 0.320843 0.746941 0.213804
Si Si5 0.823390 0.582816 0.956267
Si Si6 0.757143 0.068766 0.832929
Si Si7 0.799971 0.935868 0.748349
Si Si8 0.594447 0.991245 0.145444
O O1 0.327910 0.642658 0.969125
O O2 0.998058 0.638470 0.978164
O O3 0.259336 0.650337 0.059980
O O4 0.188692 0.501492 0.006246
O O5 0.047412 0.756425 0.096974
O O6 0.330904 0.701536 0.157512
O O7 0.059301 0.592463 0.123983
O O8 0.345822 0.361599 0.039677
O O9 0.594599 0.427469 0.115271
O O10 0.500000 0.770364 0.250000
O O11 0.226295 0.843061 0.202863
O O12 0.226702 0.667401 0.241659
O O13 0.811995 0.559582 0.895376
O O14 0.770910 0.977082 0.802315
O O15 0.575230 0.064822 0.851271
O O16 0.715082 0.003303 0.702434
O O17 0.000000 0.927958 0.750000
#
# Coordination Sequence:
#
# PCOD8135294 Si02
#       8
#     8   8   8   8   8   8   8   8
#     4  10  20  39  60  86 125 164 199 256 314 353
#     4   9  21  36  59  84 125 158 198 262 301 363
#     4  11  21  38  61  92 120 160 213 247 309 368
#     4   9  19  37  58  86 117 155 202 247 304 372
#     4  10  21  36  61  88 120 156 208 255 294 369
#     4  11  21  37  63  87 116 164 203 246 314 374
#     4  10  20  35  56  84 115 152 200 252 300 368
#     4  10  19  38  57  82 118 160 197 251 312 356
#
# _framework density 21.036090999999999
#
# number of rings (size 3 to 8) (size 9 to 14) (size 15 to 20)
#    0.000    2.000    1.250    2.625    0.000    1.500 
#    0.000    7.500    2.750    0.000    0.000    0.000 
#    0.000    0.000    0.000    0.000    0.000    0.000 
#
# Total GULP energy -396502.082460 kJ/mol
# GULP energy per Si atom -12390.690077 kJ/mol
# Density = 2.098821 g / cm^3
# Si number density = 21.036091 Si / 1000 Ang^3
#
#
#
# Elastic Constant Matrix: (Units=GPa)
#
#
# Indices 1 2 3 4 5 6 
#
# 1 104.9344 24.3594 31.6194 0.0000 7.1559 0.0000
# 2 24.3594 81.7775 33.4096 0.0000 -9.3342 0.0000
# 3 31.6194 33.4096 96.7644 0.0000 5.5135 0.0000
# 4 0.0000 0.0000 0.0000 30.3204 0.0000 0.5095
# 5 7.1559 -9.3342 5.5135 0.0000 25.3437 0.0000
# 6 0.0000 0.0000 0.0000 0.5095 0.0000 17.6717
#
#
#
# Elastic Compliance Matrix: (Units=1/GPa)
#
#
# Indices 1 2 3 4 5 6 
#
# 1 0.011160 -0.002712 -0.002505 0.000000 -0.003605 0.000000
# 2 -0.002712 0.015997 -0.005079 0.000000 0.007763 0.000000
# 3 -0.002505 -0.005079 0.013136 0.000000 -0.004021 0.000000
# 4 0.000000 0.000000 0.000000 0.032997 0.000000 -0.000951
# 5 -0.003605 0.007763 -0.004021 0.000000 0.044209 0.000000
# 6 0.000000 0.000000 0.000000 -0.000951 0.000000 0.056615
#
#
# Mechanical properties :
#
#
# Convention : Reuss Voigt Hill
#
# Bulk Modulus (GPa) = 50.76149 51.36146 51.06147
# Shear Modulus (GPa) = 24.84167 27.60636 26.22401
#
# Velocity S-wave (km/s) = 3.44016 3.62654 3.53458
# Velocity P-wave (km/s) = 6.32160 6.48110 6.40185
#
# Compressibility (1/GPa) = 0.01969997
#
# Stress axis : x y z
#
# Youngs Moduli (GPa) = 89.60538 62.50985 76.12822
#
# Poissons Ratio (x) = 0.16956 0.19069
# Poissons Ratio (y) = 0.24305 0.38668
# Poissons Ratio (z) = 0.22444 0.31751
#
# Static dielectric constant tensor:
#      x y z
#    x 3.447150 0.000000 0.191050 
#    y 0.000000 3.982670 0.000000 
#    z 0.191050 0.000000 4.119120 
# 
# 
# High freq. dielectric constant tensor:
#      x y z
#    x 1.785420 0.000000 0.017160 
#    y 0.000000 1.825410 0.000000 
#    z 0.017160 0.000000 1.841400 
# 
# From -- ./inp_files/288792.got.cif
#   From: 2010.06.25/outbox.cif.g09.slc.cpg/sg15_145_cif.got.tgz:288792.got - 2010.06.28 07:06:18.
