data_PCOD8135322
_publ_section_title
;
Structure prediction by ZEFSAII (Michael W. Deem and Ramdas Pophale) SiO2 
 PCOD8135322
Probable space group: C 2/C
;
_chemical_formula_sum "Si O2"
_cell_formula_units_Z 48
_cell_length_a 18.137508
_cell_length_b 28.755521
_cell_length_c 5.018621
_cell_angle_alpha 90.000000
_cell_angle_beta 56.737791
_cell_angle_gamma 90.000000
_cell_volume 2188.655848
_symmetry_space_group_name_H-M "C 2/C"
_symmetry_group_IT_number 15
_symmetry_cell_setting 'monoclinic'
loop_
_space_group_symop_operation_xyz
x,y,z
-x,y,1/2-z
-x,-y,-z
x,-y,1/2+z
1/2+x,1/2+y,z
1/2-x,1/2+y,1/2-z
1/2-x,1/2-y,-z
1/2+x,1/2-y,1/2+z
loop_
_atom_site_type_symbol
_atom_site_label
_atom_site_fract_x
_atom_site_fract_y
_atom_site_fract_z
Si Si1 0.401983 0.745030 0.474129
Si Si2 0.182354 0.468627 0.793020
Si Si3 0.599312 0.193033 0.023155
Si Si4 0.665610 0.600876 0.395432
Si Si5 0.500000 0.465984 0.250000
Si Si6 0.000000 0.467257 0.250000
Si Si7 0.788265 0.843056 0.203571
O O1 0.500000 0.722816 0.250000
O O2 0.391036 0.763870 0.794494
O O3 0.326538 0.707648 0.559915
O O4 0.390151 0.788176 0.297092
O O5 0.189538 0.487609 0.478348
O O6 0.255309 0.431478 0.684131
O O7 0.091683 0.439368 0.038861
O O8 0.500000 0.170284 0.250000
O O9 0.680635 0.157371 0.915668
O O10 0.581011 0.568913 0.587540
O O11 0.669347 0.643391 0.596111
O O12 0.675269 0.619824 0.079198
O O13 0.500000 0.500000 0.500000
O O14 0.000000 0.500000 0.500000
#
# Coordination Sequence:
#
# PCOD8135322 Si02
#       7
#     8   8   8   8   4   4   8
#     4  10  21  37  66  88 121 171 213 253 301 367
#     4  10  19  38  59  82 112 151 200 240 288 365
#     4  10  21  41  63  92 123 172 216 243 302 377
#     4  12  26  39  63  93 124 163 201 257 330 363
#     4  12  26  48  70  92 126 170 218 264 322 402
#     4   8  16  30  56  80 102 134 184 238 270 322
#     4  12  24  40  60  95 132 159 203 268 311 366
#
# _framework density 21.931270000000001
#
# number of rings (size 3 to 8) (size 9 to 14) (size 15 to 20)
#    0.000    1.333    0.000    6.000    2.333    0.000 
#    3.000    0.000    0.000    0.000    0.000    0.000 
#    0.000    0.000    0.000    0.000    0.000    0.000 
#
# Total GULP energy -297468.486612 kJ/mol
# GULP energy per Si atom -12394.520276 kJ/mol
# Density = 2.188135 g / cm^3
# Si number density = 21.931270 Si / 1000 Ang^3
#
#
#
# Elastic Constant Matrix: (Units=GPa)
#
#
# Indices 1 2 3 4 5 6 
#
# 1 113.9215 34.3284 48.9216 0.0000 -12.5053 0.0000
# 2 34.3284 56.7545 32.7141 0.0000 -22.3003 0.0000
# 3 48.9216 32.7141 104.1013 0.0000 -11.2479 0.0000
# 4 0.0000 0.0000 0.0000 32.2199 0.0000 -3.3013
# 5 -12.5053 -22.3003 -11.2479 0.0000 28.0633 0.0000
# 6 0.0000 0.0000 0.0000 -3.3013 0.0000 52.4667
#
#
#
# Elastic Compliance Matrix: (Units=1/GPa)
#
#
# Indices 1 2 3 4 5 6 
#
# 1 0.012021 -0.005012 -0.004103 0.000000 -0.000271 0.000000
# 2 -0.005012 0.032068 -0.005446 0.000000 0.021066 0.000000
# 3 -0.004103 -0.005446 0.013150 0.000000 -0.000885 0.000000
# 4 0.000000 0.000000 0.000000 0.031238 0.000000 0.001966
# 5 -0.000271 0.021066 -0.000885 0.000000 0.051898 0.000000
# 6 0.000000 0.000000 0.000000 0.001966 0.000000 0.019183
#
#
# Mechanical properties :
#
#
# Convention : Reuss Voigt Hill
#
# Bulk Modulus (GPa) = 35.56666 56.30061 45.93363
# Shear Modulus (GPa) = 25.24584 33.13753 29.19168
#
# Velocity S-wave (km/s) = 3.39652 3.89134 3.65232
# Velocity P-wave (km/s) = 5.62444 6.77622 6.22702
#
# Compressibility (1/GPa) = 0.02811622
#
# Stress axis : x y z
#
# Youngs Moduli (GPa) = 83.19069 31.18391 76.04552
#
# Poissons Ratio (x) = 0.15629 0.31203
# Poissons Ratio (y) = 0.41695 0.41414
# Poissons Ratio (z) = 0.34135 0.16982
#
# Static dielectric constant tensor:
#      x y z
#    x 4.523150 0.000000 -0.070750 
#    y 0.000000 3.548840 0.000000 
#    z -0.070750 0.000000 4.552280 
# 
# 
# High freq. dielectric constant tensor:
#      x y z
#    x 1.887500 0.000000 -0.002170 
#    y 0.000000 1.827140 0.000000 
#    z -0.002170 0.000000 1.886930 
# 
# From -- ./inp_files/13837.got.cif
#   From: 2010.06.25/outbox.cif.g09.slc.cpg/sg15_7_cif.got.tgz:13837.got - 2010.06.28 07:06:18.
