data_PCOD8135540
_publ_section_title
;
Structure prediction by ZEFSAII (Michael W. Deem and Ramdas Pophale) SiO2 
 PCOD8135540
Probable space group: C 2/C
;
_chemical_formula_sum "Si O2"
_cell_formula_units_Z 64
_cell_length_a 25.895318
_cell_length_b 7.559369
_cell_length_c 14.921069
_cell_angle_alpha 90.000000
_cell_angle_beta 107.227854
_cell_angle_gamma 90.000000
_cell_volume 2789.788384
_symmetry_space_group_name_H-M "C 2/C"
_symmetry_group_IT_number 15
_symmetry_cell_setting 'monoclinic'
loop_
_space_group_symop_operation_xyz
x,y,z
-x,y,1/2-z
-x,-y,-z
x,-y,1/2+z
1/2+x,1/2+y,z
1/2-x,1/2+y,1/2-z
1/2-x,1/2-y,-z
1/2+x,1/2-y,1/2+z
loop_
_atom_site_type_symbol
_atom_site_label
_atom_site_fract_x
_atom_site_fract_y
_atom_site_fract_z
Si Si1 0.853921 0.038985 0.568957
Si Si2 0.051258 0.747982 0.320027
Si Si3 0.719083 0.554690 0.817835
Si Si4 0.108594 0.700274 0.000971
Si Si5 0.213684 0.451447 0.805517
Si Si6 0.896791 0.544587 0.314611
Si Si7 0.504947 0.893858 0.354067
Si Si8 0.308270 0.080262 0.010013
O O1 0.915068 0.107111 0.609205
O O2 0.829197 0.961211 0.650362
O O3 0.816723 0.206013 0.518465
O O4 0.855867 0.875410 0.501363
O O5 0.089477 0.653140 0.267484
O O6 0.025966 0.596416 0.370417
O O7 0.000000 0.849471 0.250000
O O8 0.732111 0.477554 0.725829
O O9 0.697340 0.748642 0.789154
O O10 0.773172 0.539393 0.905086
O O11 0.047273 0.724124 0.931793
O O12 0.135233 0.524461 0.970072
O O13 0.107823 0.682426 0.106701
O O14 0.161153 0.551911 0.735638
O O15 0.222064 0.493693 0.915541
O O16 0.943367 0.398100 0.361840
O O17 0.500000 0.823268 0.250000
#
# Coordination Sequence:
#
# PCOD8135540 Si02
#       8
#     8   8   8   8   8   8   8   8
#     4  11  23  41  62  93 125 169 212 263 323 381
#     4   9  18  40  66  82 125 169 203 258 327 376
#     4  11  25  42  65  93 132 169 217 272 322 384
#     4  12  23  37  69  97 128 164 221 263 318 390
#     4  11  22  41  66  92 126 173 212 264 325 385
#     4  10  19  38  66  93 124 168 215 257 322 386
#     4   9  19  39  67  90 126 178 207 258 325 384
#     4  11  23  46  62  90 135 173 209 269 329 378
#
# _framework density 22.940807
#
# number of rings (size 3 to 8) (size 9 to 14) (size 15 to 20)
#    0.000    1.750    5.000    2.625    1.750    3.000 
#    0.000    2.500    0.000    0.000    0.000    0.000 
#    0.000    0.000    0.000    0.000    0.000    0.000 
#
# Total GULP energy -396487.222465 kJ/mol
# GULP energy per Si atom -12390.225702 kJ/mol
# Density = 2.288859 g / cm^3
# Si number density = 22.940807 Si / 1000 Ang^3
#
#
#
# Elastic Constant Matrix: (Units=GPa)
#
#
# Indices 1 2 3 4 5 6 
#
# 1 43.8363 -0.3874 -7.2035 0.0000 -2.1218 0.0000
# 2 -0.3874 47.8271 6.2270 0.0000 -8.2069 0.0000
# 3 -7.2035 6.2270 57.4899 0.0000 -5.7205 0.0000
# 4 0.0000 0.0000 0.0000 17.7720 0.0000 -4.6205
# 5 -2.1218 -8.2069 -5.7205 0.0000 36.5159 0.0000
# 6 0.0000 0.0000 0.0000 -4.6205 0.0000 30.2795
#
#
#
# Elastic Compliance Matrix: (Units=1/GPa)
#
#
# Indices 1 2 3 4 5 6 
#
# 1 0.023414 0.000106 0.003109 0.000000 0.001871 0.000000
# 2 0.000106 0.021954 -0.001903 0.000000 0.004642 0.000000
# 3 0.003109 -0.001903 0.018250 0.000000 0.002612 0.000000
# 4 0.000000 0.000000 0.000000 0.058593 0.000000 0.008941
# 5 0.001871 0.004642 0.002612 0.000000 0.028947 0.000000
# 6 0.000000 0.000000 0.000000 0.008941 0.000000 0.034390
#
#
# Mechanical properties :
#
#
# Convention : Reuss Voigt Hill
#
# Bulk Modulus (GPa) = 15.09618 16.26950 15.68284
# Shear Modulus (GPa) = 24.38972 26.94797 25.66885
#
# Velocity S-wave (km/s) = 3.26415 3.43107 3.34865
# Velocity P-wave (km/s) = 4.56081 4.77532 4.66930
#
# Compressibility (1/GPa) = 0.06624192
#
# Stress axis : x y z
#
# Youngs Moduli (GPa) = 42.70862 45.55020 54.79498
#
# Poissons Ratio (x) = -0.00483 -0.17033
# Poissons Ratio (y) = -0.00453 0.10426
# Poissons Ratio (z) = -0.13276 0.08667
#
# Static dielectric constant tensor:
#      x y z
#    x 4.689120 0.000000 -0.134280 
#    y 0.000000 3.619310 0.000000 
#    z -0.134280 0.000000 4.065310 
# 
# 
# High freq. dielectric constant tensor:
#      x y z
#    x 1.925230 0.000000 0.002930 
#    y 0.000000 1.853550 0.000000 
#    z 0.002930 0.000000 1.902260 
# 
# From -- ./inp_files/176622.got.cif
#   From: 2010.06.25/outbox.cif.g09.slc.cpg/sg15_89_cif.got.tgz:176622.got - 2010.06.28 07:06:18.
