data_PCOD8135698
_publ_section_title
;
Structure prediction by ZEFSAII (Michael W. Deem and Ramdas Pophale) SiO2 
 PCOD8135698
Probable space group: C 2/C
;
_chemical_formula_sum "Si O2"
_cell_formula_units_Z 48
_cell_length_a 14.106741
_cell_length_b 12.039069
_cell_length_c 13.883297
_cell_angle_alpha 90.000000
_cell_angle_beta 107.513560
_cell_angle_gamma 90.000000
_cell_volume 2248.533134
_symmetry_space_group_name_H-M "C 2/C"
_symmetry_group_IT_number 15
_symmetry_cell_setting 'monoclinic'
loop_
_space_group_symop_operation_xyz
x,y,z
-x,y,1/2-z
-x,-y,-z
x,-y,1/2+z
1/2+x,1/2+y,z
1/2-x,1/2+y,1/2-z
1/2-x,1/2-y,-z
1/2+x,1/2-y,1/2+z
loop_
_atom_site_type_symbol
_atom_site_label
_atom_site_fract_x
_atom_site_fract_y
_atom_site_fract_z
Si Si1 0.295227 0.116928 0.849299
Si Si2 0.087176 0.943312 0.198930
Si Si3 0.364528 0.932147 0.577259
Si Si4 0.824955 0.864638 0.887117
Si Si5 0.518469 0.265290 0.452637
Si Si6 0.999563 0.361913 0.142566
O O1 0.194171 0.069719 0.778779
O O2 0.304116 0.248121 0.827919
O O3 0.397102 0.067730 0.834278
O O4 0.299479 0.084939 0.962045
O O5 0.000000 0.950766 0.250000
O O6 0.067606 0.838698 0.122040
O O7 0.095938 0.058800 0.145323
O O8 0.282780 0.921265 0.636164
O O9 0.453141 0.839862 0.606716
O O10 0.409111 0.053690 0.601321
O O11 0.880665 0.838792 0.006078
O O12 0.488346 0.228039 0.552680
O O13 0.000000 0.307176 0.250000
#
# Coordination Sequence:
#
# PCOD8135698 Si02
#       6
#     8   8   8   8   8   8
#     4  10  22  39  59  88 123 160 201 254 313 367
#     4  12  24  39  61  91 123 167 214 253 308 380
#     4  10  19  39  64  88 118 157 205 259 306 365
#     4  10  21  38  59  85 121 159 202 257 309 359
#     4  10  22  40  60  87 127 168 204 253 313 376
#     4  10  21  39  65  93 122 161 210 264 312 359
#
# _framework density 21.347251
#
# number of rings (size 3 to 8) (size 9 to 14) (size 15 to 20)
#    0.000    2.000    0.000    7.500    0.000    7.333 
#    0.000    3.333    0.000    0.000    0.000    1.167 
#    0.000    0.000    0.000    0.000    0.000    0.000 
#
# Total GULP energy -297328.221860 kJ/mol
# GULP energy per Si atom -12388.675911 kJ/mol
# Density = 2.129866 g / cm^3
# Si number density = 21.347251 Si / 1000 Ang^3
#
#
#
# Elastic Constant Matrix: (Units=GPa)
#
#
# Indices 1 2 3 4 5 6 
#
# 1 88.9314 30.3673 31.5666 0.0000 -3.0743 0.0000
# 2 30.3673 76.2639 34.0504 0.0000 -5.6621 0.0000
# 3 31.5666 34.0504 73.1620 0.0000 -9.5661 0.0000
# 4 0.0000 0.0000 0.0000 22.5048 0.0000 1.4396
# 5 -3.0743 -5.6621 -9.5661 0.0000 38.1967 0.0000
# 6 0.0000 0.0000 0.0000 1.4396 0.0000 36.1422
#
#
#
# Elastic Compliance Matrix: (Units=1/GPa)
#
#
# Indices 1 2 3 4 5 6 
#
# 1 0.014046 -0.003655 -0.004427 0.000000 -0.000520 0.000000
# 2 -0.003655 0.017514 -0.006485 0.000000 0.000678 0.000000
# 3 -0.004427 -0.006485 0.019048 0.000000 0.003453 0.000000
# 4 0.000000 0.000000 0.000000 0.044548 0.000000 -0.001774
# 5 -0.000520 0.000678 0.003453 0.000000 0.027104 0.000000
# 6 0.000000 0.000000 0.000000 -0.001774 0.000000 0.027739
#
#
# Mechanical properties :
#
#
# Convention : Reuss Voigt Hill
#
# Bulk Modulus (GPa) = 46.57060 47.81400 47.19230
# Shear Modulus (GPa) = 26.83951 28.86028 27.84990
#
# Velocity S-wave (km/s) = 3.54966 3.68087 3.61586
# Velocity P-wave (km/s) = 6.21798 6.36489 6.29186
#
# Compressibility (1/GPa) = 0.02147278
#
# Stress axis : x y z
#
# Youngs Moduli (GPa) = 71.19368 57.09833 52.49779
#
# Poissons Ratio (x) = 0.20869 0.23243
# Poissons Ratio (y) = 0.26020 0.34047
# Poissons Ratio (z) = 0.31520 0.37031
#
# Static dielectric constant tensor:
#      x y z
#    x 4.130030 0.000000 -0.046500 
#    y 0.000000 3.739430 0.000000 
#    z -0.046500 0.000000 3.762200 
# 
# 
# High freq. dielectric constant tensor:
#      x y z
#    x 1.847860 0.000000 0.000580 
#    y 0.000000 1.824500 0.000000 
#    z 0.000580 0.000000 1.826560 
# 
# From -- ./inp_files/151946.got.cif
#   From: 2010.06.25/outbox.cif.g09.slc.cpg/sg15_76_cif.got.tgz:151946.got - 2010.06.28 07:06:18.
