data_PCOD8135654
_publ_section_title
;
Structure prediction by ZEFSAII (Michael W. Deem and Ramdas Pophale) SiO2 
 PCOD8135654
Probable space group: C 2/C
;
_chemical_formula_sum "Si O2"
_cell_formula_units_Z 44
_cell_length_a 11.688013
_cell_length_b 8.421870
_cell_length_c 30.787426
_cell_angle_alpha 90.000000
_cell_angle_beta 49.561489
_cell_angle_gamma 90.000000
_cell_volume 2306.565289
_symmetry_space_group_name_H-M "C 2/C"
_symmetry_group_IT_number 15
_symmetry_cell_setting 'monoclinic'
loop_
_space_group_symop_operation_xyz
x,y,z
-x,y,1/2-z
-x,-y,-z
x,-y,1/2+z
1/2+x,1/2+y,z
1/2-x,1/2+y,1/2-z
1/2-x,1/2-y,-z
1/2+x,1/2-y,1/2+z
loop_
_atom_site_type_symbol
_atom_site_label
_atom_site_fract_x
_atom_site_fract_y
_atom_site_fract_z
Si Si1 0.266585 0.705210 0.154233
Si Si2 0.994386 0.868505 0.667993
Si Si3 0.305374 0.843723 0.556842
Si Si4 0.500000 0.576699 0.750000
Si Si5 0.495561 0.951541 0.434551
Si Si6 0.639443 0.055481 0.621544
O O1 0.352508 0.609625 0.170992
O O2 0.144268 0.816999 0.206245
O O3 0.384990 0.808867 0.098103
O O4 0.182449 0.583380 0.143362
O O5 0.146135 0.931734 0.606407
O O6 0.022674 0.681245 0.672602
O O7 0.959712 0.966174 0.719408
O O8 0.353077 0.882333 0.495938
O O9 0.286264 0.654262 0.569173
O O10 0.434135 0.899487 0.558168
O O11 0.442289 0.015687 0.400947
#
# Coordination Sequence:
#
# PCOD8135654 Si02
#       6
#     8   8   8   4   8   8
#     4  11  23  38  61  88 115 150 202 240 286 347
#     4   9  23  41  59  83 118 154 191 240 293 338
#     4   9  19  40  61  86 123 154 184 236 294 348
#     4  12  24  42  58  82 114 160 198 244 288 338
#     4  10  19  39  62  88 122 152 187 235 288 355
#     4   9  21  37  58  91 116 150 190 237 291 344
#
# _framework density 19.075983000000001
#
# number of rings (size 3 to 8) (size 9 to 14) (size 15 to 20)
#    1.091    1.091    1.818    0.545    0.000    7.273 
#    0.000    1.818    0.000    0.000    0.000    0.000 
#    0.000    0.000    0.000    0.000    0.000    0.000 
#
# Total GULP energy -272660.312275 kJ/mol
# GULP energy per Si atom -12393.650558 kJ/mol
# Density = 1.903257 g / cm^3
# Si number density = 19.075983 Si / 1000 Ang^3
#
#
#
# Elastic Constant Matrix: (Units=GPa)
#
#
# Indices 1 2 3 4 5 6 
#
# 1 127.7415 51.0156 60.5109 0.0000 11.4193 0.0000
# 2 51.0156 56.4759 46.9616 0.0000 4.9805 0.0000
# 3 60.5109 46.9616 107.6375 0.0000 17.4166 0.0000
# 4 0.0000 0.0000 0.0000 30.5162 0.0000 -1.6575
# 5 11.4193 4.9805 17.4166 0.0000 9.2127 0.0000
# 6 0.0000 0.0000 0.0000 -1.6575 0.0000 33.9933
#
#
#
# Elastic Compliance Matrix: (Units=1/GPa)
#
#
# Indices 1 2 3 4 5 6 
#
# 1 0.013333 -0.009654 -0.002094 0.000000 -0.007348 0.000000
# 2 -0.009654 0.035632 -0.012877 0.000000 0.017048 0.000000
# 3 -0.002094 -0.012877 0.020947 0.000000 -0.030043 0.000000
# 4 0.000000 0.000000 0.000000 0.032856 0.000000 0.001602
# 5 -0.007348 0.017048 -0.030043 0.000000 0.165234 0.000000
# 6 0.000000 0.000000 0.000000 0.001602 0.000000 0.029496
#
#
# Mechanical properties :
#
#
# Convention : Reuss Voigt Hill
#
# Bulk Modulus (GPa) = 48.40131 67.64792 58.02462
# Shear Modulus (GPa) = 14.13883 23.63556 18.88719
#
# Velocity S-wave (km/s) = 2.72542 3.52379 3.15000
# Velocity P-wave (km/s) = 5.94406 7.21772 6.61163
#
# Compressibility (1/GPa) = 0.02066060
#
# Stress axis : x y z
#
# Youngs Moduli (GPa) = 75.00288 28.06482 47.73888
#
# Poissons Ratio (x) = 0.27095 0.09998
# Poissons Ratio (y) = 0.72410 0.61474
# Poissons Ratio (z) = 0.15708 0.36139
#
# Static dielectric constant tensor:
#      x y z
#    x 3.512430 0.000000 -0.062100 
#    y 0.000000 3.262070 0.000000 
#    z -0.062100 0.000000 3.467620 
# 
# 
# High freq. dielectric constant tensor:
#      x y z
#    x 1.750280 0.000000 0.000770 
#    y 0.000000 1.720670 0.000000 
#    z 0.000770 0.000000 1.740230 
# 
# From -- ./inp_files/267845.got.cif
#   From: 2010.06.25/outbox.cif.g09.slc.cpg/sg15_134_cif.got.tgz:267845.got - 2010.06.28 07:06:18.
