data_PCOD8135506
_publ_section_title
;
Structure prediction by ZEFSAII (Michael W. Deem and Ramdas Pophale) SiO2 
 PCOD8135506
Probable space group: C 2/C
;
_chemical_formula_sum "Si O2"
_cell_formula_units_Z 56
_cell_length_a 11.352404
_cell_length_b 29.741722
_cell_length_c 8.693821
_cell_angle_alpha 90.000000
_cell_angle_beta 110.666291
_cell_angle_gamma 90.000000
_cell_volume 2746.495636
_symmetry_space_group_name_H-M "C 2/C"
_symmetry_group_IT_number 15
_symmetry_cell_setting 'monoclinic'
loop_
_space_group_symop_operation_xyz
x,y,z
-x,y,1/2-z
-x,-y,-z
x,-y,1/2+z
1/2+x,1/2+y,z
1/2-x,1/2+y,1/2-z
1/2-x,1/2-y,-z
1/2+x,1/2-y,1/2+z
loop_
_atom_site_type_symbol
_atom_site_label
_atom_site_fract_x
_atom_site_fract_y
_atom_site_fract_z
Si Si1 0.500000 0.877925 0.250000
Si Si2 0.122399 0.307970 0.519548
Si Si3 0.829246 0.402023 0.432458
Si Si4 0.047389 0.066969 0.427758
Si Si5 0.387658 0.642321 0.815639
Si Si6 0.597588 0.289217 0.917172
Si Si7 0.500000 0.855537 0.750000
Si Si8 0.879503 0.971514 0.088196
O O1 0.601873 0.846722 0.383855
O O2 0.430393 0.909520 0.342406
O O3 0.269016 0.296495 0.603435
O O4 0.057299 0.262186 0.431158
O O5 0.067471 0.323344 0.657930
O O6 0.740321 0.359846 0.342709
O O7 0.747951 0.447614 0.412699
O O8 0.897834 0.388054 0.621813
O O9 0.121230 0.102120 0.564959
O O10 0.000000 0.090856 0.250000
O O11 0.917329 0.048231 0.440314
O O12 0.141804 0.025133 0.435142
O O13 0.500000 0.634563 0.750000
O O14 0.405578 0.688227 0.915833
O O15 0.500000 0.310066 0.750000
O O16 0.000000 0.960348 0.250000
#
# Coordination Sequence:
#
# PCOD8135506 Si02
#       8
#     4   8   8   8   8   8   4   8
#     4  10  20  42  64  79 122 178 208 247 312 366
#     4  10  22  43  58  91 121 172 209 255 314 371
#     4  11  21  42  62  89 121 166 217 252 305 378
#     4  10  20  34  60 100 124 156 189 243 342 375
#     4  12  23  38  63  97 129 156 200 270 326 365
#     4  11  24  39  65  93 128 160 212 268 311 373
#     4  10  26  38  66  85 126 178 218 247 306 376
#     4  10  19  38  64  95 125 156 196 261 320 380
#
# _framework density 20.389620000000001
#
# number of rings (size 3 to 8) (size 9 to 14) (size 15 to 20)
#    0.000    1.429    5.000    0.429    3.000    1.143 
#    0.000    1.429    0.000    2.571    0.000    0.000 
#    0.000    0.000    0.000    0.000    0.000    0.000 
#
# Total GULP energy -347131.790644 kJ/mol
# GULP energy per Si atom -12397.563952 kJ/mol
# Density = 2.034321 g / cm^3
# Si number density = 20.389620 Si / 1000 Ang^3
#
#
#
# Elastic Constant Matrix: (Units=GPa)
#
#
# Indices 1 2 3 4 5 6 
#
# 1 97.0145 45.1736 47.0089 0.0000 -3.7514 0.0000
# 2 45.1736 94.8047 31.1165 0.0000 -5.1269 0.0000
# 3 47.0089 31.1165 124.7228 0.0000 2.3369 0.0000
# 4 0.0000 0.0000 0.0000 24.1132 0.0000 -6.6001
# 5 -3.7514 -5.1269 2.3369 0.0000 35.3091 0.0000
# 6 0.0000 0.0000 0.0000 -6.6001 0.0000 31.4694
#
#
#
# Elastic Compliance Matrix: (Units=1/GPa)
#
#
# Indices 1 2 3 4 5 6 
#
# 1 0.015089 -0.005729 -0.004278 0.000000 0.001054 0.000000
# 2 -0.005729 0.013787 -0.001308 0.000000 0.001480 0.000000
# 3 -0.004278 -0.001308 0.009981 0.000000 -0.001305 0.000000
# 4 0.000000 0.000000 0.000000 0.043997 0.000000 0.009228
# 5 0.001054 0.001480 -0.001305 0.000000 0.028735 0.000000
# 6 0.000000 0.000000 0.000000 0.009228 0.000000 0.033712
#
#
# Mechanical properties :
#
#
# Convention : Reuss Voigt Hill
#
# Bulk Modulus (GPa) = 61.62296 62.57113 62.09704
# Shear Modulus (GPa) = 28.84534 31.06122 29.95328
#
# Velocity S-wave (km/s) = 3.76534 3.90729 3.83697
# Velocity P-wave (km/s) = 7.01370 7.14914 7.08175
#
# Compressibility (1/GPa) = 0.01622772
#
# Stress axis : x y z
#
# Youngs Moduli (GPa) = 66.27471 72.53184 100.19170
#
# Poissons Ratio (x) = 0.41551 0.42858
# Poissons Ratio (y) = 0.37966 0.13107
# Poissons Ratio (z) = 0.28350 0.09489
#
# Static dielectric constant tensor:
#      x y z
#    x 3.603730 0.000000 -0.131490 
#    y 0.000000 3.632210 0.000000 
#    z -0.131490 0.000000 3.927120 
# 
# 
# High freq. dielectric constant tensor:
#      x y z
#    x 1.784620 0.000000 -0.010310 
#    y 0.000000 1.783890 0.000000 
#    z -0.010310 0.000000 1.811130 
# 
# From -- ./inp_files/35335.got.cif
#   From: 2010.06.25/outbox.cif.g09.slc.cpg/sg15_18_cif.got.tgz:35335.got - 2010.06.28 07:06:18.
