data_PCOD8135098
_publ_section_title
;
Structure prediction by ZEFSAII (Michael W. Deem and Ramdas Pophale) SiO2 
 PCOD8135098
Probable space group: C 2/C
;
_chemical_formula_sum "Si O2"
_cell_formula_units_Z 48
_cell_length_a 24.376696
_cell_length_b 6.469086
_cell_length_c 18.441279
_cell_angle_alpha 90.000000
_cell_angle_beta 129.864030
_cell_angle_gamma 90.000000
_cell_volume 2232.160892
_symmetry_space_group_name_H-M "C 2/C"
_symmetry_group_IT_number 15
_symmetry_cell_setting 'monoclinic'
loop_
_space_group_symop_operation_xyz
x,y,z
-x,y,1/2-z
-x,-y,-z
x,-y,1/2+z
1/2+x,1/2+y,z
1/2-x,1/2+y,1/2-z
1/2-x,1/2-y,-z
1/2+x,1/2-y,1/2+z
loop_
_atom_site_type_symbol
_atom_site_label
_atom_site_fract_x
_atom_site_fract_y
_atom_site_fract_z
Si Si1 0.247320 0.948974 0.549172
Si Si2 0.993047 0.629757 0.067897
Si Si3 0.903885 0.978398 0.311384
Si Si4 0.630810 0.455318 0.559665
Si Si5 0.649423 0.301444 0.865036
Si Si6 0.957591 0.237433 0.108570
O O1 0.250000 0.750000 0.500000
O O2 0.207299 0.889208 0.590516
O O3 0.322712 0.067131 0.631347
O O4 0.199545 0.118729 0.470323
O O5 0.971518 0.480743 0.114891
O O6 0.929765 0.790672 0.008824
O O7 0.066609 0.744825 0.154507
O O8 0.000000 0.500000 0.000000
O O9 0.859939 0.031679 0.346402
O O10 0.849274 0.029519 0.199363
O O11 0.969213 0.129274 0.350890
O O12 0.602504 0.670308 0.501372
O O13 0.569350 0.296909 0.831537
#
# Coordination Sequence:
#
# PCOD8135098 Si02
#       6
#     8   8   8   8   8   8
#     4  10  22  44  61  80 115 175 218 249 311 378
#     4  11  18  34  63  94 124 161 196 248 326 391
#     4  11  21  36  58  99 126 148 205 263 314 373
#     4  10  20  36  61  87 125 160 206 253 311 384
#     4  10  23  40  60  85 125 163 208 262 309 372
#     4  10  19  37  61  90 125 162 192 249 327 382
#
# _framework density 21.503824999999999
#
# number of rings (size 3 to 8) (size 9 to 14) (size 15 to 20)
#    0.000    1.667    3.333    2.500    0.000    1.333 
#    3.000    5.000    0.000    0.000    0.000    0.000 
#    0.000    0.000    0.000    0.000    0.000    0.000 
#
# Total GULP energy -297348.158138 kJ/mol
# GULP energy per Si atom -12389.506589 kJ/mol
# Density = 2.145488 g / cm^3
# Si number density = 21.503825 Si / 1000 Ang^3
#
#
#
# Elastic Constant Matrix: (Units=GPa)
#
#
# Indices 1 2 3 4 5 6 
#
# 1 173.9798 43.3524 33.2566 -0.0001 -21.2684 0.0000
# 2 43.3524 115.8559 19.0083 -0.0010 -7.5459 -0.0028
# 3 33.2566 19.0083 55.1476 -0.0001 -16.3328 0.0000
# 4 -0.0001 -0.0010 -0.0001 35.4066 0.0000 -1.8852
# 5 -21.2684 -7.5459 -16.3328 0.0000 31.5429 0.0000
# 6 0.0000 -0.0028 0.0000 -1.8852 0.0000 30.3966
#
#
#
# Elastic Compliance Matrix: (Units=1/GPa)
#
#
# Indices 1 2 3 4 5 6 
#
# 1 0.007133 -0.002030 -0.002742 0.000000 0.002904 0.000000
# 2 -0.002030 0.009738 -0.002182 0.000000 -0.000169 0.000001
# 3 -0.002742 -0.002182 0.023430 0.000000 0.009761 0.000000
# 4 0.000000 0.000000 0.000000 0.028337 0.000000 0.001757
# 5 0.002904 -0.000169 0.009761 0.000000 0.038675 0.000000
# 6 0.000000 0.000001 0.000000 0.001757 0.000000 0.033007
#
#
# Mechanical properties :
#
#
# Convention : Reuss Voigt Hill
#
# Bulk Modulus (GPa) = 37.88981 59.57978 48.73480
# Shear Modulus (GPa) = 30.67014 36.09361 33.38187
#
# Velocity S-wave (km/s) = 3.78069 4.10136 3.94429
# Velocity P-wave (km/s) = 6.05941 7.08484 6.59209
#
# Compressibility (1/GPa) = 0.02639232
#
# Stress axis : x y z
#
# Youngs Moduli (GPa) = 140.19902 102.68956 42.68107
#
# Poissons Ratio (x) = 0.20847 0.11701
# Poissons Ratio (y) = 0.28461 0.09315
# Poissons Ratio (z) = 0.38436 0.22411
#
# Static dielectric constant tensor:
#      x y z
#    x 4.363230 0.000000 -0.092820 
#    y 0.000000 4.114250 0.000000 
#    z -0.092820 0.000000 3.890960 
# 
# 
# High freq. dielectric constant tensor:
#      x y z
#    x 1.857620 0.000000 -0.009970 
#    y 0.000000 1.842520 0.000000 
#    z -0.009970 0.000000 1.815790 
# 
# From -- ./inp_files/254457.got.cif
#   From: 2010.06.25/outbox.cif.g09.slc.cpg/sg15_128_cif.got.tgz:254457.got - 2010.06.28 07:06:18.
