data_PCOD8135701
_publ_section_title
;
Structure prediction by ZEFSAII (Michael W. Deem and Ramdas Pophale) SiO2 
 PCOD8135701
Probable space group: C 2/C
;
_chemical_formula_sum "Si O2"
_cell_formula_units_Z 36
_cell_length_a 11.328462
_cell_length_b 12.787307
_cell_length_c 10.977178
_cell_angle_alpha 90.000000
_cell_angle_beta 106.766339
_cell_angle_gamma 90.000000
_cell_volume 1522.560667
_symmetry_space_group_name_H-M "C 2/C"
_symmetry_group_IT_number 15
_symmetry_cell_setting 'monoclinic'
loop_
_space_group_symop_operation_xyz
x,y,z
-x,y,1/2-z
-x,-y,-z
x,-y,1/2+z
1/2+x,1/2+y,z
1/2-x,1/2+y,1/2-z
1/2-x,1/2-y,-z
1/2+x,1/2-y,1/2+z
loop_
_atom_site_type_symbol
_atom_site_label
_atom_site_fract_x
_atom_site_fract_y
_atom_site_fract_z
Si Si1 0.000000 0.207309 0.250000
Si Si2 0.380832 0.875354 0.373988
Si Si3 0.902589 0.398724 0.887200
Si Si4 0.630512 0.680045 0.733210
Si Si5 0.808818 0.137139 0.012909
O O1 0.098223 0.283731 0.216856
O O2 0.069327 0.132428 0.366457
O O3 0.467353 0.859655 0.517753
O O4 0.235199 0.858562 0.359858
O O5 0.413631 0.989147 0.323420
O O6 0.860386 0.306172 0.785053
O O7 0.802571 0.431262 0.963628
O O8 0.500000 0.647858 0.750000
O O9 0.652429 0.613437 0.614613
O O10 0.750000 0.250000 0.000000
#
# Coordination Sequence:
#
# PCOD8135701 Si02
#       5
#     4   8   8   8   8
#     4  12  18  38  72  86 122 166 210 262 306 374
#     4  11  21  38  65  93 124 162 214 262 303 370
#     4  10  22  40  65  93 120 166 216 255 314 370
#     4  11  23  41  61  93 133 163 205 263 319 370
#     4  10  19  39  64  89 119 167 207 250 320 369
#
# _framework density 23.644379000000001
#
# number of rings (size 3 to 8) (size 9 to 14) (size 15 to 20)
#    0.000    1.333    8.889    0.000    1.556    0.889 
#    2.000    1.111    0.000    0.000    0.000    0.000 
#    0.000    0.000    0.000    0.000    0.000    0.000 
#
# Total GULP energy -223006.158126 kJ/mol
# GULP energy per Si atom -12389.231007 kJ/mol
# Density = 2.359056 g / cm^3
# Si number density = 23.644379 Si / 1000 Ang^3
#
#
#
# Elastic Constant Matrix: (Units=GPa)
#
#
# Indices 1 2 3 4 5 6 
#
# 1 175.4657 11.7558 61.3757 0.0000 17.0502 0.0000
# 2 11.7558 48.2983 28.0178 0.0000 26.7542 0.0000
# 3 61.3757 28.0178 91.8341 0.0000 25.5239 0.0000
# 4 0.0000 0.0000 0.0000 22.1463 0.0000 16.1636
# 5 17.0502 26.7542 25.5239 0.0000 50.9284 0.0000
# 6 0.0000 0.0000 0.0000 16.1636 0.0000 2.6850
#
#
#
# Elastic Compliance Matrix: (Units=1/GPa)
#
#
# Indices 1 2 3 4 5 6 
#
# 1 0.007524 0.001662 -0.005336 0.000000 -0.000718 0.000000
# 2 0.001662 0.032069 -0.007038 0.000000 -0.013876 0.000000
# 3 -0.005336 -0.007038 0.017519 0.000000 -0.003296 0.000000
# 4 0.000000 0.000000 0.000000 -0.013305 0.000000 0.080097
# 5 -0.000718 -0.013876 -0.003296 0.000000 0.028817 0.000000
# 6 0.000000 0.000000 0.000000 0.080097 0.000000 -0.109744
#
#
# Mechanical properties :
#
#
# Convention : Reuss Voigt Hill
#
# Bulk Modulus (GPa) = 28.02109 57.54406 42.78258
# Shear Modulus (GPa) = -1316.14792 29.44854 -643.34969
#
# Velocity S-wave (km/s) = -23.61888 3.53296 -16.51317
# Velocity P-wave (km/s) = 27.05412 6.40567 18.58619
#
# Compressibility (1/GPa) = 0.03568741
#
# Stress axis : x y z
#
# Youngs Moduli (GPa) = 132.90815 31.18242 57.08164
#
# Poissons Ratio (x) = -0.05181 0.30459
# Poissons Ratio (y) = -0.22083 0.40173
# Poissons Ratio (z) = 0.70920 0.21946
#
# Static dielectric constant tensor:
#      x y z
#    x 1.414040 0.000000 0.748130 
#    y 0.000000 -23.888590 0.000000 
#    z 0.748130 0.000000 4.030070 
# 
# 
# High freq. dielectric constant tensor:
#      x y z
#    x 1.947220 0.000000 0.023390 
#    y 0.000000 1.907280 0.000000 
#    z 0.023390 0.000000 1.914940 
# 
# From -- ./inp_files/85387.got.cif
#   From: 2010.06.25/outbox.cif.g09.slc.cpg/sg15_43_cif.got.tgz:85387.got - 2010.06.28 07:06:18.
