data_PCOD8135576
_publ_section_title
;
Structure prediction by ZEFSAII (Michael W. Deem and Ramdas Pophale) SiO2 
 PCOD8135576
Probable space group: C 2/C
;
_chemical_formula_sum "Si O2"
_cell_formula_units_Z 64
_cell_length_a 10.910196
_cell_length_b 14.981959
_cell_length_c 26.481783
_cell_angle_alpha 90.000000
_cell_angle_beta 44.291471
_cell_angle_gamma 90.000000
_cell_volume 3022.705647
_symmetry_space_group_name_H-M "C 2/C"
_symmetry_group_IT_number 15
_symmetry_cell_setting 'monoclinic'
loop_
_space_group_symop_operation_xyz
x,y,z
-x,y,1/2-z
-x,-y,-z
x,-y,1/2+z
1/2+x,1/2+y,z
1/2-x,1/2+y,1/2-z
1/2-x,1/2-y,-z
1/2+x,1/2-y,1/2+z
loop_
_atom_site_type_symbol
_atom_site_label
_atom_site_fract_x
_atom_site_fract_y
_atom_site_fract_z
Si Si1 0.837199 0.303618 0.761069
Si Si2 0.814672 0.506653 0.778503
Si Si3 0.613623 0.128090 0.837900
Si Si4 0.941734 0.003687 0.918414
Si Si5 0.921734 0.169496 0.987776
Si Si6 0.620847 0.578078 0.665535
Si Si7 0.220372 0.840274 0.478117
Si Si8 0.919533 0.253417 0.885503
O O1 0.764363 0.402139 0.790409
O O2 0.683833 0.229513 0.809397
O O3 0.000000 0.277880 0.750000
O O4 0.918160 0.312956 0.680909
O O5 0.813659 0.561943 0.726902
O O6 0.647271 0.534605 0.861449
O O7 0.000000 0.524793 0.750000
O O8 0.682981 0.091681 0.871283
O O9 0.404733 0.123456 0.902877
O O10 0.857486 0.076748 0.981063
O O11 0.879956 0.002236 0.877658
O O12 0.885707 0.907777 0.954980
O O13 0.940482 0.243555 0.938925
O O14 0.103692 0.171835 0.963138
O O15 0.766678 0.199062 0.071904
O O16 0.500000 0.557425 0.750000
O O17 0.555104 0.663785 0.654242
O O18 0.250000 0.750000 0.500000
#
# Coordination Sequence:
#
# PCOD8135576 Si02
#       8
#     8   8   8   8   8   8   8   8
#     4  11  22  39  71  96 124 171 236 274 319 397
#     4  11  25  39  66 101 127 172 230 277 331 392
#     4  12  22  42  67  96 134 175 221 275 333 405
#     4  11  24  44  65  91 134 174 217 280 328 392
#     4  10  23  40  65  94 128 170 219 266 334 395
#     4  11  19  41  70  96 122 170 222 272 325 386
#     4  12  27  42  62  94 143 179 208 267 351 409
#     4  10  19  38  69  96 119 164 225 279 312 387
#
# _framework density 21.173085
#
# number of rings (size 3 to 8) (size 9 to 14) (size 15 to 20)
#    0.000    1.000    3.750    3.375    5.250    0.500 
#    2.250    0.000    2.750    0.000    0.000    0.000 
#    0.000    0.000    0.000    0.000    0.000    0.000 
#
# Total GULP energy -396546.936498 kJ/mol
# GULP energy per Si atom -12392.091766 kJ/mol
# Density = 2.112489 g / cm^3
# Si number density = 21.173085 Si / 1000 Ang^3
#
#
#
# Elastic Constant Matrix: (Units=GPa)
#
#
# Indices 1 2 3 4 5 6 
#
# 1 117.4761 37.7874 32.1363 -0.0002 -4.4015 0.0000
# 2 37.7874 70.1452 23.8154 0.0001 5.4632 0.0000
# 3 32.1363 23.8154 100.1679 -0.0003 -7.1851 -0.0003
# 4 -0.0002 0.0001 -0.0003 29.0908 0.0000 -2.8350
# 5 -4.4015 5.4632 -7.1851 0.0000 32.3841 0.0000
# 6 0.0000 0.0000 -0.0003 -2.8350 0.0000 26.6325
#
#
#
# Elastic Compliance Matrix: (Units=1/GPa)
#
#
# Indices 1 2 3 4 5 6 
#
# 1 0.010856 -0.005287 -0.002089 0.000000 0.001904 0.000000
# 2 -0.005287 0.018481 -0.003021 0.000000 -0.004507 0.000000
# 3 -0.002089 -0.003021 0.011572 0.000000 0.002793 0.000000
# 4 0.000000 0.000000 0.000000 0.034735 0.000000 0.003698
# 5 0.001904 -0.004507 0.002793 0.000000 0.032518 0.000000
# 6 0.000000 0.000000 0.000000 0.003698 0.000000 0.037942
#
#
# Mechanical properties :
#
#
# Convention : Reuss Voigt Hill
#
# Bulk Modulus (GPa) = 49.71558 52.80748 51.26153
# Shear Modulus (GPa) = 28.80126 30.55815 29.67971
#
# Velocity S-wave (km/s) = 3.69219 3.80314 3.74808
# Velocity P-wave (km/s) = 6.45817 6.65433 6.55698
#
# Compressibility (1/GPa) = 0.02011442
#
# Stress axis : x y z
#
# Youngs Moduli (GPa) = 92.11620 54.10980 86.41455
#
# Poissons Ratio (x) = 0.28608 0.18054
# Poissons Ratio (y) = 0.48702 0.26106
# Poissons Ratio (z) = 0.19245 0.16346
#
# Static dielectric constant tensor:
#      x y z
#    x 3.945110 0.000000 0.104240 
#    y 0.000000 3.812160 0.000000 
#    z 0.104240 0.000000 4.144460 
# 
# 
# High freq. dielectric constant tensor:
#      x y z
#    x 1.825820 0.000000 0.003960 
#    y 0.000000 1.822390 0.000000 
#    z 0.003960 0.000000 1.846420 
# 
# From -- ./inp_files/311197.got.cif
#   From: 2010.06.25/outbox.cif.g09.slc.cpg/sg15_156_cif.got.tgz:311197.got - 2010.06.28 07:06:18.
