data_PCOD8135306
_publ_section_title
;
Structure prediction by ZEFSAII (Michael W. Deem and Ramdas Pophale) SiO2 
 PCOD8135306
Probable space group: C 2/C
;
_chemical_formula_sum "Si O2"
_cell_formula_units_Z 56
_cell_length_a 9.522024
_cell_length_b 24.596710
_cell_length_c 12.957476
_cell_angle_alpha 90.000000
_cell_angle_beta 72.538683
_cell_angle_gamma 90.000000
_cell_volume 2894.933206
_symmetry_space_group_name_H-M "C 2/C"
_symmetry_group_IT_number 15
_symmetry_cell_setting 'monoclinic'
loop_
_space_group_symop_operation_xyz
x,y,z
-x,y,1/2-z
-x,-y,-z
x,-y,1/2+z
1/2+x,1/2+y,z
1/2-x,1/2+y,1/2-z
1/2-x,1/2-y,-z
1/2+x,1/2-y,1/2+z
loop_
_atom_site_type_symbol
_atom_site_label
_atom_site_fract_x
_atom_site_fract_y
_atom_site_fract_z
Si Si1 0.926630 0.446926 0.157519
Si Si2 0.894495 0.558476 0.081907
Si Si3 0.883312 0.624424 0.351633
Si Si4 0.850399 0.333737 0.224869
Si Si5 0.703790 0.248690 0.391654
Si Si6 0.616190 0.785286 0.495557
Si Si7 0.673587 0.361585 0.720973
O O1 0.838295 0.498472 0.128367
O O2 0.812947 0.395096 0.192583
O O3 0.000000 0.461906 0.250000
O O4 0.058357 0.435279 0.047166
O O5 0.761140 0.601115 0.120625
O O6 0.033397 0.569558 0.129416
O O7 0.857775 0.655804 0.462699
O O8 0.729087 0.619599 0.323373
O O9 0.000000 0.655372 0.250000
O O10 0.732946 0.306524 0.328375
O O11 0.883606 0.290848 0.127114
O O12 0.000000 0.344099 0.250000
O O13 0.750000 0.250000 0.500000
O O14 0.529968 0.241137 0.426487
O O15 0.790872 0.201303 0.311673
O O16 0.750000 0.750000 0.500000
O O17 0.500000 0.371869 0.750000
#
# Coordination Sequence:
#
# PCOD8135306 Si02
#       7
#     8   8   8   8   8   8   8
#     4  10  20  36  66  96 121 159 211 260 314 356
#     4  10  20  40  67  93 119 163 215 261 299 370
#     4  10  19  38  58  84 117 153 211 251 293 364
#     4  11  22  38  60  94 126 160 204 257 307 373
#     4  12  24  39  60  89 127 164 206 252 311 377
#     4  12  24  38  60  86 121 165 205 256 307 367
#     4  11  23  38  63  91 122 165 208 252 308 375
#
# _framework density 19.344142999999999
#
# number of rings (size 3 to 8) (size 9 to 14) (size 15 to 20)
#    0.000    1.143    5.714    2.571    4.000    0.000 
#    0.000    0.000    3.143    7.714    0.000    0.000 
#    0.000    0.000    0.000    0.000    0.000    0.000 
#
# Total GULP energy -346938.298837 kJ/mol
# GULP energy per Si atom -12390.653530 kJ/mol
# Density = 1.930012 g / cm^3
# Si number density = 19.344143 Si / 1000 Ang^3
#
#
#
# Elastic Constant Matrix: (Units=GPa)
#
#
# Indices 1 2 3 4 5 6 
#
# 1 111.8827 28.1692 29.7796 0.0000 -4.8447 0.0000
# 2 28.1692 120.2351 42.4381 0.0000 -8.9274 0.0000
# 3 29.7796 42.4381 115.2541 0.0000 8.1707 0.0000
# 4 0.0000 0.0000 0.0000 35.9614 0.0000 1.7884
# 5 -4.8447 -8.9274 8.1707 0.0000 22.0887 0.0000
# 6 0.0000 0.0000 0.0000 1.7884 0.0000 16.7366
#
#
#
# Elastic Compliance Matrix: (Units=1/GPa)
#
#
# Indices 1 2 3 4 5 6 
#
# 1 0.009988 -0.001360 -0.002255 0.000000 0.002475 0.000000
# 2 -0.001360 0.010391 -0.003852 0.000000 0.005326 0.000000
# 3 -0.002255 -0.003852 0.011115 0.000000 -0.006163 0.000000
# 4 0.000000 0.000000 0.000000 0.027956 0.000000 -0.002987
# 5 0.002475 0.005326 -0.006163 0.000000 0.050247 0.000000
# 6 0.000000 0.000000 0.000000 -0.002987 0.000000 0.060068
#
#
# Mechanical properties :
#
#
# Convention : Reuss Voigt Hill
#
# Bulk Modulus (GPa) = 60.39423 60.90507 60.64965
# Shear Modulus (GPa) = 26.28541 31.42302 28.85421
#
# Velocity S-wave (km/s) = 3.69023 4.03478 3.86635
# Velocity P-wave (km/s) = 7.03177 7.29790 7.16607
#
# Compressibility (1/GPa) = 0.01655787
#
# Stress axis : x y z
#
# Youngs Moduli (GPa) = 100.12146 96.23865 89.97229
#
# Poissons Ratio (x) = 0.13090 0.20292
# Poissons Ratio (y) = 0.13618 0.34659
# Poissons Ratio (z) = 0.22581 0.37073
#
# Static dielectric constant tensor:
#      x y z
#    x 3.311990 0.000000 0.170950 
#    y 0.000000 -4.478280 0.000000 
#    z 0.170950 0.000000 3.728080 
# 
# 
# High freq. dielectric constant tensor:
#      x y z
#    x 1.716060 0.000000 0.021010 
#    y 0.000000 1.755690 0.000000 
#    z 0.021010 0.000000 1.770160 
# 
# From -- ./inp_files/137265.got.cif
#   From: 2010.06.25/outbox.cif.g09.slc.cpg/sg15_69_cif.got.tgz:137265.got - 2010.06.28 07:06:18.
