data_PCOD8135870
_publ_section_title
;
Structure prediction by ZEFSAII (Michael W. Deem and Ramdas Pophale) SiO2 
 PCOD8135870
Probable space group: C 2/C
;
_chemical_formula_sum "Si O2"
_cell_formula_units_Z 40
_cell_length_a 11.598642
_cell_length_b 14.922458
_cell_length_c 10.800198
_cell_angle_alpha 90.000000
_cell_angle_beta 76.169654
_cell_angle_gamma 90.000000
_cell_volume 1815.105816
_symmetry_space_group_name_H-M "C 2/C"
_symmetry_group_IT_number 15
_symmetry_cell_setting 'monoclinic'
loop_
_space_group_symop_operation_xyz
x,y,z
-x,y,1/2-z
-x,-y,-z
x,-y,1/2+z
1/2+x,1/2+y,z
1/2-x,1/2+y,1/2-z
1/2-x,1/2-y,-z
1/2+x,1/2-y,1/2+z
loop_
_atom_site_type_symbol
_atom_site_label
_atom_site_fract_x
_atom_site_fract_y
_atom_site_fract_z
Si Si1 0.815202 0.531766 0.267830
Si Si2 0.427994 0.685967 0.882795
Si Si3 0.022084 0.613774 0.081899
Si Si4 0.319284 0.154015 0.667486
Si Si5 0.906195 0.154984 0.168589
O O1 0.886960 0.546517 0.374690
O O2 0.789325 0.424872 0.270220
O O3 0.688128 0.576669 0.301943
O O4 0.889743 0.573828 0.132453
O O5 0.500000 0.637730 0.750000
O O6 0.462006 0.789533 0.860231
O O7 0.287591 0.668786 0.902795
O O8 0.462118 0.655224 0.014269
O O9 0.059698 0.619855 0.929765
O O10 0.346667 0.249752 0.722254
O O11 0.000000 0.130966 0.250000
#
# Coordination Sequence:
#
# PCOD8135870 Si02
#       5
#     8   8   8   8   8
#     4  11  21  39  65  94 127 165 212 271 317 379
#     4  11  20  44  70  90 125 184 217 251 322 397
#     4  10  19  40  67  91 125 164 223 262 322 382
#     4  11  22  40  67  93 127 173 218 257 328 385
#     4  11  24  44  64 100 134 164 214 276 318 375
#
# _framework density 22.037282999999999
#
# number of rings (size 3 to 8) (size 9 to 14) (size 15 to 20)
#    0.000    1.200    6.000    1.800    2.800    0.800 
#    3.600    7.000    0.000    0.000    0.000    0.000 
#    0.000    0.000    0.000    0.000    0.000    0.000 
#
# Total GULP energy -247812.964345 kJ/mol
# GULP energy per Si atom -12390.648217 kJ/mol
# Density = 2.198713 g / cm^3
# Si number density = 22.037283 Si / 1000 Ang^3
#
#
#
# Elastic Constant Matrix: (Units=GPa)
#
#
# Indices 1 2 3 4 5 6 
#
# 1 69.0902 13.6859 46.0081 0.0000 2.6088 0.0000
# 2 13.6859 85.5934 36.8157 0.0000 -10.8340 0.0000
# 3 46.0081 36.8157 92.9009 0.0000 0.0813 0.0000
# 4 0.0000 0.0000 0.0000 21.5473 0.0000 6.9973
# 5 2.6088 -10.8340 0.0813 0.0000 28.5781 0.0000
# 6 0.0000 0.0000 0.0000 6.9973 0.0000 18.1300
#
#
#
# Elastic Compliance Matrix: (Units=1/GPa)
#
#
# Indices 1 2 3 4 5 6 
#
# 1 0.021794 0.001163 -0.011253 0.000000 -0.001516 0.000000
# 2 0.001163 0.015016 -0.006532 0.000000 0.005605 0.000000
# 3 -0.011253 -0.006532 0.018927 0.000000 -0.001503 0.000000
# 4 0.000000 0.000000 0.000000 0.053060 0.000000 -0.020478
# 5 -0.001516 0.005605 -0.001503 0.000000 0.037259 0.000000
# 6 0.000000 0.000000 0.000000 -0.020478 0.000000 0.063061
#
#
# Mechanical properties :
#
#
# Convention : Reuss Voigt Hill
#
# Bulk Modulus (GPa) = 44.45561 48.95600 46.70580
# Shear Modulus (GPa) = 20.01137 23.72273 21.86705
#
# Velocity S-wave (km/s) = 3.01669 3.28454 3.15346
# Velocity P-wave (km/s) = 5.68776 6.05372 5.87359
#
# Compressibility (1/GPa) = 0.02249435
#
# Stress axis : x y z
#
# Youngs Moduli (GPa) = 45.88375 66.59538 52.83471
#
# Poissons Ratio (x) = -0.07748 0.59455
# Poissons Ratio (y) = -0.05339 0.34511
# Poissons Ratio (z) = 0.51633 0.43499
#
# Static dielectric constant tensor:
#      x y z
#    x 3.785640 0.000000 -0.178100 
#    y 0.000000 3.988970 0.000000 
#    z -0.178100 0.000000 3.994360 
# 
# 
# High freq. dielectric constant tensor:
#      x y z
#    x 1.848590 0.000000 -0.010390 
#    y 0.000000 1.868250 0.000000 
#    z -0.010390 0.000000 1.859810 
# 
# From -- ./inp_files/85517.got.cif
#   From: 2010.06.25/outbox.cif.g09.slc.cpg/sg15_43_cif.got.tgz:85517.got - 2010.06.28 07:06:18.
