data_PCOD8135140
_publ_section_title
;
Structure prediction by ZEFSAII (Michael W. Deem and Ramdas Pophale) SiO2 
 PCOD8135140
Probable space group: C 2/C
;
_chemical_formula_sum "Si O2"
_cell_formula_units_Z 56
_cell_length_a 27.117599
_cell_length_b 17.403450
_cell_length_c 9.229850
_cell_angle_alpha 90.000000
_cell_angle_beta 37.507505
_cell_angle_gamma 90.000000
_cell_volume 2652.176860
_symmetry_space_group_name_H-M "C 2/C"
_symmetry_group_IT_number 15
_symmetry_cell_setting 'monoclinic'
loop_
_space_group_symop_operation_xyz
x,y,z
-x,y,1/2-z
-x,-y,-z
x,-y,1/2+z
1/2+x,1/2+y,z
1/2-x,1/2+y,1/2-z
1/2-x,1/2-y,-z
1/2+x,1/2-y,1/2+z
loop_
_atom_site_type_symbol
_atom_site_label
_atom_site_fract_x
_atom_site_fract_y
_atom_site_fract_z
Si Si1 0.410597 0.564813 0.904954
Si Si2 0.666923 0.282258 0.837684
Si Si3 0.320978 0.455933 0.330507
Si Si4 0.908902 0.370614 0.496103
Si Si5 0.163826 0.336299 0.123704
Si Si6 0.304264 0.150369 0.509314
Si Si7 0.164132 0.470178 0.321008
O O1 0.500000 0.541992 0.750000
O O2 0.396670 0.555846 0.764125
O O3 0.397642 0.655102 0.963102
O O4 0.348219 0.510082 0.135622
O O5 0.739379 0.327538 0.589358
O O6 0.622839 0.228916 0.820443
O O7 0.702500 0.229742 0.886174
O O8 0.282562 0.375228 0.358807
O O9 0.251839 0.494353 0.588532
O O10 0.858382 0.327586 0.490518
O O11 0.874888 0.337815 0.726005
O O12 0.900945 0.462664 0.507012
O O13 0.000000 0.346647 0.250000
O O14 0.137328 0.419390 0.245487
O O15 0.333619 0.080293 0.540255
#
# Coordination Sequence:
#
# PCOD8135140 Si02
#       7
#     8   8   8   8   8   8   8
#     4  12  25  40  63  93 131 167 201 264 326 377
#     4  10  22  42  63  91 119 162 218 251 309 378
#     4  11  21  41  64  92 123 158 221 258 304 375
#     4  11  23  36  56  92 128 158 199 254 317 371
#     4  10  21  38  62  85 118 162 205 258 302 366
#     4  10  22  38  67  91 119 166 212 260 304 363
#     4  10  19  37  63  88 115 160 209 262 302 355
#
# _framework density 21.114730999999999
#
# number of rings (size 3 to 8) (size 9 to 14) (size 15 to 20)
#    0.000    1.429    2.857    3.857    0.000    5.714 
#    0.000    2.857    0.000    1.714    0.000    0.000 
#    0.000    0.000    0.000    0.000    0.000    0.000 
#
# Total GULP energy -347103.871866 kJ/mol
# GULP energy per Si atom -12396.566852 kJ/mol
# Density = 2.106667 g / cm^3
# Si number density = 21.114731 Si / 1000 Ang^3
#
#
#
# Elastic Constant Matrix: (Units=GPa)
#
#
# Indices 1 2 3 4 5 6 
#
# 1 52.1455 12.6178 38.2586 0.0000 22.5538 0.0000
# 2 12.6178 83.0456 28.3152 0.0000 11.1202 0.0000
# 3 38.2586 28.3152 72.3870 0.0000 11.3869 0.0000
# 4 0.0000 0.0000 0.0000 13.2502 0.0000 3.0157
# 5 22.5538 11.1202 11.3869 0.0000 35.2901 0.0000
# 6 0.0000 0.0000 0.0000 3.0157 0.0000 23.0539
#
#
#
# Elastic Compliance Matrix: (Units=1/GPa)
#
#
# Indices 1 2 3 4 5 6 
#
# 1 0.042895 0.003423 -0.020573 0.000000 -0.021855 0.000000
# 2 0.003423 0.014429 -0.006736 0.000000 -0.004561 0.000000
# 3 -0.020573 -0.006736 0.026253 0.000000 0.006799 0.000000
# 4 0.000000 0.000000 0.000000 0.077787 0.000000 -0.010175
# 5 -0.021855 -0.004561 0.006799 0.000000 0.041547 0.000000
# 6 0.000000 0.000000 0.000000 -0.010175 0.000000 0.044708
#
#
# Mechanical properties :
#
#
# Convention : Reuss Voigt Hill
#
# Bulk Modulus (GPa) = 27.92750 40.66237 34.29493
# Shear Modulus (GPa) = 16.26945 22.87793 19.57369
#
# Velocity S-wave (km/s) = 2.77885 3.29524 3.04800
# Velocity P-wave (km/s) = 4.85296 5.81186 5.35392
#
# Compressibility (1/GPa) = 0.03580700
#
# Stress axis : x y z
#
# Youngs Moduli (GPa) = 23.31262 69.30551 38.09070
#
# Poissons Ratio (x) = -0.23726 0.78362
# Poissons Ratio (y) = -0.07981 0.25658
# Poissons Ratio (z) = 0.47960 0.46684
#
# Static dielectric constant tensor:
#      x y z
#    x 3.787090 0.000000 0.295720 
#    y 0.000000 3.907510 0.000000 
#    z 0.295720 0.000000 3.650880 
# 
# 
# High freq. dielectric constant tensor:
#      x y z
#    x 1.822810 0.000000 0.029190 
#    y 0.000000 1.826960 0.000000 
#    z 0.029190 0.000000 1.815070 
# 
# From -- ./inp_files/67129.got.cif
#   From: 2010.06.25/outbox.cif.g09.slc.cpg/sg15_34_cif.got.tgz:67129.got - 2010.06.28 07:06:18.
