data_PCOD8135981
_publ_section_title
;
Structure prediction by ZEFSAII (Michael W. Deem and Ramdas Pophale) SiO2 
 PCOD8135981
Probable space group: C 2/C
;
_chemical_formula_sum "Si O2"
_cell_formula_units_Z 40
_cell_length_a 11.253724
_cell_length_b 8.259002
_cell_length_c 18.099582
_cell_angle_alpha 90.000000
_cell_angle_beta 86.105596
_cell_angle_gamma 90.000000
_cell_volume 1678.372653
_symmetry_space_group_name_H-M "C 2/C"
_symmetry_group_IT_number 15
_symmetry_cell_setting 'monoclinic'
loop_
_space_group_symop_operation_xyz
x,y,z
-x,y,1/2-z
-x,-y,-z
x,-y,1/2+z
1/2+x,1/2+y,z
1/2-x,1/2+y,1/2-z
1/2-x,1/2-y,-z
1/2+x,1/2-y,1/2+z
loop_
_atom_site_type_symbol
_atom_site_label
_atom_site_fract_x
_atom_site_fract_y
_atom_site_fract_z
Si Si1 0.868219 0.973335 0.978226
Si Si2 0.906338 0.301172 0.030995
Si Si3 0.646034 0.908738 0.067088
Si Si4 0.737037 0.418762 0.158530
Si Si5 0.866173 0.417899 0.783904
O O1 0.844074 0.965974 0.890986
O O2 0.825035 0.156616 0.003431
O O3 0.777468 0.863690 0.031204
O O4 0.000000 0.000000 0.000000
O O5 0.856655 0.367294 0.110255
O O6 0.051785 0.259211 0.047129
O O7 0.914740 0.436628 0.968057
O O8 0.648517 0.942734 0.153676
O O9 0.773340 0.532392 0.224626
O O10 0.664605 0.261220 0.186782
O O11 0.000000 0.416098 0.750000
#
# Coordination Sequence:
#
# PCOD8135981 Si02
#       5
#     8   8   8   8   8
#     4  11  23  40  67  97 130 165 226 281 326 382
#     4  10  19  41  70  86 120 172 222 260 323 385
#     4  10  20  39  67  89 119 171 217 262 321 397
#     4  11  24  43  66  97 130 177 220 273 334 402
#     4  12  24  43  66  98 140 177 217 270 346 403
#
# _framework density 23.832609999999999
#
# number of rings (size 3 to 8) (size 9 to 14) (size 15 to 20)
#    0.000    1.200    6.000    1.200    0.000    4.000 
#    0.000    0.000    0.000    0.000    0.000    0.000 
#    0.000    0.000    0.000    0.000    0.000    0.000 
#
# Total GULP energy -247875.988781 kJ/mol
# GULP energy per Si atom -12393.799439 kJ/mol
# Density = 2.377837 g / cm^3
# Si number density = 23.832610 Si / 1000 Ang^3
#
#
#
# Elastic Constant Matrix: (Units=GPa)
#
#
# Indices 1 2 3 4 5 6 
#
# 1 141.6650 27.1899 64.0549 0.0000 4.0879 0.0000
# 2 27.1899 37.6324 36.9146 0.0000 -8.8933 0.0000
# 3 64.0549 36.9146 172.3417 0.0000 9.7172 0.0000
# 4 0.0000 0.0000 0.0000 24.8586 0.0000 16.7327
# 5 4.0879 -8.8933 9.7172 0.0000 33.8630 0.0000
# 6 0.0000 0.0000 0.0000 16.7327 0.0000 38.3511
#
#
#
# Elastic Compliance Matrix: (Units=1/GPa)
#
#
# Indices 1 2 3 4 5 6 
#
# 1 0.009030 -0.004713 -0.002252 0.000000 -0.001682 0.000000
# 2 -0.004713 0.040759 -0.007740 0.000000 0.013494 0.000000
# 3 -0.002252 -0.007740 0.008535 0.000000 -0.004210 0.000000
# 4 0.000000 0.000000 0.000000 0.056954 0.000000 -0.024849
# 5 -0.001682 0.013494 -0.004210 0.000000 0.034486 0.000000
# 6 0.000000 0.000000 0.000000 -0.024849 0.000000 0.036916
#
#
# Mechanical properties :
#
#
# Convention : Reuss Voigt Hill
#
# Bulk Modulus (GPa) = 34.58428 67.55089 51.06758
# Shear Modulus (GPa) = 22.15072 34.31320 28.23196
#
# Velocity S-wave (km/s) = 3.05196 3.79853 3.44553
# Velocity P-wave (km/s) = 5.19251 6.90245 6.10762
#
# Compressibility (1/GPa) = 0.02891487
#
# Stress axis : x y z
#
# Youngs Moduli (GPa) = 110.73912 24.53463 117.17050
#
# Poissons Ratio (x) = 0.11563 0.26387
# Poissons Ratio (y) = 0.52189 0.90684
# Poissons Ratio (z) = 0.24939 0.18989
#
# Static dielectric constant tensor:
#      x y z
#    x 4.012630 0.000000 1.011250 
#    y 0.000000 -29.877610 0.000000 
#    z 1.011250 0.000000 2.994980 
# 
# 
# High freq. dielectric constant tensor:
#      x y z
#    x 1.977540 0.000000 0.010970 
#    y 0.000000 1.979000 0.000000 
#    z 0.010970 0.000000 1.938260 
# 
# From -- ./inp_files/195184.got.cif
#   From: 2010.06.25/outbox.cif.g09.slc.cpg/sg15_98_cif.got.tgz:195184.got - 2010.06.28 07:06:18.
