data_PCOD8135947
_publ_section_title
;
Structure prediction by ZEFSAII (Michael W. Deem and Ramdas Pophale) SiO2 
 PCOD8135947
Probable space group: C 2/C
;
_chemical_formula_sum "Si O2"
_cell_formula_units_Z 44
_cell_length_a 9.958364
_cell_length_b 10.046418
_cell_length_c 26.924328
_cell_angle_alpha 90.000000
_cell_angle_beta 51.138632
_cell_angle_gamma 90.000000
_cell_volume 2097.468931
_symmetry_space_group_name_H-M "C 2/C"
_symmetry_group_IT_number 15
_symmetry_cell_setting 'monoclinic'
loop_
_space_group_symop_operation_xyz
x,y,z
-x,y,1/2-z
-x,-y,-z
x,-y,1/2+z
1/2+x,1/2+y,z
1/2-x,1/2+y,1/2-z
1/2-x,1/2-y,-z
1/2+x,1/2-y,1/2+z
loop_
_atom_site_type_symbol
_atom_site_label
_atom_site_fract_x
_atom_site_fract_y
_atom_site_fract_z
Si Si1 0.500000 0.861890 0.250000
Si Si2 0.115689 0.517785 0.088038
Si Si3 0.412677 0.888752 0.554226
Si Si4 0.209232 0.967205 0.849943
Si Si5 0.446249 0.393983 0.472015
Si Si6 0.448501 0.271841 0.866332
O O1 0.666640 0.958195 0.217900
O O2 0.517023 0.769152 0.198240
O O3 0.173224 0.570689 0.128913
O O4 0.108011 0.357705 0.089186
O O5 0.935928 0.575016 0.108055
O O6 0.241740 0.580145 0.015584
O O7 0.506430 0.750820 0.519153
O O8 0.207273 0.877397 0.593144
O O9 0.500000 0.000000 0.500000
O O10 0.056057 0.072147 0.897434
O O11 0.125006 0.834313 0.846849
O O12 0.500000 0.500000 0.500000
#
# Coordination Sequence:
#
# PCOD8135947 Si02
#       6
#     4   8   8   8   8   8
#     4  10  22  46  64  92 126 178 228 272 328 380
#     4  10  23  40  66  98 138 168 212 264 334 396
#     4  12  24  38  68 106 137 174 216 270 334 401
#     4  10  22  43  70  88 129 180 215 272 331 385
#     4  10  19  41  65  95 139 174 206 263 333 396
#     4  11  24  45  68  95 134 173 220 280 327 390
#
# _framework density 20.977664999999998
#
# number of rings (size 3 to 8) (size 9 to 14) (size 15 to 20)
#    0.000    1.455    5.455    1.636    5.091    4.364 
#    0.000    0.000    0.000    0.000    0.000    0.000 
#    0.000    0.000    0.000    0.000    0.000    0.000 
#
# Total GULP energy -272580.057212 kJ/mol
# GULP energy per Si atom -12390.002601 kJ/mol
# Density = 2.092992 g / cm^3
# Si number density = 20.977665 Si / 1000 Ang^3
#
#
#
# Elastic Constant Matrix: (Units=GPa)
#
#
# Indices 1 2 3 4 5 6 
#
# 1 121.1366 60.7230 21.4950 0.0000 3.6857 0.0000
# 2 60.7230 134.2973 47.8594 0.0000 -1.0016 0.0000
# 3 21.4950 47.8594 100.9252 0.0000 -15.8592 0.0000
# 4 0.0000 0.0000 0.0000 31.5916 0.0000 -2.0700
# 5 3.6857 -1.0016 -15.8592 0.0000 24.2522 0.0000
# 6 0.0000 0.0000 0.0000 -2.0700 0.0000 43.5661
#
#
#
# Elastic Compliance Matrix: (Units=1/GPa)
#
#
# Indices 1 2 3 4 5 6 
#
# 1 0.010765 -0.004753 -0.000364 0.000000 -0.002070 0.000000
# 2 -0.004753 0.011219 -0.004593 0.000000 -0.001818 0.000000
# 3 -0.000364 -0.004593 0.013534 0.000000 0.008716 0.000000
# 4 0.000000 0.000000 0.000000 0.031753 0.000000 0.001509
# 5 -0.002070 -0.001818 0.008716 0.000000 0.047172 0.000000
# 6 0.000000 0.000000 0.000000 0.001509 0.000000 0.023025
#
#
# Mechanical properties :
#
#
# Convention : Reuss Voigt Hill
#
# Bulk Modulus (GPa) = 62.12601 68.50154 65.31377
# Shear Modulus (GPa) = 30.81562 34.96744 32.89153
#
# Velocity S-wave (km/s) = 3.83688 4.08718 3.96401
# Velocity P-wave (km/s) = 7.02200 7.41612 7.22175
#
# Compressibility (1/GPa) = 0.01609632
#
# Stress axis : x y z
#
# Youngs Moduli (GPa) = 92.88946 89.13644 73.89005
#
# Poissons Ratio (x) = 0.42369 0.02690
# Poissons Ratio (y) = 0.44153 0.33940
# Poissons Ratio (z) = 0.03382 0.40943
#
# Static dielectric constant tensor:
#      x y z
#    x 5.087680 0.000000 -1.330030 
#    y 0.000000 3.834210 0.000000 
#    z -1.330030 0.000000 4.997670 
# 
# 
# High freq. dielectric constant tensor:
#      x y z
#    x 1.829710 0.000000 -0.010090 
#    y 0.000000 1.821860 0.000000 
#    z -0.010090 0.000000 1.802490 
# 
# From -- ./inp_files/309859.got.cif
#   From: 2010.06.25/outbox.cif.g09.slc.cpg/sg15_155_cif.got.tgz:309859.got - 2010.06.28 07:06:18.
