data_PCOD8135414
_publ_section_title
;
Structure prediction by ZEFSAII (Michael W. Deem and Ramdas Pophale) SiO2 
 PCOD8135414
Probable space group: C 2/C
;
_chemical_formula_sum "Si O2"
_cell_formula_units_Z 48
_cell_length_a 11.082682
_cell_length_b 24.611491
_cell_length_c 9.532840
_cell_angle_alpha 90.000000
_cell_angle_beta 102.406388
_cell_angle_gamma 90.000000
_cell_volume 2539.471322
_symmetry_space_group_name_H-M "C 2/C"
_symmetry_group_IT_number 15
_symmetry_cell_setting 'monoclinic'
loop_
_space_group_symop_operation_xyz
x,y,z
-x,y,1/2-z
-x,-y,-z
x,-y,1/2+z
1/2+x,1/2+y,z
1/2-x,1/2+y,1/2-z
1/2-x,1/2-y,-z
1/2+x,1/2-y,1/2+z
loop_
_atom_site_type_symbol
_atom_site_label
_atom_site_fract_x
_atom_site_fract_y
_atom_site_fract_z
Si Si1 0.500000 0.619323 0.250000
Si Si2 0.219843 0.530519 0.728866
Si Si3 0.500000 0.047041 0.250000
Si Si4 0.662644 0.679081 0.081346
Si Si5 0.091718 0.272681 0.896837
Si Si6 0.618092 0.472058 0.961100
Si Si7 0.140638 0.382250 0.010680
O O1 0.597880 0.659369 0.204723
O O2 0.426744 0.584069 0.117856
O O3 0.109279 0.487987 0.710579
O O4 0.321788 0.509844 0.643253
O O5 0.159766 0.587469 0.663110
O O6 0.280882 0.540531 0.894920
O O7 0.445608 0.082734 0.111914
O O8 0.771595 0.722985 0.140503
O O9 0.721495 0.625705 0.021534
O O10 0.568023 0.713230 0.958413
O O11 0.079016 0.322026 0.008917
O O12 0.000000 0.283910 0.750000
O O13 0.500000 0.500000 0.000000
#
# Coordination Sequence:
#
# PCOD8135414 Si02
#       7
#     4   8   4   8   8   8   8
#     4  12  22  40  63  90 125 164 204 258 314 364
#     4  12  24  39  60  92 131 164 213 256 300 381
#     4  12  22  38  63  90 123 174 200 258 306 368
#     4   9  21  39  62  89 115 153 207 259 301 381
#     4   9  19  40  68  84 112 158 206 253 314 370
#     4  12  24  40  61  89 131 172 208 252 308 369
#     4  10  19  38  62  85 122 160 203 246 313 363
#
# _framework density 18.901572999999999
#
# number of rings (size 3 to 8) (size 9 to 14) (size 15 to 20)
#    1.000    0.333    4.167    2.500    0.000    1.333 
#    0.000    1.667    0.000    0.000    0.000    0.000 
#    0.000    0.000    0.000    0.000    0.000    0.000 
#
# Total GULP energy -297394.865275 kJ/mol
# GULP energy per Si atom -12391.452720 kJ/mol
# Density = 1.885855 g / cm^3
# Si number density = 18.901573 Si / 1000 Ang^3
#
#
#
# Elastic Constant Matrix: (Units=GPa)
#
#
# Indices 1 2 3 4 5 6 
#
# 1 66.3608 49.9864 30.5760 0.0000 -3.9324 0.0000
# 2 49.9864 100.6534 56.2203 0.0000 7.3014 0.0000
# 3 30.5760 56.2203 107.8714 0.0000 13.4446 0.0000
# 4 0.0000 0.0000 0.0000 31.8315 0.0000 -5.5060
# 5 -3.9324 7.3014 13.4446 0.0000 29.3683 0.0000
# 6 0.0000 0.0000 0.0000 -5.5060 0.0000 14.4670
#
#
#
# Elastic Compliance Matrix: (Units=1/GPa)
#
#
# Indices 1 2 3 4 5 6 
#
# 1 0.025510 -0.012204 -0.001776 0.000000 0.007263 0.000000
# 2 -0.012204 0.019854 -0.006437 0.000000 -0.003623 0.000000
# 3 -0.001776 -0.006437 0.013742 0.000000 -0.004929 0.000000
# 4 0.000000 0.000000 0.000000 0.033629 0.000000 0.012799
# 5 0.007263 -0.003623 -0.004929 0.000000 0.038180 0.000000
# 6 0.000000 0.000000 0.000000 0.012799 0.000000 0.073994
#
#
# Mechanical properties :
#
#
# Convention : Reuss Voigt Hill
#
# Bulk Modulus (GPa) = 54.72164 60.93898 57.83031
# Shear Modulus (GPa) = 19.85439 24.34023 22.09731
#
# Velocity S-wave (km/s) = 3.24452 3.59240 3.42288
# Velocity P-wave (km/s) = 6.56122 7.03685 6.80319
#
# Compressibility (1/GPa) = 0.01827431
#
# Stress axis : x y z
#
# Youngs Moduli (GPa) = 39.19986 50.36819 72.76701
#
# Poissons Ratio (x) = 0.61469 0.12921
# Poissons Ratio (y) = 0.47839 0.46837
# Poissons Ratio (z) = 0.06960 0.32420
#
# Static dielectric constant tensor:
#      x y z
#    x 3.518300 0.000000 0.220390 
#    y 0.000000 3.525260 0.000000 
#    z 0.220390 0.000000 3.548080 
# 
# 
# High freq. dielectric constant tensor:
#      x y z
#    x 1.731580 0.000000 0.017330 
#    y 0.000000 1.737900 0.000000 
#    z 0.017330 0.000000 1.722580 
# 
# From -- ./inp_files/33118.got.cif
#   From: 2010.06.25/outbox.cif.g09.slc.cpg/sg15_17_cif.got.tgz:33118.got - 2010.06.28 07:06:18.
