data_PCOD8135973
_publ_section_title
;
Structure prediction by ZEFSAII (Michael W. Deem and Ramdas Pophale) SiO2 
 PCOD8135973
Probable space group: C 2/C
;
_chemical_formula_sum "Si O2"
_cell_formula_units_Z 48
_cell_length_a 8.814957
_cell_length_b 17.887817
_cell_length_c 17.691756
_cell_angle_alpha 90.000000
_cell_angle_beta 125.356272
_cell_angle_gamma 90.000000
_cell_volume 2275.147439
_symmetry_space_group_name_H-M "C 2/C"
_symmetry_group_IT_number 15
_symmetry_cell_setting 'monoclinic'
loop_
_space_group_symop_operation_xyz
x,y,z
-x,y,1/2-z
-x,-y,-z
x,-y,1/2+z
1/2+x,1/2+y,z
1/2-x,1/2+y,1/2-z
1/2-x,1/2-y,-z
1/2+x,1/2-y,1/2+z
loop_
_atom_site_type_symbol
_atom_site_label
_atom_site_fract_x
_atom_site_fract_y
_atom_site_fract_z
Si Si1 0.604804 0.278708 0.018188
Si Si2 0.688690 0.517149 0.852106
Si Si3 0.348382 0.674071 0.810163
Si Si4 0.261777 0.819184 0.384605
Si Si5 0.996530 0.941340 0.565972
Si Si6 0.306601 0.011061 0.733081
O O1 0.425405 0.225451 0.972836
O O2 0.537979 0.360342 0.975923
O O3 0.750000 0.250000 0.000000
O O4 0.710567 0.283666 0.129635
O O5 0.500000 0.535176 0.750000
O O6 0.784870 0.592930 0.909161
O O7 0.656398 0.461210 0.912804
O O8 0.830785 0.486360 0.828283
O O9 0.225353 0.697998 0.702224
O O10 0.560031 0.701081 0.858662
O O11 0.325673 0.584579 0.814209
O O12 0.000000 0.000000 0.500000
O O13 0.202252 0.942818 0.661758
O O14 0.500000 0.029088 0.750000
#
# Coordination Sequence:
#
# PCOD8135973 Si02
#       6
#     8   8   8   8   8   8
#     4  12  27  40  61 102 138 168 216 276 333 386
#     4   9  17  38  66  90 119 168 217 258 325 388
#     4  10  20  41  68  91 125 180 217 259 331 402
#     4  10  19  41  68  91 124 176 223 261 324 400
#     4  11  21  42  66  93 133 166 211 273 329 384
#     4  10  20  38  69  94 121 167 229 265 322 393
#
# _framework density 21.097535000000001
#
# number of rings (size 3 to 8) (size 9 to 14) (size 15 to 20)
#    0.000    1.667    6.667    0.500    4.667    0.000 
#   12.000    5.000    0.000    0.000    0.000    0.000 
#    0.000    0.000    0.000    0.000    0.000    0.000 
#
# Total GULP energy -297355.415595 kJ/mol
# GULP energy per Si atom -12389.808983 kJ/mol
# Density = 2.104952 g / cm^3
# Si number density = 21.097535 Si / 1000 Ang^3
#
#
#
# Elastic Constant Matrix: (Units=GPa)
#
#
# Indices 1 2 3 4 5 6 
#
# 1 111.6536 14.1716 17.7872 0.0000 -18.7496 0.0000
# 2 14.1716 64.1265 11.0221 0.0000 5.3107 0.0000
# 3 17.7872 11.0221 57.3560 0.0000 -18.8697 0.0000
# 4 0.0000 0.0000 0.0000 13.8263 0.0000 -8.9620
# 5 -18.7496 5.3107 -18.8697 0.0000 33.8654 0.0000
# 6 0.0000 0.0000 0.0000 -8.9620 0.0000 28.8467
#
#
#
# Elastic Compliance Matrix: (Units=1/GPa)
#
#
# Indices 1 2 3 4 5 6 
#
# 1 0.010378 -0.002619 -0.000844 0.000000 0.005686 0.000000
# 2 -0.002619 0.017576 -0.004836 0.000000 -0.006901 0.000000
# 3 -0.000844 -0.004836 0.022924 0.000000 0.013064 0.000000
# 4 0.000000 0.000000 0.000000 0.090563 0.000000 0.028136
# 5 0.005686 -0.006901 0.013064 0.000000 0.041038 0.000000
# 6 0.000000 0.000000 0.000000 0.028136 0.000000 0.043407
#
#
# Mechanical properties :
#
#
# Convention : Reuss Voigt Hill
#
# Bulk Modulus (GPa) = 29.17205 35.45534 32.31369
# Shear Modulus (GPa) = 19.69196 27.98469 23.83833
#
# Velocity S-wave (km/s) = 3.05844 3.64599 3.36506
# Velocity P-wave (km/s) = 5.13121 5.87931 5.51795
#
# Compressibility (1/GPa) = 0.03427939
#
# Stress axis : x y z
#
# Youngs Moduli (GPa) = 96.35682 56.89694 43.62229
#
# Poissons Ratio (x) = 0.14903 0.03684
# Poissons Ratio (y) = 0.25238 0.21094
# Poissons Ratio (z) = 0.08137 0.27513
#
# Static dielectric constant tensor:
#      x y z
#    x 3.891520 0.000000 -0.583510 
#    y 0.000000 10.080910 0.000000 
#    z -0.583510 0.000000 3.962450 
# 
# 
# High freq. dielectric constant tensor:
#      x y z
#    x 1.835330 0.000000 -0.030850 
#    y 0.000000 1.795020 0.000000 
#    z -0.030850 0.000000 1.821940 
# 
# From -- ./inp_files/190609.got.cif
#   From: 2010.06.25/outbox.cif.g09.slc.cpg/sg15_96_cif.got.tgz:190609.got - 2010.06.28 07:06:18.
