data_PCOD8135399
_publ_section_title
;
Structure prediction by ZEFSAII (Michael W. Deem and Ramdas Pophale) SiO2 
 PCOD8135399
Probable space group: C 2/C
;
_chemical_formula_sum "Si O2"
_cell_formula_units_Z 64
_cell_length_a 26.121740
_cell_length_b 13.138850
_cell_length_c 18.853398
_cell_angle_alpha 90.000000
_cell_angle_beta 149.947481
_cell_angle_gamma 90.000000
_cell_volume 3240.469030
_symmetry_space_group_name_H-M "C 2/C"
_symmetry_group_IT_number 15
_symmetry_cell_setting 'monoclinic'
loop_
_space_group_symop_operation_xyz
x,y,z
-x,y,1/2-z
-x,-y,-z
x,-y,1/2+z
1/2+x,1/2+y,z
1/2-x,1/2+y,1/2-z
1/2-x,1/2-y,-z
1/2+x,1/2-y,1/2+z
loop_
_atom_site_type_symbol
_atom_site_label
_atom_site_fract_x
_atom_site_fract_y
_atom_site_fract_z
Si Si1 0.600672 0.456724 0.157589
Si Si2 0.798116 0.907380 0.611409
Si Si3 0.502655 0.943490 0.926707
Si Si4 0.574662 0.231282 0.698366
Si Si5 0.211598 0.067966 0.177140
Si Si6 0.629154 0.884945 0.525348
Si Si7 0.697675 0.971050 0.347869
Si Si8 0.536666 0.713090 0.998907
O O1 0.628541 0.509938 0.264798
O O2 0.691424 0.478387 0.210862
O O3 0.500000 0.500000 0.000000
O O4 0.576404 0.337817 0.145164
O O5 0.866015 0.805984 0.675532
O O6 0.701767 0.873574 0.544377
O O7 0.759079 0.960650 0.493802
O O8 0.580912 0.001987 0.968971
O O9 0.392131 0.944835 0.756154
O O10 0.537935 0.828008 0.974394
O O11 0.500000 0.000000 0.000000
O O12 0.461922 0.198584 0.590137
O O13 0.644242 0.134749 0.763918
O O14 0.567716 0.296257 0.618329
O O15 0.309912 0.129705 0.326556
O O16 0.119749 0.147601 0.054853
O O17 0.226224 0.008158 0.121826
#
# Coordination Sequence:
#
# PCOD8135399 Si02
#       8
#     8   8   8   8   8   8   8   8
#     4   9  19  38  61  83 123 163 207 255 305 367
#     4  11  23  42  61  94 134 165 206 259 325 389
#     4  11  20  38  61  91 123 159 209 267 305 374
#     4  11  20  37  65  93 130 158 207 267 316 391
#     4  10  19  38  61  92 120 166 212 256 310 373
#     4  10  20  39  64  91 124 171 206 249 329 371
#     4  11  23  40  61  92 133 158 207 267 319 373
#     4  11  19  38  65  92 120 162 222 264 303 372
#
# _framework density 19.750226999999999
#
# number of rings (size 3 to 8) (size 9 to 14) (size 15 to 20)
#    0.000    1.500    7.500    0.375    0.000    3.000 
#   11.250    4.375    2.750    0.000    0.000    0.000 
#    0.000    0.000    0.000    0.000    0.000    0.000 
#
# Total GULP energy -396607.126462 kJ/mol
# GULP energy per Si atom -12393.972702 kJ/mol
# Density = 1.970527 g / cm^3
# Si number density = 19.750227 Si / 1000 Ang^3
#
#
#
# Elastic Constant Matrix: (Units=GPa)
#
#
# Indices 1 2 3 4 5 6 
#
# 1 84.5921 41.7491 57.5217 0.0000 -5.0010 0.0000
# 2 41.7491 103.2106 55.3510 0.0000 6.5894 0.0000
# 3 57.5217 55.3510 128.9394 0.0000 -4.4346 0.0000
# 4 0.0000 0.0000 0.0000 37.5268 0.0000 5.8201
# 5 -5.0010 6.5894 -4.4346 0.0000 27.5477 0.0000
# 6 0.0000 0.0000 0.0000 5.8201 0.0000 20.1389
#
#
#
# Elastic Compliance Matrix: (Units=1/GPa)
#
#
# Indices 1 2 3 4 5 6 
#
# 1 0.018388 -0.004307 -0.006239 0.000000 0.003364 0.000000
# 2 -0.004307 0.014027 -0.004266 0.000000 -0.004824 0.000000
# 3 -0.006239 -0.004266 0.012435 0.000000 0.001890 0.000000
# 4 0.000000 0.000000 0.000000 0.027898 0.000000 -0.008063
# 5 0.003364 -0.004824 0.001890 0.000000 0.038369 0.000000
# 6 0.000000 0.000000 0.000000 -0.008063 0.000000 0.051985
#
#
# Mechanical properties :
#
#
# Convention : Reuss Voigt Hill
#
# Bulk Modulus (GPa) = 65.67357 69.55396 67.61376
# Shear Modulus (GPa) = 25.27786 27.85071 26.56428
#
# Velocity S-wave (km/s) = 3.58142 3.75927 3.67142
# Velocity P-wave (km/s) = 7.10115 7.35772 7.23057
#
# Compressibility (1/GPa) = 0.01522683
#
# Stress axis : x y z
#
# Youngs Moduli (GPa) = 54.38261 71.29133 80.41876
#
# Poissons Ratio (x) = 0.30707 0.50170
# Poissons Ratio (y) = 0.23424 0.34306
# Poissons Ratio (z) = 0.33927 0.30412
#
# Static dielectric constant tensor:
#      x y z
#    x 3.385970 0.000000 0.249840 
#    y 0.000000 3.802620 0.000000 
#    z 0.249840 0.000000 3.937240 
# 
# 
# High freq. dielectric constant tensor:
#      x y z
#    x 1.742290 0.000000 0.018910 
#    y 0.000000 1.765880 0.000000 
#    z 0.018910 0.000000 1.776950 
# 
# From -- ./inp_files/219736.got.cif
#   From: 2010.06.25/outbox.cif.g09.slc.cpg/sg15_110_cif.got.tgz:219736.got - 2010.06.28 07:06:18.
