data_PCOD8135418
_publ_section_title
;
Structure prediction by ZEFSAII (Michael W. Deem and Ramdas Pophale) SiO2 
 PCOD8135418
Probable space group: C 2/C
;
_chemical_formula_sum "Si O2"
_cell_formula_units_Z 52
_cell_length_a 16.429630
_cell_length_b 15.870627
_cell_length_c 20.117613
_cell_angle_alpha 90.000000
_cell_angle_beta 148.306152
_cell_angle_gamma 90.000000
_cell_volume 2755.954839
_symmetry_space_group_name_H-M "C 2/C"
_symmetry_group_IT_number 15
_symmetry_cell_setting 'monoclinic'
loop_
_space_group_symop_operation_xyz
x,y,z
-x,y,1/2-z
-x,-y,-z
x,-y,1/2+z
1/2+x,1/2+y,z
1/2-x,1/2+y,1/2-z
1/2-x,1/2-y,-z
1/2+x,1/2-y,1/2+z
loop_
_atom_site_type_symbol
_atom_site_label
_atom_site_fract_x
_atom_site_fract_y
_atom_site_fract_z
Si Si1 0.848857 0.477371 0.110785
Si Si2 0.031668 0.755159 0.537958
Si Si3 0.471856 0.441157 0.542533
Si Si4 0.049335 0.413647 0.454476
Si Si5 0.125795 0.703630 0.205172
Si Si6 0.500000 0.859119 0.750000
Si Si7 0.296388 0.968579 0.808144
O O1 0.846400 0.436574 0.036275
O O2 0.864456 0.579584 0.126142
O O3 0.000000 0.434944 0.250000
O O4 0.691297 0.454622 0.037072
O O5 0.974788 0.844302 0.524096
O O6 0.215521 0.744292 0.675642
O O7 0.949886 0.685349 0.527941
O O8 0.983594 0.745333 0.427046
O O9 0.500000 0.500000 0.500000
O O10 0.610939 0.468649 0.688414
O O11 0.134607 0.464458 0.571212
O O12 0.871935 0.448848 0.325087
O O13 0.158629 0.607608 0.208976
O O14 0.048124 0.702788 0.223751
#
# Coordination Sequence:
#
# PCOD8135418 Si02
#       7
#     8   8   8   8   8   4   8
#     4  10  21  35  62  89 113 159 196 246 292 361
#     4  10  24  36  62  89 119 156 200 249 297 362
#     4  11  22  39  60  87 120 158 202 245 300 357
#     4  10  19  38  62  87 118 155 200 237 306 355
#     4  10  20  39  58  88 120 156 200 245 300 358
#     4  10  20  38  58  84 122 154 202 244 300 350
#     4   9  19  37  61  84 117 161 192 243 294 364
#
# _framework density 18.868234000000001
#
# number of rings (size 3 to 8) (size 9 to 14) (size 15 to 20)
#    0.462    1.538    1.538    2.769    4.308    1.846 
#    0.000    0.000    0.000    0.000    0.000    0.000 
#    0.000    0.000    0.000    0.000    0.000    0.000 
#
# Total GULP energy -322217.956039 kJ/mol
# GULP energy per Si atom -12392.998309 kJ/mol
# Density = 1.882529 g / cm^3
# Si number density = 18.868234 Si / 1000 Ang^3
#
#
#
# Elastic Constant Matrix: (Units=GPa)
#
#
# Indices 1 2 3 4 5 6 
#
# 1 157.0505 43.6291 59.7056 -0.0029 6.3795 -0.0024
# 2 43.6291 79.2887 30.1603 -0.0043 9.1693 -0.0026
# 3 59.7056 30.1603 111.6545 0.0025 10.9788 0.0041
# 4 -0.0029 -0.0043 0.0025 25.8230 0.0052 -1.8950
# 5 6.3795 9.1693 10.9788 0.0052 29.9944 0.0046
# 6 -0.0024 -0.0026 0.0041 -1.8950 0.0046 20.1346
#
#
#
# Elastic Compliance Matrix: (Units=1/GPa)
#
#
# Indices 1 2 3 4 5 6 
#
# 1 0.008744 -0.003431 -0.003806 0.000001 0.000582 0.000001
# 2 -0.003431 0.015671 -0.002074 0.000003 -0.003302 0.000003
# 3 -0.003806 -0.002074 0.011836 -0.000002 -0.002889 -0.000003
# 4 0.000001 0.000003 -0.000002 0.038994 -0.000008 0.003670
# 5 0.000582 -0.003302 -0.002889 -0.000008 0.035282 -0.000009
# 6 0.000001 0.000003 -0.000003 0.003670 -0.000009 0.050011
#
#
# Mechanical properties :
#
#
# Convention : Reuss Voigt Hill
#
# Bulk Modulus (GPa) = 56.72567 68.33154 62.52860
# Shear Modulus (GPa) = 27.02182 29.49033 28.25607
#
# Velocity S-wave (km/s) = 3.78846 3.95772 3.87401
# Velocity P-wave (km/s) = 7.01897 7.56164 7.29535
#
# Compressibility (1/GPa) = 0.01762870
#
# Stress axis : x y z
#
# Youngs Moduli (GPa) = 114.36673 63.81360 84.49039
#
# Poissons Ratio (x) = 0.21894 0.32158
# Poissons Ratio (y) = 0.39238 0.17521
# Poissons Ratio (z) = 0.43529 0.13233
#
# Static dielectric constant tensor:
#      x y z
#    x 3.419600 0.000000 0.260260 
#    y 0.000000 3.343290 -0.000020 
#    z 0.260260 -0.000020 3.988300 
# 
# 
# High freq. dielectric constant tensor:
#      x y z
#    x 1.724370 0.000000 -0.003570 
#    y 0.000000 1.722740 0.000000 
#    z -0.003570 0.000000 1.740940 
# 
# From -- ./inp_files/205774.got.cif
#   From: 2010.06.25/outbox.cif.g09.slc.cpg/sg15_103_cif.got.tgz:205774.got - 2010.06.28 07:06:18.
