data_PCOD8135269
_publ_section_title
;
Structure prediction by ZEFSAII (Michael W. Deem and Ramdas Pophale) SiO2 
 PCOD8135269
Probable space group: C 2/C
;
_chemical_formula_sum "Si O2"
_cell_formula_units_Z 48
_cell_length_a 10.063226
_cell_length_b 18.166256
_cell_length_c 12.895154
_cell_angle_alpha 90.000000
_cell_angle_beta 76.515805
_cell_angle_gamma 90.000000
_cell_volume 2292.394981
_symmetry_space_group_name_H-M "C 2/C"
_symmetry_group_IT_number 15
_symmetry_cell_setting 'monoclinic'
loop_
_space_group_symop_operation_xyz
x,y,z
-x,y,1/2-z
-x,-y,-z
x,-y,1/2+z
1/2+x,1/2+y,z
1/2-x,1/2+y,1/2-z
1/2-x,1/2-y,-z
1/2+x,1/2-y,1/2+z
loop_
_atom_site_type_symbol
_atom_site_label
_atom_site_fract_x
_atom_site_fract_y
_atom_site_fract_z
Si Si1 0.719597 0.273533 0.726380
Si Si2 0.500000 0.530848 0.750000
Si Si3 0.125800 0.395733 0.042339
Si Si4 0.485546 0.256410 0.922315
Si Si5 0.500000 0.974457 0.250000
Si Si6 0.393473 0.647754 0.612337
Si Si7 0.274442 0.939175 0.689259
O O1 0.631158 0.248060 0.841065
O O2 0.631688 0.276813 0.637912
O O3 0.841651 0.213934 0.696816
O O4 0.769504 0.356334 0.733020
O O5 0.474080 0.583986 0.657162
O O6 0.627290 0.477434 0.705490
O O7 0.062847 0.318711 0.013872
O O8 0.014876 0.427148 0.142806
O O9 0.265688 0.388215 0.078836
O O10 0.150473 0.444982 0.936118
O O11 0.496139 0.319323 0.007601
O O12 0.636816 0.021360 0.239070
#
# Coordination Sequence:
#
# PCOD8135269 Si02
#       7
#     8   4   8   8   4   8   8
#     4  10  20  39  66  97 128 171 228 269 326 400
#     4  12  28  41  67 104 144 170 214 288 352 381
#     4  11  21  44  69  92 129 178 230 265 329 405
#     4  10  19  37  72  94 122 174 227 266 323 405
#     4  12  26  43  65  94 134 180 220 272 334 397
#     4  11  21  43  65  97 132 173 220 282 327 394
#     4  12  25  43  67  99 137 177 220 274 339 405
#
# _framework density 20.938800000000001
#
# number of rings (size 3 to 8) (size 9 to 14) (size 15 to 20)
#    0.000    1.000    5.000    4.500    0.000    2.667 
#    0.000    0.833    0.000    0.000    0.000    0.000 
#    0.000    0.000    0.000    0.000    0.000    0.000 
#
# Total GULP energy -297626.284358 kJ/mol
# GULP energy per Si atom -12401.095182 kJ/mol
# Density = 2.089114 g / cm^3
# Si number density = 20.938800 Si / 1000 Ang^3
#
#
#
# Elastic Constant Matrix: (Units=GPa)
#
#
# Indices 1 2 3 4 5 6 
#
# 1 61.3825 20.1253 15.4986 0.0000 -10.2322 0.0000
# 2 20.1253 82.0734 17.8389 0.0000 -1.0998 0.0000
# 3 15.4986 17.8389 85.4100 0.0000 -19.1281 0.0000
# 4 0.0000 0.0000 0.0000 35.0170 0.0000 -7.0224
# 5 -10.2322 -1.0998 -19.1281 0.0000 24.8440 0.0000
# 6 0.0000 0.0000 0.0000 -7.0224 0.0000 22.4489
#
#
#
# Elastic Compliance Matrix: (Units=1/GPa)
#
#
# Indices 1 2 3 4 5 6 
#
# 1 0.019134 -0.004380 -0.001010 0.000000 0.006909 0.000000
# 2 -0.004380 0.013833 -0.002853 0.000000 -0.003388 0.000000
# 3 -0.001010 -0.002853 0.014943 0.000000 0.010962 0.000000
# 4 0.000000 0.000000 0.000000 0.030469 0.000000 0.009531
# 5 0.006909 -0.003388 0.010962 0.000000 0.051387 0.000000
# 6 0.000000 0.000000 0.000000 0.009531 0.000000 0.047527
#
#
# Mechanical properties :
#
#
# Convention : Reuss Voigt Hill
#
# Bulk Modulus (GPa) = 31.82338 37.31017 34.56677
# Shear Modulus (GPa) = 24.47947 28.15553 26.31750
#
# Velocity S-wave (km/s) = 3.42291 3.67094 3.54909
# Velocity P-wave (km/s) = 5.55455 5.98540 5.77400
#
# Compressibility (1/GPa) = 0.03142344
#
# Stress axis : x y z
#
# Youngs Moduli (GPa) = 52.26304 72.29119 66.92304
#
# Poissons Ratio (x) = 0.31662 0.06759
# Poissons Ratio (y) = 0.22890 0.19095
# Poissons Ratio (z) = 0.05279 0.20626
#
# Static dielectric constant tensor:
#      x y z
#    x 3.574530 0.000000 -0.223830 
#    y 0.000000 3.977580 0.000000 
#    z -0.223830 0.000000 3.797540 
# 
# 
# High freq. dielectric constant tensor:
#      x y z
#    x 1.797750 0.000000 -0.021430 
#    y 0.000000 1.831580 0.000000 
#    z -0.021430 0.000000 1.820820 
# 
# From -- ./inp_files/87314.got.cif
#   From: 2010.06.25/outbox.cif.g09.slc.cpg/sg15_44_cif.got.tgz:87314.got - 2010.06.28 07:06:18.
