data_PCOD8135014
_publ_section_title
;
Structure prediction by ZEFSAII (Michael W. Deem and Ramdas Pophale) SiO2 
 PCOD8135014
Probable space group: C 2/C
;
_chemical_formula_sum "Si O2"
_cell_formula_units_Z 48
_cell_length_a 27.546127
_cell_length_b 9.888818
_cell_length_c 17.119974
_cell_angle_alpha 90.000000
_cell_angle_beta 149.774460
_cell_angle_gamma 90.000000
_cell_volume 2347.608575
_symmetry_space_group_name_H-M "C 2/C"
_symmetry_group_IT_number 15
_symmetry_cell_setting 'monoclinic'
loop_
_space_group_symop_operation_xyz
x,y,z
-x,y,1/2-z
-x,-y,-z
x,-y,1/2+z
1/2+x,1/2+y,z
1/2-x,1/2+y,1/2-z
1/2-x,1/2-y,-z
1/2+x,1/2-y,1/2+z
loop_
_atom_site_type_symbol
_atom_site_label
_atom_site_fract_x
_atom_site_fract_y
_atom_site_fract_z
Si Si1 0.687232 0.629062 0.595958
Si Si2 0.937274 0.124487 0.589668
Si Si3 0.825266 0.625119 0.923741
Si Si4 0.111643 0.383129 0.399949
Si Si5 0.994473 0.340030 0.557251
Si Si6 0.373407 0.918711 0.254143
O O1 0.612621 0.510101 0.509602
O O2 0.729386 0.658247 0.740840
O O3 0.630860 0.756889 0.483055
O O4 0.769606 0.586460 0.649928
O O5 0.857761 0.233678 0.508674
O O6 0.000662 0.191319 0.606697
O O7 0.000000 0.081598 0.750000
O O8 0.910202 0.573720 0.983488
O O9 0.816507 0.506007 0.975055
O O10 0.137084 0.351513 0.345600
O O11 0.000000 0.428176 0.250000
O O12 0.956157 0.331556 0.414590
O O13 0.093840 0.423067 0.703989
#
# Coordination Sequence:
#
# PCOD8135014 Si02
#       6
#     8   8   8   8   8   8
#     4  11  23  35  58  92 123 140 193 264 297 320
#     4  10  19  38  60  83 115 157 193 234 297 361
#     4   9  19  37  61  81 108 161 204 221 281 369
#     4  12  21  37  63  89 115 161 200 238 294 358
#     4   8  18  36  61  83 111 157 200 237 281 355
#     4  10  19  37  59  93 115 152 204 250 280 352
#
# _framework density 20.446338999999998
#
# number of rings (size 3 to 8) (size 9 to 14) (size 15 to 20)
#    1.000    1.000    1.667    3.500    0.000    0.000 
#    0.000    3.333    0.000    2.000    0.000    0.000 
#    0.000    0.000    0.000    0.000    0.000    0.000 
#
# Total GULP energy -297381.168826 kJ/mol
# GULP energy per Si atom -12390.882034 kJ/mol
# Density = 2.039980 g / cm^3
# Si number density = 20.446339 Si / 1000 Ang^3
#
#
#
# Elastic Constant Matrix: (Units=GPa)
#
#
# Indices 1 2 3 4 5 6 
#
# 1 29.1212 -13.2162 14.2238 0.0000 -16.1128 0.0000
# 2 -13.2162 74.3564 22.7908 0.0000 -2.5312 0.0000
# 3 14.2238 22.7908 101.4311 0.0000 -14.4446 0.0000
# 4 0.0000 0.0000 0.0000 28.5389 0.0000 1.5873
# 5 -16.1128 -2.5312 -14.4446 0.0000 22.3456 0.0000
# 6 0.0000 0.0000 0.0000 1.5873 0.0000 4.9744
#
#
#
# Elastic Compliance Matrix: (Units=1/GPa)
#
#
# Indices 1 2 3 4 5 6 
#
# 1 0.073072 0.016804 -0.006882 0.000000 0.050145 0.000000
# 2 0.016804 0.018313 -0.004902 0.000000 0.011023 0.000000
# 3 -0.006882 -0.004902 0.012269 0.000000 0.002414 0.000000
# 4 0.000000 0.000000 0.000000 0.035673 0.000000 -0.011383
# 5 0.050145 0.011023 0.002414 0.000000 0.083718 0.000000
# 6 0.000000 0.000000 0.000000 -0.011383 0.000000 0.204663
#
#
# Mechanical properties :
#
#
# Convention : Reuss Voigt Hill
#
# Bulk Modulus (GPa) = 8.79536 28.05616 18.42576
# Shear Modulus (GPa) = 10.97537 23.24580 17.11059
#
# Velocity S-wave (km/s) = 2.31938 3.37548 2.89598
# Velocity P-wave (km/s) = 3.38877 5.37991 4.49595
#
# Compressibility (1/GPa) = 0.11369635
#
# Stress axis : x y z
#
# Youngs Moduli (GPa) = 13.68510 54.60563 81.50640
#
# Poissons Ratio (x) = -0.91761 0.56090
# Poissons Ratio (y) = -0.22997 0.39951
# Poissons Ratio (z) = 0.09418 0.26765
#
# Static dielectric constant tensor:
#      x y z
#    x 3.454120 0.000000 -0.226170 
#    y 0.000000 3.360650 0.000000 
#    z -0.226170 0.000000 3.779390 
# 
# 
# High freq. dielectric constant tensor:
#      x y z
#    x 1.768270 0.000000 -0.022410 
#    y 0.000000 1.778120 0.000000 
#    z -0.022410 0.000000 1.809380 
# 
# From -- ./inp_files/224679.got.cif
#   From: 2010.06.25/outbox.cif.g09.slc.cpg/sg15_113_cif.got.tgz:224679.got - 2010.06.28 07:06:18.
