data_PCOD8135666
_publ_section_title
;
Structure prediction by ZEFSAII (Michael W. Deem and Ramdas Pophale) SiO2 
 PCOD8135666
Probable space group: C 2/C
;
_chemical_formula_sum "Si O2"
_cell_formula_units_Z 56
_cell_length_a 11.270632
_cell_length_b 9.246888
_cell_length_c 26.117104
_cell_angle_alpha 90.000000
_cell_angle_beta 103.839737
_cell_angle_gamma 90.000000
_cell_volume 2642.859509
_symmetry_space_group_name_H-M "C 2/C"
_symmetry_group_IT_number 15
_symmetry_cell_setting 'monoclinic'
loop_
_space_group_symop_operation_xyz
x,y,z
-x,y,1/2-z
-x,-y,-z
x,-y,1/2+z
1/2+x,1/2+y,z
1/2-x,1/2+y,1/2-z
1/2-x,1/2-y,-z
1/2+x,1/2-y,1/2+z
loop_
_atom_site_type_symbol
_atom_site_label
_atom_site_fract_x
_atom_site_fract_y
_atom_site_fract_z
Si Si1 0.143808 0.170412 0.050188
Si Si2 0.630567 0.629045 0.934029
Si Si3 0.020019 0.305154 0.838026
Si Si4 0.563287 0.665361 0.389911
Si Si5 0.831052 0.215939 0.743922
Si Si6 0.195068 0.544320 0.875972
Si Si7 0.145269 0.066612 0.200104
O O1 0.237877 0.302569 0.062809
O O2 0.037578 0.213587 0.078709
O O3 0.217224 0.022675 0.071106
O O4 0.087445 0.151976 0.988031
O O5 0.524667 0.698811 0.887594
O O6 0.644929 0.460150 0.923272
O O7 0.110338 0.246087 0.804427
O O8 0.063725 0.463445 0.860029
O O9 0.887025 0.304998 0.798320
O O10 0.658896 0.790276 0.383923
O O11 0.490784 0.599901 0.333645
O O12 0.694078 0.277299 0.724405
O O13 0.851199 0.044800 0.752434
O O14 0.267713 0.519096 0.830929
#
# Coordination Sequence:
#
# PCOD8135666 Si02
#       7
#     8   8   8   8   8   8   8
#     4   9  21  40  61  86 122 154 190 239 297 342
#     4  10  19  39  63  86 117 155 196 240 286 354
#     4   9  19  38  58  76 116 154 189 240 293 342
#     4  11  21  39  62  88 119 154 194 241 292 344
#     4  10  20  37  57  80 114 152 194 238 297 338
#     4   9  21  39  57  87 117 150 193 241 290 352
#     4  10  22  38  57  86 115 153 194 244 291 344
#
# _framework density 21.189170000000001
#
# number of rings (size 3 to 8) (size 9 to 14) (size 15 to 20)
#    0.000    2.286    1.429    1.286    2.000    1.714 
#    2.571    6.429    0.000    0.000    0.000    0.000 
#    0.000    0.000    0.000    0.000    0.000    0.000 
#
# Total GULP energy -346991.672921 kJ/mol
# GULP energy per Si atom -12392.559747 kJ/mol
# Density = 2.114094 g / cm^3
# Si number density = 21.189170 Si / 1000 Ang^3
#
#
#
# Elastic Constant Matrix: (Units=GPa)
#
#
# Indices 1 2 3 4 5 6 
#
# 1 44.6471 25.2037 11.8153 0.0000 5.9492 0.0000
# 2 25.2037 84.5994 16.3693 0.0000 -8.5725 0.0000
# 3 11.8153 16.3693 103.3208 0.0000 5.3276 0.0000
# 4 0.0000 0.0000 0.0000 30.2540 0.0000 -0.0618
# 5 5.9492 -8.5725 5.3276 0.0000 17.8158 0.0000
# 6 0.0000 0.0000 0.0000 -0.0618 0.0000 28.6473
#
#
#
# Elastic Compliance Matrix: (Units=1/GPa)
#
#
# Indices 1 2 3 4 5 6 
#
# 1 0.030534 -0.010395 -0.001078 0.000000 -0.014876 0.000000
# 2 -0.010395 0.016534 -0.002052 0.000000 0.012041 0.000000
# 3 -0.001078 -0.002052 0.010318 0.000000 -0.003713 0.000000
# 4 0.000000 0.000000 0.000000 0.033054 0.000000 0.000071
# 5 -0.014876 0.012041 -0.003713 0.000000 0.068002 0.000000
# 6 0.000000 0.000000 0.000000 0.000071 0.000000 0.034907
#
#
# Mechanical properties :
#
#
# Convention : Reuss Voigt Hill
#
# Bulk Modulus (GPa) = 32.96314 37.70487 35.33400
# Shear Modulus (GPa) = 21.69097 27.28869 24.48983
#
# Velocity S-wave (km/s) = 3.20297 3.59257 3.40335
# Velocity P-wave (km/s) = 5.41009 5.91961 5.67058
#
# Compressibility (1/GPa) = 0.03033692
#
# Stress axis : x y z
#
# Youngs Moduli (GPa) = 32.75091 60.47978 96.91489
#
# Poissons Ratio (x) = 0.62871 0.10444
# Poissons Ratio (y) = 0.34046 0.19884
# Poissons Ratio (z) = 0.03529 0.12409
#
# Static dielectric constant tensor:
#      x y z
#    x 3.612150 0.000000 0.124560 
#    y 0.000000 3.996880 0.000000 
#    z 0.124560 0.000000 4.160930 
# 
# 
# High freq. dielectric constant tensor:
#      x y z
#    x 1.806410 0.000000 0.004920 
#    y 0.000000 1.824190 0.000000 
#    z 0.004920 0.000000 1.843080 
# 
# From -- ./inp_files/291600.got.cif
#   From: 2010.06.25/outbox.cif.g09.slc.cpg/sg15_146_cif.got.tgz:291600.got - 2010.06.28 07:06:18.
