data_PCOD8135789
_publ_section_title
;
Structure prediction by ZEFSAII (Michael W. Deem and Ramdas Pophale) SiO2 
 PCOD8135789
Probable space group: C 2/C
;
_chemical_formula_sum "Si O2"
_cell_formula_units_Z 44
_cell_length_a 14.571137
_cell_length_b 28.906637
_cell_length_c 7.613667
_cell_angle_alpha 90.000000
_cell_angle_beta 139.444577
_cell_angle_gamma 90.000000
_cell_volume 2085.070270
_symmetry_space_group_name_H-M "C 2/C"
_symmetry_group_IT_number 15
_symmetry_cell_setting 'monoclinic'
loop_
_space_group_symop_operation_xyz
x,y,z
-x,y,1/2-z
-x,-y,-z
x,-y,1/2+z
1/2+x,1/2+y,z
1/2-x,1/2+y,1/2-z
1/2-x,1/2-y,-z
1/2+x,1/2-y,1/2+z
loop_
_atom_site_type_symbol
_atom_site_label
_atom_site_fract_x
_atom_site_fract_y
_atom_site_fract_z
Si Si1 0.386412 0.889650 0.933484
Si Si2 0.500000 0.861709 0.750000
Si Si3 0.839669 0.292786 0.966778
Si Si4 0.500000 0.510033 0.750000
Si Si5 0.641213 0.561681 0.251368
Si Si6 0.744711 0.303506 0.215898
Si Si7 0.500000 0.359424 0.750000
O O1 0.453036 0.897369 0.836804
O O2 0.284271 0.931390 0.846094
O O3 0.500000 0.885173 0.250000
O O4 0.319212 0.838310 0.816463
O O5 0.374300 0.828357 0.501272
O O6 0.757241 0.303225 0.024297
O O7 0.000000 0.280299 0.250000
O O8 0.772282 0.250514 0.754773
O O9 0.476946 0.543802 0.553682
O O10 0.362885 0.477126 0.597952
O O11 0.603140 0.610581 0.278154
O O12 0.596886 0.330556 0.027742
#
# Coordination Sequence:
#
# PCOD8135789 Si02
#       7
#     8   4   8   4   8   8   4
#     4  11  22  43  63  91 131 172 204 268 316 378
#     4  12  24  38  63  94 123 173 224 257 312 370
#     4  10  19  40  59  80 131 177 211 259 313 354
#     4   9  22  42  65  92 120 154 198 277 322 391
#     4  10  21  41  65  92 124 155 207 260 331 380
#     4  11  22  36  60  93 127 176 219 260 309 368
#     4  11  20  36  66  96 125 173 208 258 324 383
#
# _framework density 21.102404
#
# number of rings (size 3 to 8) (size 9 to 14) (size 15 to 20)
#    0.000    1.455    6.364    0.000    2.545    0.727 
#    3.273    1.818    0.000    0.000    0.000    0.000 
#    0.000    0.000    0.000    0.000    0.000    0.000 
#
# Total GULP energy -272549.962582 kJ/mol
# GULP energy per Si atom -12388.634663 kJ/mol
# Density = 2.105437 g / cm^3
# Si number density = 21.102404 Si / 1000 Ang^3
#
#
#
# Elastic Constant Matrix: (Units=GPa)
#
#
# Indices 1 2 3 4 5 6 
#
# 1 103.8993 28.0662 9.9887 0.0000 -8.6131 0.0000
# 2 28.0662 78.2950 27.8132 0.0000 0.9805 0.0000
# 3 9.9887 27.8132 76.2818 0.0000 3.8954 0.0000
# 4 0.0000 0.0000 0.0000 10.6768 0.0000 1.6203
# 5 -8.6131 0.9805 3.8954 0.0000 30.1000 0.0000
# 6 0.0000 0.0000 0.0000 1.6203 0.0000 13.2270
#
#
#
# Elastic Compliance Matrix: (Units=1/GPa)
#
#
# Indices 1 2 3 4 5 6 
#
# 1 0.010971 -0.003910 -0.000179 0.000000 0.003290 0.000000
# 2 -0.003910 0.016068 -0.005298 0.000000 -0.000957 0.000000
# 3 -0.000179 -0.005298 0.015158 0.000000 -0.001840 0.000000
# 4 0.000000 0.000000 0.000000 0.095435 0.000000 -0.011690
# 5 0.003290 -0.000957 -0.001840 0.000000 0.034433 0.000000
# 6 0.000000 0.000000 0.000000 -0.011690 0.000000 0.077035
#
#
# Mechanical properties :
#
#
# Convention : Reuss Voigt Hill
#
# Bulk Modulus (GPa) = 42.69240 43.35693 43.02467
# Shear Modulus (GPa) = 18.13686 23.64129 20.88908
#
# Velocity S-wave (km/s) = 2.93485 3.35074 3.14967
# Velocity P-wave (km/s) = 5.63555 5.96326 5.80172
#
# Compressibility (1/GPa) = 0.02342337
#
# Stress axis : x y z
#
# Youngs Moduli (GPa) = 91.15001 62.23610 65.97068
#
# Poissons Ratio (x) = 0.24337 0.01180
# Poissons Ratio (y) = 0.35643 0.34949
# Poissons Ratio (z) = 0.01630 0.32970
#
# Static dielectric constant tensor:
#      x y z
#    x 4.173060 0.000000 0.123810 
#    y 0.000000 4.098350 0.000000 
#    z 0.123810 0.000000 3.477970 
# 
# 
# High freq. dielectric constant tensor:
#      x y z
#    x 1.836670 0.000000 0.001800 
#    y 0.000000 1.823710 0.000000 
#    z 0.001800 0.000000 1.792310 
# 
# From -- ./inp_files/43734.got.cif
#   From: 2010.06.25/outbox.cif.g09.slc.cpg/sg15_22_cif.got.tgz:43734.got - 2010.06.28 07:06:18.
