data_PCOD8135526
_publ_section_title
;
Structure prediction by ZEFSAII (Michael W. Deem and Ramdas Pophale) SiO2 
 PCOD8135526
Probable space group: C 2/C
;
_chemical_formula_sum "Si O2"
_cell_formula_units_Z 48
_cell_length_a 11.312303
_cell_length_b 9.489536
_cell_length_c 21.794550
_cell_angle_alpha 90.000000
_cell_angle_beta 77.908890
_cell_angle_gamma 90.000000
_cell_volume 2287.709846
_symmetry_space_group_name_H-M "C 2/C"
_symmetry_group_IT_number 15
_symmetry_cell_setting 'monoclinic'
loop_
_space_group_symop_operation_xyz
x,y,z
-x,y,1/2-z
-x,-y,-z
x,-y,1/2+z
1/2+x,1/2+y,z
1/2-x,1/2+y,1/2-z
1/2-x,1/2-y,-z
1/2+x,1/2-y,1/2+z
loop_
_atom_site_type_symbol
_atom_site_label
_atom_site_fract_x
_atom_site_fract_y
_atom_site_fract_z
Si Si1 0.460092 0.605072 0.559094
Si Si2 0.694828 0.022277 0.591633
Si Si3 0.130017 0.664031 0.998588
Si Si4 0.789249 0.268421 0.135243
Si Si5 0.522050 0.223984 0.682000
Si Si6 0.070082 0.965991 0.180108
O O1 0.500000 0.500000 0.500000
O O2 0.315470 0.615008 0.574064
O O3 0.512139 0.758150 0.537922
O O4 0.501871 0.561768 0.622861
O O5 0.642155 0.988648 0.529280
O O6 0.721115 0.874263 0.622732
O O7 0.590748 0.109049 0.635208
O O8 0.250000 0.750000 0.000000
O O9 0.128933 0.654562 0.925641
O O10 0.693802 0.380270 0.170329
O O11 0.888461 0.230553 0.174662
O O12 0.500000 0.152767 0.750000
O O13 0.599791 0.367632 0.678885
O O14 0.000000 0.921198 0.250000
#
# Coordination Sequence:
#
# PCOD8135526 Si02
#       6
#     8   8   8   8   8   8
#     4  12  19  39  71  93 128 171 212 261 326 381
#     4  11  23  40  67  94 124 171 214 260 319 380
#     4  10  19  38  65  97 122 165 213 259 322 382
#     4  11  22  44  68  88 132 166 208 273 316 381
#     4  11  27  43  60  95 131 168 216 264 319 381
#     4  11  24  42  64  96 129 172 215 265 327 379
#
# _framework density 20.981681999999999
#
# number of rings (size 3 to 8) (size 9 to 14) (size 15 to 20)
#    0.000    1.000    8.333    0.000    2.333    2.667 
#    0.000    5.833    0.000    0.000    0.000    0.000 
#    0.000    0.000    0.000    0.000    0.000    0.000 
#
# Total GULP energy -297462.185481 kJ/mol
# GULP energy per Si atom -12394.257728 kJ/mol
# Density = 2.093393 g / cm^3
# Si number density = 20.981682 Si / 1000 Ang^3
#
#
#
# Elastic Constant Matrix: (Units=GPa)
#
#
# Indices 1 2 3 4 5 6 
#
# 1 80.2147 47.8816 28.8622 0.0000 -11.8745 0.0000
# 2 47.8816 86.0022 38.0115 0.0000 -28.2281 0.0000
# 3 28.8622 38.0115 140.3763 0.0000 -5.7276 0.0000
# 4 0.0000 0.0000 0.0000 38.4265 0.0000 -10.6732
# 5 -11.8745 -28.2281 -5.7276 0.0000 25.2884 0.0000
# 6 0.0000 0.0000 0.0000 -10.6732 0.0000 34.0576
#
#
#
# Elastic Compliance Matrix: (Units=1/GPa)
#
#
# Indices 1 2 3 4 5 6 
#
# 1 0.019110 -0.011585 -0.000963 0.000000 -0.004176 0.000000
# 2 -0.011585 0.028162 -0.004222 0.000000 0.025040 0.000000
# 3 -0.000963 -0.004222 0.008331 0.000000 -0.003278 0.000000
# 4 0.000000 0.000000 0.000000 0.028505 0.000000 0.008933
# 5 -0.004176 0.025040 -0.003278 0.000000 0.064791 0.000000
# 6 0.000000 0.000000 0.000000 0.008933 0.000000 0.032161
#
#
# Mechanical properties :
#
#
# Convention : Reuss Voigt Hill
#
# Bulk Modulus (GPa) = 45.32207 59.56712 52.44459
# Shear Modulus (GPa) = 22.52713 32.34370 27.43542
#
# Velocity S-wave (km/s) = 3.28023 3.93048 3.61998
# Velocity P-wave (km/s) = 5.99951 7.00357 6.52089
#
# Compressibility (1/GPa) = 0.02206431
#
# Stress axis : x y z
#
# Youngs Moduli (GPa) = 52.32940 35.50851 120.03076
#
# Poissons Ratio (x) = 0.41135 0.11554
# Poissons Ratio (y) = 0.60621 0.50681
# Poissons Ratio (z) = 0.05037 0.14993
#
# Static dielectric constant tensor:
#      x y z
#    x 3.829990 0.000000 0.138710 
#    y 0.000000 3.752640 0.000000 
#    z 0.138710 0.000000 3.915580 
# 
# 
# High freq. dielectric constant tensor:
#      x y z
#    x 1.823720 0.000000 0.005400 
#    y 0.000000 1.808830 0.000000 
#    z 0.005400 0.000000 1.835750 
# 
# From -- ./inp_files/267998.got.cif
#   From: 2010.06.25/outbox.cif.g09.slc.cpg/sg15_134_cif.got.tgz:267998.got - 2010.06.28 07:06:18.
