data_PCOD8135352
_publ_section_title
;
Structure prediction by ZEFSAII (Michael W. Deem and Ramdas Pophale) SiO2 
 PCOD8135352
Probable space group: C 2/C
;
_chemical_formula_sum "Si O2"
_cell_formula_units_Z 60
_cell_length_a 31.653603
_cell_length_b 6.115073
_cell_length_c 17.532635
_cell_angle_alpha 90.000000
_cell_angle_beta 59.298559
_cell_angle_gamma 90.000000
_cell_volume 2918.027269
_symmetry_space_group_name_H-M "C 2/C"
_symmetry_group_IT_number 15
_symmetry_cell_setting 'monoclinic'
loop_
_space_group_symop_operation_xyz
x,y,z
-x,y,1/2-z
-x,-y,-z
x,-y,1/2+z
1/2+x,1/2+y,z
1/2-x,1/2+y,1/2-z
1/2-x,1/2-y,-z
1/2+x,1/2-y,1/2+z
loop_
_atom_site_type_symbol
_atom_site_label
_atom_site_fract_x
_atom_site_fract_y
_atom_site_fract_z
Si Si1 0.500000 0.687709 0.250000
Si Si2 0.707431 0.647920 0.210237
Si Si3 0.686824 0.009695 0.848748
Si Si4 0.416488 0.983152 0.848805
Si Si5 0.568028 0.609930 0.775426
Si Si6 0.125423 0.118663 0.867351
Si Si7 0.846641 0.145292 0.386135
Si Si8 0.364484 0.665618 0.002789
O O1 0.541645 0.837535 0.171609
O O2 0.480706 0.529070 0.199959
O O3 0.691075 0.877161 0.262302
O O4 0.764346 0.620012 0.175626
O O5 0.674435 0.456280 0.277046
O O6 0.701248 0.659077 0.123906
O O7 0.678518 0.182692 0.924308
O O8 0.639113 0.854602 0.889006
O O9 0.364576 0.108100 0.887181
O O10 0.433435 0.855447 0.757010
O O11 0.408341 0.803175 0.922493
O O12 0.577476 0.630535 0.857244
O O13 0.612388 0.475102 0.700063
O O14 0.110116 0.961332 0.950741
O O15 0.837294 0.006094 0.471411
#
# Coordination Sequence:
#
# PCOD8135352 Si02
#       8
#     4   8   8   8   8   8   8   8
#     4  10  20  36  64  90 114 136 188 242 282 350
#     4  10  20  34  57  82 110 153 203 239 281 326
#     4  11  20  35  57  82 115 155 195 243 279 330
#     4  10  19  38  60  85 113 148 185 234 287 345
#     4   9  19  35  60  87 111 147 190 232 288 342
#     4  10  20  37  56  82 118 154 193 238 282 335
#     4   9  19  36  55  81 114 151 192 237 280 341
#     4  10  22  36  55  82 118 155 188 231 292 337
#
# _framework density 20.561837000000001
#
# number of rings (size 3 to 8) (size 9 to 14) (size 15 to 20)
#    0.000    2.133    1.333    2.000    0.000    1.600 
#    0.000    3.333    0.000   15.200    0.000    0.000 
#    0.000    0.000    0.000    0.000    0.000    0.000 
#
# Total GULP energy -371942.030950 kJ/mol
# GULP energy per Si atom -12398.067698 kJ/mol
# Density = 2.051504 g / cm^3
# Si number density = 20.561837 Si / 1000 Ang^3
#
#
#
# Elastic Constant Matrix: (Units=GPa)
#
#
# Indices 1 2 3 4 5 6 
#
# 1 116.3082 51.0640 43.4897 -0.0032 33.6706 -0.0033
# 2 51.0640 125.3712 42.2601 0.0012 18.5722 0.0079
# 3 43.4897 42.2601 85.4144 0.0022 30.3743 0.0003
# 4 -0.0032 0.0012 0.0022 32.4278 -0.0045 -6.4444
# 5 33.6706 18.5722 30.3743 -0.0045 29.2377 0.0048
# 6 -0.0033 0.0079 0.0003 -6.4444 0.0048 26.9846
#
#
#
# Elastic Compliance Matrix: (Units=1/GPa)
#
#
# Indices 1 2 3 4 5 6 
#
# 1 0.014357 -0.003603 -0.000732 0.000001 -0.013485 0.000005
# 2 -0.003603 0.010540 -0.003925 -0.000001 0.001532 -0.000004
# 3 -0.000732 -0.003925 0.020356 -0.000003 -0.017811 0.000003
# 4 0.000001 -0.000001 -0.000003 0.032374 0.000007 0.007731
# 5 -0.013485 0.001532 -0.017811 0.000007 0.067262 -0.000012
# 6 0.000005 -0.000004 0.000003 0.007731 -0.000012 0.038905
#
#
# Mechanical properties :
#
#
# Convention : Reuss Voigt Hill
#
# Bulk Modulus (GPa) = 34.80356 66.74682 50.77519
# Shear Modulus (GPa) = 23.82166 30.41536 27.11851
#
# Velocity S-wave (km/s) = 3.40742 3.85023 3.63557
# Velocity P-wave (km/s) = 5.69594 7.23171 6.50928
#
# Compressibility (1/GPa) = 0.02873270
#
# Stress axis : x y z
#
# Youngs Moduli (GPa) = 69.65056 94.87606 49.12515
#
# Poissons Ratio (x) = 0.34188 0.03596
# Poissons Ratio (y) = 0.25098 0.19282
# Poissons Ratio (z) = 0.05099 0.37239
#
# Static dielectric constant tensor:
#      x y z
#    x 3.731620 -0.000020 0.347490 
#    y -0.000020 3.990090 -0.000010 
#    z 0.347490 -0.000010 3.604400 
# 
# 
# High freq. dielectric constant tensor:
#      x y z
#    x 1.784930 0.000000 0.019240 
#    y 0.000000 1.821150 0.000000 
#    z 0.019240 0.000000 1.781480 
# 
# From -- ./inp_files/223868.got.cif
#   From: 2010.06.25/outbox.cif.g09.slc.cpg/sg15_112_cif.got.tgz:223868.got - 2010.06.28 07:06:18.
