data_PCOD8135794
_publ_section_title
;
Structure prediction by ZEFSAII (Michael W. Deem and Ramdas Pophale) SiO2 
 PCOD8135794
Probable space group: C 2/C
;
_chemical_formula_sum "Si O2"
_cell_formula_units_Z 48
_cell_length_a 13.381303
_cell_length_b 25.087502
_cell_length_c 8.440255
_cell_angle_alpha 90.000000
_cell_angle_beta 46.214780
_cell_angle_gamma 90.000000
_cell_volume 2045.557752
_symmetry_space_group_name_H-M "C 2/C"
_symmetry_group_IT_number 15
_symmetry_cell_setting 'monoclinic'
loop_
_space_group_symop_operation_xyz
x,y,z
-x,y,1/2-z
-x,-y,-z
x,-y,1/2+z
1/2+x,1/2+y,z
1/2-x,1/2+y,1/2-z
1/2-x,1/2-y,-z
1/2+x,1/2-y,1/2+z
loop_
_atom_site_type_symbol
_atom_site_label
_atom_site_fract_x
_atom_site_fract_y
_atom_site_fract_z
Si Si1 0.024495 0.137297 0.041372
Si Si2 0.792206 0.960574 0.091136
Si Si3 0.284170 0.569437 0.234202
Si Si4 0.480540 0.084948 0.593442
Si Si5 0.690944 0.263038 0.235746
Si Si6 0.451256 0.205811 0.632044
O O1 0.000000 0.157031 0.250000
O O2 0.877036 0.123184 0.118366
O O3 0.102572 0.080972 0.947241
O O4 0.105036 0.181619 0.850437
O O5 0.640582 0.953052 0.343321
O O6 0.843259 0.020857 0.063912
O O7 0.783979 0.949374 0.915088
O O8 0.128152 0.582621 0.342642
O O9 0.500000 0.065724 0.750000
O O10 0.413814 0.143891 0.666950
O O11 0.583681 0.215187 0.376469
O O12 0.816753 0.261175 0.224011
O O13 0.750000 0.250000 0.000000
O O14 0.500000 0.226138 0.750000
#
# Coordination Sequence:
#
# PCOD8135794 Si02
#       6
#     8   8   8   8   8   8
#     4  10  22  41  69  94 134 181 232 273 335 419
#     4  10  19  40  60  96 133 174 223 278 332 403
#     4  10  21  36  65  97 131 176 224 280 332 407
#     4   9  19  37  64  92 128 171 228 274 327 397
#     4  12  26  46  67 102 140 171 224 300 364 408
#     4  11  24  44  73  96 128 181 237 277 340 431
#
# _framework density 23.465482000000002
#
# number of rings (size 3 to 8) (size 9 to 14) (size 15 to 20)
#    0.000    1.667    1.667    2.500    4.667    0.000 
#    3.000    0.000    0.000    0.000    0.000    0.000 
#    0.000    0.000    0.000    0.000    0.000    0.000 
#
# Total GULP energy -297453.825569 kJ/mol
# GULP energy per Si atom -12393.909399 kJ/mol
# Density = 2.341207 g / cm^3
# Si number density = 23.465482 Si / 1000 Ang^3
#
#
#
# Elastic Constant Matrix: (Units=GPa)
#
#
# Indices 1 2 3 4 5 6 
#
# 1 83.1946 24.0032 30.6550 0.0000 -22.7921 0.0000
# 2 24.0032 73.3692 30.2394 0.0000 2.1361 0.0000
# 3 30.6550 30.2394 112.6971 0.0000 -17.1763 0.0000
# 4 0.0000 0.0000 0.0000 43.4576 0.0000 -8.9859
# 5 -22.7921 2.1361 -17.1763 0.0000 26.9808 0.0000
# 6 0.0000 0.0000 0.0000 -8.9859 0.0000 30.9520
#
#
#
# Elastic Compliance Matrix: (Units=1/GPa)
#
#
# Indices 1 2 3 4 5 6 
#
# 1 0.018329 -0.006013 -0.001041 0.000000 0.015297 0.000000
# 2 -0.006013 0.017748 -0.004557 0.000000 -0.009386 0.000000
# 3 -0.001041 -0.004557 0.011407 0.000000 0.006743 0.000000
# 4 0.000000 0.000000 0.000000 0.024480 0.000000 0.007107
# 5 0.015297 -0.009386 0.006743 0.000000 0.055021 0.000000
# 6 0.000000 0.000000 0.000000 0.007107 0.000000 0.034371
#
#
# Mechanical properties :
#
#
# Convention : Reuss Voigt Hill
#
# Bulk Modulus (GPa) = 41.21574 48.78401 44.99988
# Shear Modulus (GPa) = 25.95144 32.56897 29.26020
#
# Velocity S-wave (km/s) = 3.32918 3.72956 3.53504
# Velocity P-wave (km/s) = 5.69038 6.27543 5.99005
#
# Compressibility (1/GPa) = 0.02426257
#
# Stress axis : x y z
#
# Youngs Moduli (GPa) = 54.55787 56.34316 87.66484
#
# Poissons Ratio (x) = 0.33878 0.09125
# Poissons Ratio (y) = 0.32805 0.39951
# Poissons Ratio (z) = 0.05679 0.25677
#
# Static dielectric constant tensor:
#      x y z
#    x 4.393840 0.000000 -0.616000 
#    y 0.000000 4.080480 0.000000 
#    z -0.616000 0.000000 4.355970 
# 
# 
# High freq. dielectric constant tensor:
#      x y z
#    x 1.921410 0.000000 -0.037150 
#    y 0.000000 1.928140 0.000000 
#    z -0.037150 0.000000 1.919580 
# 
# From -- ./inp_files/43844.got.cif
#   From: 2010.06.25/outbox.cif.g09.slc.cpg/sg15_22_cif.got.tgz:43844.got - 2010.06.28 07:06:18.
