data_PCOD8135656
_publ_section_title
;
Structure prediction by ZEFSAII (Michael W. Deem and Ramdas Pophale) SiO2 
 PCOD8135656
Probable space group: C 2/C
;
_chemical_formula_sum "Si O2"
_cell_formula_units_Z 60
_cell_length_a 15.106603
_cell_length_b 11.919819
_cell_length_c 23.791598
_cell_angle_alpha 90.000000
_cell_angle_beta 133.901553
_cell_angle_gamma 90.000000
_cell_volume 3086.835984
_symmetry_space_group_name_H-M "C 2/C"
_symmetry_group_IT_number 15
_symmetry_cell_setting 'monoclinic'
loop_
_space_group_symop_operation_xyz
x,y,z
-x,y,1/2-z
-x,-y,-z
x,-y,1/2+z
1/2+x,1/2+y,z
1/2-x,1/2+y,1/2-z
1/2-x,1/2-y,-z
1/2+x,1/2-y,1/2+z
loop_
_atom_site_type_symbol
_atom_site_label
_atom_site_fract_x
_atom_site_fract_y
_atom_site_fract_z
Si Si1 0.543490 0.974297 0.172461
Si Si2 0.000000 0.350343 0.750000
Si Si3 0.126334 0.503066 0.086937
Si Si4 0.628131 0.768270 0.410170
Si Si5 0.776352 0.796450 0.178634
Si Si6 0.232957 0.788570 0.841791
Si Si7 0.104776 0.139512 0.171071
Si Si8 0.806506 0.898747 0.305802
O O1 0.501483 0.073940 0.194812
O O2 0.600831 0.026623 0.141418
O O3 0.657985 0.907729 0.249921
O O4 0.433071 0.890630 0.107321
O O5 0.120804 0.272675 0.809920
O O6 0.208764 0.391844 0.111527
O O7 0.197999 0.611008 0.095726
O O8 0.000000 0.500000 0.000000
O O9 0.750000 0.750000 0.500000
O O10 0.646175 0.763856 0.351070
O O11 0.538391 0.669217 0.391117
O O12 0.670259 0.715855 0.153979
O O13 0.843954 0.855250 0.260823
O O14 0.158735 0.842155 0.756968
O O15 0.334133 0.696124 0.865003
O O16 0.120627 0.013789 0.154096
#
# Coordination Sequence:
#
# PCOD8135656 Si02
#       8
#     8   4   8   8   8   8   8   8
#     4  11  20  39  61  88 123 165 204 247 316 366
#     4  12  22  36  66  98 118 148 216 272 304 352
#     4  11  22  42  63  85 126 172 198 237 319 389
#     4  12  25  38  59  94 130 162 206 257 306 375
#     4  10  21  36  61  92 121 153 200 257 305 355
#     4  11  21  37  63  94 115 162 210 253 306 362
#     4  11  20  40  63  90 123 156 208 257 306 362
#     4  10  19  39  62  91 115 157 206 260 302 365
#
# _framework density 19.437377000000001
#
# number of rings (size 3 to 8) (size 9 to 14) (size 15 to 20)
#    0.000    1.067    8.000    2.800    0.000    1.067 
#    0.000    2.667    0.000    0.000    0.000    0.000 
#    0.000    0.000    0.000    0.000    0.000    0.000 
#
# Total GULP energy -371895.379343 kJ/mol
# GULP energy per Si atom -12396.512645 kJ/mol
# Density = 1.939314 g / cm^3
# Si number density = 19.437377 Si / 1000 Ang^3
#
#
#
# Elastic Constant Matrix: (Units=GPa)
#
#
# Indices 1 2 3 4 5 6 
#
# 1 81.0419 31.4849 26.8323 0.0000 9.7490 0.0000
# 2 31.4849 125.4033 32.8415 0.0000 12.6195 0.0000
# 3 26.8323 32.8415 66.6376 0.0000 21.5519 0.0000
# 4 0.0000 0.0000 0.0000 20.4923 0.0000 5.1570
# 5 9.7490 12.6195 21.5519 0.0000 24.9651 0.0000
# 6 0.0000 0.0000 0.0000 5.1570 0.0000 43.9702
#
#
#
# Elastic Compliance Matrix: (Units=1/GPa)
#
#
# Indices 1 2 3 4 5 6 
#
# 1 0.014891 -0.002479 -0.004577 0.000000 -0.000611 0.000000
# 2 -0.002479 0.009587 -0.003430 0.000000 -0.000917 0.000000
# 3 -0.004577 -0.003430 0.024142 0.000000 -0.017320 0.000000
# 4 0.000000 0.000000 0.000000 0.050283 0.000000 -0.005897
# 5 -0.000611 -0.000917 -0.017320 0.000000 0.055710 0.000000
# 6 0.000000 0.000000 0.000000 -0.005897 0.000000 0.023434
#
#
# Mechanical properties :
#
#
# Convention : Reuss Voigt Hill
#
# Bulk Modulus (GPa) = 36.16864 50.60003 43.38433
# Shear Modulus (GPa) = 24.01135 30.01380 27.01258
#
# Velocity S-wave (km/s) = 3.51852 3.93380 3.73194
# Velocity P-wave (km/s) = 5.92915 6.83534 6.39831
#
# Compressibility (1/GPa) = 0.02764826
#
# Stress axis : x y z
#
# Youngs Moduli (GPa) = 67.15421 104.30574 41.42215
#
# Poissons Ratio (x) = 0.25853 0.18959
# Poissons Ratio (y) = 0.16645 0.14209
# Poissons Ratio (z) = 0.30736 0.35781
#
# Static dielectric constant tensor:
#      x y z
#    x 3.680490 0.000000 -0.109730 
#    y 0.000000 3.934890 0.000000 
#    z -0.109730 0.000000 3.476840 
# 
# 
# High freq. dielectric constant tensor:
#      x y z
#    x 1.759240 0.000000 0.000470 
#    y 0.000000 1.774340 0.000000 
#    z 0.000470 0.000000 1.717440 
# 
# From -- ./inp_files/273873.got.cif
#   From: 2010.06.25/outbox.cif.g09.slc.cpg/sg15_137_cif.got.tgz:273873.got - 2010.06.28 07:06:18.
