data_PCOD8135380
_publ_section_title
;
Structure prediction by ZEFSAII (Michael W. Deem and Ramdas Pophale) SiO2 
 PCOD8135380
Probable space group: C 2/C
;
_chemical_formula_sum "Si O2"
_cell_formula_units_Z 60
_cell_length_a 14.104645
_cell_length_b 9.458571
_cell_length_c 22.347098
_cell_angle_alpha 90.000000
_cell_angle_beta 97.693488
_cell_angle_gamma 90.000000
_cell_volume 2954.484966
_symmetry_space_group_name_H-M "C 2/C"
_symmetry_group_IT_number 15
_symmetry_cell_setting 'monoclinic'
loop_
_space_group_symop_operation_xyz
x,y,z
-x,y,1/2-z
-x,-y,-z
x,-y,1/2+z
1/2+x,1/2+y,z
1/2-x,1/2+y,1/2-z
1/2-x,1/2-y,-z
1/2+x,1/2-y,1/2+z
loop_
_atom_site_type_symbol
_atom_site_label
_atom_site_fract_x
_atom_site_fract_y
_atom_site_fract_z
Si Si1 0.113783 0.146372 0.092041
Si Si2 0.418929 0.050185 0.950250
Si Si3 0.500000 0.962734 0.250000
Si Si4 0.173377 0.280302 0.218968
Si Si5 0.002351 0.937090 0.154677
Si Si6 0.029037 0.380962 0.870610
Si Si7 0.846058 0.006164 0.729427
Si Si8 0.216605 0.395683 0.969090
O O1 0.070947 0.279633 0.052824
O O2 0.169433 0.211953 0.153218
O O3 0.190379 0.052141 0.059966
O O4 0.027239 0.042365 0.102175
O O5 0.438645 0.972116 0.889119
O O6 0.317460 0.012311 0.975345
O O7 0.500000 0.000000 0.000000
O O8 0.576665 0.860618 0.226605
O O9 0.452423 0.062635 0.195181
O O10 0.259701 0.387572 0.228841
O O11 0.190631 0.155010 0.268464
O O12 0.079134 0.960343 0.212594
O O13 0.007532 0.778307 0.132285
O O14 0.896222 0.973616 0.169300
O O15 0.126669 0.388782 0.916214
O O16 0.250000 0.250000 0.000000
#
# Coordination Sequence:
#
# PCOD8135380 Si02
#       8
#     8   8   4   8   8   8   8   8
#     4  10  19  38  61  85 121 159 206 259 323 366
#     4   9  19  38  60  85 113 159 215 260 303 370
#     4  12  24  36  62  94 128 164 214 254 326 394
#     4  11  23  37  59  89 124 168 207 254 313 390
#     4  10  22  38  56  90 129 161 201 260 311 375
#     4  11  22  37  64  90 128 165 214 265 320 378
#     4  10  23  38  57  85 132 166 206 243 312 383
#     4   9  20  39  65  88 117 166 220 262 310 370
#
# _framework density 20.308109000000002
#
# number of rings (size 3 to 8) (size 9 to 14) (size 15 to 20)
#    0.000    1.867    1.333    3.200    7.467    0.000 
#    0.000    6.667    0.000    0.000    0.000    0.000 
#    0.000    0.000    0.000    0.000    0.000    0.000 
#
# Total GULP energy -371731.731742 kJ/mol
# GULP energy per Si atom -12391.057725 kJ/mol
# Density = 2.026189 g / cm^3
# Si number density = 20.308109 Si / 1000 Ang^3
#
#
#
# Elastic Constant Matrix: (Units=GPa)
#
#
# Indices 1 2 3 4 5 6 
#
# 1 103.5976 46.6341 34.2363 0.0000 -37.1386 0.0000
# 2 46.6341 111.4073 25.6614 0.0000 -19.2401 0.0000
# 3 34.2363 25.6614 85.5345 0.0000 -26.0986 0.0000
# 4 0.0000 0.0000 0.0000 9.4577 0.0000 -14.4719
# 5 -37.1386 -19.2401 -26.0986 0.0000 39.6984 0.0000
# 6 0.0000 0.0000 0.0000 -14.4719 0.0000 16.3651
#
#
#
# Elastic Compliance Matrix: (Units=1/GPa)
#
#
# Indices 1 2 3 4 5 6 
#
# 1 0.016597 -0.004460 -0.001535 0.000000 0.012356 0.000000
# 2 -0.004460 0.011238 -0.001498 0.000000 0.000289 0.000000
# 3 -0.001535 -0.001498 0.015130 0.000000 0.007785 0.000000
# 4 0.000000 0.000000 0.000000 -0.299390 0.000000 -0.264756
# 5 0.012356 0.000289 0.007785 0.000000 0.042008 0.000000
# 6 0.000000 0.000000 0.000000 -0.264756 0.000000 -0.173023
#
#
# Mechanical properties :
#
#
# Convention : Reuss Voigt Hill
#
# Bulk Modulus (GPa) = 35.74038 57.06700 46.40369
# Shear Modulus (GPa) = -13.76932 26.03807 6.13438
#
# Velocity S-wave (km/s) = -2.60671 3.58460 1.73989
# Velocity P-wave (km/s) = 2.92872 6.73009 5.18996
#
# Compressibility (1/GPa) = 0.02797955
#
# Stress axis : x y z
#
# Youngs Moduli (GPa) = 60.25083 88.98380 66.09200
#
# Poissons Ratio (x) = 0.39686 0.10145
# Poissons Ratio (y) = 0.26872 0.09901
# Poissons Ratio (z) = 0.09249 0.13331
#
# Static dielectric constant tensor:
#      x y z
#    x 4.050990 0.000000 -0.779860 
#    y 0.000000 4.582530 0.000000 
#    z -0.779860 0.000000 4.466470 
# 
# 
# High freq. dielectric constant tensor:
#      x y z
#    x 1.788320 0.000000 -0.025070 
#    y 0.000000 1.783840 0.000000 
#    z -0.025070 0.000000 1.805100 
# 
# From -- ./inp_files/272736.got.cif
#   From: 2010.06.25/outbox.cif.g09.slc.cpg/sg15_137_cif.got.tgz:272736.got - 2010.06.28 07:06:18.
