data_PCOD8135029
_publ_section_title
;
Structure prediction by ZEFSAII (Michael W. Deem and Ramdas Pophale) SiO2 
 PCOD8135029
Probable space group: C 2/C
;
_chemical_formula_sum "Si O2"
_cell_formula_units_Z 40
_cell_length_a 29.378579
_cell_length_b 5.143346
_cell_length_c 13.425125
_cell_angle_alpha 90.000000
_cell_angle_beta 98.834480
_cell_angle_gamma 90.000000
_cell_volume 2004.525784
_symmetry_space_group_name_H-M "C 2/C"
_symmetry_group_IT_number 15
_symmetry_cell_setting 'monoclinic'
loop_
_space_group_symop_operation_xyz
x,y,z
-x,y,1/2-z
-x,-y,-z
x,-y,1/2+z
1/2+x,1/2+y,z
1/2-x,1/2+y,1/2-z
1/2-x,1/2-y,-z
1/2+x,1/2-y,1/2+z
loop_
_atom_site_type_symbol
_atom_site_label
_atom_site_fract_x
_atom_site_fract_y
_atom_site_fract_z
Si Si1 0.840474 0.661803 0.415981
Si Si2 0.636515 0.791081 0.799823
Si Si3 0.045087 0.887349 0.328761
Si Si4 0.580559 0.109435 0.917582
Si Si5 0.198163 0.162806 0.999004
O O1 0.838959 0.674056 0.296735
O O2 0.893159 0.691946 0.472548
O O3 0.824668 0.373490 0.437037
O O4 0.806537 0.881118 0.450039
O O5 0.590327 0.615294 0.772673
O O6 0.672537 0.647919 0.884581
O O7 0.620176 0.065690 0.845045
O O8 0.051180 0.659786 0.414808
O O9 0.000000 0.834379 0.250000
O O10 0.043544 0.167434 0.380294
O O11 0.250000 0.250000 0.000000
#
# Coordination Sequence:
#
# PCOD8135029 Si02
#       5
#     8   8   8   8   8
#     4  11  21  39  63  82 117 157 190 234 292 343
#     4   9  23  37  62  83 119 152 195 232 291 335
#     4  10  19  37  60  82 118 153 188 240 290 332
#     4   9  19  37  55  83 117 149 193 236 282 334
#     4  11  24  40  59  88 119 148 193 243 285 343
#
# _framework density 19.954844000000001
#
# number of rings (size 3 to 8) (size 9 to 14) (size 15 to 20)
#    1.200    0.800    2.000    1.200    2.800    1.600 
#    0.000    2.000    0.000    0.000    0.000    0.000 
#    0.000    0.000    0.000    0.000    0.000    0.000 
#
# Total GULP energy -247805.453262 kJ/mol
# GULP energy per Si atom -12390.272663 kJ/mol
# Density = 1.990943 g / cm^3
# Si number density = 19.954844 Si / 1000 Ang^3
#
#
#
# Elastic Constant Matrix: (Units=GPa)
#
#
# Indices 1 2 3 4 5 6 
#
# 1 72.6798 -0.3955 32.9820 0.0000 27.8636 0.0000
# 2 -0.3955 100.1856 12.3480 0.0000 0.2222 0.0000
# 3 32.9820 12.3480 108.2202 0.0000 -9.7862 0.0000
# 4 0.0000 0.0000 0.0000 19.7698 0.0000 6.9895
# 5 27.8636 0.2222 -9.7862 0.0000 25.0755 0.0000
# 6 0.0000 0.0000 0.0000 6.9895 0.0000 29.7195
#
#
#
# Elastic Compliance Matrix: (Units=1/GPa)
#
#
# Indices 1 2 3 4 5 6 
#
# 1 0.043580 0.002590 -0.018615 0.000000 -0.055713 0.000000
# 2 0.002590 0.010285 -0.002313 0.000000 -0.003872 0.000000
# 3 -0.018615 -0.002313 0.017674 0.000000 0.027603 0.000000
# 4 0.000000 0.000000 0.000000 0.055169 0.000000 -0.012975
# 5 -0.055713 -0.003872 0.027603 0.000000 0.112595 0.000000
# 6 0.000000 0.000000 0.000000 -0.012975 0.000000 0.036699
#
#
# Mechanical properties :
#
#
# Convention : Reuss Voigt Hill
#
# Bulk Modulus (GPa) = 28.68431 41.21716 34.95074
# Shear Modulus (GPa) = 15.41785 30.65636 23.03710
#
# Velocity S-wave (km/s) = 2.78265 3.92380 3.40142
# Velocity P-wave (km/s) = 4.97293 6.42093 5.74275
#
# Compressibility (1/GPa) = 0.03486227
#
# Stress axis : x y z
#
# Youngs Moduli (GPa) = 22.94643 97.22544 56.58098
#
# Poissons Ratio (x) = -0.25181 1.05327
# Poissons Ratio (y) = -0.05943 0.13087
# Poissons Ratio (z) = 0.42715 0.22489
#
# Static dielectric constant tensor:
#      x y z
#    x 3.368920 0.000000 0.196980 
#    y 0.000000 3.676700 0.000000 
#    z 0.196980 0.000000 3.555530 
# 
# 
# High freq. dielectric constant tensor:
#      x y z
#    x 1.755420 0.000000 0.024950 
#    y 0.000000 1.788000 0.000000 
#    z 0.024950 0.000000 1.761260 
# 
# From -- ./inp_files/125104.got.cif
#   From: 2010.06.25/outbox.cif.g09.slc.cpg/sg15_63_cif.got.tgz:125104.got - 2010.06.28 07:06:18.
