data_PCOD8135122
_publ_section_title
;
Structure prediction by ZEFSAII (Michael W. Deem and Ramdas Pophale) SiO2 
 PCOD8135122
Probable space group: C 2/C
;
_chemical_formula_sum "Si O2"
_cell_formula_units_Z 40
_cell_length_a 16.310092
_cell_length_b 23.935096
_cell_length_c 8.703241
_cell_angle_alpha 90.000000
_cell_angle_beta 148.149890
_cell_angle_gamma 90.000000
_cell_volume 1792.911201
_symmetry_space_group_name_H-M "C 2/C"
_symmetry_group_IT_number 15
_symmetry_cell_setting 'monoclinic'
loop_
_space_group_symop_operation_xyz
x,y,z
-x,y,1/2-z
-x,-y,-z
x,-y,1/2+z
1/2+x,1/2+y,z
1/2-x,1/2+y,1/2-z
1/2-x,1/2-y,-z
1/2+x,1/2-y,1/2+z
loop_
_atom_site_type_symbol
_atom_site_label
_atom_site_fract_x
_atom_site_fract_y
_atom_site_fract_z
Si Si1 0.682173 0.732750 0.554653
Si Si2 0.682993 0.331025 0.552428
Si Si3 0.330242 0.138657 0.966811
Si Si4 0.812749 0.573255 0.449271
Si Si5 0.840910 0.527366 0.805460
O O1 0.750000 0.750000 0.500000
O O2 0.740638 0.771266 0.789015
O O3 0.732727 0.670116 0.679742
O O4 0.500000 0.736669 0.250000
O O5 0.746805 0.357971 0.498179
O O6 0.728757 0.369892 0.769074
O O7 0.500000 0.323771 0.250000
O O8 0.357670 0.074208 0.963818
O O9 0.500000 0.167036 0.250000
O O10 0.752485 0.555694 0.522036
O O11 0.751154 0.524828 0.236932
O O12 0.000000 0.581418 0.750000
O O13 0.000000 0.500000 0.000000
#
# Coordination Sequence:
#
# PCOD8135122 Si02
#       5
#     8   8   8   8   8
#     4  12  25  44  67  97 133 178 225 278 336 401
#     4  12  25  43  64  97 137 177 220 278 340 399
#     4  12  23  41  67  96 129 174 225 279 333 397
#     4  10  19  37  62  90 123 167 216 265 317 387
#     4  10  20  37  65  98 127 166 221 274 324 390
#
# _framework density 22.310085000000001
#
# number of rings (size 3 to 8) (size 9 to 14) (size 15 to 20)
#    0.000    0.800    0.000   10.800    0.000    0.000 
#    0.000    5.000    0.000    0.000    0.000    0.000 
#    0.000    0.000    0.000    0.000    0.000    0.000 
#
# Total GULP energy -247985.442483 kJ/mol
# GULP energy per Si atom -12399.272124 kJ/mol
# Density = 2.225931 g / cm^3
# Si number density = 22.310085 Si / 1000 Ang^3
#
#
#
# Elastic Constant Matrix: (Units=GPa)
#
#
# Indices 1 2 3 4 5 6 
#
# 1 96.5139 9.7528 29.9132 0.0000 6.4112 0.0000
# 2 9.7528 101.6024 32.3425 0.0000 10.1536 0.0000
# 3 29.9132 32.3425 121.1780 0.0000 21.3965 0.0000
# 4 0.0000 0.0000 0.0000 26.2036 0.0000 3.0819
# 5 6.4112 10.1536 21.3965 0.0000 37.9818 0.0000
# 6 0.0000 0.0000 0.0000 3.0819 0.0000 14.0940
#
#
#
# Elastic Compliance Matrix: (Units=1/GPa)
#
#
# Indices 1 2 3 4 5 6 
#
# 1 0.011228 -0.000197 -0.002658 0.000000 -0.000345 0.000000
# 2 -0.000197 0.010827 -0.002594 0.000000 -0.001400 0.000000
# 3 -0.002658 -0.002594 0.010437 0.000000 -0.004738 0.000000
# 4 0.000000 0.000000 0.000000 0.039170 0.000000 -0.008565
# 5 -0.000345 -0.001400 -0.004738 0.000000 0.029430 0.000000
# 6 0.000000 0.000000 0.000000 -0.008565 0.000000 0.072825
#
#
# Mechanical properties :
#
#
# Convention : Reuss Voigt Hill
#
# Bulk Modulus (GPa) = 46.30949 51.47903 48.89426
# Shear Modulus (GPa) = 26.03990 32.14161 29.09075
#
# Velocity S-wave (km/s) = 3.42011 3.79974 3.61491
# Velocity P-wave (km/s) = 6.03311 6.50962 6.27589
#
# Compressibility (1/GPa) = 0.02159384
#
# Stress axis : x y z
#
# Youngs Moduli (GPa) = 89.06391 92.36350 95.81024
#
# Poissons Ratio (x) = 0.01821 0.25467
# Poissons Ratio (y) = 0.01756 0.24852
# Poissons Ratio (z) = 0.23674 0.23958
#
# Static dielectric constant tensor:
#      x y z
#    x 4.007740 0.000000 -0.445460 
#    y 0.000000 4.257430 0.000000 
#    z -0.445460 0.000000 3.963690 
# 
# 
# High freq. dielectric constant tensor:
#      x y z
#    x 1.879150 0.000000 -0.029080 
#    y 0.000000 1.895440 0.000000 
#    z -0.029080 0.000000 1.866850 
# 
# From -- ./inp_files/51653.got.cif
#   From: 2010.06.25/outbox.cif.g09.slc.cpg/sg15_26_cif.got.tgz:51653.got - 2010.06.28 07:06:18.
