data_PCOD8135422
_publ_section_title
;
Structure prediction by ZEFSAII (Michael W. Deem and Ramdas Pophale) SiO2 
 PCOD8135422
Probable space group: C 2/C
;
_chemical_formula_sum "Si O2"
_cell_formula_units_Z 48
_cell_length_a 9.699872
_cell_length_b 24.269773
_cell_length_c 11.748468
_cell_angle_alpha 90.000000
_cell_angle_beta 58.550722
_cell_angle_gamma 90.000000
_cell_volume 2359.468098
_symmetry_space_group_name_H-M "C 2/C"
_symmetry_group_IT_number 15
_symmetry_cell_setting 'monoclinic'
loop_
_space_group_symop_operation_xyz
x,y,z
-x,y,1/2-z
-x,-y,-z
x,-y,1/2+z
1/2+x,1/2+y,z
1/2-x,1/2+y,1/2-z
1/2-x,1/2-y,-z
1/2+x,1/2-y,1/2+z
loop_
_atom_site_type_symbol
_atom_site_label
_atom_site_fract_x
_atom_site_fract_y
_atom_site_fract_z
Si Si1 0.686764 0.773021 0.146063
Si Si2 0.647185 0.073627 0.942437
Si Si3 0.332630 0.337578 0.460800
Si Si4 0.325080 0.610967 0.647956
Si Si5 0.171177 0.260964 0.694811
Si Si6 0.877842 0.464991 0.406803
O O1 0.500000 0.760406 0.250000
O O2 0.716168 0.837413 0.155886
O O3 0.791357 0.737666 0.189047
O O4 0.750000 0.750000 0.000000
O O5 0.673430 0.123814 0.019669
O O6 0.783142 0.084120 0.787750
O O7 0.472115 0.073883 0.957557
O O8 0.679545 0.018390 0.999727
O O9 0.486643 0.374157 0.428843
O O10 0.312337 0.292624 0.568435
O O11 0.346659 0.303111 0.337275
O O12 0.283016 0.565105 0.569811
O O13 0.000000 0.291156 0.750000
O O14 0.000000 0.479817 0.250000
#
# Coordination Sequence:
#
# PCOD8135422 Si02
#       6
#     8   8   8   8   8   8
#     4  12  25  41  64  95 132 172 217 268 327 389
#     4  10  19  38  62  88 120 170 206 260 316 388
#     4  11  22  38  65  92 129 163 221 257 321 384
#     4  11  21  40  62  92 124 170 211 265 320 389
#     4  11  23  40  62  96 128 172 212 266 316 394
#     4   9  21  37  61  92 126 159 216 263 321 381
#
# _framework density 20.343568999999999
#
# number of rings (size 3 to 8) (size 9 to 14) (size 15 to 20)
#    0.000    1.333    3.333    3.000    2.333    1.333 
#    0.000    3.333    0.000    2.000    0.000    0.000 
#    0.000    0.000    0.000    0.000    0.000    0.000 
#
# Total GULP energy -297446.973166 kJ/mol
# GULP energy per Si atom -12393.623882 kJ/mol
# Density = 2.029727 g / cm^3
# Si number density = 20.343569 Si / 1000 Ang^3
#
#
#
# Elastic Constant Matrix: (Units=GPa)
#
#
# Indices 1 2 3 4 5 6 
#
# 1 129.5753 62.2073 64.6885 0.0000 14.8717 0.0000
# 2 62.2073 101.3771 55.7657 0.0000 5.9824 0.0000
# 3 64.6885 55.7657 109.2606 0.0000 13.7464 0.0000
# 4 0.0000 0.0000 0.0000 30.2035 0.0000 -4.5664
# 5 14.8717 5.9824 13.7464 0.0000 33.2866 0.0000
# 6 0.0000 0.0000 0.0000 -4.5664 0.0000 28.6816
#
#
#
# Elastic Compliance Matrix: (Units=1/GPa)
#
#
# Indices 1 2 3 4 5 6 
#
# 1 0.012825 -0.005176 -0.004586 0.000000 -0.002906 0.000000
# 2 -0.005176 0.015810 -0.005209 0.000000 0.001622 0.000000
# 3 -0.004586 -0.005209 0.014926 0.000000 -0.003179 0.000000
# 4 0.000000 0.000000 0.000000 0.033925 0.000000 0.005401
# 5 -0.002906 0.001622 -0.003179 0.000000 0.032362 0.000000
# 6 0.000000 0.000000 0.000000 0.005401 0.000000 0.035725
#
#
# Mechanical properties :
#
#
# Convention : Reuss Voigt Hill
#
# Bulk Modulus (GPa) = 73.42240 78.39290 75.90765
# Shear Modulus (GPa) = 27.76925 28.93777 28.35351
#
# Velocity S-wave (km/s) = 3.69862 3.77563 3.73732
# Velocity P-wave (km/s) = 7.37626 7.59114 7.48447
#
# Compressibility (1/GPa) = 0.01361982
#
# Stress axis : x y z
#
# Youngs Moduli (GPa) = 77.97040 63.25221 66.99627
#
# Poissons Ratio (x) = 0.32738 0.30725
# Poissons Ratio (y) = 0.40355 0.34898
# Poissons Ratio (z) = 0.35758 0.32948
#
# Static dielectric constant tensor:
#      x y z
#    x -4.562390 0.000000 -1.270700 
#    y 0.000000 3.686060 0.000000 
#    z -1.270700 0.000000 3.311430 
# 
# 
# High freq. dielectric constant tensor:
#      x y z
#    x 1.809050 0.000000 0.019050 
#    y 0.000000 1.786050 0.000000 
#    z 0.019050 0.000000 1.781750 
# 
# From -- ./inp_files/79788.got.cif
#   From: 2010.06.25/outbox.cif.g09.slc.cpg/sg15_40_cif.got.tgz:79788.got - 2010.06.28 07:06:18.
