data_PCOD8135263
_publ_section_title
;
Structure prediction by ZEFSAII (Michael W. Deem and Ramdas Pophale) SiO2 
 PCOD8135263
Probable space group: C 2/C
;
_chemical_formula_sum "Si O2"
_cell_formula_units_Z 52
_cell_length_a 8.252848
_cell_length_b 20.371621
_cell_length_c 14.090302
_cell_angle_alpha 90.000000
_cell_angle_beta 87.188760
_cell_angle_gamma 90.000000
_cell_volume 2366.065498
_symmetry_space_group_name_H-M "C 2/C"
_symmetry_group_IT_number 15
_symmetry_cell_setting 'monoclinic'
loop_
_space_group_symop_operation_xyz
x,y,z
-x,y,1/2-z
-x,-y,-z
x,-y,1/2+z
1/2+x,1/2+y,z
1/2-x,1/2+y,1/2-z
1/2-x,1/2-y,-z
1/2+x,1/2-y,1/2+z
loop_
_atom_site_type_symbol
_atom_site_label
_atom_site_fract_x
_atom_site_fract_y
_atom_site_fract_z
Si Si1 0.000000 0.705732 0.250000
Si Si2 0.087874 0.998957 0.649290
Si Si3 0.447831 0.788067 0.081221
Si Si4 0.728712 0.169811 0.093448
Si Si5 0.490735 0.596948 0.496771
Si Si6 0.190126 0.190020 0.870091
Si Si7 0.331437 0.902560 0.215721
O O1 0.875098 0.656974 0.308010
O O2 0.903236 0.752079 0.179822
O O3 0.982654 0.046682 0.584902
O O4 0.256071 0.034384 0.667172
O O5 0.000000 0.981841 0.750000
O O6 0.115067 0.931935 0.588140
O O7 0.368893 0.720831 0.119093
O O8 0.639107 0.784698 0.094157
O O9 0.360307 0.845431 0.140468
O O10 0.405041 0.799598 0.973040
O O11 0.823419 0.107136 0.046941
O O12 0.416906 0.665828 0.536432
O O13 0.215293 0.127490 0.800166
O O14 0.500000 0.929316 0.250000
#
# Coordination Sequence:
#
# PCOD8135263 Si02
#       7
#     4   8   8   8   8   8   8
#     4  12  24  38  68  94 140 178 216 260 330 402
#     4  11  22  44  67  93 124 173 228 275 323 385
#     4  10  21  39  66  96 135 163 217 265 332 399
#     4  11  23  41  60  98 134 172 210 272 327 403
#     4  11  24  41  69  93 130 173 224 273 329 390
#     4  11  21  40  66 101 126 179 212 263 331 410
#     4  10  19  37  69  97 127 168 220 278 325 393
#
# _framework density 21.977412999999999
#
# number of rings (size 3 to 8) (size 9 to 14) (size 15 to 20)
#    0.000    1.231    4.615    2.769    0.000    2.462 
#    5.538    4.615    0.000    0.000    0.000    0.000 
#    0.000    0.000    0.000    0.000    0.000    0.000 
#
# Total GULP energy -322320.981516 kJ/mol
# GULP energy per Si atom -12396.960828 kJ/mol
# Density = 2.192739 g / cm^3
# Si number density = 21.977413 Si / 1000 Ang^3
#
#
#
# Elastic Constant Matrix: (Units=GPa)
#
#
# Indices 1 2 3 4 5 6 
#
# 1 93.9232 19.4436 58.8555 0.0000 -3.8781 0.0000
# 2 19.4436 33.9286 28.8779 0.0000 2.4161 0.0000
# 3 58.8555 28.8779 121.4598 0.0000 -15.4494 0.0000
# 4 0.0000 0.0000 0.0000 40.3192 0.0000 6.4587
# 5 -3.8781 2.4161 -15.4494 0.0000 46.4565 0.0000
# 6 0.0000 0.0000 0.0000 6.4587 0.0000 27.4216
#
#
#
# Elastic Compliance Matrix: (Units=1/GPa)
#
#
# Indices 1 2 3 4 5 6 
#
# 1 0.015582 -0.002945 -0.006960 0.000000 -0.000861 0.000000
# 2 -0.002945 0.038682 -0.008413 0.000000 -0.005055 0.000000
# 3 -0.006960 -0.008413 0.014188 0.000000 0.004575 0.000000
# 4 0.000000 0.000000 0.000000 0.025775 0.000000 -0.006071
# 5 -0.000861 -0.005055 0.004575 0.000000 0.023238 0.000000
# 6 0.000000 0.000000 0.000000 -0.006071 0.000000 0.037897
#
#
# Mechanical properties :
#
#
# Convention : Reuss Voigt Hill
#
# Bulk Modulus (GPa) = 31.42999 51.51840 41.47419
# Shear Modulus (GPa) = 24.67875 32.31510 28.49692
#
# Velocity S-wave (km/s) = 3.35463 3.83871 3.60480
# Velocity P-wave (km/s) = 5.41634 6.56811 6.01983
#
# Compressibility (1/GPa) = 0.03181675
#
# Stress axis : x y z
#
# Youngs Moduli (GPa) = 64.17456 25.85193 70.48205
#
# Poissons Ratio (x) = 0.07612 0.49057
# Poissons Ratio (y) = 0.18897 0.59297
# Poissons Ratio (z) = 0.44666 0.21749
#
# Static dielectric constant tensor:
#      x y z
#    x 3.941110 0.000000 -0.117960 
#    y 0.000000 3.679810 0.000000 
#    z -0.117960 0.000000 4.285880 
# 
# 
# High freq. dielectric constant tensor:
#      x y z
#    x 1.860900 0.000000 -0.003290 
#    y 0.000000 1.834660 0.000000 
#    z -0.003290 0.000000 1.883460 
# 
# From -- ./inp_files/136044.got.cif
#   From: 2010.06.25/outbox.cif.g09.slc.cpg/sg15_69_cif.got.tgz:136044.got - 2010.06.28 07:06:18.
