data_PCOD8135243
_publ_section_title
;
Structure prediction by ZEFSAII (Michael W. Deem and Ramdas Pophale) SiO2 
 PCOD8135243
Probable space group: C 2/C
;
_chemical_formula_sum "Si O2"
_cell_formula_units_Z 40
_cell_length_a 28.464718
_cell_length_b 8.186136
_cell_length_c 22.723532
_cell_angle_alpha 90.000000
_cell_angle_beta 160.239122
_cell_angle_gamma 90.000000
_cell_volume 1790.197475
_symmetry_space_group_name_H-M "C 2/C"
_symmetry_group_IT_number 15
_symmetry_cell_setting 'monoclinic'
loop_
_space_group_symop_operation_xyz
x,y,z
-x,y,1/2-z
-x,-y,-z
x,-y,1/2+z
1/2+x,1/2+y,z
1/2-x,1/2+y,1/2-z
1/2-x,1/2-y,-z
1/2+x,1/2-y,1/2+z
loop_
_atom_site_type_symbol
_atom_site_label
_atom_site_fract_x
_atom_site_fract_y
_atom_site_fract_z
Si Si1 0.082630 0.392456 0.014682
Si Si2 0.325964 0.423236 0.598824
Si Si3 0.112689 0.550113 0.930808
Si Si4 0.180244 0.364834 0.722072
Si Si5 0.863648 0.094823 0.015047
O O1 0.052874 0.431415 0.910650
O O2 0.944848 0.309177 0.880947
O O3 0.110487 0.562432 0.081120
O O4 0.221383 0.283626 0.181033
O O5 0.250000 0.250000 0.500000
O O6 0.233880 0.536020 0.534559
O O7 0.472570 0.410060 0.805023
O O8 0.337867 0.496837 0.547279
O O9 0.179497 0.714571 0.037104
O O10 0.000000 0.606815 0.750000
O O11 0.274926 0.505263 0.861509
#
# Coordination Sequence:
#
# PCOD8135243 Si02
#       5
#     8   8   8   8   8
#     4  11  27  47  67  94 131 169 224 270 335 383
#     4   9  17  33  60  98 131 170 216 254 316 381
#     4  11  20  38  65  99 132 172 213 267 318 391
#     4  11  26  48  67  94 128 175 218 276 323 400
#     4  10  19  37  66  95 132 169 220 262 320 384
#
# _framework density 22.343903000000001
#
# number of rings (size 3 to 8) (size 9 to 14) (size 15 to 20)
#    0.000    1.600    4.000    2.400    5.600    0.800 
#    3.600    2.000    0.000    0.000    0.000    0.000 
#    0.000    0.000    0.000    0.000    0.000    0.000 
#
# Total GULP energy -247807.614523 kJ/mol
# GULP energy per Si atom -12390.380726 kJ/mol
# Density = 2.229305 g / cm^3
# Si number density = 22.343903 Si / 1000 Ang^3
#
#
#
# Elastic Constant Matrix: (Units=GPa)
#
#
# Indices 1 2 3 4 5 6 
#
# 1 140.3684 28.8083 55.4124 0.0003 33.9183 0.0001
# 2 28.8083 39.4181 6.9736 0.0002 10.8541 0.0001
# 3 55.4124 6.9736 89.3682 0.0003 24.4460 0.0001
# 4 0.0003 0.0002 0.0003 31.2328 0.0003 1.8341
# 5 33.9183 10.8541 24.4460 0.0003 50.0981 0.0001
# 6 0.0001 0.0001 0.0001 1.8341 0.0001 25.9647
#
#
#
# Elastic Compliance Matrix: (Units=1/GPa)
#
#
# Indices 1 2 3 4 5 6 
#
# 1 0.011571 -0.006443 -0.005667 0.000000 -0.003673 0.000000
# 2 -0.006443 0.030592 0.002571 0.000000 -0.003520 0.000000
# 3 -0.005667 0.002571 0.015702 0.000000 -0.004382 0.000000
# 4 0.000000 0.000000 0.000000 0.032151 0.000000 -0.002271
# 5 -0.003673 -0.003520 -0.004382 0.000000 0.025348 0.000000
# 6 0.000000 0.000000 0.000000 -0.002271 0.000000 0.038674
#
#
# Mechanical properties :
#
#
# Convention : Reuss Voigt Hill
#
# Bulk Modulus (GPa) = 25.78228 50.17147 37.97688
# Shear Modulus (GPa) = 26.87510 33.32313 30.09911
#
# Velocity S-wave (km/s) = 3.47189 3.86602 3.67425
# Velocity P-wave (km/s) = 5.25699 6.51392 5.91891
#
# Compressibility (1/GPa) = 0.03878633
#
# Stress axis : x y z
#
# Youngs Moduli (GPa) = 86.42263 32.68810 63.68771
#
# Poissons Ratio (x) = 0.21060 0.36093
# Poissons Ratio (y) = 0.55679 -0.16371
# Poissons Ratio (z) = 0.48977 -0.08403
#
# Static dielectric constant tensor:
#      x y z
#    x 4.695710 0.000000 0.382310 
#    y 0.000000 3.399710 0.000000 
#    z 0.382310 0.000000 4.105370 
# 
# 
# High freq. dielectric constant tensor:
#      x y z
#    x 1.902680 0.000000 0.015750 
#    y 0.000000 1.824530 0.000000 
#    z 0.015750 0.000000 1.885780 
# 
# From -- ./inp_files/284259.got.cif
#   From: 2010.06.25/outbox.cif.g09.slc.cpg/sg15_143_cif.got.tgz:284259.got - 2010.06.28 07:06:18.
