data_PCOD8135939
_publ_section_title
;
Structure prediction by ZEFSAII (Michael W. Deem and Ramdas Pophale) SiO2 
 PCOD8135939
Probable space group: C 2/C
;
_chemical_formula_sum "Si O2"
_cell_formula_units_Z 40
_cell_length_a 24.184977
_cell_length_b 9.202658
_cell_length_c 11.072243
_cell_angle_alpha 90.000000
_cell_angle_beta 46.392526
_cell_angle_gamma 90.000000
_cell_volume 1784.359098
_symmetry_space_group_name_H-M "C 2/C"
_symmetry_group_IT_number 15
_symmetry_cell_setting 'monoclinic'
loop_
_space_group_symop_operation_xyz
x,y,z
-x,y,1/2-z
-x,-y,-z
x,-y,1/2+z
1/2+x,1/2+y,z
1/2-x,1/2+y,1/2-z
1/2-x,1/2-y,-z
1/2+x,1/2-y,1/2+z
loop_
_atom_site_type_symbol
_atom_site_label
_atom_site_fract_x
_atom_site_fract_y
_atom_site_fract_z
Si Si1 0.300667 0.192832 0.093227
Si Si2 0.362675 0.735095 0.741952
Si Si3 0.986087 0.219021 0.128846
Si Si4 0.166262 0.927081 0.650348
Si Si5 0.427342 0.003654 0.289438
O O1 0.298805 0.224318 0.238722
O O2 0.221973 0.116984 0.175749
O O3 0.308898 0.345909 0.009600
O O4 0.372833 0.087702 0.961120
O O5 0.439073 0.682992 0.559413
O O6 0.331009 0.601703 0.870309
O O7 0.376943 0.872382 0.805311
O O8 0.919197 0.115499 0.181735
O O9 0.960586 0.386796 0.143135
O O10 0.000000 0.193139 0.250000
O O11 0.500000 0.073178 0.250000
#
# Coordination Sequence:
#
# PCOD8135939 Si02
#       5
#     8   8   8   8   8
#     4  10  23  45  60  88 138 160 201 263 315 363
#     4  12  22  40  68  91 119 168 215 246 316 377
#     4  10  19  41  65  87 129 165 200 263 311 363
#     4  10  23  40  64  92 122 165 206 263 309 364
#     4  10  21  40  64  92 126 167 204 254 308 372
#
# _framework density 22.417013000000001
#
# number of rings (size 3 to 8) (size 9 to 14) (size 15 to 20)
#    0.000    1.600    6.000    1.200    0.000    6.400 
#    3.600    0.000    0.000    0.000    0.000    0.000 
#    0.000    0.000    0.000    0.000    0.000    0.000 
#
# Total GULP energy -247985.843186 kJ/mol
# GULP energy per Si atom -12399.292159 kJ/mol
# Density = 2.236599 g / cm^3
# Si number density = 22.417013 Si / 1000 Ang^3
#
#
#
# Elastic Constant Matrix: (Units=GPa)
#
#
# Indices 1 2 3 4 5 6 
#
# 1 143.9580 70.7110 8.8026 0.0000 -2.4699 0.0000
# 2 70.7110 158.8188 18.5853 0.0000 21.0870 0.0000
# 3 8.8026 18.5853 32.5002 0.0000 0.4441 0.0000
# 4 0.0000 0.0000 0.0000 19.6580 0.0000 0.2136
# 5 -2.4699 21.0870 0.4441 0.0000 28.5112 0.0000
# 6 0.0000 0.0000 0.0000 0.2136 0.0000 31.6369
#
#
#
# Elastic Compliance Matrix: (Units=1/GPa)
#
#
# Indices 1 2 3 4 5 6 
#
# 1 0.009346 -0.004749 0.000126 0.000000 0.004320 0.000000
# 2 -0.004749 0.009934 -0.004289 0.000000 -0.007692 0.000000
# 3 0.000126 -0.004289 0.033152 0.000000 0.002667 0.000000
# 4 0.000000 0.000000 0.000000 0.050874 0.000000 -0.000343
# 5 0.004320 -0.007692 0.002667 0.000000 0.041096 0.000000
# 6 0.000000 0.000000 0.000000 -0.000343 0.000000 0.031611
#
#
# Mechanical properties :
#
#
# Convention : Reuss Voigt Hill
#
# Bulk Modulus (GPa) = 28.89744 59.05275 43.97509
# Shear Modulus (GPa) = 24.34589 31.77309 28.05949
#
# Velocity S-wave (km/s) = 3.29910 3.76888 3.54178
# Velocity P-wave (km/s) = 5.23745 6.73344 6.03200
#
# Compressibility (1/GPa) = 0.03460514
#
# Stress axis : x y z
#
# Youngs Moduli (GPa) = 107.00050 100.66133 30.16453
#
# Poissons Ratio (x) = 0.47807 -0.00379
# Poissons Ratio (y) = 0.50818 0.12939
# Poissons Ratio (z) = -0.01344 0.43179
#
# Static dielectric constant tensor:
#      x y z
#    x 4.242840 0.000000 -0.292180 
#    y 0.000000 3.949370 0.000000 
#    z -0.292180 0.000000 3.642480 
# 
# 
# High freq. dielectric constant tensor:
#      x y z
#    x 1.897410 0.000000 -0.021840 
#    y 0.000000 1.880140 0.000000 
#    z -0.021840 0.000000 1.851260 
# 
# From -- ./inp_files/121337.got.cif
#   From: 2010.06.25/outbox.cif.g09.slc.cpg/sg15_61_cif.got.tgz:121337.got - 2010.06.28 07:06:18.
