data_PCOD8135035
_publ_section_title
;
Structure prediction by ZEFSAII (Michael W. Deem and Ramdas Pophale) SiO2 
 PCOD8135035
Probable space group: C 2/C
;
_chemical_formula_sum "Si O2"
_cell_formula_units_Z 48
_cell_length_a 14.300340
_cell_length_b 11.185790
_cell_length_c 16.584829
_cell_angle_alpha 90.000000
_cell_angle_beta 69.320398
_cell_angle_gamma 90.000000
_cell_volume 2481.991120
_symmetry_space_group_name_H-M "C 2/C"
_symmetry_group_IT_number 15
_symmetry_cell_setting 'monoclinic'
loop_
_space_group_symop_operation_xyz
x,y,z
-x,y,1/2-z
-x,-y,-z
x,-y,1/2+z
1/2+x,1/2+y,z
1/2-x,1/2+y,1/2-z
1/2-x,1/2-y,-z
1/2+x,1/2-y,1/2+z
loop_
_atom_site_type_symbol
_atom_site_label
_atom_site_fract_x
_atom_site_fract_y
_atom_site_fract_z
Si Si1 0.743772 0.010402 0.414871
Si Si2 0.396154 0.828783 0.439767
Si Si3 0.608200 0.634383 0.930251
Si Si4 0.127992 0.311492 0.376519
Si Si5 0.703305 0.748377 0.184054
Si Si6 0.617565 0.385640 0.004255
O O1 0.662525 0.061498 0.502056
O O2 0.798255 0.113989 0.348903
O O3 0.688832 0.933469 0.363507
O O4 0.820751 0.920974 0.435660
O O5 0.369020 0.702900 0.491871
O O6 0.513040 0.849852 0.412309
O O7 0.363782 0.826432 0.356542
O O8 0.685899 0.691803 0.842800
O O9 0.623053 0.494230 0.939162
O O10 0.494927 0.650035 0.933922
O O11 0.152945 0.243972 0.286263
O O12 0.159305 0.228178 0.442761
#
# Coordination Sequence:
#
# PCOD8135035 Si02
#       6
#     8   8   8   8   8   8
#     4  11  21  39  62  82 113 158 193 228 284 345
#     4  10  19  40  60  82 110 156 196 226 272 359
#     4   9  18  35  62  83 110 149 194 230 277 336
#     4  11  25  34  56  91 120 142 188 244 296 323
#     4  11  21  38  58  85 115 148 190 243 281 331
#     4  10  19  37  60  84 112 153 191 230 276 350
#
# _framework density 19.339310999999999
#
# number of rings (size 3 to 8) (size 9 to 14) (size 15 to 20)
#    0.000    1.667    3.333    2.500    2.333    0.000 
#    0.000    0.833    0.000    0.000    0.000    0.000 
#    0.000    0.000    0.000    0.000    0.000    0.000 
#
# Total GULP energy -297591.986073 kJ/mol
# GULP energy per Si atom -12399.666086 kJ/mol
# Density = 1.929529 g / cm^3
# Si number density = 19.339311 Si / 1000 Ang^3
#
#
#
# Elastic Constant Matrix: (Units=GPa)
#
#
# Indices 1 2 3 4 5 6 
#
# 1 95.9111 42.2394 34.5073 0.0000 2.6188 0.0000
# 2 42.2394 60.9150 15.6182 0.0000 11.1088 0.0000
# 3 34.5073 15.6182 45.7393 0.0000 11.6017 0.0000
# 4 0.0000 0.0000 0.0000 21.4106 0.0000 1.8128
# 5 2.6188 11.1088 11.6017 0.0000 18.2049 0.0000
# 6 0.0000 0.0000 0.0000 1.8128 0.0000 34.9383
#
#
#
# Elastic Compliance Matrix: (Units=1/GPa)
#
#
# Indices 1 2 3 4 5 6 
#
# 1 0.021670 -0.013827 -0.015479 0.000000 0.015184 0.000000
# 2 -0.013827 0.027967 0.005613 0.000000 -0.018654 0.000000
# 3 -0.015479 0.005613 0.038084 0.000000 -0.025469 0.000000
# 4 0.000000 0.000000 0.000000 0.046912 0.000000 -0.002434
# 5 0.015184 -0.018654 -0.025469 0.000000 0.080360 0.000000
# 6 0.000000 0.000000 0.000000 -0.002434 0.000000 0.028748
#
#
# Mechanical properties :
#
#
# Convention : Reuss Voigt Hill
#
# Bulk Modulus (GPa) = 24.79140 43.03278 33.91209
# Shear Modulus (GPa) = 16.41653 22.25746 19.33700
#
# Velocity S-wave (km/s) = 2.91670 3.39616 3.16552
# Velocity P-wave (km/s) = 4.91831 6.13827 5.56184
#
# Compressibility (1/GPa) = 0.04033657
#
# Stress axis : x y z
#
# Youngs Moduli (GPa) = 46.14652 35.75687 26.25757
#
# Poissons Ratio (x) = 0.49440 0.40644
# Poissons Ratio (y) = 0.63806 -0.14740
# Poissons Ratio (z) = 0.71429 -0.20072
#
# Static dielectric constant tensor:
#      x y z
#    x 3.652190 0.000000 -0.144680 
#    y 0.000000 3.489390 0.000000 
#    z -0.144680 0.000000 3.260530 
# 
# 
# High freq. dielectric constant tensor:
#      x y z
#    x 1.761420 0.000000 -0.007920 
#    y 0.000000 1.753790 0.000000 
#    z -0.007920 0.000000 1.725680 
# 
# From -- ./inp_files/151812.got.cif
#   From: 2010.06.25/outbox.cif.g09.slc.cpg/sg15_76_cif.got.tgz:151812.got - 2010.06.28 07:06:18.
