data_PCOD8135664
_publ_section_title
;
Structure prediction by ZEFSAII (Michael W. Deem and Ramdas Pophale) SiO2 
 PCOD8135664
Probable space group: C 2/C
;
_chemical_formula_sum "Si O2"
_cell_formula_units_Z 48
_cell_length_a 19.023693
_cell_length_b 9.464555
_cell_length_c 16.250290
_cell_angle_alpha 90.000000
_cell_angle_beta 123.280126
_cell_angle_gamma 90.000000
_cell_volume 2446.027029
_symmetry_space_group_name_H-M "C 2/C"
_symmetry_group_IT_number 15
_symmetry_cell_setting 'monoclinic'
loop_
_space_group_symop_operation_xyz
x,y,z
-x,y,1/2-z
-x,-y,-z
x,-y,1/2+z
1/2+x,1/2+y,z
1/2-x,1/2+y,1/2-z
1/2-x,1/2-y,-z
1/2+x,1/2-y,1/2+z
loop_
_atom_site_type_symbol
_atom_site_label
_atom_site_fract_x
_atom_site_fract_y
_atom_site_fract_z
Si Si1 0.463238 0.185662 0.056879
Si Si2 0.503648 0.883303 0.348499
Si Si3 0.685128 0.465450 0.191380
Si Si4 0.925054 0.166604 0.006453
Si Si5 0.657094 0.788943 0.159677
Si Si6 0.017576 0.943437 0.171305
O O1 0.531570 0.245648 0.037926
O O2 0.466984 0.293689 0.136504
O O3 0.488771 0.030850 0.100768
O O4 0.373105 0.183265 0.953590
O O5 0.500000 0.909189 0.250000
O O6 0.583122 0.780653 0.423764
O O7 0.419497 0.803838 0.324941
O O8 0.660680 0.397877 0.086073
O O9 0.696113 0.633297 0.190922
O O10 0.773946 0.405315 0.275581
O O11 0.616839 0.426412 0.217803
O O12 0.983174 0.038573 0.074719
O O13 0.000000 0.010415 0.250000
#
# Coordination Sequence:
#
# PCOD8135664 Si02
#       6
#     8   8   8   8   8   8
#     4  10  20  39  60  88 117 158 201 234 285 358
#     4  11  23  39  63  91 118 151 200 248 291 338
#     4  11  23  38  60  89 118 154 202 236 295 351
#     4  10  19  39  63  84 112 160 202 234 279 361
#     4  11  23  39  60  88 118 157 197 241 290 356
#     4  11  20  38  65  87 115 153 199 248 287 342
#
# _framework density 19.623659
#
# number of rings (size 3 to 8) (size 9 to 14) (size 15 to 20)
#    0.000    1.333    5.000    4.000    7.000    0.000 
#    0.000    3.333    0.000    0.000    0.000    0.000 
#    0.000    0.000    0.000    0.000    0.000    0.000 
#
# Total GULP energy -297463.566966 kJ/mol
# GULP energy per Si atom -12394.315290 kJ/mol
# Density = 1.957900 g / cm^3
# Si number density = 19.623659 Si / 1000 Ang^3
#
#
#
# Elastic Constant Matrix: (Units=GPa)
#
#
# Indices 1 2 3 4 5 6 
#
# 1 40.0918 12.4127 33.1794 0.0000 -6.4669 0.0000
# 2 12.4127 146.7577 45.7131 0.0000 6.9271 0.0000
# 3 33.1794 45.7131 100.3918 0.0000 -4.4336 0.0000
# 4 0.0000 0.0000 0.0000 49.2967 0.0000 4.7369
# 5 -6.4669 6.9271 -4.4336 0.0000 24.0860 0.0000
# 6 0.0000 0.0000 0.0000 4.7369 0.0000 20.6526
#
#
#
# Elastic Compliance Matrix: (Units=1/GPa)
#
#
# Indices 1 2 3 4 5 6 
#
# 1 0.035621 0.000239 -0.011556 0.000000 0.007368 0.000000
# 2 0.000239 0.008159 -0.003927 0.000000 -0.003005 0.000000
# 3 -0.011556 -0.003927 0.015608 0.000000 0.000900 0.000000
# 4 0.000000 0.000000 0.000000 0.020742 0.000000 -0.004758
# 5 0.007368 -0.003005 0.000900 0.000000 0.044526 0.000000
# 6 0.000000 0.000000 0.000000 -0.004758 0.000000 0.049511
#
#
# Mechanical properties :
#
#
# Convention : Reuss Voigt Hill
#
# Bulk Modulus (GPa) = 34.60217 52.20576 43.40397
# Shear Modulus (GPa) = 23.33305 31.86948 27.60126
#
# Velocity S-wave (km/s) = 3.45197 4.03430 3.75444
# Velocity P-wave (km/s) = 5.79304 6.95428 6.40005
#
# Compressibility (1/GPa) = 0.02889992
#
# Stress axis : x y z
#
# Youngs Moduli (GPa) = 28.07339 122.56842 64.06966
#
# Poissons Ratio (x) = -0.02929 0.74040
# Poissons Ratio (y) = -0.00671 0.25159
# Poissons Ratio (z) = 0.32442 0.48129
#
# Static dielectric constant tensor:
#      x y z
#    x 3.056230 0.000000 -0.115640 
#    y 0.000000 3.989210 0.000000 
#    z -0.115640 0.000000 4.003690 
# 
# 
# High freq. dielectric constant tensor:
#      x y z
#    x 1.704490 0.000000 -0.008860 
#    y 0.000000 1.794810 0.000000 
#    z -0.008860 0.000000 1.778660 
# 
# From -- ./inp_files/214101.got.cif
#   From: 2010.06.25/outbox.cif.g09.slc.cpg/sg15_108_cif.got.tgz:214101.got - 2010.06.28 07:06:18.
