data_PCOD8135365
_publ_section_title
;
Structure prediction by ZEFSAII (Michael W. Deem and Ramdas Pophale) SiO2 
 PCOD8135365
Probable space group: C 2/C
;
_chemical_formula_sum "Si O2"
_cell_formula_units_Z 48
_cell_length_a 26.192484
_cell_length_b 13.580676
_cell_length_c 11.322369
_cell_angle_alpha 90.000000
_cell_angle_beta 33.016280
_cell_angle_gamma 90.000000
_cell_volume 2194.492522
_symmetry_space_group_name_H-M "C 2/C"
_symmetry_group_IT_number 15
_symmetry_cell_setting 'monoclinic'
loop_
_space_group_symop_operation_xyz
x,y,z
-x,y,1/2-z
-x,-y,-z
x,-y,1/2+z
1/2+x,1/2+y,z
1/2-x,1/2+y,1/2-z
1/2-x,1/2-y,-z
1/2+x,1/2-y,1/2+z
loop_
_atom_site_type_symbol
_atom_site_label
_atom_site_fract_x
_atom_site_fract_y
_atom_site_fract_z
Si Si1 0.046356 0.270120 0.904623
Si Si2 0.766880 0.918457 0.143549
Si Si3 0.144002 0.358061 0.175480
Si Si4 0.345474 0.066926 0.418586
Si Si5 0.675460 0.772706 0.865865
Si Si6 0.682611 0.616543 0.559686
O O1 0.078915 0.347012 0.741719
O O2 0.087401 0.299896 0.953748
O O3 0.082039 0.160473 0.797647
O O4 0.934413 0.279301 0.130963
O O5 0.729287 0.857382 0.103034
O O6 0.678311 0.951328 0.396862
O O7 0.831448 0.843199 0.090983
O O8 0.829020 0.013747 0.988340
O O9 0.108886 0.471096 0.232460
O O10 0.180048 0.334318 0.975828
O O11 0.247892 0.096738 0.545357
O O12 0.770732 0.798203 0.610892
#
# Coordination Sequence:
#
# PCOD8135365 Si02
#       6
#     8   8   8   8   8   8
#     4  11  21  39  60  88 127 163 199 255 317 368
#     4  11  21  38  64  91 120 160 214 253 294 380
#     4  11  24  35  58  97 126 151 202 266 317 345
#     4  10  19  38  60  90 123 163 198 248 311 377
#     4  11  20  40  61  85 120 169 209 242 302 390
#     4  10  20  37  65  84 118 170 212 240 304 382
#
# _framework density 21.872938000000001
#
# number of rings (size 3 to 8) (size 9 to 14) (size 15 to 20)
#    0.000    1.333    5.000    2.500    0.000    0.667 
#    3.000    0.833    0.000    2.000    0.000    0.000 
#    0.000    0.000    0.000    0.000    0.000    0.000 
#
# Total GULP energy -297497.418643 kJ/mol
# GULP energy per Si atom -12395.725777 kJ/mol
# Density = 2.182315 g / cm^3
# Si number density = 21.872938 Si / 1000 Ang^3
#
#
#
# Elastic Constant Matrix: (Units=GPa)
#
#
# Indices 1 2 3 4 5 6 
#
# 1 57.1238 32.3848 32.6738 0.0000 22.0016 0.0000
# 2 32.3848 108.5150 27.0281 0.0000 4.5907 0.0000
# 3 32.6738 27.0281 71.3340 0.0000 11.9487 0.0000
# 4 0.0000 0.0000 0.0000 43.8590 0.0000 7.7788
# 5 22.0016 4.5907 11.9487 0.0000 32.1610 0.0000
# 6 0.0000 0.0000 0.0000 7.7788 0.0000 35.7798
#
#
#
# Elastic Compliance Matrix: (Units=1/GPa)
#
#
# Indices 1 2 3 4 5 6 
#
# 1 0.034433 -0.006997 -0.009962 0.000000 -0.018856 0.000000
# 2 -0.006997 0.011598 -0.001828 0.000000 0.003810 0.000000
# 3 -0.009962 -0.001828 0.019289 0.000000 -0.000090 0.000000
# 4 0.000000 0.000000 0.000000 0.023715 0.000000 -0.005156
# 5 -0.018856 0.003810 -0.000090 0.000000 0.043483 0.000000
# 6 0.000000 0.000000 0.000000 -0.005156 0.000000 0.029070
#
#
# Mechanical properties :
#
#
# Convention : Reuss Voigt Hill
#
# Bulk Modulus (GPa) = 36.04071 46.79402 41.41736
# Shear Modulus (GPa) = 23.99116 32.01903 28.00509
#
# Velocity S-wave (km/s) = 3.31545 3.83020 3.58208
# Velocity P-wave (km/s) = 5.58296 6.40317 6.00708
#
# Compressibility (1/GPa) = 0.02774640
#
# Stress axis : x y z
#
# Youngs Moduli (GPa) = 29.04153 86.22532 51.84242
#
# Poissons Ratio (x) = 0.60334 0.51646
# Poissons Ratio (y) = 0.20321 0.09474
# Poissons Ratio (z) = 0.28932 0.15758
#
# Static dielectric constant tensor:
#      x y z
#    x 3.830360 0.000000 0.445280 
#    y 0.000000 4.147670 0.000000 
#    z 0.445280 0.000000 3.617720 
# 
# 
# High freq. dielectric constant tensor:
#      x y z
#    x 1.845450 0.000000 0.042280 
#    y 0.000000 1.870490 0.000000 
#    z 0.042280 0.000000 1.830800 
# 
# From -- ./inp_files/123423.got.cif
#   From: 2010.06.25/outbox.cif.g09.slc.cpg/sg15_62_cif.got.tgz:123423.got - 2010.06.28 07:06:18.
