data_PCOD8135821
_publ_section_title
;
Structure prediction by ZEFSAII (Michael W. Deem and Ramdas Pophale) SiO2 
 PCOD8135821
Probable space group: C 2/C
;
_chemical_formula_sum "Si O2"
_cell_formula_units_Z 56
_cell_length_a 15.151305
_cell_length_b 11.447026
_cell_length_c 25.293101
_cell_angle_alpha 90.000000
_cell_angle_beta 32.042923
_cell_angle_gamma 90.000000
_cell_volume 2327.419841
_symmetry_space_group_name_H-M "C 2/C"
_symmetry_group_IT_number 15
_symmetry_cell_setting 'monoclinic'
loop_
_space_group_symop_operation_xyz
x,y,z
-x,y,1/2-z
-x,-y,-z
x,-y,1/2+z
1/2+x,1/2+y,z
1/2-x,1/2+y,1/2-z
1/2-x,1/2-y,-z
1/2+x,1/2-y,1/2+z
loop_
_atom_site_type_symbol
_atom_site_label
_atom_site_fract_x
_atom_site_fract_y
_atom_site_fract_z
Si Si1 0.636431 0.978338 0.875345
Si Si2 0.664992 0.145821 0.774415
Si Si3 0.507396 0.225603 0.383390
Si Si4 0.350917 0.456897 0.611830
Si Si5 0.284892 0.194258 0.409257
Si Si6 0.337771 0.466180 0.366615
Si Si7 0.030361 0.116698 0.339439
O O1 0.570764 0.083825 0.871454
O O2 0.661808 0.003114 0.925379
O O3 0.526460 0.863832 0.922687
O O4 0.820499 0.959637 0.759069
O O5 0.540657 0.246902 0.815079
O O6 0.822745 0.213721 0.719686
O O7 0.730286 0.060171 0.694628
O O8 0.438293 0.150408 0.368160
O O9 0.381358 0.322657 0.470822
O O10 0.500000 0.500000 0.500000
O O11 0.230004 0.371381 0.638791
O O12 0.445714 0.385540 0.609391
O O13 0.331277 0.330810 0.382592
O O14 0.500000 0.495200 0.250000
O O15 0.359140 0.552740 0.406800
#
# Coordination Sequence:
#
# PCOD8135821 Si02
#       7
#     8   8   8   8   8   8   8
#     4   9  19  36  59  83 114 156 209 253 303 374
#     4  10  19  40  63  87 129 164 207 270 318 383
#     4  10  21  37  56  89 120 160 202 255 318 368
#     4  11  21  36  61  95 128 163 207 267 325 373
#     4  11  22  35  61  86 124 158 203 261 313 375
#     4  10  20  37  62  88 115 164 215 253 309 382
#     4   9  20  36  61  89 122 165 212 257 318 380
#
# _framework density 24.060979
#
# number of rings (size 3 to 8) (size 9 to 14) (size 15 to 20)
#    0.000    2.000    1.429    3.429    2.000    2.857 
#    0.000    7.143    0.000    1.714    0.000    0.000 
#    0.000    0.000    0.000    0.000    0.000    0.000 
#
# Total GULP energy -346894.439882 kJ/mol
# GULP energy per Si atom -12389.087139 kJ/mol
# Density = 2.400622 g / cm^3
# Si number density = 24.060979 Si / 1000 Ang^3
#
#
#
# Elastic Constant Matrix: (Units=GPa)
#
#
# Indices 1 2 3 4 5 6 
#
# 1 165.9347 59.2735 16.2605 0.0000 10.8004 0.0000
# 2 59.2735 130.4345 15.2795 -0.0002 5.3276 0.0000
# 3 16.2605 15.2795 18.3216 -0.0013 10.8875 0.0004
# 4 0.0000 -0.0002 -0.0013 27.0427 0.0000 6.0484
# 5 10.8004 5.3276 10.8875 0.0000 31.9923 -0.0001
# 6 0.0000 0.0000 0.0004 6.0484 -0.0001 39.9146
#
#
#
# Elastic Compliance Matrix: (Units=1/GPa)
#
#
# Indices 1 2 3 4 5 6 
#
# 1 0.007492 -0.002934 -0.003747 0.000000 -0.000765 0.000000
# 2 -0.002934 0.009686 -0.006398 0.000000 0.001555 0.000000
# 3 -0.003747 -0.006398 0.077537 0.000004 -0.024057 -0.000001
# 4 0.000000 0.000000 0.000004 0.038276 -0.000001 -0.005800
# 5 -0.000765 0.001555 -0.024057 -0.000001 0.039444 0.000001
# 6 0.000000 0.000000 -0.000001 -0.005800 0.000001 0.025932
#
#
# Mechanical properties :
#
#
# Convention : Reuss Voigt Hill
#
# Bulk Modulus (GPa) = 14.58644 55.14641 34.86643
# Shear Modulus (GPa) = 20.21212 34.71506 27.46359
#
# Velocity S-wave (km/s) = 2.90148 3.80253 3.38215
# Velocity P-wave (km/s) = 4.15936 6.49986 5.45658
#
# Compressibility (1/GPa) = 0.06855681
#
# Stress axis : x y z
#
# Youngs Moduli (GPa) = 133.48296 103.24181 12.89712
#
# Poissons Ratio (x) = 0.30293 0.04833
# Poissons Ratio (y) = 0.39167 0.08251
# Poissons Ratio (z) = 0.50016 0.66049
#
# Static dielectric constant tensor:
#      x y z
#    x 5.182100 0.000000 0.060590 
#    y 0.000000 4.325990 0.000000 
#    z 0.060590 0.000000 4.166280 
# 
# 
# High freq. dielectric constant tensor:
#      x y z
#    x 1.959610 0.000000 0.004530 
#    y 0.000000 1.945740 0.000000 
#    z 0.004530 0.000000 1.941590 
# 
# From -- ./inp_files/295896.got.cif
#   From: 2010.06.25/outbox.cif.g09.slc.cpg/sg15_148_cif.got.tgz:295896.got - 2010.06.28 07:06:18.
