data_PCOD8135311
_publ_section_title
;
Structure prediction by ZEFSAII (Michael W. Deem and Ramdas Pophale) SiO2 
 PCOD8135311
Probable space group: C 2/C
;
_chemical_formula_sum "Si O2"
_cell_formula_units_Z 64
_cell_length_a 8.520526
_cell_length_b 21.014278
_cell_length_c 22.783403
_cell_angle_alpha 90.000000
_cell_angle_beta 56.473562
_cell_angle_gamma 90.000000
_cell_volume 3400.739417
_symmetry_space_group_name_H-M "C 2/C"
_symmetry_group_IT_number 15
_symmetry_cell_setting 'monoclinic'
loop_
_space_group_symop_operation_xyz
x,y,z
-x,y,1/2-z
-x,-y,-z
x,-y,1/2+z
1/2+x,1/2+y,z
1/2-x,1/2+y,1/2-z
1/2-x,1/2-y,-z
1/2+x,1/2-y,1/2+z
loop_
_atom_site_type_symbol
_atom_site_label
_atom_site_fract_x
_atom_site_fract_y
_atom_site_fract_z
Si Si1 0.068204 0.777731 0.095104
Si Si2 0.034486 0.551998 0.066068
Si Si3 0.583079 0.670743 0.074532
Si Si4 0.106108 0.706650 0.879121
Si Si5 0.676631 0.379079 0.682839
Si Si6 0.701108 0.753967 0.232774
Si Si7 0.423331 0.089739 0.959960
Si Si8 0.217917 0.841507 0.954759
O O1 0.251012 0.791223 0.096259
O O2 0.092843 0.702145 0.076457
O O3 0.869651 0.792589 0.166675
O O4 0.069690 0.819515 0.035462
O O5 0.842818 0.570062 0.140143
O O6 0.092720 0.479176 0.066236
O O7 0.217410 0.586557 0.052518
O O8 0.019214 0.574656 0.002250
O O9 0.582450 0.748821 0.071819
O O10 0.600744 0.651280 0.138240
O O11 0.376029 0.658255 0.090142
O O12 0.732181 0.630177 0.006648
O O13 0.213781 0.729250 0.798660
O O14 0.047407 0.632687 0.890453
O O15 0.500000 0.415283 0.750000
O O16 0.734172 0.320954 0.714011
O O17 0.500000 0.777815 0.250000
#
# Coordination Sequence:
#
# PCOD8135311 Si02
#       8
#     8   8   8   8   8   8   8   8
#     4  10  21  35  53  91 119 147 186 240 298 341
#     4  10  20  40  60  82 121 155 200 230 289 355
#     4  10  21  33  59  90 115 146 195 243 296 333
#     4  11  20  36  57  87 121 148 194 240 295 341
#     4  10  19  38  58  87 112 153 195 238 285 356
#     4  11  21  34  58  85 116 152 186 239 292 345
#     4  10  22  36  60  87 117 157 193 242 284 348
#     4  10  20  34  59  86 118 149 186 248 287 339
#
# _framework density 18.819437000000001
#
# number of rings (size 3 to 8) (size 9 to 14) (size 15 to 20)
#    0.000    1.750    5.000    0.750    1.750    0.500 
#    0.000    1.875    0.000    0.000    0.000    0.000 
#    0.000    0.000    0.000    0.000    0.000    0.000 
#
# Total GULP energy -396420.990123 kJ/mol
# GULP energy per Si atom -12388.155941 kJ/mol
# Density = 1.877660 g / cm^3
# Si number density = 18.819437 Si / 1000 Ang^3
#
#
#
# Elastic Constant Matrix: (Units=GPa)
#
#
# Indices 1 2 3 4 5 6 
#
# 1 41.9495 33.5366 17.1681 0.0000 -1.8037 0.0000
# 2 33.5366 139.5616 51.9763 0.0000 -9.0749 0.0000
# 3 17.1681 51.9763 96.8232 0.0000 -11.8676 0.0000
# 4 0.0000 0.0000 0.0000 16.3900 0.0000 -2.2087
# 5 -1.8037 -9.0749 -11.8676 0.0000 28.1103 0.0000
# 6 0.0000 0.0000 0.0000 -2.2087 0.0000 18.9728
#
#
#
# Elastic Compliance Matrix: (Units=1/GPa)
#
#
# Indices 1 2 3 4 5 6 
#
# 1 0.029781 -0.006511 -0.001908 0.000000 -0.000996 0.000000
# 2 -0.006511 0.010401 -0.004291 0.000000 0.001129 0.000000
# 3 -0.001908 -0.004291 0.013483 0.000000 0.004184 0.000000
# 4 0.000000 0.000000 0.000000 0.061985 0.000000 0.007216
# 5 -0.000996 0.001129 0.004184 0.000000 0.037641 0.000000
# 6 0.000000 0.000000 0.000000 0.007216 0.000000 0.053547
#
#
# Mechanical properties :
#
#
# Convention : Reuss Voigt Hill
#
# Bulk Modulus (GPa) = 35.40253 53.74402 44.57327
# Shear Modulus (GPa) = 20.68920 24.40485 22.54703
#
# Velocity S-wave (km/s) = 3.31925 3.60500 3.46507
# Velocity P-wave (km/s) = 5.79158 6.77848 6.30437
#
# Compressibility (1/GPa) = 0.02824657
#
# Stress axis : x y z
#
# Youngs Moduli (GPa) = 33.57842 96.14294 74.16967
#
# Poissons Ratio (x) = 0.62596 0.14149
# Poissons Ratio (y) = 0.21862 0.31824
# Poissons Ratio (z) = 0.06406 0.41253
#
# Static dielectric constant tensor:
#      x y z
#    x 3.328380 0.000000 -0.036800 
#    y 0.000000 3.430900 0.000000 
#    z -0.036800 0.000000 3.526800 
# 
# 
# High freq. dielectric constant tensor:
#      x y z
#    x 1.727560 0.000000 -0.000850 
#    y 0.000000 1.706740 0.000000 
#    z -0.000850 0.000000 1.729790 
# 
# From -- ./inp_files/192955.got.cif
#   From: 2010.06.25/outbox.cif.g09.slc.cpg/sg15_97_cif.got.tgz:192955.got - 2010.06.28 07:06:18.
