data_PCOD8135956
_publ_section_title
;
Structure prediction by ZEFSAII (Michael W. Deem and Ramdas Pophale) SiO2 
 PCOD8135956
Probable space group: C 2/C
;
_chemical_formula_sum "Si O2"
_cell_formula_units_Z 40
_cell_length_a 9.490447
_cell_length_b 12.157538
_cell_length_c 16.448856
_cell_angle_alpha 90.000000
_cell_angle_beta 85.734825
_cell_angle_gamma 90.000000
_cell_volume 1892.620609
_symmetry_space_group_name_H-M "C 2/C"
_symmetry_group_IT_number 15
_symmetry_cell_setting 'monoclinic'
loop_
_space_group_symop_operation_xyz
x,y,z
-x,y,1/2-z
-x,-y,-z
x,-y,1/2+z
1/2+x,1/2+y,z
1/2-x,1/2+y,1/2-z
1/2-x,1/2-y,-z
1/2+x,1/2-y,1/2+z
loop_
_atom_site_type_symbol
_atom_site_label
_atom_site_fract_x
_atom_site_fract_y
_atom_site_fract_z
Si Si1 0.245856 0.079610 0.110505
Si Si2 0.354189 0.625425 0.789681
Si Si3 0.039249 0.652419 0.157314
Si Si4 0.375959 0.788484 0.319275
Si Si5 0.130665 0.530515 0.550886
O O1 0.395214 0.142111 0.112945
O O2 0.127169 0.163160 0.147627
O O3 0.237423 0.965940 0.160655
O O4 0.233771 0.051340 0.014169
O O5 0.500000 0.572947 0.750000
O O6 0.394794 0.725552 0.848692
O O7 0.269871 0.676249 0.717305
O O8 0.156368 0.569562 0.113703
O O9 0.000000 0.615135 0.250000
O O10 0.500000 0.800795 0.250000
O O11 0.406789 0.861684 0.396400
O O12 0.000000 0.500000 0.500000
#
# Coordination Sequence:
#
# PCOD8135956 Si02
#       5
#     8   8   8   8   8
#     4  11  22  40  63  96 131 168 218 278 329 393
#     4  11  23  42  70  96 129 173 230 276 328 397
#     4  10  19  41  66  91 127 174 218 272 327 393
#     4  12  23  40  69  95 129 176 225 272 330 400
#     4  10  22  39  66  94 133 174 218 269 342 398
#
# _framework density 21.134716000000001
#
# number of rings (size 3 to 8) (size 9 to 14) (size 15 to 20)
#    0.000    1.200    4.000    5.400    0.000    0.800 
#    0.000    1.000    0.000    0.000    0.000    0.000 
#    0.000    0.000    0.000    0.000    0.000    0.000 
#
# Total GULP energy -247903.576946 kJ/mol
# GULP energy per Si atom -12395.178847 kJ/mol
# Density = 2.108661 g / cm^3
# Si number density = 21.134716 Si / 1000 Ang^3
#
#
#
# Elastic Constant Matrix: (Units=GPa)
#
#
# Indices 1 2 3 4 5 6 
#
# 1 67.3799 23.9783 21.7537 0.0000 -3.5139 0.0000
# 2 23.9783 157.3108 73.0793 0.0000 -3.0665 0.0000
# 3 21.7537 73.0793 140.0053 0.0000 -20.2524 0.0000
# 4 0.0000 0.0000 0.0000 14.9048 0.0000 -0.9573
# 5 -3.5139 -3.0665 -20.2524 0.0000 24.3085 0.0000
# 6 0.0000 0.0000 0.0000 -0.9573 0.0000 22.1369
#
#
#
# Elastic Compliance Matrix: (Units=1/GPa)
#
#
# Indices 1 2 3 4 5 6 
#
# 1 0.015975 -0.001748 -0.001441 0.000000 0.000888 0.000000
# 2 -0.001748 0.008773 -0.004757 0.000000 -0.003110 0.000000
# 3 -0.001441 -0.004757 0.011066 0.000000 0.008411 0.000000
# 4 0.000000 0.000000 0.000000 0.067279 0.000000 0.002910
# 5 0.000888 -0.003110 0.008411 0.000000 0.047882 0.000000
# 6 0.000000 0.000000 0.000000 0.002910 0.000000 0.045299
#
#
# Mechanical properties :
#
#
# Convention : Reuss Voigt Hill
#
# Bulk Modulus (GPa) = 50.19889 66.92428 58.56158
# Shear Modulus (GPa) = 22.85106 28.66236 25.75671
#
# Velocity S-wave (km/s) = 3.29174 3.68662 3.49476
# Velocity P-wave (km/s) = 6.18473 7.06087 6.63727
#
# Compressibility (1/GPa) = 0.01992076
#
# Stress axis : x y z
#
# Youngs Moduli (GPa) = 62.59801 113.98957 90.36297
#
# Poissons Ratio (x) = 0.19928 0.13023
# Poissons Ratio (y) = 0.10943 0.42989
# Poissons Ratio (z) = 0.09021 0.54229
#
# Static dielectric constant tensor:
#      x y z
#    x 3.596720 0.000000 -0.192710 
#    y 0.000000 4.019760 0.000000 
#    z -0.192710 0.000000 4.508920 
# 
# 
# High freq. dielectric constant tensor:
#      x y z
#    x 1.796350 0.000000 -0.010300 
#    y 0.000000 1.839200 0.000000 
#    z -0.010300 0.000000 1.839960 
# 
# From -- ./inp_files/187791.got.cif
#   From: 2010.06.25/outbox.cif.g09.slc.cpg/sg15_94_cif.got.tgz:187791.got - 2010.06.28 07:06:18.
