data_PCOD8135451
_publ_section_title
;
Structure prediction by ZEFSAII (Michael W. Deem and Ramdas Pophale) SiO2 
 PCOD8135451
Probable space group: C 2/C
;
_chemical_formula_sum "Si O2"
_cell_formula_units_Z 40
_cell_length_a 11.786618
_cell_length_b 9.005349
_cell_length_c 20.393685
_cell_angle_alpha 90.000000
_cell_angle_beta 63.536324
_cell_angle_gamma 90.000000
_cell_volume 1937.821693
_symmetry_space_group_name_H-M "C 2/C"
_symmetry_group_IT_number 15
_symmetry_cell_setting 'monoclinic'
loop_
_space_group_symop_operation_xyz
x,y,z
-x,y,1/2-z
-x,-y,-z
x,-y,1/2+z
1/2+x,1/2+y,z
1/2-x,1/2+y,1/2-z
1/2-x,1/2-y,-z
1/2+x,1/2-y,1/2+z
loop_
_atom_site_type_symbol
_atom_site_label
_atom_site_fract_x
_atom_site_fract_y
_atom_site_fract_z
Si Si1 0.729080 0.209531 0.402112
Si Si2 0.607298 0.032995 0.669615
Si Si3 0.384901 0.441598 0.967906
Si Si4 0.558370 0.030976 0.914881
Si Si5 0.345102 0.650303 0.086975
O O1 0.824336 0.309376 0.334553
O O2 0.643424 0.312130 0.471299
O O3 0.803640 0.084842 0.424397
O O4 0.643485 0.112717 0.374349
O O5 0.500000 0.003009 0.750000
O O6 0.551496 0.046548 0.610603
O O7 0.710888 0.903279 0.650762
O O8 0.534145 0.434463 0.911478
O O9 0.349490 0.602474 0.008368
O O10 0.645117 0.176724 0.899324
O O11 0.500000 0.000000 0.000000
#
# Coordination Sequence:
#
# PCOD8135451 Si02
#       5
#     8   8   8   8   8
#     4  10  19  38  63  88 125 160 199 249 312 361
#     4  11  26  44  59  85 129 172 205 247 304 373
#     4   9  17  36  62  95 123 154 194 260 311 354
#     4  12  22  39  66  97 120 154 208 262 311 362
#     4  10  20  37  63  92 127 155 201 256 308 363
#
# _framework density 20.641734
#
# number of rings (size 3 to 8) (size 9 to 14) (size 15 to 20)
#    0.000    1.600    4.000    2.400    0.000    4.800 
#    0.000    1.000    0.000    0.000    0.000    0.000 
#    0.000    0.000    0.000    0.000    0.000    0.000 
#
# Total GULP energy -247888.644525 kJ/mol
# GULP energy per Si atom -12394.432226 kJ/mol
# Density = 2.059475 g / cm^3
# Si number density = 20.641734 Si / 1000 Ang^3
#
#
#
# Elastic Constant Matrix: (Units=GPa)
#
#
# Indices 1 2 3 4 5 6 
#
# 1 79.2341 47.6667 35.4779 0.0000 -23.1925 0.0000
# 2 47.6667 100.3783 27.2155 0.0000 -19.0907 0.0000
# 3 35.4779 27.2155 109.0942 0.0000 -29.4839 0.0000
# 4 0.0000 0.0000 0.0000 20.9637 0.0000 -14.0689
# 5 -23.1925 -19.0907 -29.4839 0.0000 31.7161 0.0000
# 6 0.0000 0.0000 0.0000 -14.0689 0.0000 39.2004
#
#
#
# Elastic Compliance Matrix: (Units=1/GPa)
#
#
# Indices 1 2 3 4 5 6 
#
# 1 0.020759 -0.007589 -0.002657 0.000000 0.008142 0.000000
# 2 -0.007589 0.014165 -0.000349 0.000000 0.002653 0.000000
# 3 -0.002657 -0.000349 0.012735 0.000000 0.009686 0.000000
# 4 0.000000 0.000000 0.000000 0.062836 0.000000 0.022552
# 5 0.008142 0.002653 0.009686 0.000000 0.048084 0.000000
# 6 0.000000 0.000000 0.000000 0.022552 0.000000 0.033604
#
#
# Mechanical properties :
#
#
# Convention : Reuss Voigt Hill
#
# Bulk Modulus (GPa) = 37.77962 56.60299 47.19131
# Shear Modulus (GPa) = 22.50246 30.26581 26.38414
#
# Velocity S-wave (km/s) = 3.30531 3.83331 3.57906
# Velocity P-wave (km/s) = 5.73664 6.86101 6.32387
#
# Compressibility (1/GPa) = 0.02646929
#
# Stress axis : x y z
#
# Youngs Moduli (GPa) = 48.17084 70.59547 78.52194
#
# Poissons Ratio (x) = 0.53575 0.20866
# Poissons Ratio (y) = 0.36557 0.02740
# Poissons Ratio (z) = 0.12801 0.02463
#
# Static dielectric constant tensor:
#      x y z
#    x 4.162910 0.000000 -0.398800 
#    y 0.000000 4.027850 0.000000 
#    z -0.398800 0.000000 3.311150 
# 
# 
# High freq. dielectric constant tensor:
#      x y z
#    x 1.817110 0.000000 -0.035820 
#    y 0.000000 1.811230 0.000000 
#    z -0.035820 0.000000 1.758160 
# 
# From -- ./inp_files/235881.got.cif
#   From: 2010.06.25/outbox.cif.g09.slc.cpg/sg15_118_cif.got.tgz:235881.got - 2010.06.28 07:06:18.
