data_PCOD8135771
_publ_section_title
;
Structure prediction by ZEFSAII (Michael W. Deem and Ramdas Pophale) SiO2 
 PCOD8135771
Probable space group: C 2/C
;
_chemical_formula_sum "Si O2"
_cell_formula_units_Z 56
_cell_length_a 17.269735
_cell_length_b 17.183029
_cell_length_c 9.312820
_cell_angle_alpha 90.000000
_cell_angle_beta 112.826696
_cell_angle_gamma 90.000000
_cell_volume 2547.111430
_symmetry_space_group_name_H-M "C 2/C"
_symmetry_group_IT_number 15
_symmetry_cell_setting 'monoclinic'
loop_
_space_group_symop_operation_xyz
x,y,z
-x,y,1/2-z
-x,-y,-z
x,-y,1/2+z
1/2+x,1/2+y,z
1/2-x,1/2+y,1/2-z
1/2-x,1/2-y,-z
1/2+x,1/2-y,1/2+z
loop_
_atom_site_type_symbol
_atom_site_label
_atom_site_fract_x
_atom_site_fract_y
_atom_site_fract_z
Si Si1 0.903847 0.599472 0.659424
Si Si2 0.835013 0.567215 0.124392
Si Si3 0.169145 0.854777 0.554221
Si Si4 0.416557 0.330962 0.283083
Si Si5 0.873411 0.683106 0.920418
Si Si6 0.934297 0.331239 0.884929
Si Si7 0.507031 0.581902 0.081623
O O1 0.841696 0.525359 0.610360
O O2 0.873362 0.661503 0.753963
O O3 0.896415 0.648378 0.510613
O O4 0.000000 0.570964 0.750000
O O5 0.751950 0.595080 0.151965
O O6 0.917561 0.595042 0.270704
O O7 0.831635 0.609251 0.968140
O O8 0.150838 0.872211 0.370911
O O9 0.178990 0.761691 0.587119
O O10 0.096983 0.881528 0.611504
O O11 0.500000 0.333741 0.250000
O O12 0.384580 0.242920 0.286128
O O13 0.431622 0.368869 0.451772
O O14 0.968516 0.693408 0.044408
O O15 0.500000 0.577591 0.250000
O O16 0.500000 0.500000 0.000000
#
# Coordination Sequence:
#
# PCOD8135771 Si02
#       7
#     8   8   8   8   8   8   8
#     4  10  24  40  65  99 136 174 231 284 340 405
#     4  12  23  41  61  97 140 178 220 278 347 402
#     4  11  24  42  68  99 136 177 225 281 340 405
#     4  10  19  39  68  98 127 171 222 271 331 400
#     4  11  21  40  68  94 131 181 231 271 334 412
#     4  11  20  38  68  95 131 177 226 278 333 405
#     4  11  24  46  73 100 126 172 230 278 332 398
#
# _framework density 21.985688
#
# number of rings (size 3 to 8) (size 9 to 14) (size 15 to 20)
#    0.000    1.143    4.286    3.857    2.000    2.286 
#   10.286    0.714    0.000    0.000    0.000    0.000 
#    0.000    0.000    0.000    0.000    0.000    0.000 
#
# Total GULP energy -347068.370768 kJ/mol
# GULP energy per Si atom -12395.298956 kJ/mol
# Density = 2.193565 g / cm^3
# Si number density = 21.985688 Si / 1000 Ang^3
#
#
#
# Elastic Constant Matrix: (Units=GPa)
#
#
# Indices 1 2 3 4 5 6 
#
# 1 70.9143 30.7872 32.6889 0.0000 -6.6411 0.0000
# 2 30.7872 80.2492 24.8527 0.0000 2.3267 0.0000
# 3 32.6889 24.8527 101.3102 0.0000 -24.5293 0.0000
# 4 0.0000 0.0000 0.0000 31.1925 0.0000 -4.1964
# 5 -6.6411 2.3267 -24.5293 0.0000 28.3036 0.0000
# 6 0.0000 0.0000 0.0000 -4.1964 0.0000 34.5191
#
#
#
# Elastic Compliance Matrix: (Units=1/GPa)
#
#
# Indices 1 2 3 4 5 6 
#
# 1 0.018762 -0.005888 -0.004336 0.000000 0.001128 0.000000
# 2 -0.005888 0.015924 -0.003364 0.000000 -0.005606 0.000000
# 3 -0.004336 -0.003364 0.015080 0.000000 0.012328 0.000000
# 4 0.000000 0.000000 0.000000 0.032592 0.000000 0.003962
# 5 0.001128 -0.005606 0.012328 0.000000 0.046741 0.000000
# 6 0.000000 0.000000 0.000000 0.003962 0.000000 0.029451
#
#
# Mechanical properties :
#
#
# Convention : Reuss Voigt Hill
#
# Bulk Modulus (GPa) = 44.26681 47.68127 45.97404
# Shear Modulus (GPa) = 25.87228 29.74603 27.80915
#
# Velocity S-wave (km/s) = 3.43414 3.68227 3.56037
# Velocity P-wave (km/s) = 5.99187 6.30978 6.15288
#
# Compressibility (1/GPa) = 0.02259029
#
# Stress axis : x y z
#
# Youngs Moduli (GPa) = 53.29849 62.79689 66.31317
#
# Poissons Ratio (x) = 0.36974 0.28756
# Poissons Ratio (y) = 0.31381 0.22308
# Poissons Ratio (z) = 0.23112 0.21125
#
# Static dielectric constant tensor:
#      x y z
#    x 4.017170 0.000000 0.108090 
#    y 0.000000 4.019170 0.000000 
#    z 0.108090 0.000000 4.395240 
# 
# 
# High freq. dielectric constant tensor:
#      x y z
#    x 1.843930 0.000000 -0.010500 
#    y 0.000000 1.864900 0.000000 
#    z -0.010500 0.000000 1.869040 
# 
# From -- ./inp_files/56727.got.cif
#   From: 2010.06.25/outbox.cif.g09.slc.cpg/sg15_29_cif.got.tgz:56727.got - 2010.06.28 07:06:18.
