data_PCOD8135720
_publ_section_title
;
Structure prediction by ZEFSAII (Michael W. Deem and Ramdas Pophale) SiO2 
 PCOD8135720
Probable space group: C 2/C
;
_chemical_formula_sum "Si O2"
_cell_formula_units_Z 56
_cell_length_a 15.253818
_cell_length_b 9.569903
_cell_length_c 25.093284
_cell_angle_alpha 90.000000
_cell_angle_beta 130.095541
_cell_angle_gamma 90.000000
_cell_volume 2802.133799
_symmetry_space_group_name_H-M "C 2/C"
_symmetry_group_IT_number 15
_symmetry_cell_setting 'monoclinic'
loop_
_space_group_symop_operation_xyz
x,y,z
-x,y,1/2-z
-x,-y,-z
x,-y,1/2+z
1/2+x,1/2+y,z
1/2-x,1/2+y,1/2-z
1/2-x,1/2-y,-z
1/2+x,1/2-y,1/2+z
loop_
_atom_site_type_symbol
_atom_site_label
_atom_site_fract_x
_atom_site_fract_y
_atom_site_fract_z
Si Si1 0.785293 0.206901 0.643194
Si Si2 0.639740 0.098119 0.186920
Si Si3 0.547560 0.479111 0.827868
Si Si4 0.446242 0.096127 0.934682
Si Si5 0.428845 0.031199 0.171380
Si Si6 0.870889 0.283622 0.074296
Si Si7 0.674336 0.608829 0.722531
O O1 0.648660 0.201067 0.577248
O O2 0.830353 0.361165 0.648845
O O3 0.808686 0.179738 0.713755
O O4 0.850675 0.091563 0.633586
O O5 0.682843 0.254319 0.187634
O O6 0.626912 0.012909 0.128100
O O7 0.520575 0.112870 0.171107
O O8 0.732350 0.007799 0.257458
O O9 0.500000 0.444687 0.750000
O O10 0.592320 0.342250 0.873970
O O11 0.448831 0.536828 0.827774
O O12 0.537695 0.184524 0.936612
O O13 0.500000 0.000000 0.000000
O O14 0.500000 0.970940 0.250000
O O15 0.364486 0.913501 0.112155
O O16 0.750000 0.250000 0.000000
#
# Coordination Sequence:
#
# PCOD8135720 Si02
#       7
#     8   8   8   8   8   8   8
#     4  10  19  39  65  88 121 157 201 252 305 368
#     4  10  21  36  61  91 120 159 198 256 306 365
#     4  10  20  38  64  90 122 159 199 251 312 362
#     4  10  23  43  62  83 124 168 204 247 308 369
#     4  11  20  39  65  93 120 156 209 259 308 366
#     4  11  25  42  59  89 126 160 205 256 307 371
#     4  10  20  35  59  93 126 152 199 254 308 362
#
# _framework density 19.984770999999999
#
# number of rings (size 3 to 8) (size 9 to 14) (size 15 to 20)
#    0.000    1.714    2.857    1.714    6.000    0.000 
#    7.714    2.857    0.000    0.000    0.000    0.000 
#    0.000    0.000    0.000    0.000    0.000    0.000 
#
# Total GULP energy -347068.436417 kJ/mol
# GULP energy per Si atom -12395.301301 kJ/mol
# Density = 1.993928 g / cm^3
# Si number density = 19.984771 Si / 1000 Ang^3
#
#
#
# Elastic Constant Matrix: (Units=GPa)
#
#
# Indices 1 2 3 4 5 6 
#
# 1 85.5291 46.5343 47.4548 0.0000 24.8418 0.0000
# 2 46.5343 126.0040 60.2998 0.0000 20.0216 0.0000
# 3 47.4548 60.2998 104.8862 0.0000 22.7352 0.0000
# 4 0.0000 0.0000 0.0000 32.8583 0.0000 5.1790
# 5 24.8418 20.0216 22.7352 0.0000 30.6031 0.0000
# 6 0.0000 0.0000 0.0000 5.1790 0.0000 33.7927
#
#
#
# Elastic Compliance Matrix: (Units=1/GPa)
#
#
# Indices 1 2 3 4 5 6 
#
# 1 0.018802 -0.003218 -0.004535 0.000000 -0.009788 0.000000
# 2 -0.003218 0.011730 -0.004995 0.000000 -0.001351 0.000000
# 3 -0.004535 -0.004995 0.015437 0.000000 -0.004519 0.000000
# 4 0.000000 0.000000 0.000000 0.031187 0.000000 -0.004780
# 5 -0.009788 -0.001351 -0.004519 0.000000 0.044863 0.000000
# 6 0.000000 0.000000 0.000000 -0.004780 0.000000 0.030325
#
#
# Mechanical properties :
#
#
# Convention : Reuss Voigt Hill
#
# Bulk Modulus (GPa) = 48.84475 69.44412 59.14444
# Shear Modulus (GPa) = 27.07637 30.25953 28.66795
#
# Velocity S-wave (km/s) = 3.68482 3.89540 3.79157
# Velocity P-wave (km/s) = 6.52671 7.41998 6.98764
#
# Compressibility (1/GPa) = 0.02047303
#
# Stress axis : x y z
#
# Youngs Moduli (GPa) = 53.18619 85.25442 64.77964
#
# Poissons Ratio (x) = 0.27437 0.29377
# Poissons Ratio (y) = 0.17116 0.32354
# Poissons Ratio (z) = 0.24120 0.42580
#
# Static dielectric constant tensor:
#      x y z
#    x 4.133170 0.000000 0.661530 
#    y 0.000000 3.989360 0.000000 
#    z 0.661530 0.000000 4.184100 
# 
# 
# High freq. dielectric constant tensor:
#      x y z
#    x 1.781730 0.000000 0.017300 
#    y 0.000000 1.788320 0.000000 
#    z 0.017300 0.000000 1.759630 
# 
# From -- ./inp_files/312940.got.cif
#   From: 2010.06.25/outbox.cif.g09.slc.cpg/sg15_157_cif.got.tgz:312940.got - 2010.06.28 07:06:18.
