data_PCOD8135024
_publ_section_title
;
Structure prediction by ZEFSAII (Michael W. Deem and Ramdas Pophale) SiO2 
 PCOD8135024
Probable space group: C 2/C
;
_chemical_formula_sum "Si O2"
_cell_formula_units_Z 52
_cell_length_a 16.203098
_cell_length_b 8.277291
_cell_length_c 20.075133
_cell_angle_alpha 90.000000
_cell_angle_beta 74.601496
_cell_angle_gamma 90.000000
_cell_volume 2595.779806
_symmetry_space_group_name_H-M "C 2/C"
_symmetry_group_IT_number 15
_symmetry_cell_setting 'monoclinic'
loop_
_space_group_symop_operation_xyz
x,y,z
-x,y,1/2-z
-x,-y,-z
x,-y,1/2+z
1/2+x,1/2+y,z
1/2-x,1/2+y,1/2-z
1/2-x,1/2-y,-z
1/2+x,1/2-y,1/2+z
loop_
_atom_site_type_symbol
_atom_site_label
_atom_site_fract_x
_atom_site_fract_y
_atom_site_fract_z
Si Si1 0.996084 0.179996 0.828820
Si Si2 0.177983 0.640482 0.135029
Si Si3 0.871023 0.568770 0.209766
Si Si4 0.412537 0.368234 0.873712
Si Si5 0.500000 0.160741 0.750000
Si Si6 0.268596 0.961784 0.106469
Si Si7 0.174345 0.372203 0.028773
O O1 0.917004 0.297532 0.862138
O O2 0.000000 0.138819 0.750000
O O3 0.085440 0.266622 0.829138
O O4 0.982661 0.010161 0.871351
O O5 0.184211 0.600859 0.212109
O O6 0.250732 0.771577 0.101934
O O7 0.197027 0.482003 0.087751
O O8 0.949230 0.449043 0.208475
O O9 0.808146 0.493127 0.169832
O O10 0.432820 0.270366 0.802907
O O11 0.320147 0.444488 0.880363
O O12 0.408501 0.241080 0.936616
O O13 0.336343 0.016905 0.034707
O O14 0.250000 0.250000 0.000000
#
# Coordination Sequence:
#
# PCOD8135024 Si02
#       7
#     8   8   8   8   4   8   8
#     4   9  17  35  58  85 113 155 193 240 299 362
#     4  10  19  37  60  81 119 161 194 237 302 352
#     4  11  21  37  59  91 118 153 200 251 295 352
#     4  10  20  37  60  84 114 158 198 242 300 360
#     4  12  20  36  58  84 120 152 190 242 310 350
#     4  10  24  36  59  90 119 152 204 247 289 357
#     4  10  20  38  58  85 119 158 194 242 301 362
#
# _framework density 20.032516000000001
#
# number of rings (size 3 to 8) (size 9 to 14) (size 15 to 20)
#    0.000    1.846    4.615    0.462    2.154    0.000 
#    0.000    6.923    0.000    0.000    0.000    0.000 
#    0.000    0.000    0.000    0.000    0.000    0.000 
#
# Total GULP energy -322248.614571 kJ/mol
# GULP energy per Si atom -12394.177483 kJ/mol
# Density = 1.998692 g / cm^3
# Si number density = 20.032516 Si / 1000 Ang^3
#
#
#
# Elastic Constant Matrix: (Units=GPa)
#
#
# Indices 1 2 3 4 5 6 
#
# 1 34.9549 28.7925 21.9186 0.0000 -0.1375 0.0000
# 2 28.7925 137.0673 62.5962 0.0000 -14.0368 0.0000
# 3 21.9186 62.5962 107.4718 0.0000 -12.7175 0.0000
# 4 0.0000 0.0000 0.0000 38.9579 0.0000 -14.1359
# 5 -0.1375 -14.0368 -12.7175 0.0000 24.5122 0.0000
# 6 0.0000 0.0000 0.0000 -14.1359 0.0000 24.2499
#
#
#
# Elastic Compliance Matrix: (Units=1/GPa)
#
#
# Indices 1 2 3 4 5 6 
#
# 1 0.036516 -0.006191 -0.004514 0.000000 -0.005682 0.000000
# 2 -0.006191 0.011182 -0.004790 0.000000 0.003883 0.000000
# 3 -0.004514 -0.004790 0.013518 0.000000 0.004245 0.000000
# 4 0.000000 0.000000 0.000000 0.032555 0.000000 0.018977
# 5 -0.005682 0.003883 0.004245 0.000000 0.045190 0.000000
# 6 0.000000 0.000000 0.000000 0.018977 0.000000 0.052299
#
#
# Mechanical properties :
#
#
# Convention : Reuss Voigt Hill
#
# Bulk Modulus (GPa) = 33.08560 56.23426 44.65993
# Shear Modulus (GPa) = 21.52159 28.62311 25.07235
#
# Velocity S-wave (km/s) = 3.28126 3.78409 3.54161
# Velocity P-wave (km/s) = 5.55944 6.87204 6.25029
#
# Compressibility (1/GPa) = 0.03022463
#
# Stress axis : x y z
#
# Youngs Moduli (GPa) = 27.38526 89.43281 73.97650
#
# Poissons Ratio (x) = 0.55369 0.33391
# Poissons Ratio (y) = 0.16955 0.35438
# Poissons Ratio (z) = 0.12361 0.42843
#
# Static dielectric constant tensor:
#      x y z
#    x 3.309350 0.000000 -0.485870 
#    y 0.000000 4.131990 0.000000 
#    z -0.485870 0.000000 4.008890 
# 
# 
# High freq. dielectric constant tensor:
#      x y z
#    x 1.733080 0.000000 -0.034590 
#    y 0.000000 1.806560 0.000000 
#    z -0.034590 0.000000 1.780530 
# 
# From -- ./inp_files/209030.got.cif
#   From: 2010.06.25/outbox.cif.g09.slc.cpg/sg15_105_cif.got.tgz:209030.got - 2010.06.28 07:06:18.
