data_PCOD8135464
_publ_section_title
;
Structure prediction by ZEFSAII (Michael W. Deem and Ramdas Pophale) SiO2 
 PCOD8135464
Probable space group: C 2/C
;
_chemical_formula_sum "Si O2"
_cell_formula_units_Z 56
_cell_length_a 17.047299
_cell_length_b 9.737909
_cell_length_c 19.039670
_cell_angle_alpha 90.000000
_cell_angle_beta 59.984470
_cell_angle_gamma 90.000000
_cell_volume 2736.801849
_symmetry_space_group_name_H-M "C 2/C"
_symmetry_group_IT_number 15
_symmetry_cell_setting 'monoclinic'
loop_
_space_group_symop_operation_xyz
x,y,z
-x,y,1/2-z
-x,-y,-z
x,-y,1/2+z
1/2+x,1/2+y,z
1/2-x,1/2+y,1/2-z
1/2-x,1/2-y,-z
1/2+x,1/2-y,1/2+z
loop_
_atom_site_type_symbol
_atom_site_label
_atom_site_fract_x
_atom_site_fract_y
_atom_site_fract_z
Si Si1 0.143556 0.062208 0.151615
Si Si2 0.948431 0.801260 0.537818
Si Si3 0.110067 0.393271 0.317034
Si Si4 0.000000 0.839387 0.250000
Si Si5 0.054135 0.694620 0.364879
Si Si6 0.766761 0.224530 0.655334
Si Si7 0.500000 0.783001 0.250000
Si Si8 0.131688 0.059334 0.996563
O O1 0.233519 0.116769 0.153393
O O2 0.082818 0.195784 0.184966
O O3 0.162388 0.026643 0.062225
O O4 0.091391 0.932354 0.209033
O O5 0.890685 0.709458 0.616874
O O6 0.978976 0.706536 0.459095
O O7 0.034807 0.863454 0.540105
O O8 0.880473 0.918227 0.540839
O O9 0.101090 0.547528 0.346068
O O10 0.199686 0.365026 0.232408
O O11 0.024005 0.375583 0.305427
O O12 0.993202 0.740852 0.185958
O O13 0.138970 0.790720 0.345058
O O14 0.786127 0.147782 0.572788
#
# Coordination Sequence:
#
# PCOD8135464 Si02
#       8
#     8   8   8   4   8   8   4   8
#     4  10  19  38  64  92 124 164 209 269 309 394
#     4  10  21  37  65  89 123 171 219 262 314 389
#     4  11  22  39  61  87 131 162 217 266 321 382
#     4  11  23  40  70  90 133 165 230 256 328 383
#     4  11  24  41  60  95 123 176 210 271 317 392
#     4  10  25  35  64  95 128 163 209 270 335 371
#     4   9  19  34  60  90 109 171 210 250 310 371
#     4  10  19  38  63  93 125 163 217 263 319 390
#
# _framework density 20.461838
#
# number of rings (size 3 to 8) (size 9 to 14) (size 15 to 20)
#    0.000    1.714    2.857    1.286    4.000    0.000 
#    0.000    0.000    0.000    2.571    0.000    0.000 
#    0.000    0.000    0.000    0.000    0.000    0.000 
#
# Total GULP energy -347070.295218 kJ/mol
# GULP energy per Si atom -12395.367686 kJ/mol
# Density = 2.041527 g / cm^3
# Si number density = 20.461838 Si / 1000 Ang^3
#
#
#
# Elastic Constant Matrix: (Units=GPa)
#
#
# Indices 1 2 3 4 5 6 
#
# 1 58.6636 3.0348 22.9420 0.0000 6.2132 0.0000
# 2 3.0348 82.3486 31.1720 0.0000 -2.9024 0.0000
# 3 22.9420 31.1720 90.1347 0.0000 4.7090 0.0000
# 4 0.0000 0.0000 0.0000 21.6151 0.0000 5.9814
# 5 6.2132 -2.9024 4.7090 0.0000 30.9210 0.0000
# 6 0.0000 0.0000 0.0000 5.9814 0.0000 21.9028
#
#
#
# Elastic Compliance Matrix: (Units=1/GPa)
#
#
# Indices 1 2 3 4 5 6 
#
# 1 0.019320 0.001133 -0.005153 0.000000 -0.002991 0.000000
# 2 0.001133 0.014171 -0.005289 0.000000 0.001908 0.000000
# 3 -0.005153 -0.005289 0.014321 0.000000 -0.001642 0.000000
# 4 0.000000 0.000000 0.000000 0.050046 0.000000 -0.013667
# 5 -0.002991 0.001908 -0.001642 0.000000 0.033371 0.000000
# 6 0.000000 0.000000 0.000000 -0.013667 0.000000 0.049389
#
#
# Mechanical properties :
#
#
# Convention : Reuss Voigt Hill
#
# Bulk Modulus (GPa) = 34.25352 38.38272 36.31812
# Shear Modulus (GPa) = 23.92734 26.48766 25.20750
#
# Velocity S-wave (km/s) = 3.42331 3.60181 3.51369
# Velocity P-wave (km/s) = 5.69227 6.00802 5.85227
#
# Compressibility (1/GPa) = 0.02919408
#
# Stress axis : x y z
#
# Youngs Moduli (GPa) = 51.76054 70.56628 69.82729
#
# Poissons Ratio (x) = -0.07997 0.35983
# Poissons Ratio (y) = -0.05866 0.36932
# Poissons Ratio (z) = 0.26673 0.37323
#
# Static dielectric constant tensor:
#      x y z
#    x 3.952710 0.000000 0.052640 
#    y 0.000000 3.571020 0.000000 
#    z 0.052640 0.000000 3.714400 
# 
# 
# High freq. dielectric constant tensor:
#      x y z
#    x 1.789770 0.000000 0.009350 
#    y 0.000000 1.789650 0.000000 
#    z 0.009350 0.000000 1.809850 
# 
# From -- ./inp_files/209662.got.cif
#   From: 2010.06.25/outbox.cif.g09.slc.cpg/sg15_105_cif.got.tgz:209662.got - 2010.06.28 07:06:18.
