data_PCOD8135793
_publ_section_title
;
Structure prediction by ZEFSAII (Michael W. Deem and Ramdas Pophale) SiO2 
 PCOD8135793
Probable space group: C 2/C
;
_chemical_formula_sum "Si O2"
_cell_formula_units_Z 48
_cell_length_a 29.011549
_cell_length_b 14.172286
_cell_length_c 13.900443
_cell_angle_alpha 90.000000
_cell_angle_beta 154.646966
_cell_angle_gamma 90.000000
_cell_volume 2447.262563
_symmetry_space_group_name_H-M "C 2/C"
_symmetry_group_IT_number 15
_symmetry_cell_setting 'monoclinic'
loop_
_space_group_symop_operation_xyz
x,y,z
-x,y,1/2-z
-x,-y,-z
x,-y,1/2+z
1/2+x,1/2+y,z
1/2-x,1/2+y,1/2-z
1/2-x,1/2-y,-z
1/2+x,1/2-y,1/2+z
loop_
_atom_site_type_symbol
_atom_site_label
_atom_site_fract_x
_atom_site_fract_y
_atom_site_fract_z
Si Si1 0.892825 0.334244 0.105701
Si Si2 0.109823 0.987305 0.263527
Si Si3 0.984649 0.841881 0.117427
Si Si4 0.706595 0.519653 0.254201
Si Si5 0.141727 0.297186 0.253433
Si Si6 0.300546 0.372551 0.419992
O O1 0.919122 0.341982 0.269907
O O2 0.000000 0.357806 0.250000
O O3 0.805611 0.412971 0.914399
O O4 0.848453 0.231335 0.992293
O O5 0.099297 0.885660 0.297267
O O6 0.206907 0.992536 0.368826
O O7 0.119575 0.069953 0.360177
O O8 0.000000 0.000000 0.000000
O O9 0.000000 0.790091 0.250000
O O10 0.902866 0.928049 0.981761
O O11 0.938958 0.775425 0.948418
O O12 0.715510 0.422824 0.212085
O O13 0.250000 0.250000 0.500000
O O14 0.182755 0.369619 0.249367
#
# Coordination Sequence:
#
# PCOD8135793 Si02
#       6
#     8   8   8   8   8   8
#     4  11  23  38  63  90 119 160 209 243 288 366
#     4  10  20  31  57  94 120 149 191 252 307 349
#     4  11  20  34  59  93 129 150 190 254 315 349
#     4  11  21  38  57  90 127 153 196 252 298 350
#     4  10  19  40  60  88 125 161 195 248 303 360
#     4  11  21  36  64  86 119 161 197 247 303 353
#
# _framework density 19.613752000000002
#
# number of rings (size 3 to 8) (size 9 to 14) (size 15 to 20)
#    0.000    1.333    6.667    3.000    7.000    0.000 
#    0.000    1.667    3.667    3.000    0.000    0.000 
#    0.000    0.000    0.000    0.000    0.000    0.000 
#
# Total GULP energy -297431.620363 kJ/mol
# GULP energy per Si atom -12392.984182 kJ/mol
# Density = 1.956911 g / cm^3
# Si number density = 19.613752 Si / 1000 Ang^3
#
#
#
# Elastic Constant Matrix: (Units=GPa)
#
#
# Indices 1 2 3 4 5 6 
#
# 1 124.1451 26.3031 38.9299 0.0000 11.1539 0.0000
# 2 26.3031 70.5350 36.9015 0.0000 6.0822 0.0000
# 3 38.9299 36.9015 52.1892 0.0000 4.4262 0.0000
# 4 0.0000 0.0000 0.0000 28.8923 0.0000 4.1889
# 5 11.1539 6.0822 4.4262 0.0000 32.6291 0.0000
# 6 0.0000 0.0000 0.0000 4.1889 0.0000 23.1604
#
#
#
# Elastic Compliance Matrix: (Units=1/GPa)
#
#
# Indices 1 2 3 4 5 6 
#
# 1 0.010740 0.000472 -0.008120 0.000000 -0.002658 0.000000
# 2 0.000472 0.022659 -0.016188 0.000000 -0.002189 0.000000
# 3 -0.008120 -0.016188 0.036594 0.000000 0.000829 0.000000
# 4 0.000000 0.000000 0.000000 0.035543 0.000000 -0.006428
# 5 -0.002658 -0.002189 0.000829 0.000000 0.031852 0.000000
# 6 0.000000 0.000000 0.000000 -0.006428 0.000000 0.044340
#
#
# Mechanical properties :
#
#
# Convention : Reuss Voigt Hill
#
# Bulk Modulus (GPa) = 44.80022 50.12648 47.46335
# Shear Modulus (GPa) = 21.11127 26.58534 23.84831
#
# Velocity S-wave (km/s) = 3.28434 3.68563 3.49075
# Velocity P-wave (km/s) = 6.10519 6.61242 6.36386
#
# Compressibility (1/GPa) = 0.02232132
#
# Stress axis : x y z
#
# Youngs Moduli (GPa) = 93.10874 44.13224 27.32698
#
# Poissons Ratio (x) = -0.02084 0.22189
# Poissons Ratio (y) = -0.04396 0.44237
# Poissons Ratio (z) = 0.75603 0.71442
#
# Static dielectric constant tensor:
#      x y z
#    x 4.845140 0.000000 -0.066190 
#    y 0.000000 3.488960 0.000000 
#    z -0.066190 0.000000 3.240350 
# 
# 
# High freq. dielectric constant tensor:
#      x y z
#    x 1.788740 0.000000 -0.011410 
#    y 0.000000 1.739720 0.000000 
#    z -0.011410 0.000000 1.727770 
# 
# From -- ./inp_files/181811.got.cif
#   From: 2010.06.25/outbox.cif.g09.slc.cpg/sg15_91_cif.got.tgz:181811.got - 2010.06.28 07:06:18.
