data_PCOD8135197
_publ_section_title
;
Structure prediction by ZEFSAII (Michael W. Deem and Ramdas Pophale) SiO2 
 PCOD8135197
Probable space group: C 2/C
;
_chemical_formula_sum "Si O2"
_cell_formula_units_Z 64
_cell_length_a 11.857399
_cell_length_b 13.701615
_cell_length_c 20.330495
_cell_angle_alpha 90.000000
_cell_angle_beta 63.777313
_cell_angle_gamma 90.000000
_cell_volume 2963.070644
_symmetry_space_group_name_H-M "C 2/C"
_symmetry_group_IT_number 15
_symmetry_cell_setting 'monoclinic'
loop_
_space_group_symop_operation_xyz
x,y,z
-x,y,1/2-z
-x,-y,-z
x,-y,1/2+z
1/2+x,1/2+y,z
1/2-x,1/2+y,1/2-z
1/2-x,1/2-y,-z
1/2+x,1/2-y,1/2+z
loop_
_atom_site_type_symbol
_atom_site_label
_atom_site_fract_x
_atom_site_fract_y
_atom_site_fract_z
Si Si1 0.700288 0.893769 0.848641
Si Si2 0.607369 0.733206 0.274821
Si Si3 0.877553 0.458839 0.237973
Si Si4 0.082753 0.021611 0.669842
Si Si5 0.905085 0.239467 0.829480
Si Si6 0.531959 0.737226 0.937785
Si Si7 0.636582 0.670576 0.407616
Si Si8 0.123606 0.036559 0.884839
O O1 0.762938 0.812524 0.785008
O O2 0.619902 0.969607 0.825510
O O3 0.797991 0.951599 0.869512
O O4 0.613819 0.835495 0.923009
O O5 0.500000 0.712345 0.250000
O O6 0.569619 0.682872 0.353741
O O7 0.622510 0.847372 0.285827
O O8 0.748451 0.475737 0.309826
O O9 0.000000 0.482276 0.250000
O O10 0.000000 0.975687 0.750000
O O11 0.003168 0.029751 0.624713
O O12 0.131398 0.128473 0.680037
O O13 0.782185 0.304939 0.862082
O O14 0.000000 0.282369 0.750000
O O15 0.969070 0.241698 0.883309
O O16 0.619865 0.640263 0.923481
O O17 0.427173 0.739305 0.021581
O O18 0.622501 0.557039 0.434037
#
# Coordination Sequence:
#
# PCOD8135197 Si02
#       8
#     8   8   8   8   8   8   8   8
#     4  12  21  39  66  93 125 165 222 268 317 384
#     4  11  23  41  66  93 125 166 220 270 316 384
#     4  11  24  39  63 100 127 160 220 282 321 369
#     4  10  19  37  64  94 120 162 217 272 313 373
#     4  10  23  40  68  96 125 170 227 270 312 385
#     4  11  26  41  61  98 138 170 212 270 332 397
#     4  12  23  41  68  95 135 174 212 266 341 386
#     4  11  22  41  64  91 131 171 221 267 322 390
#
# _framework density 21.599215000000001
#
# number of rings (size 3 to 8) (size 9 to 14) (size 15 to 20)
#    0.000    1.000    3.750    3.375    3.500    0.000 
#    0.000    5.000    5.500    0.000    0.000    0.000 
#    0.000    0.000    0.000    0.000    0.000    0.000 
#
# Total GULP energy -396855.472166 kJ/mol
# GULP energy per Si atom -12401.733505 kJ/mol
# Density = 2.155005 g / cm^3
# Si number density = 21.599215 Si / 1000 Ang^3
#
#
#
# Elastic Constant Matrix: (Units=GPa)
#
#
# Indices 1 2 3 4 5 6 
#
# 1 114.5890 48.4341 25.0110 0.0000 -7.3347 0.0000
# 2 48.4341 120.4662 2.8980 0.0000 -10.3953 0.0000
# 3 25.0110 2.8980 76.0822 0.0000 -7.3461 0.0000
# 4 0.0000 0.0000 0.0000 26.8712 0.0000 -4.4306
# 5 -7.3347 -10.3953 -7.3461 0.0000 20.9565 0.0000
# 6 0.0000 0.0000 0.0000 -4.4306 0.0000 40.1226
#
#
#
# Elastic Compliance Matrix: (Units=1/GPa)
#
#
# Indices 1 2 3 4 5 6 
#
# 1 0.011417 -0.004458 -0.003530 0.000000 0.000547 0.000000
# 2 -0.004458 0.010414 0.001467 0.000000 0.004119 0.000000
# 3 -0.003530 0.001467 0.014697 0.000000 0.004644 0.000000
# 4 0.000000 0.000000 0.000000 0.037905 0.000000 0.004186
# 5 0.000547 0.004119 0.004644 0.000000 0.051580 0.000000
# 6 0.000000 0.000000 0.000000 0.004186 0.000000 0.025386
#
#
# Mechanical properties :
#
#
# Convention : Reuss Voigt Hill
#
# Bulk Modulus (GPa) = 42.58335 51.53594 47.05964
# Shear Modulus (GPa) = 29.02425 33.24303 31.13364
#
# Velocity S-wave (km/s) = 3.66972 3.92737 3.80073
# Velocity P-wave (km/s) = 6.14115 6.66915 6.41059
#
# Compressibility (1/GPa) = 0.02348336
#
# Stress axis : x y z
#
# Youngs Moduli (GPa) = 87.59069 96.02776 68.04209
#
# Poissons Ratio (x) = 0.42810 0.24022
# Poissons Ratio (y) = 0.39048 -0.09979
# Poissons Ratio (z) = 0.30924 -0.14084
#
# Static dielectric constant tensor:
#      x y z
#    x 3.881430 0.000000 -0.053610 
#    y 0.000000 4.425010 0.000000 
#    z -0.053610 0.000000 3.543680 
# 
# 
# High freq. dielectric constant tensor:
#      x y z
#    x 1.846680 0.000000 -0.003290 
#    y 0.000000 1.875080 0.000000 
#    z -0.003290 0.000000 1.813260 
# 
# From -- ./inp_files/238740.got.cif
#   From: 2010.06.25/outbox.cif.g09.slc.cpg/sg15_120_cif.got.tgz:238740.got - 2010.06.28 07:06:18.
