data_PCOD8135953
_publ_section_title
;
Structure prediction by ZEFSAII (Michael W. Deem and Ramdas Pophale) SiO2 
 PCOD8135953
Probable space group: C 2/C
;
_chemical_formula_sum "Si O2"
_cell_formula_units_Z 44
_cell_length_a 19.024235
_cell_length_b 7.049959
_cell_length_c 17.736334
_cell_angle_alpha 90.000000
_cell_angle_beta 69.019030
_cell_angle_gamma 90.000000
_cell_volume 2221.082716
_symmetry_space_group_name_H-M "C 2/C"
_symmetry_group_IT_number 15
_symmetry_cell_setting 'monoclinic'
loop_
_space_group_symop_operation_xyz
x,y,z
-x,y,1/2-z
-x,-y,-z
x,-y,1/2+z
1/2+x,1/2+y,z
1/2-x,1/2+y,1/2-z
1/2-x,1/2-y,-z
1/2+x,1/2-y,1/2+z
loop_
_atom_site_type_symbol
_atom_site_label
_atom_site_fract_x
_atom_site_fract_y
_atom_site_fract_z
Si Si1 0.180304 0.943464 0.603203
Si Si2 0.433731 0.386492 0.725981
Si Si3 0.500000 0.968605 0.250000
Si Si4 0.542470 0.378168 0.422159
Si Si5 0.094413 0.685219 0.103595
Si Si6 0.651458 0.153715 0.483272
O O1 0.141652 0.880037 0.695517
O O2 0.267844 0.901784 0.581448
O O3 0.151125 0.821395 0.544192
O O4 0.160949 0.163384 0.592947
O O5 0.500000 0.493740 0.750000
O O6 0.415090 0.483277 0.653276
O O7 0.463977 0.171030 0.699458
O O8 0.570351 0.087707 0.191295
O O9 0.500000 0.500000 0.500000
O O10 0.481622 0.271307 0.397364
O O11 0.600399 0.226825 0.434174
O O12 0.121346 0.536596 0.031664
#
# Coordination Sequence:
#
# PCOD8135953 Si02
#       6
#     8   8   4   8   8   8
#     4  11  22  43  66  89 133 172 211 267 327 399
#     4  10  19  41  66  90 125 170 217 269 325 386
#     4  10  20  36  66 102 112 164 236 266 306 396
#     4  12  22  40  64  95 131 166 215 278 321 377
#     4  12  20  39  67  93 123 170 221 264 321 388
#     4  11  24  40  63 100 127 169 215 266 332 391
#
# _framework density 19.810158000000001
#
# number of rings (size 3 to 8) (size 9 to 14) (size 15 to 20)
#    0.545    0.364    5.455    3.273    0.000    0.000 
#    0.000    3.636    0.000    0.000    0.000    0.000 
#    0.000    0.000    0.000    0.000    0.000    0.000 
#
# Total GULP energy -272700.022800 kJ/mol
# GULP energy per Si atom -12395.455582 kJ/mol
# Density = 1.976507 g / cm^3
# Si number density = 19.810158 Si / 1000 Ang^3
#
#
#
# Elastic Constant Matrix: (Units=GPa)
#
#
# Indices 1 2 3 4 5 6 
#
# 1 78.9975 34.2699 36.6778 0.0015 -9.1189 -0.0014
# 2 34.2699 117.9497 40.3463 -0.0085 -8.2128 -0.0072
# 3 36.6778 40.3463 118.3987 0.0020 -26.1486 0.0001
# 4 0.0015 -0.0085 0.0020 150.9616 0.0019 32.3408
# 5 -9.1189 -8.2128 -26.1486 0.0019 27.5429 -0.0004
# 6 -0.0014 -0.0072 0.0001 32.3408 -0.0004 39.9611
#
#
#
# Elastic Compliance Matrix: (Units=1/GPa)
#
#
# Indices 1 2 3 4 5 6 
#
# 1 0.015867 -0.003321 -0.003596 0.000000 0.000849 0.000000
# 2 -0.003321 0.010294 -0.002586 0.000000 -0.000485 0.000001
# 3 -0.003596 -0.002586 0.012663 0.000000 0.010060 0.000000
# 4 0.000000 0.000000 0.000000 0.008014 -0.000001 -0.006485
# 5 0.000849 -0.000485 0.010060 -0.000001 0.045994 0.000001
# 6 0.000000 0.000001 0.000000 -0.006485 0.000001 0.030273
#
#
# Mechanical properties :
#
#
# Convention : Reuss Voigt Hill
#
# Bulk Modulus (GPa) = 50.46054 59.77043 55.11548
# Shear Modulus (GPa) = 33.62079 57.29658 45.45869
#
# Velocity S-wave (km/s) = 4.12412 5.38383 4.79552
# Velocity P-wave (km/s) = 6.94299 8.29967 7.65146
#
# Compressibility (1/GPa) = 0.01981747
#
# Stress axis : x y z
#
# Youngs Moduli (GPa) = 63.02431 97.14467 78.96877
#
# Poissons Ratio (x) = 0.32260 0.28399
# Poissons Ratio (y) = 0.20929 0.20423
# Poissons Ratio (z) = 0.22665 0.25124
#
# Static dielectric constant tensor:
#      x y z
#    x 3.466000 0.000000 -0.115420 
#    y 0.000000 3.773850 0.000000 
#    z -0.115420 0.000000 3.699440 
# 
# 
# High freq. dielectric constant tensor:
#      x y z
#    x 1.747940 0.000000 -0.017910 
#    y 0.000000 1.788640 0.000000 
#    z -0.017910 0.000000 1.777560 
# 
# From -- ./inp_files/212830.got.cif
#   From: 2010.06.25/outbox.cif.g09.slc.cpg/sg15_107_cif.got.tgz:212830.got - 2010.06.28 07:06:18.
