data_PCOD8135991
_publ_section_title
;
Structure prediction by ZEFSAII (Michael W. Deem and Ramdas Pophale) SiO2 
 PCOD8135991
Probable space group: C 2/C
;
_chemical_formula_sum "Si O2"
_cell_formula_units_Z 44
_cell_length_a 7.061855
_cell_length_b 12.563294
_cell_length_c 20.818846
_cell_angle_alpha 90.000000
_cell_angle_beta 88.690324
_cell_angle_gamma 90.000000
_cell_volume 1846.568843
_symmetry_space_group_name_H-M "C 2/C"
_symmetry_group_IT_number 15
_symmetry_cell_setting 'monoclinic'
loop_
_space_group_symop_operation_xyz
x,y,z
-x,y,1/2-z
-x,-y,-z
x,-y,1/2+z
1/2+x,1/2+y,z
1/2-x,1/2+y,1/2-z
1/2-x,1/2-y,-z
1/2+x,1/2-y,1/2+z
loop_
_atom_site_type_symbol
_atom_site_label
_atom_site_fract_x
_atom_site_fract_y
_atom_site_fract_z
Si Si1 0.037465 0.080872 0.145025
Si Si2 0.125992 0.520442 0.095736
Si Si3 0.653505 0.591127 0.005671
Si Si4 0.210423 0.396411 0.335323
Si Si5 0.898321 0.752299 0.442073
Si Si6 0.500000 0.245315 0.750000
O O1 0.824147 0.044603 0.130645
O O2 0.054445 0.185152 0.188199
O O3 0.136696 0.985900 0.183284
O O4 0.166504 0.109658 0.081826
O O5 0.156435 0.454174 0.028983
O O6 0.037395 0.635368 0.080501
O O7 0.985785 0.451050 0.140196
O O8 0.591429 0.695963 0.966964
O O9 0.500000 0.500000 0.000000
O O10 0.299724 0.318621 0.387044
O O11 0.173550 0.330026 0.270646
O O12 0.750000 0.750000 0.500000
#
# Coordination Sequence:
#
# PCOD8135991 Si02
#       6
#     8   8   8   8   8   4
#     4  11  24  49  70 100 146 179 230 296 341 410
#     4  11  24  44  72 107 139 181 227 286 363 419
#     4  10  19  41  74 104 143 177 215 295 360 408
#     4  12  27  45  71 103 136 187 238 283 344 422
#     4  12  20  41  69 102 146 175 221 287 349 419
#     4  12  28  48  72  94 138 196 242 286 342 408
#
# _framework density 23.827974999999999
#
# number of rings (size 3 to 8) (size 9 to 14) (size 15 to 20)
#    0.000    0.727    9.091    0.000    2.545    4.364 
#    0.000    4.545    0.000    0.000    0.000    0.000 
#    0.000    0.000    0.000    0.000    0.000    0.000 
#
# Total GULP energy -272756.296635 kJ/mol
# GULP energy per Si atom -12398.013483 kJ/mol
# Density = 2.377374 g / cm^3
# Si number density = 23.827975 Si / 1000 Ang^3
#
#
#
# Elastic Constant Matrix: (Units=GPa)
#
#
# Indices 1 2 3 4 5 6 
#
# 1 73.8046 47.9050 26.5950 0.0000 8.7089 0.0000
# 2 47.9050 155.0242 61.2710 0.0000 14.2490 0.0000
# 3 26.5950 61.2710 109.5123 0.0000 26.2047 0.0000
# 4 0.0000 0.0000 0.0000 52.3625 0.0000 11.3130
# 5 8.7089 14.2490 26.2047 0.0000 31.0970 0.0000
# 6 0.0000 0.0000 0.0000 11.3130 0.0000 35.6772
#
#
#
# Elastic Compliance Matrix: (Units=1/GPa)
#
#
# Indices 1 2 3 4 5 6 
#
# 1 0.017221 -0.004716 -0.001136 0.000000 -0.001705 0.000000
# 2 -0.004716 0.009574 -0.004356 0.000000 0.000604 0.000000
# 3 -0.001136 -0.004356 0.014142 0.000000 -0.009603 0.000000
# 4 0.000000 0.000000 0.000000 0.020502 0.000000 -0.006501
# 5 -0.001705 0.000604 -0.009603 0.000000 0.040450 0.000000
# 6 0.000000 0.000000 0.000000 -0.006501 0.000000 0.030091
#
#
# Mechanical properties :
#
#
# Convention : Reuss Voigt Hill
#
# Bulk Modulus (GPa) = 48.72808 67.76478 58.24643
# Shear Modulus (GPa) = 31.40003 37.33202 34.36603
#
# Velocity S-wave (km/s) = 3.63406 3.96249 3.80182
# Velocity P-wave (km/s) = 6.17275 7.03107 6.61585
#
# Compressibility (1/GPa) = 0.02052205
#
# Stress axis : x y z
#
# Youngs Moduli (GPa) = 58.06966 104.45003 70.71045
#
# Poissons Ratio (x) = 0.49258 0.08029
# Poissons Ratio (y) = 0.27385 0.30801
# Poissons Ratio (z) = 0.06594 0.45497
#
# Static dielectric constant tensor:
#      x y z
#    x 4.092350 0.000000 -0.036980 
#    y 0.000000 3.576240 0.000000 
#    z -0.036980 0.000000 4.612520 
# 
# 
# High freq. dielectric constant tensor:
#      x y z
#    x 1.939840 0.000000 0.020220 
#    y 0.000000 1.969230 0.000000 
#    z 0.020220 0.000000 1.936420 
# 
# From -- ./inp_files/230267.got.cif
#   From: 2010.06.25/outbox.cif.g09.slc.cpg/sg15_116_cif.got.tgz:230267.got - 2010.06.28 07:06:18.
