data_PCOD8135856
_publ_section_title
;
Structure prediction by ZEFSAII (Michael W. Deem and Ramdas Pophale) SiO2 
 PCOD8135856
Probable space group: C 2/C
;
_chemical_formula_sum "Si O2"
_cell_formula_units_Z 52
_cell_length_a 7.781857
_cell_length_b 30.860257
_cell_length_c 15.045728
_cell_angle_alpha 90.000000
_cell_angle_beta 136.891889
_cell_angle_gamma 90.000000
_cell_volume 2469.200931
_symmetry_space_group_name_H-M "C 2/C"
_symmetry_group_IT_number 15
_symmetry_cell_setting 'monoclinic'
loop_
_space_group_symop_operation_xyz
x,y,z
-x,y,1/2-z
-x,-y,-z
x,-y,1/2+z
1/2+x,1/2+y,z
1/2-x,1/2+y,1/2-z
1/2-x,1/2-y,-z
1/2+x,1/2-y,1/2+z
loop_
_atom_site_type_symbol
_atom_site_label
_atom_site_fract_x
_atom_site_fract_y
_atom_site_fract_z
Si Si1 0.238460 0.760131 0.601525
Si Si2 0.799082 0.854215 0.858172
Si Si3 0.000000 0.158006 0.250000
Si Si4 0.590516 0.894090 0.186026
Si Si5 0.865315 0.113616 0.563170
Si Si6 0.010353 0.675346 0.984293
Si Si7 0.219478 0.467392 0.113716
O O1 0.500000 0.760435 0.750000
O O2 0.250000 0.750000 0.500000
O O3 0.107798 0.805790 0.577560
O O4 0.087348 0.720745 0.589979
O O5 0.500000 0.857769 0.750000
O O6 0.906234 0.869107 0.801773
O O7 0.910486 0.887065 0.973925
O O8 0.234908 0.187328 0.367024
O O9 0.500000 0.898422 0.250000
O O10 0.426577 0.858626 0.070760
O O11 0.585360 0.942118 0.143702
O O12 0.876443 0.876954 0.287517
O O13 0.678074 0.152713 0.516929
O O14 0.759306 0.066611 0.548898
O O15 0.500000 0.486332 0.250000
O O16 0.000000 0.500000 0.000000
#
# Coordination Sequence:
#
# PCOD8135856 Si02
#       7
#     8   8   4   8   8   8   8
#     4  11  21  38  63  89 124 173 222 278 341 391
#     4  11  22  40  60  89 132 165 220 275 330 383
#     4  12  24  40  58  88 132 168 218 284 322 386
#     4  10  21  39  63  94 125 165 221 270 313 396
#     4  10  19  40  66  89 125 168 212 266 321 389
#     4  11  21  38  60  88 122 173 222 265 334 385
#     4   9  20  41  67  95 132 166 208 265 331 399
#
# _framework density 21.059445
#
# number of rings (size 3 to 8) (size 9 to 14) (size 15 to 20)
#    0.000    1.538    3.077    4.154    0.000    0.615 
#    6.923    3.846    0.000    0.000    0.000    0.000 
#    0.000    0.000    0.000    0.000    0.000    0.000 
#
# Total GULP energy -322113.632040 kJ/mol
# GULP energy per Si atom -12388.985848 kJ/mol
# Density = 2.101151 g / cm^3
# Si number density = 21.059445 Si / 1000 Ang^3
#
#
#
# Elastic Constant Matrix: (Units=GPa)
#
#
# Indices 1 2 3 4 5 6 
#
# 1 114.0821 34.4648 38.6519 0.0000 -27.5512 0.0000
# 2 34.4648 84.3911 53.6290 0.0000 8.6111 0.0000
# 3 38.6519 53.6290 119.4526 0.0000 0.5106 0.0000
# 4 0.0000 0.0000 0.0000 28.5757 0.0000 -2.9639
# 5 -27.5512 8.6111 0.5106 0.0000 49.3181 0.0000
# 6 0.0000 0.0000 0.0000 -2.9639 0.0000 11.7688
#
#
#
# Elastic Compliance Matrix: (Units=1/GPa)
#
#
# Indices 1 2 3 4 5 6 
#
# 1 0.012835 -0.004756 -0.002052 0.000000 0.008022 0.000000
# 2 -0.004756 0.018744 -0.006851 0.000000 -0.005859 0.000000
# 3 -0.002052 -0.006851 0.012112 0.000000 -0.000076 0.000000
# 4 0.000000 0.000000 0.000000 0.035933 0.000000 0.009050
# 5 0.008022 -0.005859 -0.000076 0.000000 0.025782 0.000000
# 6 0.000000 0.000000 0.000000 0.009050 0.000000 0.087250
#
#
# Mechanical properties :
#
#
# Convention : Reuss Voigt Hill
#
# Bulk Modulus (GPa) = 61.08120 63.49078 62.28599
# Shear Modulus (GPa) = 22.17973 30.67785 26.42879
#
# Velocity S-wave (km/s) = 3.24882 3.82085 3.54639
# Velocity P-wave (km/s) = 6.56812 7.04833 6.81246
#
# Compressibility (1/GPa) = 0.01637165
#
# Stress axis : x y z
#
# Youngs Moduli (GPa) = 77.91142 53.35176 82.56532
#
# Poissons Ratio (x) = 0.25376 0.16943
# Poissons Ratio (y) = 0.37057 0.56565
# Poissons Ratio (z) = 0.15988 0.36551
#
# Static dielectric constant tensor:
#      x y z
#    x 3.471080 0.000000 0.008560 
#    y 0.000000 3.595280 0.000000 
#    z 0.008560 0.000000 4.218760 
# 
# 
# High freq. dielectric constant tensor:
#      x y z
#    x 1.827820 0.000000 -0.001020 
#    y 0.000000 1.783860 0.000000 
#    z -0.001020 0.000000 1.848230 
# 
# From -- ./inp_files/139878.got.cif
#   From: 2010.06.25/outbox.cif.g09.slc.cpg/sg15_70_cif.got.tgz:139878.got - 2010.06.28 07:06:18.
