data_PCOD8135341
_publ_section_title
;
Structure prediction by ZEFSAII (Michael W. Deem and Ramdas Pophale) SiO2 
 PCOD8135341
Probable space group: C 2/C
;
_chemical_formula_sum "Si O2"
_cell_formula_units_Z 28
_cell_length_a 9.913316
_cell_length_b 9.953577
_cell_length_c 13.414147
_cell_angle_alpha 90.000000
_cell_angle_beta 74.486431
_cell_angle_gamma 90.000000
_cell_volume 1275.390483
_symmetry_space_group_name_H-M "C 2/C"
_symmetry_group_IT_number 15
_symmetry_cell_setting 'monoclinic'
loop_
_space_group_symop_operation_xyz
x,y,z
-x,y,1/2-z
-x,-y,-z
x,-y,1/2+z
1/2+x,1/2+y,z
1/2-x,1/2+y,1/2-z
1/2-x,1/2-y,-z
1/2+x,1/2-y,1/2+z
loop_
_atom_site_type_symbol
_atom_site_label
_atom_site_fract_x
_atom_site_fract_y
_atom_site_fract_z
Si Si1 0.347698 0.702809 0.781858
Si Si2 0.835941 0.831040 0.064990
Si Si3 0.000000 0.053203 0.250000
Si Si4 0.879316 0.137183 0.073902
O O1 0.500000 0.775825 0.750000
O O2 0.281421 0.718910 0.683690
O O3 0.250044 0.761333 0.888264
O O4 0.494032 0.692010 0.972121
O O5 0.817196 0.991942 0.056493
O O6 0.750000 0.750000 0.000000
O O7 0.034044 0.140628 0.339502
O O8 0.866963 0.955979 0.301296
#
# Coordination Sequence:
#
# PCOD8135341 Si02
#       4
#     8   8   4   8
#     4   9  20  38  55  84 115 143 189 227 275 336
#     4  10  21  37  59  87 108 148 195 222 281 335
#     4   8  18  36  56  80 114 150 182 220 278 328
#     4  10  19  38  60  77 120 150 176 238 277 318
#
# _framework density 21.954059000000001
#
# number of rings (size 3 to 8) (size 9 to 14) (size 15 to 20)
#    0.857    1.714    0.000    1.714    0.000    1.143 
#   10.286    1.429    0.000    0.000    0.000    0.000 
#    0.000    0.000    0.000    0.000    0.000    0.000 
#
# Total GULP energy -173454.975608 kJ/mol
# GULP energy per Si atom -12389.641115 kJ/mol
# Density = 2.190409 g / cm^3
# Si number density = 21.954059 Si / 1000 Ang^3
#
#
#
# Elastic Constant Matrix: (Units=GPa)
#
#
# Indices 1 2 3 4 5 6 
#
# 1 60.8850 14.1764 -8.8136 0.0000 -23.7943 0.0000
# 2 14.1764 34.4944 -0.3387 0.0000 -11.9880 0.0000
# 3 -8.8136 -0.3387 30.9179 0.0000 -11.3545 0.0000
# 4 0.0000 0.0000 0.0000 38.6421 0.0000 -7.1648
# 5 -23.7943 -11.9880 -11.3545 0.0000 50.6465 0.0000
# 6 0.0000 0.0000 0.0000 -7.1648 0.0000 17.5162
#
#
#
# Elastic Compliance Matrix: (Units=1/GPa)
#
#
# Indices 1 2 3 4 5 6 
#
# 1 0.024348 -0.005467 0.011558 0.000000 0.012736 0.000000
# 2 -0.005467 0.033142 0.000809 0.000000 0.005458 0.000000
# 3 0.011558 0.000809 0.041095 0.000000 0.014835 0.000000
# 4 0.000000 0.000000 0.000000 0.028002 0.000000 0.011454
# 5 0.012736 0.005458 0.014835 0.000000 0.030346 0.000000
# 6 0.000000 0.000000 0.000000 0.011454 0.000000 0.061775
#
#
# Mechanical properties :
#
#
# Convention : Reuss Voigt Hill
#
# Bulk Modulus (GPa) = 8.89794 15.14950 12.02372
# Shear Modulus (GPa) = 20.62972 29.44585 25.03778
#
# Velocity S-wave (km/s) = 3.06874 3.66628 3.38074
# Velocity P-wave (km/s) = 4.07652 4.98374 4.55278
#
# Compressibility (1/GPa) = 0.11238554
#
# Stress axis : x y z
#
# Youngs Moduli (GPa) = 41.07160 30.17359 24.33364
#
# Poissons Ratio (x) = 0.16495 -0.28125
# Poissons Ratio (y) = 0.22452 -0.01969
# Poissons Ratio (z) = -0.47471 -0.02441
#
# Static dielectric constant tensor:
#      x y z
#    x 3.756130 0.000000 -0.115740 
#    y 0.000000 3.482700 0.000000 
#    z -0.115740 0.000000 4.138100 
# 
# 
# High freq. dielectric constant tensor:
#      x y z
#    x 1.844350 0.000000 0.001800 
#    y 0.000000 1.822090 0.000000 
#    z 0.001800 0.000000 1.888000 
# 
# From -- ./inp_files/28227.got.cif
#   From: 2010.06.25/outbox.cif.g09.slc.cpg/sg15_15_cif.got.tgz:28227.got - 2010.06.28 07:06:18.
