data_PCOD8135037
_publ_section_title
;
Structure prediction by ZEFSAII (Michael W. Deem and Ramdas Pophale) SiO2 
 PCOD8135037
Probable space group: C 2/C
;
_chemical_formula_sum "Si O2"
_cell_formula_units_Z 40
_cell_length_a 29.940772
_cell_length_b 5.147714
_cell_length_c 13.296847
_cell_angle_alpha 90.000000
_cell_angle_beta 78.693529
_cell_angle_gamma 90.000000
_cell_volume 2009.623279
_symmetry_space_group_name_H-M "C 2/C"
_symmetry_group_IT_number 15
_symmetry_cell_setting 'monoclinic'
loop_
_space_group_symop_operation_xyz
x,y,z
-x,y,1/2-z
-x,-y,-z
x,-y,1/2+z
1/2+x,1/2+y,z
1/2-x,1/2+y,1/2-z
1/2-x,1/2-y,-z
1/2+x,1/2-y,1/2+z
loop_
_atom_site_type_symbol
_atom_site_label
_atom_site_fract_x
_atom_site_fract_y
_atom_site_fract_z
Si Si1 0.385489 0.664271 0.446816
Si Si2 0.795591 0.326150 0.423311
Si Si3 0.912481 0.209821 0.656509
Si Si4 0.051454 0.707516 0.758898
Si Si5 0.332934 0.664653 0.833285
O O1 0.338390 0.826413 0.482094
O O2 0.412250 0.642407 0.538727
O O3 0.416597 0.818229 0.352839
O O4 0.370506 0.381249 0.407096
O O5 0.750000 0.250000 0.500000
O O6 0.795934 0.609288 0.371658
O O7 0.804424 0.104187 0.334396
O O8 0.935117 0.488575 0.666021
O O9 0.860357 0.216403 0.718847
O O10 0.943054 0.989824 0.694468
O O11 0.000000 0.664324 0.750000
#
# Coordination Sequence:
#
# PCOD8135037 Si02
#       5
#     8   8   8   8   8
#     4   9  23  36  63  83 120 154 193 237 291 341
#     4  10  19  37  60  84 117 153 186 240 290 334
#     4  11  21  39  62  84 116 159 193 234 297 348
#     4  11  24  40  59  87 120 149 195 247 287 346
#     4   9  19  37  55  84 118 148 190 237 282 337
#
# _framework density 19.904229000000001
#
# number of rings (size 3 to 8) (size 9 to 14) (size 15 to 20)
#    1.200    0.800    2.000    1.200    2.800    1.600 
#    0.000    2.000    0.000    0.000    0.000    0.000 
#    0.000    0.000    0.000    0.000    0.000    0.000 
#
# Total GULP energy -247782.910737 kJ/mol
# GULP energy per Si atom -12389.145537 kJ/mol
# Density = 1.985893 g / cm^3
# Si number density = 19.904229 Si / 1000 Ang^3
#
#
#
# Elastic Constant Matrix: (Units=GPa)
#
#
# Indices 1 2 3 4 5 6 
#
# 1 99.2585 14.8154 22.4978 0.0000 -15.2137 0.0000
# 2 14.8154 120.8651 14.5243 0.0000 -5.9382 0.0000
# 3 22.4978 14.5243 86.8776 0.0000 9.9879 0.0000
# 4 0.0000 0.0000 0.0000 19.1622 0.0000 -3.3518
# 5 -15.2137 -5.9382 9.9879 0.0000 12.9755 0.0000
# 6 0.0000 0.0000 0.0000 -3.3518 0.0000 31.7170
#
#
#
# Elastic Compliance Matrix: (Units=1/GPa)
#
#
# Indices 1 2 3 4 5 6 
#
# 1 0.015006 0.000052 -0.006495 0.000000 0.022617 0.000000
# 2 0.000052 0.008807 -0.002146 0.000000 0.005744 0.000000
# 3 -0.006495 -0.002146 0.015951 0.000000 -0.020876 0.000000
# 4 0.000000 0.000000 0.000000 0.053169 0.000000 0.005619
# 5 0.022617 0.005744 -0.020876 0.000000 0.122285 0.000000
# 6 0.000000 0.000000 0.000000 0.005619 0.000000 0.032123
#
#
# Mechanical properties :
#
#
# Convention : Reuss Voigt Hill
#
# Bulk Modulus (GPa) = 44.27419 45.63067 44.95243
# Shear Modulus (GPa) = 18.37919 29.78186 24.08053
#
# Velocity S-wave (km/s) = 3.04202 3.87235 3.48202
# Velocity P-wave (km/s) = 5.88476 6.55502 6.22891
#
# Compressibility (1/GPa) = 0.02258652
#
# Stress axis : x y z
#
# Youngs Moduli (GPa) = 66.64166 113.54062 62.69133
#
# Poissons Ratio (x) = -0.00594 0.40717
# Poissons Ratio (y) = -0.00349 0.13456
# Poissons Ratio (z) = 0.43282 0.24370
#
# Static dielectric constant tensor:
#      x y z
#    x 3.458860 0.000000 -0.136630 
#    y 0.000000 3.653330 0.000000 
#    z -0.136630 0.000000 3.322010 
# 
# 
# High freq. dielectric constant tensor:
#      x y z
#    x 1.764680 0.000000 -0.019590 
#    y 0.000000 1.785650 0.000000 
#    z -0.019590 0.000000 1.746740 
# 
# From -- ./inp_files/120812.got.cif
#   From: 2010.06.25/outbox.cif.g09.slc.cpg/sg15_61_cif.got.tgz:120812.got - 2010.06.28 07:06:18.
