data_PCOD8135025
_publ_section_title
;
Structure prediction by ZEFSAII (Michael W. Deem and Ramdas Pophale) SiO2 
 PCOD8135025
Probable space group: C 2/C
;
_chemical_formula_sum "Si O2"
_cell_formula_units_Z 40
_cell_length_a 8.596615
_cell_length_b 28.585375
_cell_length_c 14.841945
_cell_angle_alpha 90.000000
_cell_angle_beta 31.701256
_cell_angle_gamma 90.000000
_cell_volume 1916.579747
_symmetry_space_group_name_H-M "C 2/C"
_symmetry_group_IT_number 15
_symmetry_cell_setting 'monoclinic'
loop_
_space_group_symop_operation_xyz
x,y,z
-x,y,1/2-z
-x,-y,-z
x,-y,1/2+z
1/2+x,1/2+y,z
1/2-x,1/2+y,1/2-z
1/2-x,1/2-y,-z
1/2+x,1/2-y,1/2+z
loop_
_atom_site_type_symbol
_atom_site_label
_atom_site_fract_x
_atom_site_fract_y
_atom_site_fract_z
Si Si1 0.099332 0.062511 0.542259
Si Si2 0.000000 0.868533 0.250000
Si Si3 0.952296 0.313993 0.438020
Si Si4 0.007622 0.513720 0.892775
Si Si5 0.500000 0.250550 0.750000
Si Si6 0.230968 0.100417 0.950935
O O1 0.131887 0.099672 0.606024
O O2 0.827958 0.027150 0.696976
O O3 0.059191 0.089890 0.466938
O O4 0.391492 0.030599 0.392477
O O5 0.266874 0.837589 0.154677
O O6 0.786912 0.282625 0.592971
O O7 0.714205 0.351855 0.516698
O O8 0.075723 0.281391 0.297978
O O9 0.787261 0.557703 0.991046
O O10 0.000000 0.500000 0.000000
O O11 0.500000 0.106218 0.750000
#
# Coordination Sequence:
#
# PCOD8135025 Si02
#       6
#     8   4   8   8   4   8
#     4  11  21  36  57  86 121 171 204 253 299 349
#     4  12  20  38  65  86 126 164 201 250 314 366
#     4  11  21  43  67  93 122 159 203 254 320 379
#     4  11  19  35  55  85 117 161 210 246 295 353
#     4  10  24  42  69  94 120 154 199 262 318 384
#     4  10  19  37  60  81 119 167 201 247 306 369
#
# _framework density 20.870512000000002
#
# number of rings (size 3 to 8) (size 9 to 14) (size 15 to 20)
#    0.000    1.200    7.000    0.600    0.000    0.800 
#    7.200    0.000    0.000    0.000    0.000    0.000 
#    0.000    0.000    0.000    0.000    0.000    0.000 
#
# Total GULP energy -247995.197142 kJ/mol
# GULP energy per Si atom -12399.759857 kJ/mol
# Density = 2.082301 g / cm^3
# Si number density = 20.870512 Si / 1000 Ang^3
#
#
#
# Elastic Constant Matrix: (Units=GPa)
#
#
# Indices 1 2 3 4 5 6 
#
# 1 127.4405 75.3629 36.1332 0.0000 2.2536 0.0000
# 2 75.3629 153.5262 44.1486 0.0000 -0.3408 0.0000
# 3 36.1332 44.1486 54.6374 0.0000 0.7993 0.0000
# 4 0.0000 0.0000 0.0000 8.9384 0.0000 -17.4586
# 5 2.2536 -0.3408 0.7993 0.0000 23.3696 0.0000
# 6 0.0000 0.0000 0.0000 -17.4586 0.0000 26.5061
#
#
#
# Elastic Compliance Matrix: (Units=1/GPa)
#
#
# Indices 1 2 3 4 5 6 
#
# 1 0.011728 -0.004603 -0.004021 0.000000 -0.001061 0.000000
# 2 -0.004603 0.010295 -0.005286 0.000000 0.000775 0.000000
# 3 -0.004021 -0.005286 0.025241 0.000000 -0.000553 0.000000
# 4 0.000000 0.000000 0.000000 -0.390488 0.000000 -0.257200
# 5 -0.001061 0.000775 -0.000553 0.000000 0.042923 0.000000
# 6 0.000000 0.000000 0.000000 -0.257200 0.000000 -0.131681
#
#
# Mechanical properties :
#
#
# Convention : Reuss Voigt Hill
#
# Bulk Modulus (GPa) = 51.43018 71.87704 61.65361
# Shear Modulus (GPa) = -12.57285 23.76013 5.59364
#
# Velocity S-wave (km/s) = -2.45709 3.37776 1.63890
# Velocity P-wave (km/s) = 4.07999 7.05171 5.76077
#
# Compressibility (1/GPa) = 0.01944384
#
# Stress axis : x y z
#
# Youngs Moduli (GPa) = 85.26913 97.13711 39.61844
#
# Poissons Ratio (x) = 0.44711 0.15930
# Poissons Ratio (y) = 0.39248 0.20941
# Poissons Ratio (z) = 0.34286 0.51344
#
# Static dielectric constant tensor:
#      x y z
#    x 4.296430 0.000000 0.050250 
#    y 0.000000 4.179260 0.000000 
#    z 0.050250 0.000000 3.493210 
# 
# 
# High freq. dielectric constant tensor:
#      x y z
#    x 1.831720 0.000000 0.010850 
#    y 0.000000 1.829320 0.000000 
#    z 0.010850 0.000000 1.784200 
# 
# From -- ./inp_files/44970.got.cif
#   From: 2010.06.25/outbox.cif.g09.slc.cpg/sg15_23_cif.got.tgz:44970.got - 2010.06.28 07:06:18.
