data_PCOD8135660
_publ_section_title
;
Structure prediction by ZEFSAII (Michael W. Deem and Ramdas Pophale) SiO2 
 PCOD8135660
Probable space group: C 2/C
;
_chemical_formula_sum "Si O2"
_cell_formula_units_Z 48
_cell_length_a 22.234813
_cell_length_b 12.932491
_cell_length_c 13.688256
_cell_angle_alpha 90.000000
_cell_angle_beta 36.571407
_cell_angle_gamma 90.000000
_cell_volume 2345.210852
_symmetry_space_group_name_H-M "C 2/C"
_symmetry_group_IT_number 15
_symmetry_cell_setting 'monoclinic'
loop_
_space_group_symop_operation_xyz
x,y,z
-x,y,1/2-z
-x,-y,-z
x,-y,1/2+z
1/2+x,1/2+y,z
1/2-x,1/2+y,1/2-z
1/2-x,1/2-y,-z
1/2+x,1/2-y,1/2+z
loop_
_atom_site_type_symbol
_atom_site_label
_atom_site_fract_x
_atom_site_fract_y
_atom_site_fract_z
Si Si1 0.929962 0.794936 0.991833
Si Si2 0.000000 0.032882 0.250000
Si Si3 0.464735 0.161852 0.493106
Si Si4 0.610727 0.004640 0.751689
Si Si5 0.000000 0.633913 0.750000
Si Si6 0.803661 0.908499 0.464131
Si Si7 0.231491 0.704704 0.870208
O O1 0.936853 0.700386 0.908730
O O2 0.965123 0.898702 0.889172
O O3 0.003062 0.766205 0.989322
O O4 0.813421 0.798972 0.176152
O O5 0.915123 0.955121 0.321205
O O6 0.564591 0.112527 0.312793
O O7 0.380037 0.181276 0.523440
O O8 0.421820 0.071191 0.614858
O O9 0.731229 0.999745 0.595372
O O10 0.582927 0.061127 0.688716
O O11 0.784383 0.816082 0.563323
O O12 0.771875 0.877566 0.396045
#
# Coordination Sequence:
#
# PCOD8135660 Si02
#       7
#     8   4   8   8   4   8   8
#     4  10  22  44  61  95 130 169 206 260 326 384
#     4  11  26  44  65  94 136 168 215 258 324 399
#     4  10  21  38  67  90 123 164 208 265 316 368
#     4  10  19  39  62  96 118 157 218 261 305 378
#     4   9  20  36  69  90 126 160 207 270 316 365
#     4  11  25  41  61  92 126 166 214 258 317 380
#     4  11  24  41  63  89 128 167 209 261 318 378
#
# _framework density 20.467244000000001
#
# number of rings (size 3 to 8) (size 9 to 14) (size 15 to 20)
#    0.000    1.667    1.667    2.000    2.333    2.000 
#    6.000    5.000    0.000    0.000    0.000    0.000 
#    0.000    0.000    0.000    0.000    0.000    0.000 
#
# Total GULP energy -297485.981258 kJ/mol
# GULP energy per Si atom -12395.249219 kJ/mol
# Density = 2.042066 g / cm^3
# Si number density = 20.467244 Si / 1000 Ang^3
#
#
#
# Elastic Constant Matrix: (Units=GPa)
#
#
# Indices 1 2 3 4 5 6 
#
# 1 113.4933 33.3318 28.1249 0.0000 -12.8713 0.0000
# 2 33.3318 72.0054 23.9601 0.0000 -2.3956 0.0000
# 3 28.1249 23.9601 97.7085 0.0000 -8.4097 0.0000
# 4 0.0000 0.0000 0.0000 26.1898 0.0000 -9.2884
# 5 -12.8713 -2.3956 -8.4097 0.0000 27.3534 0.0000
# 6 0.0000 0.0000 0.0000 -9.2884 0.0000 22.6269
#
#
#
# Elastic Compliance Matrix: (Units=1/GPa)
#
#
# Indices 1 2 3 4 5 6 
#
# 1 0.011009 -0.004379 -0.001728 0.000000 0.004266 0.000000
# 2 -0.004379 0.016865 -0.003005 0.000000 -0.001508 0.000000
# 3 -0.001728 -0.003005 0.011685 0.000000 0.002516 0.000000
# 4 0.000000 0.000000 0.000000 0.044689 0.000000 0.018345
# 5 0.004266 -0.001508 0.002516 0.000000 0.039207 0.000000
# 6 0.000000 0.000000 0.000000 0.018345 0.000000 0.051726
#
#
# Mechanical properties :
#
#
# Convention : Reuss Voigt Hill
#
# Bulk Modulus (GPa) = 46.87074 50.44898 48.65986
# Shear Modulus (GPa) = 24.93551 28.42004 26.67778
#
# Velocity S-wave (km/s) = 3.49422 3.73038 3.61423
# Velocity P-wave (km/s) = 6.26335 6.57697 6.42207
#
# Compressibility (1/GPa) = 0.02133527
#
# Stress axis : x y z
#
# Youngs Moduli (GPa) = 90.83278 59.29514 85.57765
#
# Poissons Ratio (x) = 0.25968 0.14787
# Poissons Ratio (y) = 0.39779 0.25714
# Poissons Ratio (z) = 0.15695 0.17817
#
# Static dielectric constant tensor:
#      x y z
#    x 3.661230 0.000000 0.034880 
#    y 0.000000 3.777140 0.000000 
#    z 0.034880 0.000000 3.823260 
# 
# 
# High freq. dielectric constant tensor:
#      x y z
#    x 1.804910 0.000000 0.001400 
#    y 0.000000 1.799220 0.000000 
#    z 0.001400 0.000000 1.809940 
# 
# From -- ./inp_files/97217.got.cif
#   From: 2010.06.25/outbox.cif.g09.slc.cpg/sg15_49_cif.got.tgz:97217.got - 2010.06.28 07:06:18.
