data_PCOD8135583
_publ_section_title
;
Structure prediction by ZEFSAII (Michael W. Deem and Ramdas Pophale) SiO2 
 PCOD8135583
Probable space group: C 2/C
;
_chemical_formula_sum "Si O2"
_cell_formula_units_Z 40
_cell_length_a 27.917354
_cell_length_b 6.548422
_cell_length_c 21.164590
_cell_angle_alpha 90.000000
_cell_angle_beta 154.877803
_cell_angle_gamma 90.000000
_cell_volume 1642.668164
_symmetry_space_group_name_H-M "C 2/C"
_symmetry_group_IT_number 15
_symmetry_cell_setting 'monoclinic'
loop_
_space_group_symop_operation_xyz
x,y,z
-x,y,1/2-z
-x,-y,-z
x,-y,1/2+z
1/2+x,1/2+y,z
1/2-x,1/2+y,1/2-z
1/2-x,1/2-y,-z
1/2+x,1/2-y,1/2+z
loop_
_atom_site_type_symbol
_atom_site_label
_atom_site_fract_x
_atom_site_fract_y
_atom_site_fract_z
Si Si1 0.158229 0.450884 0.908228
Si Si2 0.129142 0.076059 0.403863
Si Si3 0.061747 0.617038 0.424276
Si Si4 0.107317 0.911792 0.595217
Si Si5 0.807560 0.222190 0.891955
O O1 0.132848 0.692389 0.884094
O O2 0.136851 0.336786 0.950203
O O3 0.070346 0.374414 0.750772
O O4 0.290318 0.426972 0.043389
O O5 0.179778 0.067738 0.534591
O O6 0.000000 0.993120 0.250000
O O7 0.078401 0.775380 0.500245
O O8 0.096369 0.394261 0.490201
O O9 0.179988 0.805768 0.737230
O O10 0.179573 0.103708 0.658180
O O11 0.000000 0.000000 0.500000
#
# Coordination Sequence:
#
# PCOD8135583 Si02
#       5
#     8   8   8   8   8
#     4   9  19  39  73 103 144 190 234 311 359 440
#     4  10  19  38  72 106 141 193 236 296 376 425
#     4  10  21  47  69 104 146 184 247 294 370 430
#     4  12  28  45  73 104 146 199 243 298 361 440
#     4  11  24  45  68 106 146 189 243 293 362 443
#
# _framework density 24.350629000000001
#
# number of rings (size 3 to 8) (size 9 to 14) (size 15 to 20)
#    0.000    1.600    6.000    0.000    2.800    4.000 
#    3.600    1.000    0.000    0.000    0.000    0.000 
#    0.000    0.000    0.000    0.000    0.000    0.000 
#
# Total GULP energy -248016.527067 kJ/mol
# GULP energy per Si atom -12400.826353 kJ/mol
# Density = 2.429521 g / cm^3
# Si number density = 24.350629 Si / 1000 Ang^3
#
#
#
# Elastic Constant Matrix: (Units=GPa)
#
#
# Indices 1 2 3 4 5 6 
#
# 1 147.2219 55.6185 95.5900 -0.0002 19.1759 0.0001
# 2 55.6185 54.8664 48.5648 -0.0024 3.6349 0.0007
# 3 95.5900 48.5648 197.9231 -0.0008 11.8911 0.0002
# 4 -0.0002 -0.0024 -0.0008 30.6264 0.0001 3.1445
# 5 19.1759 3.6349 11.8911 0.0001 51.8373 0.0000
# 6 0.0001 0.0007 0.0002 3.1445 0.0000 44.0479
#
#
#
# Elastic Compliance Matrix: (Units=1/GPa)
#
#
# Indices 1 2 3 4 5 6 
#
# 1 0.013566 -0.010102 -0.003867 -0.000001 -0.003423 0.000000
# 2 -0.010102 0.030810 -0.002815 0.000002 0.002222 -0.000001
# 3 -0.003867 -0.002815 0.007618 0.000000 -0.000120 0.000000
# 4 -0.000001 0.000002 0.000000 0.032893 0.000000 -0.002348
# 5 -0.003423 0.002222 -0.000120 0.000000 0.020429 0.000000
# 6 0.000000 -0.000001 0.000000 -0.002348 0.000000 0.022870
#
#
# Mechanical properties :
#
#
# Convention : Reuss Voigt Hill
#
# Bulk Modulus (GPa) = 54.26941 88.83979 71.55460
# Shear Modulus (GPa) = 29.78035 38.65151 34.21593
#
# Velocity S-wave (km/s) = 3.50091 3.98840 3.75258
# Velocity P-wave (km/s) = 6.21907 7.60083 6.94440
#
# Compressibility (1/GPa) = 0.01842659
#
# Stress axis : x y z
#
# Youngs Moduli (GPa) = 73.71572 32.45648 131.26517
#
# Poissons Ratio (x) = 0.32786 0.50766
# Poissons Ratio (y) = 0.74465 0.36949
# Poissons Ratio (z) = 0.28509 0.09136
#
# Static dielectric constant tensor:
#      x y z
#    x 4.386240 -0.000010 0.318580 
#    y -0.000010 4.586670 0.000010 
#    z 0.318580 0.000010 4.051070 
# 
# 
# High freq. dielectric constant tensor:
#      x y z
#    x 1.959150 0.000000 -0.001260 
#    y 0.000000 1.998180 0.000000 
#    z -0.001260 0.000000 1.974500 
# 
# From -- ./inp_files/257051.got.cif
#   From: 2010.06.25/outbox.cif.g09.slc.cpg/sg15_129_cif.got.tgz:257051.got - 2010.06.28 07:06:18.
