data_PCOD8135627
_publ_section_title
;
Structure prediction by ZEFSAII (Michael W. Deem and Ramdas Pophale) SiO2 
 PCOD8135627
Probable space group: C 2/C
;
_chemical_formula_sum "Si O2"
_cell_formula_units_Z 56
_cell_length_a 9.082588
_cell_length_b 18.451905
_cell_length_c 17.161567
_cell_angle_alpha 90.000000
_cell_angle_beta 70.728465
_cell_angle_gamma 90.000000
_cell_volume 2714.961489
_symmetry_space_group_name_H-M "C 2/C"
_symmetry_group_IT_number 15
_symmetry_cell_setting 'monoclinic'
loop_
_space_group_symop_operation_xyz
x,y,z
-x,y,1/2-z
-x,-y,-z
x,-y,1/2+z
1/2+x,1/2+y,z
1/2-x,1/2+y,1/2-z
1/2-x,1/2-y,-z
1/2+x,1/2-y,1/2+z
loop_
_atom_site_type_symbol
_atom_site_label
_atom_site_fract_x
_atom_site_fract_y
_atom_site_fract_z
Si Si1 0.798536 0.856582 0.435460
Si Si2 0.062513 0.403718 0.844221
Si Si3 0.699099 0.800197 0.619150
Si Si4 0.117416 0.879443 0.791602
Si Si5 0.115003 0.448039 0.166256
Si Si6 0.043309 0.035112 0.831253
Si Si7 0.023977 0.418579 0.020941
O O1 0.769234 0.836948 0.529925
O O2 0.841668 0.784202 0.380583
O O3 0.641863 0.886601 0.424953
O O4 0.929992 0.918829 0.407067
O O5 0.228637 0.413886 0.775125
O O6 0.963273 0.337050 0.826958
O O7 0.954415 0.473159 0.844707
O O8 0.094072 0.383368 0.930068
O O9 0.834254 0.815352 0.658891
O O10 0.000000 0.843345 0.750000
O O11 0.026843 0.948004 0.847019
O O12 0.281734 0.444819 0.177023
O O13 0.128580 0.406634 0.080276
O O14 0.000000 0.411383 0.250000
O O15 0.000000 0.055710 0.750000
O O16 0.000000 0.500000 0.000000
#
# Coordination Sequence:
#
# PCOD8135627 Si02
#       7
#     8   8   8   8   8   8   8
#     4  10  23  41  62  92 125 158 212 263 314 379
#     4  10  19  39  60  87 120 168 206 240 312 385
#     4  10  21  43  64  84 124 173 207 248 319 396
#     4  11  23  37  63  94 124 163 213 265 301 374
#     4  11  18  35  58  87 124 159 202 252 313 374
#     4  11  23  36  58  94 128 155 204 275 310 353
#     4   9  21  35  60  89 120 165 196 255 316 372
#
# _framework density 20.626442999999998
#
# number of rings (size 3 to 8) (size 9 to 14) (size 15 to 20)
#    0.000    1.714    2.857    1.286    6.000    2.857 
#    0.000    3.571    0.000    5.143    0.000    0.000 
#    0.000    0.000    0.000    0.000    0.000    0.000 
#
# Total GULP energy -346931.325934 kJ/mol
# GULP energy per Si atom -12390.404498 kJ/mol
# Density = 2.057950 g / cm^3
# Si number density = 20.626443 Si / 1000 Ang^3
#
#
#
# Elastic Constant Matrix: (Units=GPa)
#
#
# Indices 1 2 3 4 5 6 
#
# 1 130.2698 24.4161 42.8989 0.0000 28.0900 0.0000
# 2 24.4161 65.4399 18.5578 0.0000 -5.9872 0.0000
# 3 42.8989 18.5578 83.0039 0.0000 17.6156 0.0000
# 4 0.0000 0.0000 0.0000 24.7734 0.0000 -2.5126
# 5 28.0900 -5.9872 17.6156 0.0000 40.7058 0.0000
# 6 0.0000 0.0000 0.0000 -2.5126 0.0000 22.7080
#
#
#
# Elastic Compliance Matrix: (Units=1/GPa)
#
#
# Indices 1 2 3 4 5 6 
#
# 1 0.010920 -0.003711 -0.003412 0.000000 -0.006605 0.000000
# 2 -0.003711 0.018318 -0.003626 0.000000 0.006824 0.000000
# 3 -0.003412 -0.003626 0.015675 0.000000 -0.004962 0.000000
# 4 0.000000 0.000000 0.000000 0.040824 0.000000 0.004517
# 5 -0.006605 0.006824 -0.004962 0.000000 0.032275 0.000000
# 6 0.000000 0.000000 0.000000 0.004517 0.000000 0.044537
#
#
# Mechanical properties :
#
#
# Convention : Reuss Voigt Hill
#
# Bulk Modulus (GPa) = 42.70804 50.05101 46.37952
# Shear Modulus (GPa) = 26.06165 30.49347 28.27756
#
# Velocity S-wave (km/s) = 3.55844 3.84913 3.70663
# Velocity P-wave (km/s) = 6.13464 6.63871 6.39165
#
# Compressibility (1/GPa) = 0.02341479
#
# Stress axis : x y z
#
# Youngs Moduli (GPa) = 91.57748 54.59003 63.79590
#
# Poissons Ratio (x) = 0.20257 0.21769
# Poissons Ratio (y) = 0.33982 0.23132
# Poissons Ratio (z) = 0.31249 0.19794
#
# Static dielectric constant tensor:
#      x y z
#    x 3.884640 0.000000 0.394830 
#    y 0.000000 3.484900 0.000000 
#    z 0.394830 0.000000 4.361210 
# 
# 
# High freq. dielectric constant tensor:
#      x y z
#    x 1.809330 0.000000 0.015230 
#    y 0.000000 1.770860 0.000000 
#    z 0.015230 0.000000 1.815820 
# 
# From -- ./inp_files/190916.got.cif
#   From: 2010.06.25/outbox.cif.g09.slc.cpg/sg15_96_cif.got.tgz:190916.got - 2010.06.28 07:06:18.
