data_PCOD8135913
_publ_section_title
;
Structure prediction by ZEFSAII (Michael W. Deem and Ramdas Pophale) SiO2 
 PCOD8135913
Probable space group: C 2/C
;
_chemical_formula_sum "Si O2"
_cell_formula_units_Z 60
_cell_length_a 24.797132
_cell_length_b 8.712011
_cell_length_c 14.074845
_cell_angle_alpha 90.000000
_cell_angle_beta 63.615941
_cell_angle_gamma 90.000000
_cell_volume 2723.903552
_symmetry_space_group_name_H-M "C 2/C"
_symmetry_group_IT_number 15
_symmetry_cell_setting 'monoclinic'
loop_
_space_group_symop_operation_xyz
x,y,z
-x,y,1/2-z
-x,-y,-z
x,-y,1/2+z
1/2+x,1/2+y,z
1/2-x,1/2+y,1/2-z
1/2-x,1/2-y,-z
1/2+x,1/2-y,1/2+z
loop_
_atom_site_type_symbol
_atom_site_label
_atom_site_fract_x
_atom_site_fract_y
_atom_site_fract_z
Si Si1 0.377136 0.772766 0.553481
Si Si2 0.870688 0.885070 0.866641
Si Si3 0.674598 0.213966 0.778396
Si Si4 0.280336 0.117434 0.274679
Si Si5 0.137213 0.755410 0.142582
Si Si6 0.032512 0.780055 0.363889
Si Si7 0.412981 0.111670 0.500121
Si Si8 0.500000 0.467124 0.750000
O O1 0.353230 0.672180 0.484771
O O2 0.318508 0.807725 0.660338
O O3 0.426444 0.677608 0.576799
O O4 0.408829 0.928961 0.493855
O O5 0.836870 0.784885 0.815480
O O6 0.942086 0.859554 0.797818
O O7 0.853566 0.062164 0.866954
O O8 0.710953 0.335244 0.814859
O O9 0.715997 0.065333 0.731225
O O10 0.611699 0.169862 0.878497
O O11 0.303936 0.179327 0.357327
O O12 0.077027 0.709539 0.248927
O O13 0.130307 0.688280 0.043616
O O14 0.982620 0.656246 0.432840
O O15 0.999880 0.929451 0.346177
#
# Coordination Sequence:
#
# PCOD8135913 Si02
#       8
#     8   8   8   8   8   8   8   4
#     4  10  24  38  65  91 127 163 212 252 314 365
#     4  11  23  41  59  98 123 172 199 261 301 375
#     4  11  25  41  67  89 128 159 219 258 315 364
#     4  10  23  46  63  94 120 168 207 269 306 372
#     4  10  21  40  67  87 132 162 209 247 322 363
#     4  10  19  41  61  91 126 167 200 255 301 377
#     4  11  21  40  62  96 122 167 207 257 312 376
#     4  10  22  40  60  94 136 160 206 250 312 372
#
# _framework density 22.027213
#
# number of rings (size 3 to 8) (size 9 to 14) (size 15 to 20)
#    0.000    1.600    2.667    2.000    1.867    5.867 
#    2.400    0.000    0.000    0.000    0.000    0.000 
#    0.000    0.000    0.000    0.000    0.000    0.000 
#
# Total GULP energy -372111.776922 kJ/mol
# GULP energy per Si atom -12403.725897 kJ/mol
# Density = 2.197708 g / cm^3
# Si number density = 22.027213 Si / 1000 Ang^3
#
#
#
# Elastic Constant Matrix: (Units=GPa)
#
#
# Indices 1 2 3 4 5 6 
#
# 1 91.6413 26.9821 15.1798 0.0000 21.3432 0.0000
# 2 26.9821 89.9233 32.8085 0.0000 9.7771 0.0000
# 3 15.1798 32.8085 67.5148 0.0000 25.0306 0.0000
# 4 0.0000 0.0000 0.0000 29.3960 0.0000 0.0362
# 5 21.3432 9.7771 25.0306 0.0000 38.0435 0.0000
# 6 0.0000 0.0000 0.0000 0.0362 0.0000 30.2327
#
#
#
# Elastic Compliance Matrix: (Units=1/GPa)
#
#
# Indices 1 2 3 4 5 6 
#
# 1 0.013566 -0.003844 0.001684 0.000000 -0.007731 0.000000
# 2 -0.003844 0.014643 -0.007480 0.000000 0.003315 0.000000
# 3 0.001684 -0.007480 0.023418 0.000000 -0.014430 0.000000
# 4 0.000000 0.000000 0.000000 0.034018 0.000000 -0.000041
# 5 -0.007731 0.003315 -0.014430 0.000000 0.039265 0.000000
# 6 0.000000 0.000000 0.000000 -0.000041 0.000000 0.033077
#
#
# Mechanical properties :
#
#
# Convention : Reuss Voigt Hill
#
# Bulk Modulus (GPa) = 30.91660 44.33556 37.62608
# Shear Modulus (GPa) = 26.58879 31.14170 28.86525
#
# Velocity S-wave (km/s) = 3.47809 3.76411 3.62392
# Velocity P-wave (km/s) = 5.49505 6.25002 5.88465
#
# Compressibility (1/GPa) = 0.03234509
#
# Stress axis : x y z
#
# Youngs Moduli (GPa) = 73.71634 68.29257 42.70252
#
# Poissons Ratio (x) = 0.26254 -0.07192
# Poissons Ratio (y) = 0.28339 0.31943
# Poissons Ratio (z) = -0.12415 0.51086
#
# Static dielectric constant tensor:
#      x y z
#    x 3.993210 0.000000 0.174810 
#    y 0.000000 3.836520 0.000000 
#    z 0.174810 0.000000 3.920230 
# 
# 
# High freq. dielectric constant tensor:
#      x y z
#    x 1.873220 0.000000 0.010230 
#    y 0.000000 1.857920 0.000000 
#    z 0.010230 0.000000 1.863150 
# 
# From -- ./inp_files/172359.got.cif
#   From: 2010.06.25/outbox.cif.g09.slc.cpg/sg15_87_cif.got.tgz:172359.got - 2010.06.28 07:06:18.
