data_PCOD8135668
_publ_section_title
;
Structure prediction by ZEFSAII (Michael W. Deem and Ramdas Pophale) SiO2 
 PCOD8135668
Probable space group: C 2/C
;
_chemical_formula_sum "Si O2"
_cell_formula_units_Z 44
_cell_length_a 22.925432
_cell_length_b 14.037010
_cell_length_c 16.920773
_cell_angle_alpha 90.000000
_cell_angle_beta 160.145166
_cell_angle_gamma 90.000000
_cell_volume 1849.391650
_symmetry_space_group_name_H-M "C 2/C"
_symmetry_group_IT_number 15
_symmetry_cell_setting 'monoclinic'
loop_
_space_group_symop_operation_xyz
x,y,z
-x,y,1/2-z
-x,-y,-z
x,-y,1/2+z
1/2+x,1/2+y,z
1/2-x,1/2+y,1/2-z
1/2-x,1/2-y,-z
1/2+x,1/2-y,1/2+z
loop_
_atom_site_type_symbol
_atom_site_label
_atom_site_fract_x
_atom_site_fract_y
_atom_site_fract_z
Si Si1 0.149082 0.803157 0.628368
Si Si2 0.764800 0.973842 0.857870
Si Si3 0.214720 0.885660 0.984843
Si Si4 0.500000 0.018423 0.750000
Si Si5 0.980079 0.761904 0.875659
Si Si6 0.922635 0.404013 0.497834
O O1 0.113550 0.892048 0.524364
O O2 0.025825 0.815506 0.547376
O O3 0.103400 0.707956 0.522071
O O4 0.346112 0.798795 0.911070
O O5 0.590560 0.920467 0.659277
O O6 0.844652 0.024577 0.037231
O O7 0.736688 0.053293 0.754481
O O8 0.342097 0.916454 0.076634
O O9 0.319779 0.811363 0.172610
O O10 0.045035 0.837552 0.728770
O O11 0.430221 0.952322 0.591935
#
# Coordination Sequence:
#
# PCOD8135668 Si02
#       6
#     8   8   8   4   8   8
#     4  12  21  39  66  96 124 171 209 268 311 388
#     4  10  19  39  63  86 128 168 209 252 324 383
#     4  10  20  37  60  97 119 172 202 266 314 389
#     4  10  20  38  64  84 122 166 220 254 326 384
#     4  11  22  36  66  95 132 152 216 265 322 367
#     4  10  20  38  63  88 117 173 216 253 311 399
#
# _framework density 23.791609000000001
#
# number of rings (size 3 to 8) (size 9 to 14) (size 15 to 20)
#    0.000    1.455    3.636    4.364    0.000    2.182 
#    0.000    7.273    4.000    0.000    0.000    0.000 
#    0.000    0.000    0.000    0.000    0.000    0.000 
#
# Total GULP energy -272867.649534 kJ/mol
# GULP energy per Si atom -12403.074979 kJ/mol
# Density = 2.373746 g / cm^3
# Si number density = 23.791609 Si / 1000 Ang^3
#
#
#
# Elastic Constant Matrix: (Units=GPa)
#
#
# Indices 1 2 3 4 5 6 
#
# 1 111.3006 40.8950 -2.4101 0.0006 -15.8315 0.0005
# 2 40.8950 129.1092 -3.9443 0.0008 -13.9644 0.0006
# 3 -2.4101 -3.9443 45.4315 0.0037 -7.5915 0.0033
# 4 0.0006 0.0008 0.0037 26.4026 0.0021 -3.8104
# 5 -15.8315 -13.9644 -7.5915 0.0021 16.9994 0.0019
# 6 0.0005 0.0006 0.0033 -3.8104 0.0019 51.6954
#
#
#
# Elastic Compliance Matrix: (Units=1/GPa)
#
#
# Indices 1 2 3 4 5 6 
#
# 1 0.011270 -0.002504 0.001935 -0.000001 0.009302 -0.000001
# 2 -0.002504 0.009239 0.001673 -0.000001 0.006004 0.000000
# 3 0.001935 0.001673 0.024627 -0.000005 0.014174 -0.000002
# 4 -0.000001 -0.000001 -0.000005 0.038282 -0.000009 0.002822
# 5 0.009302 0.006004 0.014174 -0.000009 0.078751 -0.000005
# 6 -0.000001 0.000000 -0.000002 0.002822 -0.000005 0.019552
#
#
# Mechanical properties :
#
#
# Convention : Reuss Voigt Hill
#
# Bulk Modulus (GPa) = 21.12273 39.43584 30.27928
# Shear Modulus (GPa) = 25.60209 35.77287 30.68748
#
# Velocity S-wave (km/s) = 3.28395 3.88182 3.59534
# Velocity P-wave (km/s) = 4.82458 6.05829 5.47629
#
# Compressibility (1/GPa) = 0.04734237
#
# Stress axis : x y z
#
# Youngs Moduli (GPa) = 88.73148 108.23473 40.60516
#
# Poissons Ratio (x) = 0.27107 -0.07856
# Poissons Ratio (y) = 0.22223 -0.06791
# Poissons Ratio (z) = -0.17168 -0.18103
#
# Static dielectric constant tensor:
#      x y z
#    x 4.292050 -0.000010 0.007560 
#    y -0.000010 4.312730 0.000000 
#    z 0.007560 0.000000 3.899600 
# 
# 
# High freq. dielectric constant tensor:
#      x y z
#    x 1.956700 0.000000 0.005080 
#    y 0.000000 1.944710 0.000000 
#    z 0.005080 0.000000 1.913120 
# 
# From -- ./inp_files/118127.got.cif
#   From: 2010.06.25/outbox.cif.g09.slc.cpg/sg15_60_cif.got.tgz:118127.got - 2010.06.28 07:06:18.
