data_PCOD8135502
_publ_section_title
;
Structure prediction by ZEFSAII (Michael W. Deem and Ramdas Pophale) SiO2 
 PCOD8135502
Probable space group: C 2/C
;
_chemical_formula_sum "Si O2"
_cell_formula_units_Z 56
_cell_length_a 9.043424
_cell_length_b 20.239153
_cell_length_c 18.374887
_cell_angle_alpha 90.000000
_cell_angle_beta 52.457893
_cell_angle_gamma 90.000000
_cell_volume 2666.683462
_symmetry_space_group_name_H-M "C 2/C"
_symmetry_group_IT_number 15
_symmetry_cell_setting 'monoclinic'
loop_
_space_group_symop_operation_xyz
x,y,z
-x,y,1/2-z
-x,-y,-z
x,-y,1/2+z
1/2+x,1/2+y,z
1/2-x,1/2+y,1/2-z
1/2-x,1/2-y,-z
1/2+x,1/2-y,1/2+z
loop_
_atom_site_type_symbol
_atom_site_label
_atom_site_fract_x
_atom_site_fract_y
_atom_site_fract_z
Si Si1 0.802325 0.402025 0.236338
Si Si2 0.236803 0.954376 0.571742
Si Si3 0.109706 0.663966 0.553204
Si Si4 0.291389 0.774143 0.333427
Si Si5 0.500000 0.477858 0.250000
Si Si6 0.576881 0.940837 0.573821
Si Si7 0.500000 0.988708 0.750000
Si Si8 0.424405 0.795470 0.969126
O O1 0.741524 0.338813 0.301647
O O2 0.659638 0.424612 0.218133
O O3 0.827220 0.463723 0.282658
O O4 0.995523 0.387433 0.137132
O O5 0.241659 0.879480 0.538502
O O6 0.386560 0.961542 0.591453
O O7 0.266421 0.007490 0.498855
O O8 0.042894 0.973809 0.668713
O O9 0.214795 0.713359 0.577079
O O10 0.966902 0.703710 0.543296
O O11 0.500000 0.747039 0.250000
O O12 0.120002 0.724049 0.369718
O O13 0.554908 0.942081 0.666878
O O14 0.640498 0.867599 0.535122
O O15 0.250000 0.750000 0.000000
#
# Coordination Sequence:
#
# PCOD8135502 Si02
#       8
#     8   8   8   8   4   8   4   8
#     4  11  21  37  68  91 122 159 217 264 315 386
#     4  10  19  38  64  93 122 163 207 256 331 380
#     4  10  20  44  69  85 122 175 211 263 318 388
#     4  10  22  44  65  92 122 172 221 260 307 392
#     4  12  22  32  59 103 126 154 202 268 328 390
#     4  10  21  40  64  86 131 166 201 265 322 378
#     4  12  18  44  65  93 122 160 214 260 330 378
#     4  11  25  42  62  95 128 173 217 261 322 381
#
# _framework density 20.999867999999999
#
# number of rings (size 3 to 8) (size 9 to 14) (size 15 to 20)
#    0.000    1.429    5.000    2.143    4.000    0.000 
#   12.857    1.429    0.000    0.000    0.000    0.000 
#    0.000    0.000    0.000    0.000    0.000    0.000 
#
# Total GULP energy -347044.701116 kJ/mol
# GULP energy per Si atom -12394.453611 kJ/mol
# Density = 2.095207 g / cm^3
# Si number density = 20.999868 Si / 1000 Ang^3
#
#
#
# Elastic Constant Matrix: (Units=GPa)
#
#
# Indices 1 2 3 4 5 6 
#
# 1 62.8025 29.6571 18.7427 0.0000 1.6504 0.0000
# 2 29.6571 66.8191 14.7451 0.0000 1.9537 0.0000
# 3 18.7427 14.7451 98.9611 0.0000 13.9466 0.0000
# 4 0.0000 0.0000 0.0000 17.3308 0.0000 11.9802
# 5 1.6504 1.9537 13.9466 0.0000 36.4127 0.0000
# 6 0.0000 0.0000 0.0000 11.9802 0.0000 24.0414
#
#
#
# Elastic Compliance Matrix: (Units=1/GPa)
#
#
# Indices 1 2 3 4 5 6 
#
# 1 0.020808 -0.008649 -0.002732 0.000000 0.000567 0.000000
# 2 -0.008649 0.019070 -0.001178 0.000000 -0.000180 0.000000
# 3 -0.002732 -0.001178 0.011386 0.000000 -0.004174 0.000000
# 4 0.000000 0.000000 0.000000 0.088021 0.000000 -0.043862
# 5 0.000567 -0.000180 -0.004174 0.000000 0.029046 0.000000
# 6 0.000000 0.000000 0.000000 -0.043862 0.000000 0.063452
#
#
# Mechanical properties :
#
#
# Convention : Reuss Voigt Hill
#
# Bulk Modulus (GPa) = 38.24749 39.43028 38.83888
# Shear Modulus (GPa) = 18.82422 26.58618 22.70520
#
# Velocity S-wave (km/s) = 2.99724 3.56197 3.29174
# Velocity P-wave (km/s) = 5.49824 5.97780 5.74303
#
# Compressibility (1/GPa) = 0.02614551
#
# Stress axis : x y z
#
# Youngs Moduli (GPa) = 48.05916 52.43905 87.82571
#
# Poissons Ratio (x) = 0.45354 0.23995
# Poissons Ratio (y) = 0.41566 0.10345
# Poissons Ratio (z) = 0.13130 0.06177
#
# Static dielectric constant tensor:
#      x y z
#    x 3.852790 0.000000 0.262140 
#    y 0.000000 3.808500 0.000000 
#    z 0.262140 0.000000 3.862120 
# 
# 
# High freq. dielectric constant tensor:
#      x y z
#    x 1.803450 0.000000 0.016830 
#    y 0.000000 1.820540 0.000000 
#    z 0.016830 0.000000 1.822770 
# 
# From -- ./inp_files/192070.got.cif
#   From: 2010.06.25/outbox.cif.g09.slc.cpg/sg15_97_cif.got.tgz:192070.got - 2010.06.28 07:06:18.
