data_PCOD8135298
_publ_section_title
;
Structure prediction by ZEFSAII (Michael W. Deem and Ramdas Pophale) SiO2 
 PCOD8135298
Probable space group: C 2/C
;
_chemical_formula_sum "Si O2"
_cell_formula_units_Z 56
_cell_length_a 25.944259
_cell_length_b 17.705545
_cell_length_c 10.322836
_cell_angle_alpha 90.000000
_cell_angle_beta 142.056400
_cell_angle_gamma 90.000000
_cell_volume 2915.706739
_symmetry_space_group_name_H-M "C 2/C"
_symmetry_group_IT_number 15
_symmetry_cell_setting 'monoclinic'
loop_
_space_group_symop_operation_xyz
x,y,z
-x,y,1/2-z
-x,-y,-z
x,-y,1/2+z
1/2+x,1/2+y,z
1/2-x,1/2+y,1/2-z
1/2-x,1/2-y,-z
1/2+x,1/2-y,1/2+z
loop_
_atom_site_type_symbol
_atom_site_label
_atom_site_fract_x
_atom_site_fract_y
_atom_site_fract_z
Si Si1 0.651591 0.607444 0.533377
Si Si2 0.840817 0.140122 0.664556
Si Si3 0.327812 0.934791 0.675878
Si Si4 0.929398 0.289643 0.864466
Si Si5 0.500000 0.836302 0.750000
Si Si6 0.053517 0.978790 0.229752
Si Si7 0.166988 0.567892 0.607211
Si Si8 0.500000 0.282692 0.750000
O O1 0.642554 0.594728 0.668940
O O2 0.631750 0.535444 0.404117
O O3 0.751368 0.622322 0.702362
O O4 0.582624 0.671705 0.366471
O O5 0.749465 0.118174 0.433290
O O6 0.851415 0.230551 0.697953
O O7 0.911182 0.106245 0.708242
O O8 0.404819 0.876753 0.833289
O O9 0.321039 0.966434 0.514745
O O10 0.340470 0.001680 0.802397
O O11 0.983272 0.282857 0.839961
O O12 0.984326 0.269508 0.096432
O O13 0.418122 0.885340 0.553799
O O14 0.000000 0.988535 0.250000
O O15 0.000000 0.000000 0.000000
#
# Coordination Sequence:
#
# PCOD8135298 Si02
#       8
#     8   8   8   8   4   8   8   4
#     4  10  19  38  57  87 117 151 190 241 291 339
#     4  10  20  36  58  84 116 153 193 232 291 354
#     4  10  21  38  62  86 114 150 197 246 288 344
#     4  10  22  39  58  83 117 156 194 233 295 348
#     4  10  24  43  57  84 122 152 194 258 288 326
#     4  12  20  31  54  85 118 150 186 237 289 343
#     4  10  22  39  62  85 115 151 198 247 296 327
#     4  10  20  39  63  82 116 160 192 228 292 368
#
# _framework density 19.206322
#
# number of rings (size 3 to 8) (size 9 to 14) (size 15 to 20)
#    0.000    1.714    3.571    1.286    1.000    5.143 
#    0.000    0.714    0.000    0.000    0.000    0.000 
#    0.000    0.000    0.000    0.000    0.000    0.000 
#
# Total GULP energy -346895.483109 kJ/mol
# GULP energy per Si atom -12389.124397 kJ/mol
# Density = 1.916261 g / cm^3
# Si number density = 19.206322 Si / 1000 Ang^3
#
#
#
# Elastic Constant Matrix: (Units=GPa)
#
#
# Indices 1 2 3 4 5 6 
#
# 1 95.0823 33.4785 50.8616 0.0000 0.2155 0.0000
# 2 33.4785 63.6488 35.7161 0.0000 -11.0781 0.0000
# 3 50.8616 35.7161 100.3296 0.0000 0.2003 0.0000
# 4 0.0000 0.0000 0.0000 26.3949 0.0000 -9.4226
# 5 0.2155 -11.0781 0.2003 0.0000 36.5527 0.0000
# 6 0.0000 0.0000 0.0000 -9.4226 0.0000 27.9052
#
#
#
# Elastic Compliance Matrix: (Units=1/GPa)
#
#
# Indices 1 2 3 4 5 6 
#
# 1 0.015551 -0.005041 -0.006086 0.000000 -0.001586 0.000000
# 2 -0.005041 0.022672 -0.005529 0.000000 0.006931 0.000000
# 3 -0.006086 -0.005529 0.015024 0.000000 -0.001722 0.000000
# 4 0.000000 0.000000 0.000000 0.043079 0.000000 0.014546
# 5 -0.001586 0.006931 -0.001722 0.000000 0.029477 0.000000
# 6 0.000000 0.000000 0.000000 0.014546 0.000000 0.040747
#
#
# Mechanical properties :
#
#
# Convention : Reuss Voigt Hill
#
# Bulk Modulus (GPa) = 50.16289 55.46369 52.81329
# Shear Modulus (GPa) = 24.21219 27.43752 25.82485
#
# Velocity S-wave (km/s) = 3.55440 3.78374 3.67086
# Velocity P-wave (km/s) = 6.55893 6.93033 6.74719
#
# Compressibility (1/GPa) = 0.01993506
#
# Stress axis : x y z
#
# Youngs Moduli (GPa) = 64.30385 44.10799 66.55913
#
# Poissons Ratio (x) = 0.22233 0.40508
# Poissons Ratio (y) = 0.32413 0.36803
# Poissons Ratio (z) = 0.39135 0.24389
#
# Static dielectric constant tensor:
#      x y z
#    x 3.638660 0.000000 0.081780 
#    y 0.000000 3.306770 0.000000 
#    z 0.081780 0.000000 3.670010 
# 
# 
# High freq. dielectric constant tensor:
#      x y z
#    x 1.749790 0.000000 0.005460 
#    y 0.000000 1.724710 0.000000 
#    z 0.005460 0.000000 1.758020 
# 
# From -- ./inp_files/62802.got.cif
#   From: 2010.06.25/outbox.cif.g09.slc.cpg/sg15_32_cif.got.tgz:62802.got - 2010.06.28 07:06:18.
