data_PCOD8135356
_publ_section_title
;
Structure prediction by ZEFSAII (Michael W. Deem and Ramdas Pophale) SiO2 
 PCOD8135356
Probable space group: C 2/C
;
_chemical_formula_sum "Si O2"
_cell_formula_units_Z 36
_cell_length_a 9.009531
_cell_length_b 16.828374
_cell_length_c 12.827332
_cell_angle_alpha 90.000000
_cell_angle_beta 110.621194
_cell_angle_gamma 90.000000
_cell_volume 1820.219359
_symmetry_space_group_name_H-M "C 2/C"
_symmetry_group_IT_number 15
_symmetry_cell_setting 'monoclinic'
loop_
_space_group_symop_operation_xyz
x,y,z
-x,y,1/2-z
-x,-y,-z
x,-y,1/2+z
1/2+x,1/2+y,z
1/2-x,1/2+y,1/2-z
1/2-x,1/2-y,-z
1/2+x,1/2-y,1/2+z
loop_
_atom_site_type_symbol
_atom_site_label
_atom_site_fract_x
_atom_site_fract_y
_atom_site_fract_z
Si Si1 0.354890 0.155559 0.634681
Si Si2 0.233718 0.015186 0.088399
Si Si3 0.189993 0.318901 0.605690
Si Si4 0.571535 0.545149 0.368258
Si Si5 0.500000 0.881117 0.750000
O O1 0.500000 0.164147 0.750000
O O2 0.259253 0.074680 0.636624
O O3 0.231523 0.226531 0.619155
O O4 0.407980 0.158749 0.524772
O O5 0.387253 0.064758 0.152217
O O6 0.205757 0.009415 0.956220
O O7 0.077624 0.059265 0.092846
O O8 0.350902 0.371389 0.647898
O O9 0.091723 0.329843 0.687480
O O10 0.500000 0.500472 0.250000
#
# Coordination Sequence:
#
# PCOD8135356 Si02
#       5
#     8   8   8   8   4
#     4  10  21  41  62  87 116 163 199 248 292 363
#     4  10  22  35  62  91 118 147 206 244 296 344
#     4  10  23  39  64  84 123 160 200 238 311 349
#     4  10  19  38  60  86 116 163 190 240 294 363
#     4  12  22  40  58  98 118 156 200 256 288 362
#
# _framework density 19.777835
#
# number of rings (size 3 to 8) (size 9 to 14) (size 15 to 20)
#    0.000    1.778    3.333    0.667    0.000    5.333 
#    2.000    1.111    0.000    0.000    0.000    0.000 
#    0.000    0.000    0.000    0.000    0.000    0.000 
#
# Total GULP energy -223009.179867 kJ/mol
# GULP energy per Si atom -12389.398881 kJ/mol
# Density = 1.973282 g / cm^3
# Si number density = 19.777835 Si / 1000 Ang^3
#
#
#
# Elastic Constant Matrix: (Units=GPa)
#
#
# Indices 1 2 3 4 5 6 
#
# 1 75.9850 38.7866 31.8911 0.0000 -7.9655 0.0000
# 2 38.7866 74.5332 33.3498 0.0000 -14.5375 0.0000
# 3 31.8911 33.3498 167.4637 0.0000 16.5249 0.0000
# 4 0.0000 0.0000 0.0000 17.3457 0.0000 -1.2140
# 5 -7.9655 -14.5375 16.5249 0.0000 40.0295 0.0000
# 6 0.0000 0.0000 0.0000 -1.2140 0.0000 15.8560
#
#
#
# Elastic Compliance Matrix: (Units=1/GPa)
#
#
# Indices 1 2 3 4 5 6 
#
# 1 0.018445 -0.008439 -0.001972 0.000000 0.001419 0.000000
# 2 -0.008439 0.020636 -0.003207 0.000000 0.007139 0.000000
# 3 -0.001972 -0.003207 0.007442 0.000000 -0.004629 0.000000
# 4 0.000000 0.000000 0.000000 0.057962 0.000000 0.004438
# 5 0.001419 0.007139 -0.004629 0.000000 0.029768 0.000000
# 6 0.000000 0.000000 0.000000 0.004438 0.000000 0.063407
#
#
# Mechanical properties :
#
#
# Convention : Reuss Voigt Hill
#
# Bulk Modulus (GPa) = 51.84880 58.44854 55.14867
# Shear Modulus (GPa) = 21.61456 28.90986 25.26221
#
# Velocity S-wave (km/s) = 3.30944 3.82741 3.57781
# Velocity P-wave (km/s) = 6.39341 7.01062 6.70912
#
# Compressibility (1/GPa) = 0.01928685
#
# Stress axis : x y z
#
# Youngs Moduli (GPa) = 54.21575 48.45906 134.36471
#
# Poissons Ratio (x) = 0.40896 0.26496
# Poissons Ratio (y) = 0.45755 0.43089
# Poissons Ratio (z) = 0.10691 0.15540
#
# Static dielectric constant tensor:
#      x y z
#    x 3.369470 0.000000 0.119730 
#    y 0.000000 3.484330 0.000000 
#    z 0.119730 0.000000 4.231670 
# 
# 
# High freq. dielectric constant tensor:
#      x y z
#    x 1.748870 0.000000 0.013080 
#    y 0.000000 1.754380 0.000000 
#    z 0.013080 0.000000 1.802000 
# 
# From -- ./inp_files/76457.got.cif
#   From: 2010.06.25/outbox.cif.g09.slc.cpg/sg15_39_cif.got.tgz:76457.got - 2010.06.28 07:06:18.
