data_PCOD8135400
_publ_section_title
;
Structure prediction by ZEFSAII (Michael W. Deem and Ramdas Pophale) SiO2 
 PCOD8135400
Probable space group: C 2/C
;
_chemical_formula_sum "Si O2"
_cell_formula_units_Z 64
_cell_length_a 8.703086
_cell_length_b 21.103765
_cell_length_c 23.456941
_cell_angle_alpha 90.000000
_cell_angle_beta 133.266629
_cell_angle_gamma 90.000000
_cell_volume 3137.174054
_symmetry_space_group_name_H-M "C 2/C"
_symmetry_group_IT_number 15
_symmetry_cell_setting 'monoclinic'
loop_
_space_group_symop_operation_xyz
x,y,z
-x,y,1/2-z
-x,-y,-z
x,-y,1/2+z
1/2+x,1/2+y,z
1/2-x,1/2+y,1/2-z
1/2-x,1/2-y,-z
1/2+x,1/2-y,1/2+z
loop_
_atom_site_type_symbol
_atom_site_label
_atom_site_fract_x
_atom_site_fract_y
_atom_site_fract_z
Si Si1 0.425459 0.877346 0.167466
Si Si2 0.267224 0.064246 0.421048
Si Si3 0.099504 0.398086 0.863875
Si Si4 0.532246 0.305500 0.097973
Si Si5 0.062233 0.516744 0.922641
Si Si6 0.429342 0.825406 0.533670
Si Si7 0.349369 0.245821 0.762768
Si Si8 0.818268 0.879494 0.805973
O O1 0.500000 0.898885 0.250000
O O2 0.175490 0.861138 0.106620
O O3 0.485403 0.929021 0.135673
O O4 0.541311 0.812856 0.177198
O O5 0.274170 0.039650 0.487618
O O6 0.414581 0.126173 0.457119
O O7 0.032403 0.084587 0.343387
O O8 0.347255 0.009459 0.398056
O O9 0.172982 0.459332 0.917825
O O10 0.084810 0.338295 0.902018
O O11 0.277799 0.386729 0.862550
O O12 0.868751 0.410835 0.778090
O O13 0.511289 0.246695 0.047934
O O14 0.629143 0.279650 0.181646
O O15 0.301893 0.333930 0.053035
O O16 0.500000 0.269622 0.750000
O O17 0.320684 0.304075 0.797655
#
# Coordination Sequence:
#
# PCOD8135400 Si02
#       8
#     8   8   8   8   8   8   8   8
#     4   9  20  38  62  90 123 165 205 251 315 377
#     4  10  23  42  63  87 124 164 212 259 309 373
#     4  10  24  39  62  91 125 157 218 259 302 381
#     4   9  18  35  62  87 128 162 192 260 314 364
#     4  10  23  44  57  89 126 159 209 260 302 381
#     4  10  19  38  61  92 122 163 206 248 316 368
#     4   9  18  37  63  91 120 157 203 255 307 378
#     4  11  22  40  65  93 115 165 209 264 316 355
#
# _framework density 20.400524999999998
#
# number of rings (size 3 to 8) (size 9 to 14) (size 15 to 20)
#    0.000    2.500    1.250    1.500    5.250    0.500 
#    9.000    3.750    0.000    0.000    0.000    0.000 
#    0.000    0.000    0.000    0.000    0.000    0.000 
#
# Total GULP energy -396701.551096 kJ/mol
# GULP energy per Si atom -12396.923472 kJ/mol
# Density = 2.035409 g / cm^3
# Si number density = 20.400525 Si / 1000 Ang^3
#
#
#
# Elastic Constant Matrix: (Units=GPa)
#
#
# Indices 1 2 3 4 5 6 
#
# 1 96.1984 49.9183 53.0238 0.0000 3.8337 0.0003
# 2 49.9183 97.0097 31.9121 0.0000 -9.7633 0.0000
# 3 53.0238 31.9121 86.6592 0.0000 7.0972 0.0002
# 4 0.0000 0.0000 0.0000 27.6051 0.0000 -4.2709
# 5 3.8337 -9.7633 7.0972 0.0000 43.5646 0.0002
# 6 0.0003 0.0000 0.0002 -4.2709 0.0002 19.9715
#
#
#
# Elastic Compliance Matrix: (Units=1/GPa)
#
#
# Indices 1 2 3 4 5 6 
#
# 1 0.019029 -0.007045 -0.008901 0.000000 -0.001803 0.000000
# 2 -0.007045 0.014849 -0.001501 0.000000 0.004192 0.000000
# 3 -0.008901 -0.001501 0.017739 0.000000 -0.002443 0.000000
# 4 0.000000 0.000000 0.000000 0.037465 0.000000 0.008012
# 5 -0.001803 0.004192 -0.002443 0.000000 0.024451 0.000000
# 6 0.000000 0.000000 0.000000 0.008012 0.000000 0.051785
#
#
# Mechanical properties :
#
#
# Convention : Reuss Voigt Hill
#
# Bulk Modulus (GPa) = 59.80004 61.06398 60.43201
# Shear Modulus (GPa) = 24.29716 27.89578 26.09647
#
# Velocity S-wave (km/s) = 3.45484 3.70186 3.58048
# Velocity P-wave (km/s) = 6.72987 6.94760 6.83960
#
# Compressibility (1/GPa) = 0.01672240
#
# Stress axis : x y z
#
# Youngs Moduli (GPa) = 52.55089 67.34412 56.37439
#
# Poissons Ratio (x) = 0.47445 0.50180
# Poissons Ratio (y) = 0.37023 0.08461
# Poissons Ratio (z) = 0.46777 0.10107
#
# Static dielectric constant tensor:
#      x y z
#    x 3.538760 0.000000 0.061280 
#    y 0.000000 3.707800 0.000000 
#    z 0.061280 0.000000 3.694300 
# 
# 
# High freq. dielectric constant tensor:
#      x y z
#    x 1.778870 0.000000 0.008430 
#    y 0.000000 1.800660 0.000000 
#    z 0.008430 0.000000 1.794500 
# 
# From -- ./inp_files/266123.got.cif
#   From: 2010.06.25/outbox.cif.g09.slc.cpg/sg15_134_cif.got.tgz:266123.got - 2010.06.28 07:06:18.
