data_PCOD8135723
_publ_section_title
;
Structure prediction by ZEFSAII (Michael W. Deem and Ramdas Pophale) SiO2 
 PCOD8135723
Probable space group: C 2/C
;
_chemical_formula_sum "Si O2"
_cell_formula_units_Z 60
_cell_length_a 23.344257
_cell_length_b 8.947174
_cell_length_c 20.781430
_cell_angle_alpha 90.000000
_cell_angle_beta 133.108606
_cell_angle_gamma 90.000000
_cell_volume 3168.835589
_symmetry_space_group_name_H-M "C 2/C"
_symmetry_group_IT_number 15
_symmetry_cell_setting 'monoclinic'
loop_
_space_group_symop_operation_xyz
x,y,z
-x,y,1/2-z
-x,-y,-z
x,-y,1/2+z
1/2+x,1/2+y,z
1/2-x,1/2+y,1/2-z
1/2-x,1/2-y,-z
1/2+x,1/2-y,1/2+z
loop_
_atom_site_type_symbol
_atom_site_label
_atom_site_fract_x
_atom_site_fract_y
_atom_site_fract_z
Si Si1 0.858431 0.588401 0.432766
Si Si2 0.337157 0.814133 0.337456
Si Si3 0.559321 0.457615 0.601997
Si Si4 0.439010 0.720224 0.085970
Si Si5 0.230366 0.199172 0.556221
Si Si6 0.637788 0.016436 0.772288
Si Si7 0.156485 0.239655 0.705426
Si Si8 0.500000 0.877500 0.250000
O O1 0.854535 0.411962 0.415118
O O2 0.931781 0.629002 0.535812
O O3 0.777290 0.653287 0.402985
O O4 0.876050 0.668015 0.379157
O O5 0.374170 0.651139 0.376502
O O6 0.372864 0.885329 0.300015
O O7 0.244361 0.809874 0.257927
O O8 0.500000 0.500000 0.500000
O O9 0.512917 0.377980 0.623548
O O10 0.601134 0.595907 0.668972
O O11 0.446813 0.770043 0.165465
O O12 0.357678 0.626750 0.013954
O O13 0.250000 0.250000 0.500000
O O14 0.290581 0.078172 0.629666
O O15 0.557364 0.021352 0.750912
O O16 0.653505 0.842876 0.767014
#
# Coordination Sequence:
#
# PCOD8135723 Si02
#       8
#     8   8   8   8   8   8   8   4
#     4   9  20  37  59  95 122 155 212 264 326 383
#     4  11  22  37  66  93 128 165 213 273 331 395
#     4  12  23  39  60  96 133 165 210 276 339 391
#     4  10  22  37  62  92 122 163 216 262 323 386
#     4  10  19  39  65  89 123 167 219 269 321 403
#     4  11  22  39  65  90 129 167 217 270 315 398
#     4  11  23  38  62  96 131 167 209 269 340 393
#     4  12  22  40  62  92 118 178 226 250 320 394
#
# _framework density 18.934398999999999
#
# number of rings (size 3 to 8) (size 9 to 14) (size 15 to 20)
#    0.800    0.533    5.333    1.600    1.867    1.600 
#    0.000    0.667    0.000    1.600    0.000    0.000 
#    0.000    0.000    0.000    0.000    0.000    0.000 
#
# Total GULP energy -371804.696590 kJ/mol
# GULP energy per Si atom -12393.489886 kJ/mol
# Density = 1.889130 g / cm^3
# Si number density = 18.934399 Si / 1000 Ang^3
#
#
#
# Elastic Constant Matrix: (Units=GPa)
#
#
# Indices 1 2 3 4 5 6 
#
# 1 111.4492 43.7038 35.4814 0.0000 1.2590 0.0000
# 2 43.7038 117.0526 52.9323 0.0000 -0.2025 0.0000
# 3 35.4814 52.9323 109.9670 0.0000 0.6369 0.0000
# 4 0.0000 0.0000 0.0000 32.7636 0.0000 0.9463
# 5 1.2590 -0.2025 0.6369 0.0000 33.5994 0.0000
# 6 0.0000 0.0000 0.0000 0.9463 0.0000 21.8503
#
#
#
# Elastic Compliance Matrix: (Units=1/GPa)
#
#
# Indices 1 2 3 4 5 6 
#
# 1 0.010844 -0.003155 -0.001978 0.000000 -0.000388 0.000000
# 2 -0.003155 0.011839 -0.004682 0.000000 0.000278 0.000000
# 3 -0.001978 -0.004682 0.011987 0.000000 -0.000181 0.000000
# 4 0.000000 0.000000 0.000000 0.030560 0.000000 -0.001324
# 5 -0.000388 0.000278 -0.000181 0.000000 0.029782 0.000000
# 6 0.000000 0.000000 0.000000 -0.001324 0.000000 0.045823
#
#
# Mechanical properties :
#
#
# Convention : Reuss Voigt Hill
#
# Bulk Modulus (GPa) = 66.49320 66.96710 66.73015
# Shear Modulus (GPa) = 30.21535 31.39939 30.80737
#
# Velocity S-wave (km/s) = 3.99907 4.07667 4.03806
# Velocity P-wave (km/s) = 7.51780 7.58971 7.55384
#
# Compressibility (1/GPa) = 0.01503913
#
# Stress axis : x y z
#
# Youngs Moduli (GPa) = 92.21683 84.46635 83.42578
#
# Poissons Ratio (x) = 0.26649 0.16501
# Poissons Ratio (y) = 0.29095 0.39063
# Poissons Ratio (z) = 0.18240 0.39550
#
# Static dielectric constant tensor:
#      x y z
#    x 3.554120 0.000000 0.023490 
#    y 0.000000 3.451100 0.000000 
#    z 0.023490 0.000000 3.521360 
# 
# 
# High freq. dielectric constant tensor:
#      x y z
#    x 1.736940 0.000000 0.007490 
#    y 0.000000 1.710190 0.000000 
#    z 0.007490 0.000000 1.742730 
# 
# From -- ./inp_files/252144.got.cif
#   From: 2010.06.25/outbox.cif.g09.slc.cpg/sg15_127_cif.got.tgz:252144.got - 2010.06.28 07:06:18.
