data_PCOD8135441
_publ_section_title
;
Structure prediction by ZEFSAII (Michael W. Deem and Ramdas Pophale) SiO2 
 PCOD8135441
Probable space group: C 2/C
;
_chemical_formula_sum "Si O2"
_cell_formula_units_Z 56
_cell_length_a 8.390094
_cell_length_b 33.134497
_cell_length_c 21.225938
_cell_angle_alpha 90.000000
_cell_angle_beta 152.281739
_cell_angle_gamma 90.000000
_cell_volume 2744.625193
_symmetry_space_group_name_H-M "C 2/C"
_symmetry_group_IT_number 15
_symmetry_cell_setting 'monoclinic'
loop_
_space_group_symop_operation_xyz
x,y,z
-x,y,1/2-z
-x,-y,-z
x,-y,1/2+z
1/2+x,1/2+y,z
1/2-x,1/2+y,1/2-z
1/2-x,1/2-y,-z
1/2+x,1/2-y,1/2+z
loop_
_atom_site_type_symbol
_atom_site_label
_atom_site_fract_x
_atom_site_fract_y
_atom_site_fract_z
Si Si1 0.889120 0.793975 0.870604
Si Si2 0.288727 0.377472 0.798413
Si Si3 0.231651 0.366990 0.269357
Si Si4 0.906602 0.504845 0.396240
Si Si5 0.733541 0.912511 0.969295
Si Si6 0.237789 0.426586 0.458605
Si Si7 0.013594 0.717536 0.828655
O O1 0.500000 0.799849 0.750000
O O2 0.992792 0.834731 0.868908
O O3 0.903863 0.755246 0.831723
O O4 0.104891 0.792684 0.011563
O O5 0.000000 0.378269 0.750000
O O6 0.089513 0.385270 0.664148
O O7 0.559149 0.413358 0.907339
O O8 0.597583 0.386135 0.415586
O O9 0.000000 0.365074 0.250000
O O10 0.071181 0.395195 0.159744
O O11 0.243652 0.320468 0.248786
O O12 0.500000 0.504363 0.250000
O O13 0.000000 0.500000 0.500000
O O14 0.073673 0.546348 0.435496
O O15 0.075812 0.470590 0.411066
O O16 0.011036 0.924411 0.013454
O O17 0.000000 0.729185 0.750000
#
# Coordination Sequence:
#
# PCOD8135441 Si02
#       7
#     8   8   8   8   8   8   8
#     4  10  21  38  60  89 125 158 196 247 302 353
#     4   9  18  34  60  87 109 148 197 253 290 333
#     4   9  18  34  60  88 108 145 199 252 285 332
#     4  12  25  40  57  85 124 158 186 240 312 363
#     4  10  21  38  61  86 110 150 207 246 286 351
#     4  10  19  38  63  83 110 150 205 243 287 346
#     4  10  21  38  60  90 124 158 198 244 298 360
#
# _framework density 20.403514999999999
#
# number of rings (size 3 to 8) (size 9 to 14) (size 15 to 20)
#    0.000    2.000    1.429    2.143    6.000    0.571 
#    0.000   10.000    0.000    0.000    0.000    0.000 
#    0.000    0.000    0.000    0.000    0.000    0.000 
#
# Total GULP energy -346946.873014 kJ/mol
# GULP energy per Si atom -12390.959750 kJ/mol
# Density = 2.035708 g / cm^3
# Si number density = 20.403515 Si / 1000 Ang^3
#
#
#
# Elastic Constant Matrix: (Units=GPa)
#
#
# Indices 1 2 3 4 5 6 
#
# 1 32.1508 29.9379 37.3548 -0.0002 -7.1578 -0.0002
# 2 29.9379 154.3034 74.7548 0.0000 -1.4419 0.0003
# 3 37.3548 74.7548 177.6927 -0.0019 -10.9198 -0.0014
# 4 -0.0002 0.0000 -0.0019 39.1770 -0.0010 -2.9546
# 5 -7.1578 -1.4419 -10.9198 -0.0010 24.9597 -0.0003
# 6 -0.0002 0.0003 -0.0014 -2.9546 -0.0003 18.8786
#
#
#
# Elastic Compliance Matrix: (Units=1/GPa)
#
#
# Indices 1 2 3 4 5 6 
#
# 1 0.046462 -0.005636 -0.006780 0.000000 0.010033 0.000000
# 2 -0.005636 0.008851 -0.002678 0.000000 -0.002277 0.000000
# 3 -0.006780 -0.002678 0.008273 0.000000 0.001521 0.000001
# 4 0.000000 0.000000 0.000000 0.025830 0.000001 0.004043
# 5 0.010033 -0.002277 0.001521 0.000001 0.043475 0.000001
# 6 0.000000 0.000000 0.000001 0.004043 0.000001 0.053603
#
#
# Mechanical properties :
#
#
# Convention : Reuss Voigt Hill
#
# Bulk Modulus (GPa) = 29.94256 72.02689 50.98472
# Shear Modulus (GPa) = 21.94754 31.40968 26.67861
#
# Velocity S-wave (km/s) = 3.28331 3.92781 3.61993
# Velocity P-wave (km/s) = 5.39264 7.47984 6.52030
#
# Compressibility (1/GPa) = 0.03339727
#
# Stress axis : x y z
#
# Youngs Moduli (GPa) = 21.52277 112.98579 120.87229
#
# Poissons Ratio (x) = 0.63683 0.81947
# Poissons Ratio (y) = 0.12131 0.32376
# Poissons Ratio (z) = 0.14592 0.30263
#
# Static dielectric constant tensor:
#      x y z
#    x 3.239300 0.000000 0.035590 
#    y 0.000000 4.182270 0.000000 
#    z 0.035590 0.000000 4.203180 
# 
# 
# High freq. dielectric constant tensor:
#      x y z
#    x 1.751070 0.000000 -0.007530 
#    y 0.000000 1.817510 0.000000 
#    z -0.007530 0.000000 1.821710 
# 
# From -- ./inp_files/234965.got.cif
#   From: 2010.06.25/outbox.cif.g09.slc.cpg/sg15_118_cif.got.tgz:234965.got - 2010.06.28 07:06:18.
