data_PCOD8135807
_publ_section_title
;
Structure prediction by ZEFSAII (Michael W. Deem and Ramdas Pophale) SiO2 
 PCOD8135807
Probable space group: C 2/C
;
_chemical_formula_sum "Si O2"
_cell_formula_units_Z 48
_cell_length_a 19.052135
_cell_length_b 9.812180
_cell_length_c 12.656847
_cell_angle_alpha 90.000000
_cell_angle_beta 78.493592
_cell_angle_gamma 90.000000
_cell_volume 2318.555567
_symmetry_space_group_name_H-M "C 2/C"
_symmetry_group_IT_number 15
_symmetry_cell_setting 'monoclinic'
loop_
_space_group_symop_operation_xyz
x,y,z
-x,y,1/2-z
-x,-y,-z
x,-y,1/2+z
1/2+x,1/2+y,z
1/2-x,1/2+y,1/2-z
1/2-x,1/2-y,-z
1/2+x,1/2-y,1/2+z
loop_
_atom_site_type_symbol
_atom_site_label
_atom_site_fract_x
_atom_site_fract_y
_atom_site_fract_z
Si Si1 0.816346 0.429433 0.999120
Si Si2 0.201876 0.830389 0.865076
Si Si3 0.686842 0.173616 0.347603
Si Si4 0.577995 0.860508 0.699955
Si Si5 0.964108 0.932970 0.359947
Si Si6 0.105970 0.067156 0.937201
O O1 0.826418 0.314102 0.085138
O O2 0.798936 0.570216 0.061610
O O3 0.752407 0.396584 0.938571
O O4 0.889496 0.441840 0.909350
O O5 0.241101 0.805519 0.741890
O O6 0.135150 0.932697 0.867630
O O7 0.625070 0.117350 0.289958
O O8 0.664438 0.315067 0.408833
O O9 0.500000 0.919627 0.750000
O O10 0.577045 0.699786 0.671866
O O11 0.000000 0.012110 0.250000
O O12 0.028868 0.885287 0.416713
O O13 0.906556 0.028590 0.435634
#
# Coordination Sequence:
#
# PCOD8135807 Si02
#       6
#     8   8   8   8   8   8
#     4  10  22  39  59  89 122 162 200 243 309 366
#     4  10  22  39  61  84 125 167 198 243 307 369
#     4  11  22  37  63  93 119 157 207 248 299 361
#     4  10  19  40  62  83 119 165 194 241 308 365
#     4  10  20  38  63  89 116 163 210 243 306 363
#     4  11  21  37  65  93 116 162 210 253 293 366
#
# _framework density 20.702545000000001
#
# number of rings (size 3 to 8) (size 9 to 14) (size 15 to 20)
#    0.000    1.667    5.000    1.000    0.000    2.667 
#    0.000    4.167    0.000    0.000    0.000    0.000 
#    0.000    0.000    0.000    0.000    0.000    0.000 
#
# Total GULP energy -297598.313293 kJ/mol
# GULP energy per Si atom -12399.929721 kJ/mol
# Density = 2.065542 g / cm^3
# Si number density = 20.702545 Si / 1000 Ang^3
#
#
#
# Elastic Constant Matrix: (Units=GPa)
#
#
# Indices 1 2 3 4 5 6 
#
# 1 38.2064 0.2710 16.8734 0.0000 -16.2809 0.0000
# 2 0.2710 81.7694 37.9722 0.0000 -5.9990 0.0000
# 3 16.8734 37.9722 151.0701 0.0000 -32.6537 0.0000
# 4 0.0000 0.0000 0.0000 30.4528 0.0000 -1.6535
# 5 -16.2809 -5.9990 -32.6537 0.0000 34.4024 0.0000
# 6 0.0000 0.0000 0.0000 -1.6535 0.0000 23.8328
#
#
#
# Elastic Compliance Matrix: (Units=1/GPa)
#
#
# Indices 1 2 3 4 5 6 
#
# 1 0.032934 0.001348 -0.000752 0.000000 0.015107 0.000000
# 2 0.001348 0.013935 -0.003762 0.000000 -0.000503 0.000000
# 3 -0.000752 -0.003762 0.009348 0.000000 0.007861 0.000000
# 4 0.000000 0.000000 0.000000 0.032962 0.000000 0.002287
# 5 0.015107 -0.000503 0.007861 0.000000 0.043591 0.000000
# 6 0.000000 0.000000 0.000000 0.002287 0.000000 0.042118
#
#
# Mechanical properties :
#
#
# Convention : Reuss Voigt Hill
#
# Bulk Modulus (GPa) = 20.04562 42.36437 31.20499
# Shear Modulus (GPa) = 25.27198 32.13289 28.70244
#
# Velocity S-wave (km/s) = 3.49767 3.94397 3.72751
# Velocity P-wave (km/s) = 5.10052 6.42244 5.79927
#
# Compressibility (1/GPa) = 0.04988622
#
# Stress axis : x y z
#
# Youngs Moduli (GPa) = 30.36389 71.76109 106.97267
#
# Poissons Ratio (x) = -0.09676 0.08044
# Poissons Ratio (y) = -0.04094 0.40242
# Poissons Ratio (z) = 0.02283 0.26996
#
# Static dielectric constant tensor:
#      x y z
#    x 3.637360 0.000000 -0.288030 
#    y 0.000000 3.462370 0.000000 
#    z -0.288030 0.000000 4.124970 
# 
# 
# High freq. dielectric constant tensor:
#      x y z
#    x 1.800450 0.000000 -0.018590 
#    y 0.000000 1.779920 0.000000 
#    z -0.018590 0.000000 1.829500 
# 
# From -- ./inp_files/166129.got.cif
#   From: 2010.06.25/outbox.cif.g09.slc.cpg/sg15_84_cif.got.tgz:166129.got - 2010.06.28 07:06:18.
