data_PCOD8135646
_publ_section_title
;
Structure prediction by ZEFSAII (Michael W. Deem and Ramdas Pophale) SiO2 
 PCOD8135646
Probable space group: C 2/C
;
_chemical_formula_sum "Si O2"
_cell_formula_units_Z 60
_cell_length_a 23.736355
_cell_length_b 10.909429
_cell_length_c 20.718629
_cell_angle_alpha 90.000000
_cell_angle_beta 30.607932
_cell_angle_gamma 90.000000
_cell_volume 2731.692611
_symmetry_space_group_name_H-M "C 2/C"
_symmetry_group_IT_number 15
_symmetry_cell_setting 'monoclinic'
loop_
_space_group_symop_operation_xyz
x,y,z
-x,y,1/2-z
-x,-y,-z
x,-y,1/2+z
1/2+x,1/2+y,z
1/2-x,1/2+y,1/2-z
1/2-x,1/2-y,-z
1/2+x,1/2-y,1/2+z
loop_
_atom_site_type_symbol
_atom_site_label
_atom_site_fract_x
_atom_site_fract_y
_atom_site_fract_z
Si Si1 0.668802 0.295791 0.333381
Si Si2 0.595568 0.641442 0.763670
Si Si3 0.327233 0.963911 0.002617
Si Si4 0.188828 0.749715 0.493693
Si Si5 0.062832 0.441583 0.995382
Si Si6 0.364636 0.212475 0.718042
Si Si7 0.971350 0.907750 0.921282
Si Si8 0.500000 0.180337 0.250000
O O1 0.635314 0.297606 0.291494
O O2 0.646383 0.162677 0.387365
O O3 0.801679 0.314073 0.211451
O O4 0.603007 0.398871 0.440165
O O5 0.700428 0.579472 0.624164
O O6 0.495859 0.547018 0.876218
O O7 0.545828 0.741331 0.764445
O O8 0.342935 0.110342 0.986972
O O9 0.397944 0.901694 0.876137
O O10 0.379390 0.945422 0.022634
O O11 0.250000 0.750000 0.500000
O O12 0.273950 0.810997 0.361057
O O13 0.081265 0.836822 0.589443
O O14 0.967052 0.376088 0.131739
O O15 0.000000 0.500000 0.000000
O O16 0.408970 0.351666 0.678499
#
# Coordination Sequence:
#
# PCOD8135646 Si02
#       8
#     8   8   8   8   8   8   8   4
#     4  10  21  40  65 107 133 174 228 277 344 410
#     4  12  25  47  70  96 147 183 228 276 348 424
#     4  12  25  49  69  94 140 177 229 291 329 416
#     4  11  24  40  71 103 130 177 237 286 347 389
#     4  11  21  39  68  98 133 175 222 284 345 399
#     4  10  19  39  62 103 135 163 233 276 342 401
#     4  10  21  42  71 104 136 174 226 292 342 405
#     4  12  32  48  66 100 136 194 230 270 352 422
#
# _framework density 21.964403999999998
#
# number of rings (size 3 to 8) (size 9 to 14) (size 15 to 20)
#    0.000    1.067    5.333    2.400    3.733    1.600 
#    0.000    4.000    0.000    0.000    0.000    0.000 
#    0.000    0.000    0.000    0.000    0.000    0.000 
#
# Total GULP energy -371721.029453 kJ/mol
# GULP energy per Si atom -12390.700982 kJ/mol
# Density = 2.191441 g / cm^3
# Si number density = 21.964404 Si / 1000 Ang^3
#
#
#
# Elastic Constant Matrix: (Units=GPa)
#
#
# Indices 1 2 3 4 5 6 
#
# 1 152.2450 19.5517 27.6692 0.0000 2.2076 0.0000
# 2 19.5517 56.5830 23.4679 -0.0002 9.0719 0.0001
# 3 27.6692 23.4679 71.8891 0.0000 -5.5339 0.0000
# 4 0.0000 -0.0002 0.0000 20.0581 0.0000 6.8382
# 5 2.2076 9.0719 -5.5339 0.0000 34.0014 0.0000
# 6 0.0000 0.0001 0.0000 6.8382 0.0000 33.1060
#
#
#
# Elastic Compliance Matrix: (Units=1/GPa)
#
#
# Indices 1 2 3 4 5 6 
#
# 1 0.007184 -0.001442 -0.002330 0.000000 -0.000461 0.000000
# 2 -0.001442 0.022317 -0.007273 0.000000 -0.007044 0.000000
# 3 -0.002330 -0.007273 0.017562 0.000000 0.004950 0.000000
# 4 0.000000 0.000000 0.000000 0.053632 0.000000 -0.011078
# 5 -0.000461 -0.007044 0.004950 0.000000 0.032126 0.000000
# 6 0.000000 0.000000 0.000000 -0.011078 0.000000 0.032494
#
#
# Mechanical properties :
#
#
# Convention : Reuss Voigt Hill
#
# Bulk Modulus (GPa) = 40.04111 46.89941 43.47026
# Shear Modulus (GPa) = 25.54567 31.43498 28.49033
#
# Velocity S-wave (km/s) = 3.41405 3.78720 3.60545
# Velocity P-wave (km/s) = 5.81468 6.36574 6.09644
#
# Compressibility (1/GPa) = 0.02497433
#
# Stress axis : x y z
#
# Youngs Moduli (GPa) = 139.20539 44.80848 56.94093
#
# Poissons Ratio (x) = 0.06462 0.13265
# Poissons Ratio (y) = 0.20076 0.41411
# Poissons Ratio (z) = 0.32429 0.32587
#
# Static dielectric constant tensor:
#      x y z
#    x 5.598720 0.000000 -0.421410 
#    y 0.000000 4.336200 0.000000 
#    z -0.421410 0.000000 4.026750 
# 
# 
# High freq. dielectric constant tensor:
#      x y z
#    x 1.884360 0.000000 -0.016840 
#    y 0.000000 1.849690 0.000000 
#    z -0.016840 0.000000 1.862440 
# 
# From -- ./inp_files/255534.got.cif
#   From: 2010.06.25/outbox.cif.g09.slc.cpg/sg15_128_cif.got.tgz:255534.got - 2010.06.28 07:06:18.
