data_PCOD8135284
_publ_section_title
;
Structure prediction by ZEFSAII (Michael W. Deem and Ramdas Pophale) SiO2 
 PCOD8135284
Probable space group: C 2/C
;
_chemical_formula_sum "Si O2"
_cell_formula_units_Z 48
_cell_length_a 22.790669
_cell_length_b 12.496507
_cell_length_c 26.490347
_cell_angle_alpha 90.000000
_cell_angle_beta 20.767283
_cell_angle_gamma 90.000000
_cell_volume 2675.094591
_symmetry_space_group_name_H-M "C 2/C"
_symmetry_group_IT_number 15
_symmetry_cell_setting 'monoclinic'
loop_
_space_group_symop_operation_xyz
x,y,z
-x,y,1/2-z
-x,-y,-z
x,-y,1/2+z
1/2+x,1/2+y,z
1/2-x,1/2+y,1/2-z
1/2-x,1/2-y,-z
1/2+x,1/2-y,1/2+z
loop_
_atom_site_type_symbol
_atom_site_label
_atom_site_fract_x
_atom_site_fract_y
_atom_site_fract_z
Si Si1 0.943964 0.610188 0.102914
Si Si2 0.324959 0.148869 0.866167
Si Si3 0.930183 0.859932 0.101876
Si Si4 0.754877 0.999141 0.822004
Si Si5 0.487943 0.357992 0.701340
Si Si6 0.230882 0.990193 0.351474
O O1 0.944905 0.737056 0.104713
O O2 0.841485 0.587616 0.134282
O O3 0.877323 0.547917 0.204755
O O4 0.128012 0.564738 0.957643
O O5 0.500000 0.117426 0.750000
O O6 0.365687 0.255063 0.800516
O O7 0.282190 0.050263 0.864893
O O8 0.171277 0.166622 0.029639
O O9 0.841227 0.886395 0.120070
O O10 0.828113 0.911275 0.228057
O O11 0.107515 0.912346 0.957205
O O12 0.898578 0.946827 0.739695
O O13 0.500000 0.397362 0.750000
#
# Coordination Sequence:
#
# PCOD8135284 Si02
#       6
#     8   8   8   8   8   8
#     4  10  21  34  59  86 116 152 187 229 282 341
#     4  11  23  39  60  87 113 149 189 235 288 338
#     4  10  19  38  55  86 116 152 186 230 286 334
#     4  10  21  37  56  87 116 147 190 232 283 336
#     4  11  23  39  61  85 115 148 188 238 285 339
#     4  10  21  35  60  83 118 149 186 237 281 338
#
# _framework density 17.943290000000001
#
# number of rings (size 3 to 8) (size 9 to 14) (size 15 to 20)
#    0.000    1.667    1.667    4.000    4.667    0.000 
#    6.000    0.000    0.000    6.000    0.000    0.000 
#    0.000    0.000    0.000    0.000    0.000    0.000 
#
# Total GULP energy -297340.353707 kJ/mol
# GULP energy per Si atom -12389.181404 kJ/mol
# Density = 1.790245 g / cm^3
# Si number density = 17.943290 Si / 1000 Ang^3
#
#
#
# Elastic Constant Matrix: (Units=GPa)
#
#
# Indices 1 2 3 4 5 6 
#
# 1 71.1070 41.8333 38.7959 0.0039 4.1784 -0.0059
# 2 41.8333 88.8728 35.5137 -0.0075 -3.5318 -0.0028
# 3 38.7959 35.5137 162.9184 -0.0057 12.3622 -0.0016
# 4 0.0039 -0.0075 -0.0057 82.5467 0.0147 8.7496
# 5 4.1784 -3.5318 12.3622 0.0147 33.2956 -0.0079
# 6 -0.0059 -0.0028 -0.0016 8.7496 -0.0079 24.7392
#
#
#
# Elastic Compliance Matrix: (Units=1/GPa)
#
#
# Indices 1 2 3 4 5 6 
#
# 1 0.020971 -0.008819 -0.002882 -0.000002 -0.002497 0.000004
# 2 -0.008819 0.016219 -0.001698 0.000001 0.003457 0.000000
# 3 -0.002882 -0.001698 0.007389 0.000001 -0.002562 -0.000002
# 4 -0.000002 0.000001 0.000001 0.012586 -0.000007 -0.004451
# 5 -0.002497 0.003457 -0.002562 -0.000007 0.031665 0.000012
# 6 0.000004 0.000000 -0.000002 -0.004451 0.000012 0.041996
#
#
# Mechanical properties :
#
#
# Convention : Reuss Voigt Hill
#
# Bulk Modulus (GPa) = 56.23836 61.68710 58.96273
# Shear Modulus (GPa) = 30.57175 41.90000 36.23587
#
# Velocity S-wave (km/s) = 4.13219 4.83757 4.49872
# Velocity P-wave (km/s) = 7.36050 8.10286 7.74058
#
# Compressibility (1/GPa) = 0.01778146
#
# Stress axis : x y z
#
# Youngs Moduli (GPa) = 47.68589 61.65642 135.33983
#
# Poissons Ratio (x) = 0.54373 0.39004
# Poissons Ratio (y) = 0.42053 0.22978
# Poissons Ratio (z) = 0.13743 0.10468
#
# Static dielectric constant tensor:
#      x y z
#    x 3.222910 0.000010 -0.007730 
#    y 0.000010 2.916760 0.000110 
#    z -0.007730 0.000110 3.741330 
# 
# 
# High freq. dielectric constant tensor:
#      x y z
#    x 1.680600 0.000000 0.007180 
#    y 0.000000 1.688380 0.000010 
#    z 0.007180 0.000010 1.723330 
# 
# From -- ./inp_files/60521.got.cif
#   From: 2010.06.25/outbox.cif.g09.slc.cpg/sg15_31_cif.got.tgz:60521.got - 2010.06.28 07:06:18.
