data_PCOD8135661
_publ_section_title
;
Structure prediction by ZEFSAII (Michael W. Deem and Ramdas Pophale) SiO2 
 PCOD8135661
Probable space group: C 2/C
;
_chemical_formula_sum "Si O2"
_cell_formula_units_Z 40
_cell_length_a 12.143976
_cell_length_b 8.105431
_cell_length_c 18.134667
_cell_angle_alpha 90.000000
_cell_angle_beta 97.770604
_cell_angle_gamma 90.000000
_cell_volume 1768.643071
_symmetry_space_group_name_H-M "C 2/C"
_symmetry_group_IT_number 15
_symmetry_cell_setting 'monoclinic'
loop_
_space_group_symop_operation_xyz
x,y,z
-x,y,1/2-z
-x,-y,-z
x,-y,1/2+z
1/2+x,1/2+y,z
1/2-x,1/2+y,1/2-z
1/2-x,1/2-y,-z
1/2+x,1/2-y,1/2+z
loop_
_atom_site_type_symbol
_atom_site_label
_atom_site_fract_x
_atom_site_fract_y
_atom_site_fract_z
Si Si1 0.777722 0.757783 0.417479
Si Si2 0.849778 0.758243 0.215984
Si Si3 0.349195 0.546023 0.331871
Si Si4 0.456086 0.751217 0.162899
Si Si5 0.970626 0.393791 0.852887
O O1 0.750000 0.750000 0.500000
O O2 0.672344 0.696604 0.358694
O O3 0.889474 0.651936 0.413564
O O4 0.799296 0.945399 0.395346
O O5 0.723494 0.712056 0.185895
O O6 0.892409 0.609675 0.273185
O O7 0.931838 0.745692 0.151787
O O8 0.857163 0.934274 0.257959
O O9 0.469630 0.610138 0.368677
O O10 0.500000 0.757350 0.250000
O O11 0.474785 0.929157 0.126676
#
# Coordination Sequence:
#
# PCOD8135661 Si02
#       5
#     8   8   8   8   8
#     4  11  26  46  65  95 140 185 224 271 330 409
#     4  10  19  39  63 102 132 168 218 289 338 388
#     4  11  23  39  68  97 136 175 222 281 344 399
#     4  12  23  41  70 100 131 174 223 282 339 390
#     4  10  20  41  62  95 135 166 221 273 333 395
#
# _framework density 22.616209000000001
#
# number of rings (size 3 to 8) (size 9 to 14) (size 15 to 20)
#    0.000    1.200    4.000    3.600    5.600    1.600 
#    0.000    1.000    0.000    0.000    0.000    0.000 
#    0.000    0.000    0.000    0.000    0.000    0.000 
#
# Total GULP energy -247828.995367 kJ/mol
# GULP energy per Si atom -12391.449768 kJ/mol
# Density = 2.256473 g / cm^3
# Si number density = 22.616209 Si / 1000 Ang^3
#
#
#
# Elastic Constant Matrix: (Units=GPa)
#
#
# Indices 1 2 3 4 5 6 
#
# 1 150.5468 47.2710 44.2798 0.0000 -29.8443 0.0000
# 2 47.2710 71.3396 15.0204 0.0000 -9.2592 0.0000
# 3 44.2798 15.0204 96.3258 0.0000 -30.6810 0.0000
# 4 0.0000 0.0000 0.0000 15.2570 0.0000 -7.6956
# 5 -29.8443 -9.2592 -30.6810 0.0000 36.3213 0.0000
# 6 0.0000 0.0000 0.0000 -7.6956 0.0000 49.9103
#
#
#
# Elastic Compliance Matrix: (Units=1/GPa)
#
#
# Indices 1 2 3 4 5 6 
#
# 1 0.009998 -0.005525 -0.002143 0.000000 0.004996 0.000000
# 2 -0.005525 0.017707 -0.000314 0.000000 -0.000291 0.000000
# 3 -0.002143 -0.000314 0.014815 0.000000 0.010674 0.000000
# 4 0.000000 0.000000 0.000000 0.071071 0.000000 0.010958
# 5 0.004996 -0.000291 0.010674 0.000000 0.040579 0.000000
# 6 0.000000 0.000000 0.000000 0.010958 0.000000 0.021726
#
#
# Mechanical properties :
#
#
# Convention : Reuss Voigt Hill
#
# Bulk Modulus (GPa) = 37.65657 59.03941 48.34799
# Shear Modulus (GPa) = 24.91121 34.40712 29.65916
#
# Velocity S-wave (km/s) = 3.32245 3.90468 3.62527
# Velocity P-wave (km/s) = 5.60398 6.81838 6.24079
#
# Compressibility (1/GPa) = 0.02655579
#
# Stress axis : x y z
#
# Youngs Moduli (GPa) = 100.01807 56.47504 67.49814
#
# Poissons Ratio (x) = 0.31204 0.14465
# Poissons Ratio (y) = 0.55263 0.02119
# Poissons Ratio (z) = 0.21434 0.01773
#
# Static dielectric constant tensor:
#      x y z
#    x 4.806070 0.000000 -0.275810 
#    y 0.000000 4.002210 0.000000 
#    z -0.275810 0.000000 3.433240 
# 
# 
# High freq. dielectric constant tensor:
#      x y z
#    x 1.926140 0.000000 -0.024870 
#    y 0.000000 1.887100 0.000000 
#    z -0.024870 0.000000 1.822190 
# 
# From -- ./inp_files/235829.got.cif
#   From: 2010.06.25/outbox.cif.g09.slc.cpg/sg15_118_cif.got.tgz:235829.got - 2010.06.28 07:06:18.
