data_PCOD8135033
_publ_section_title
;
Structure prediction by ZEFSAII (Michael W. Deem and Ramdas Pophale) SiO2 
 PCOD8135033
Probable space group: C 2/C
;
_chemical_formula_sum "Si O2"
_cell_formula_units_Z 40
_cell_length_a 16.009803
_cell_length_b 10.595023
_cell_length_c 28.128772
_cell_angle_alpha 90.000000
_cell_angle_beta 21.178571
_cell_angle_gamma 90.000000
_cell_volume 1723.763163
_symmetry_space_group_name_H-M "C 2/C"
_symmetry_group_IT_number 15
_symmetry_cell_setting 'monoclinic'
loop_
_space_group_symop_operation_xyz
x,y,z
-x,y,1/2-z
-x,-y,-z
x,-y,1/2+z
1/2+x,1/2+y,z
1/2-x,1/2+y,1/2-z
1/2-x,1/2-y,-z
1/2+x,1/2-y,1/2+z
loop_
_atom_site_type_symbol
_atom_site_label
_atom_site_fract_x
_atom_site_fract_y
_atom_site_fract_z
Si Si1 0.312999 0.457100 0.967850
Si Si2 0.012843 0.792008 0.360813
Si Si3 0.244824 0.819528 0.334508
Si Si4 0.779857 0.255319 0.551396
Si Si5 0.418425 0.918449 0.740509
O O1 0.416791 0.339964 0.943353
O O2 0.125726 0.529315 0.098474
O O3 0.517692 0.557006 0.846545
O O4 0.198385 0.398541 0.980277
O O5 0.750000 0.750000 0.500000
O O6 0.160076 0.713294 0.243166
O O7 0.115247 0.762382 0.358273
O O8 0.125035 0.760426 0.445403
O O9 0.511661 0.783639 0.192275
O O10 0.220733 0.973288 0.347872
O O11 0.500000 0.884695 0.750000
#
# Coordination Sequence:
#
# PCOD8135033 Si02
#       5
#     8   8   8   8   8
#     4   9  18  37  58  88 116 144 192 245 290 338
#     4  10  23  37  55  87 123 150 190 246 295 345
#     4  10  19  37  60  83 116 156 199 233 285 357
#     4   9  18  36  62  88 111 152 199 240 282 349
#     4  10  19  41  57  82 118 155 197 237 292 355
#
# _framework density 23.205044999999998
#
# number of rings (size 3 to 8) (size 9 to 14) (size 15 to 20)
#    0.000    2.400    4.000    0.000    2.800    0.800 
#    3.600    4.000    0.000    0.000    0.000    0.000 
#    0.000    0.000    0.000    0.000    0.000    0.000 
#
# Total GULP energy -247792.284931 kJ/mol
# GULP energy per Si atom -12389.614247 kJ/mol
# Density = 2.315223 g / cm^3
# Si number density = 23.205045 Si / 1000 Ang^3
#
#
#
# Elastic Constant Matrix: (Units=GPa)
#
#
# Indices 1 2 3 4 5 6 
#
# 1 205.5214 85.0468 24.3016 -0.0082 35.7001 0.0001
# 2 85.0468 131.5699 27.3654 -0.0064 36.8693 0.0062
# 3 24.3016 27.3654 31.2638 -0.1036 17.8261 -0.0339
# 4 -0.0082 -0.0064 -0.1036 17.0622 -0.0222 15.3820
# 5 35.7001 36.8693 17.8261 -0.0222 37.4276 0.0000
# 6 0.0001 0.0062 -0.0339 15.3820 0.0000 34.2503
#
#
#
# Elastic Compliance Matrix: (Units=1/GPa)
#
#
# Indices 1 2 3 4 5 6 
#
# 1 0.006890 -0.003538 -0.000685 -0.000010 -0.002761 0.000004
# 2 -0.003538 0.012802 -0.004378 -0.000045 -0.007151 0.000014
# 3 -0.000685 -0.004378 0.046017 0.000359 -0.016950 -0.000115
# 4 -0.000010 -0.000045 0.000359 0.098486 -0.000059 -0.044230
# 5 -0.002761 -0.007151 -0.016950 -0.000059 0.044470 0.000011
# 6 0.000004 0.000014 -0.000115 -0.044230 0.000011 0.049061
#
#
# Mechanical properties :
#
#
# Convention : Reuss Voigt Hill
#
# Bulk Modulus (GPa) = 20.61572 71.30918 45.96245
# Shear Modulus (GPa) = 17.17649 33.19076 25.18362
#
# Velocity S-wave (km/s) = 2.72362 3.78607 3.29791
# Velocity P-wave (km/s) = 4.33524 7.06464 5.86103
#
# Compressibility (1/GPa) = 0.04850667
#
# Stress axis : x y z
#
# Youngs Moduli (GPa) = 145.13397 78.11361 21.73132
#
# Poissons Ratio (x) = 0.27634 0.01489
# Poissons Ratio (y) = 0.51343 0.09515
# Poissons Ratio (z) = 0.09942 0.34201
#
# Static dielectric constant tensor:
#      x y z
#    x 4.716590 0.000280 0.501390 
#    y 0.000280 5.921250 0.000110 
#    z 0.501390 0.000110 4.009620 
# 
# 
# High freq. dielectric constant tensor:
#      x y z
#    x 1.915180 0.000000 0.014300 
#    y 0.000000 1.917520 0.000010 
#    z 0.014300 0.000010 1.885780 
# 
# From -- ./inp_files/141824.got.cif
#   From: 2010.06.25/outbox.cif.g09.slc.cpg/sg15_71_cif.got.tgz:141824.got - 2010.06.28 07:06:18.
