data_PCOD8135072
_publ_section_title
;
Structure prediction by ZEFSAII (Michael W. Deem and Ramdas Pophale) SiO2 
 PCOD8135072
Probable space group: C 2/C
;
_chemical_formula_sum "Si O2"
_cell_formula_units_Z 32
_cell_length_a 8.219773
_cell_length_b 11.839935
_cell_length_c 19.372094
_cell_angle_alpha 90.000000
_cell_angle_beta 40.098549
_cell_angle_gamma 90.000000
_cell_volume 1214.344416
_symmetry_space_group_name_H-M "C 2/C"
_symmetry_group_IT_number 15
_symmetry_cell_setting 'monoclinic'
loop_
_space_group_symop_operation_xyz
x,y,z
-x,y,1/2-z
-x,-y,-z
x,-y,1/2+z
1/2+x,1/2+y,z
1/2-x,1/2+y,1/2-z
1/2-x,1/2-y,-z
1/2+x,1/2-y,1/2+z
loop_
_atom_site_type_symbol
_atom_site_label
_atom_site_fract_x
_atom_site_fract_y
_atom_site_fract_z
Si Si1 0.757787 0.657294 0.783627
Si Si2 0.946953 0.657641 0.570728
Si Si3 0.322762 0.488016 0.454992
Si Si4 0.617831 0.845624 0.638581
O O1 0.832982 0.631809 0.681963
O O2 0.563626 0.763081 0.847172
O O3 0.000000 0.689585 0.750000
O O4 0.620519 0.543175 0.859546
O O5 0.788109 0.575263 0.574340
O O6 0.890236 0.785229 0.565128
O O7 0.246864 0.622157 0.471012
O O8 0.183072 0.453182 0.571445
O O9 0.500000 0.883126 0.750000
#
# Coordination Sequence:
#
# PCOD8135072 Si02
#       4
#     8   8   8   8
#     4  10  20  35  54  82 118 152 194 253 305 351
#     4   9  19  35  58  84 111 153 199 246 299 356
#     4  10  19  37  61  82 113 160 204 243 304 368
#     4   9  19  39  60  83 120 159 199 249 301 359
#
# _framework density 26.351669000000001
#
# number of rings (size 3 to 8) (size 9 to 14) (size 15 to 20)
#    0.000    2.500    0.000    5.250    0.000    2.000 
#    0.000   22.500    0.000    0.000    0.000    0.000 
#    0.000    0.000    0.000    0.000    0.000    0.000 
#
# Total GULP energy -198236.088966 kJ/mol
# GULP energy per Si atom -12389.755560 kJ/mol
# Density = 2.629169 g / cm^3
# Si number density = 26.351669 Si / 1000 Ang^3
#
#
#
# Elastic Constant Matrix: (Units=GPa)
#
#
# Indices 1 2 3 4 5 6 
#
# 1 148.3526 22.4751 56.4307 0.0021 -4.8013 0.0006
# 2 22.4751 22.8563 7.6404 0.0008 -4.4506 0.0001
# 3 56.4307 7.6404 54.3486 0.0032 7.6746 0.0040
# 4 0.0021 0.0008 0.0032 18.3748 -0.0017 -33.6031
# 5 -4.8013 -4.4506 7.6746 -0.0017 53.4813 -0.0008
# 6 0.0006 0.0001 0.0040 -33.6031 -0.0008 -5.7037
#
#
#
# Elastic Compliance Matrix: (Units=1/GPa)
#
#
# Indices 1 2 3 4 5 6 
#
# 1 0.012749 -0.007935 -0.012443 -0.000001 0.002270 -0.000001
# 2 -0.007935 0.052112 0.000410 0.000000 0.003565 0.000000
# 3 -0.012443 0.000410 0.032064 0.000003 -0.005684 0.000004
# 4 -0.000001 0.000000 0.000003 0.004622 -0.000001 -0.027232
# 5 0.002270 0.003565 -0.005684 -0.000001 0.020014 -0.000002
# 6 -0.000001 0.000000 0.000004 -0.027232 -0.000002 -0.014891
#
#
# Mechanical properties :
#
#
# Convention : Reuss Voigt Hill
#
# Bulk Modulus (GPa) = 17.54725 44.29444 30.92084
# Shear Modulus (GPa) = 30.19257 22.49789 26.34523
#
# Velocity S-wave (km/s) = 3.38857 2.92508 3.16532
# Velocity P-wave (km/s) = 4.68863 5.31541 5.01183
#
# Compressibility (1/GPa) = 0.05698900
#
# Stress axis : x y z
#
# Youngs Moduli (GPa) = 78.43561 19.18948 31.18754
#
# Poissons Ratio (x) = 0.15228 0.38806
# Poissons Ratio (y) = 0.62241 -0.01278
# Poissons Ratio (z) = 0.97595 -0.00787
#
# Static dielectric constant tensor:
#      x y z
#    x 5.415720 0.000000 -0.287730 
#    y 0.000000 4.719330 0.000010 
#    z -0.287730 0.000010 4.987440 
# 
# 
# High freq. dielectric constant tensor:
#      x y z
#    x 2.079230 0.000000 0.010460 
#    y 0.000000 2.038000 0.000000 
#    z 0.010460 0.000000 2.053920 
# 
# From -- ./inp_files/230566.got.cif
#   From: 2010.06.25/outbox.cif.g09.slc.cpg/sg15_116_cif.got.tgz:230566.got - 2010.06.28 07:06:18.
