data_PCOD8135165
_publ_section_title
;
Structure prediction by ZEFSAII (Michael W. Deem and Ramdas Pophale) SiO2 
 PCOD8135165
Probable space group: C 2/C
;
_chemical_formula_sum "Si O2"
_cell_formula_units_Z 64
_cell_length_a 11.453717
_cell_length_b 17.453472
_cell_length_c 17.490580
_cell_angle_alpha 90.000000
_cell_angle_beta 123.669445
_cell_angle_gamma 90.000000
_cell_volume 2909.954791
_symmetry_space_group_name_H-M "C 2/C"
_symmetry_group_IT_number 15
_symmetry_cell_setting 'monoclinic'
loop_
_space_group_symop_operation_xyz
x,y,z
-x,y,1/2-z
-x,-y,-z
x,-y,1/2+z
1/2+x,1/2+y,z
1/2-x,1/2+y,1/2-z
1/2-x,1/2-y,-z
1/2+x,1/2-y,1/2+z
loop_
_atom_site_type_symbol
_atom_site_label
_atom_site_fract_x
_atom_site_fract_y
_atom_site_fract_z
Si Si1 0.501303 0.838857 0.955087
Si Si2 0.890948 0.933413 0.883193
Si Si3 0.090288 0.702378 0.853289
Si Si4 0.795433 0.435653 0.540178
Si Si5 0.592016 0.696144 0.504508
Si Si6 0.929980 0.965526 0.151955
Si Si7 0.745285 0.068821 0.182919
Si Si8 0.479321 0.060637 0.893964
O O1 0.599761 0.861545 0.918326
O O2 0.504463 0.748915 0.974620
O O3 0.338993 0.860945 0.884095
O O4 0.558415 0.894415 0.042584
O O5 0.774336 0.952417 0.903989
O O6 0.813713 0.893647 0.783600
O O7 0.957058 0.011039 0.871940
O O8 0.014832 0.884398 0.966452
O O9 0.255817 0.683263 0.900727
O O10 0.000000 0.738419 0.750000
O O11 0.005642 0.623947 0.838826
O O12 0.094033 0.762251 0.923722
O O13 0.682671 0.414612 0.433278
O O14 0.878638 0.511589 0.544005
O O15 0.861772 0.042428 0.164221
O O16 0.000000 0.920245 0.250000
O O17 0.648247 0.996217 0.172760
#
# Coordination Sequence:
#
# PCOD8135165 Si02
#       8
#     8   8   8   8   8   8   8   8
#     4  10  20  38  67  79 118 163 210 249 297 371
#     4  11  25  35  58  92 130 160 197 260 306 362
#     4  10  23  38  67  86 122 159 201 269 305 359
#     4  11  20  38  60  88 123 158 196 261 309 353
#     4  10  24  42  54  94 121 164 213 242 310 367
#     4  10  20  36  58  87 119 160 198 247 314 375
#     4  10  20  37  63  90 117 161 205 250 311 375
#     4  10  19  37  63  93 113 150 208 261 307 361
#
# _framework density 21.993468
#
# number of rings (size 3 to 8) (size 9 to 14) (size 15 to 20)
#    0.000    1.750    2.500    1.875    7.000    2.500 
#    2.250    0.000    0.000    0.000    0.000    0.000 
#    0.000    0.000    0.000    0.000    0.000    0.000 
#
# Total GULP energy -396517.261729 kJ/mol
# GULP energy per Si atom -12391.164429 kJ/mol
# Density = 2.194341 g / cm^3
# Si number density = 21.993468 Si / 1000 Ang^3
#
#
#
# Elastic Constant Matrix: (Units=GPa)
#
#
# Indices 1 2 3 4 5 6 
#
# 1 105.5501 5.6546 12.2022 0.0000 -6.1374 0.0000
# 2 5.6546 29.1120 -3.2557 0.0000 -2.8308 0.0000
# 3 12.2022 -3.2557 99.4015 0.0000 12.9074 0.0000
# 4 0.0000 0.0000 0.0000 21.6482 0.0000 0.8177
# 5 -6.1374 -2.8308 12.9074 0.0000 28.8539 0.0000
# 6 0.0000 0.0000 0.0000 0.8177 0.0000 3.2632
#
#
#
# Elastic Compliance Matrix: (Units=1/GPa)
#
#
# Indices 1 2 3 4 5 6 
#
# 1 0.009915 -0.001849 -0.001622 0.000000 0.002653 0.000000
# 2 -0.001849 0.035077 0.001041 0.000000 0.002582 0.000000
# 3 -0.001622 0.001041 0.010962 0.000000 -0.005147 0.000000
# 4 0.000000 0.000000 0.000000 0.046635 0.000000 -0.011685
# 5 0.002653 0.002582 -0.005147 0.000000 0.037777 0.000000
# 6 0.000000 0.000000 0.000000 -0.011685 0.000000 0.309372
#
#
# Mechanical properties :
#
#
# Convention : Reuss Voigt Hill
#
# Bulk Modulus (GPa) = 19.57268 29.25176 24.41222
# Shear Modulus (GPa) = 10.60153 25.38389 17.99271
#
# Velocity S-wave (km/s) = 2.19790 3.40097 2.86334
# Velocity P-wave (km/s) = 3.91914 5.36202 4.69632
#
# Compressibility (1/GPa) = 0.05109163
#
# Stress axis : x y z
#
# Youngs Moduli (GPa) = 100.85662 28.50887 91.22660
#
# Poissons Ratio (x) = 0.05272 0.14799
# Poissons Ratio (y) = 0.18651 -0.09493
# Poissons Ratio (z) = 0.16361 -0.02967
#
# Static dielectric constant tensor:
#      x y z
#    x 4.188010 0.000000 0.108960 
#    y 0.000000 3.497340 0.000000 
#    z 0.108960 0.000000 4.140380 
# 
# 
# High freq. dielectric constant tensor:
#      x y z
#    x 1.872640 0.000000 0.010990 
#    y 0.000000 1.820900 0.000000 
#    z 0.010990 0.000000 1.868530 
# 
# From -- ./inp_files/200186.got.cif
#   From: 2010.06.25/outbox.cif.g09.slc.cpg/sg15_101_cif.got.tgz:200186.got - 2010.06.28 07:06:18.
