data_PCOD8135532
_publ_section_title
;
Structure prediction by ZEFSAII (Michael W. Deem and Ramdas Pophale) SiO2 
 PCOD8135532
Probable space group: C 2/C
;
_chemical_formula_sum "Si O2"
_cell_formula_units_Z 36
_cell_length_a 10.847991
_cell_length_b 10.880213
_cell_length_c 16.889179
_cell_angle_alpha 90.000000
_cell_angle_beta 106.099950
_cell_angle_gamma 90.000000
_cell_volume 1915.221169
_symmetry_space_group_name_H-M "C 2/C"
_symmetry_group_IT_number 15
_symmetry_cell_setting 'monoclinic'
loop_
_space_group_symop_operation_xyz
x,y,z
-x,y,1/2-z
-x,-y,-z
x,-y,1/2+z
1/2+x,1/2+y,z
1/2-x,1/2+y,1/2-z
1/2-x,1/2-y,-z
1/2+x,1/2-y,1/2+z
loop_
_atom_site_type_symbol
_atom_site_label
_atom_site_fract_x
_atom_site_fract_y
_atom_site_fract_z
Si Si1 0.778315 0.032299 0.639860
Si Si2 0.632065 0.431992 0.508922
Si Si3 0.822626 0.377313 0.007956
Si Si4 0.577542 0.223329 0.617365
Si Si5 0.500000 0.613415 0.250000
O O1 0.859146 0.098521 0.583538
O O2 0.689856 0.133095 0.668594
O O3 0.687803 0.926624 0.584524
O O4 0.874625 0.971877 0.720132
O O5 0.500000 0.500000 0.500000
O O6 0.750103 0.523983 0.552385
O O7 0.639989 0.309088 0.561453
O O8 0.969556 0.362235 0.058668
O O9 0.750000 0.250000 0.000000
O O10 0.515781 0.301947 0.676204
#
# Coordination Sequence:
#
# PCOD8135532 Si02
#       5
#     8   8   8   8   4
#     4  10  24  41  63  94 121 166 209 256 305 366
#     4  10  19  38  66  88 116 156 211 248 296 358
#     4  10  19  38  66  89 115 157 209 255 291 361
#     4  12  22  43  63  92 125 162 211 256 306 368
#     4  12  24  40  56  92 136 164 192 256 328 364
#
# _framework density 18.796785
#
# number of rings (size 3 to 8) (size 9 to 14) (size 15 to 20)
#    1.333    0.000    6.667    1.333    0.000    1.778 
#    4.000    0.000    0.000    0.000    0.000    0.000 
#    0.000    0.000    0.000    0.000    0.000    0.000 
#
# Total GULP energy -223068.420293 kJ/mol
# GULP energy per Si atom -12392.690016 kJ/mol
# Density = 1.875400 g / cm^3
# Si number density = 18.796785 Si / 1000 Ang^3
#
#
#
# Elastic Constant Matrix: (Units=GPa)
#
#
# Indices 1 2 3 4 5 6 
#
# 1 83.3889 49.1660 19.6053 0.0000 22.2575 0.0000
# 2 49.1660 96.1061 26.5061 0.0000 24.0440 0.0000
# 3 19.6053 26.5061 67.3279 0.0000 21.0727 0.0000
# 4 0.0000 0.0000 0.0000 23.2280 0.0000 12.6751
# 5 22.2575 24.0440 21.0727 0.0000 32.3565 0.0000
# 6 0.0000 0.0000 0.0000 12.6751 0.0000 44.7721
#
#
#
# Elastic Compliance Matrix: (Units=1/GPa)
#
#
# Indices 1 2 3 4 5 6 
#
# 1 0.018360 -0.007628 -0.000207 0.000000 -0.006827 0.000000
# 2 -0.007628 0.016319 -0.002575 0.000000 -0.005203 0.000000
# 3 -0.000207 -0.002575 0.019196 0.000000 -0.010446 0.000000
# 4 0.000000 0.000000 0.000000 0.050917 0.000000 -0.014415
# 5 -0.006827 -0.005203 -0.010446 0.000000 0.046271 0.000000
# 6 0.000000 0.000000 0.000000 -0.014415 0.000000 0.026416
#
#
# Mechanical properties :
#
#
# Convention : Reuss Voigt Hill
#
# Bulk Modulus (GPa) = 30.25136 48.59753 39.42445
# Shear Modulus (GPa) = 23.88713 30.17436 27.03075
#
# Velocity S-wave (km/s) = 3.56871 4.01096 3.79628
# Velocity P-wave (km/s) = 5.75411 6.88191 6.34312
#
# Compressibility (1/GPa) = 0.03305636
#
# Stress axis : x y z
#
# Youngs Moduli (GPa) = 54.46616 61.27761 52.09373
#
# Poissons Ratio (x) = 0.46741 0.01076
# Poissons Ratio (y) = 0.41545 0.13415
# Poissons Ratio (z) = 0.01125 0.15780
#
# Static dielectric constant tensor:
#      x y z
#    x 3.778260 0.000000 0.101910 
#    y 0.000000 3.732450 0.000000 
#    z 0.101910 0.000000 3.201850 
# 
# 
# High freq. dielectric constant tensor:
#      x y z
#    x 1.734380 0.000000 0.009300 
#    y 0.000000 1.736560 0.000000 
#    z 0.009300 0.000000 1.697060 
# 
# From -- ./inp_files/195766.got.cif
#   From: 2010.06.25/outbox.cif.g09.slc.cpg/sg15_98_cif.got.tgz:195766.got - 2010.06.28 07:06:18.
