data_PCOD8135895
_publ_section_title
;
Structure prediction by ZEFSAII (Michael W. Deem and Ramdas Pophale) SiO2 
 PCOD8135895
Probable space group: C 2/C
;
_chemical_formula_sum "Si O2"
_cell_formula_units_Z 32
_cell_length_a 8.298249
_cell_length_b 12.629697
_cell_length_c 11.285693
_cell_angle_alpha 90.000000
_cell_angle_beta 96.591308
_cell_angle_gamma 90.000000
_cell_volume 1174.971934
_symmetry_space_group_name_H-M "C 2/C"
_symmetry_group_IT_number 15
_symmetry_cell_setting 'monoclinic'
loop_
_space_group_symop_operation_xyz
x,y,z
-x,y,1/2-z
-x,-y,-z
x,-y,1/2+z
1/2+x,1/2+y,z
1/2-x,1/2+y,1/2-z
1/2-x,1/2-y,-z
1/2+x,1/2-y,1/2+z
loop_
_atom_site_type_symbol
_atom_site_label
_atom_site_fract_x
_atom_site_fract_y
_atom_site_fract_z
Si Si1 0.113876 0.406998 0.969501
Si Si2 0.601762 0.294263 0.061110
Si Si3 0.593180 0.401288 0.650779
Si Si4 0.328326 0.832663 0.279302
O O1 0.218351 0.373815 0.094177
O O2 0.235957 0.452103 0.878695
O O3 0.000000 0.500000 0.000000
O O4 0.016944 0.303322 0.915506
O O5 0.673166 0.354703 0.182050
O O6 0.750000 0.250000 0.000000
O O7 0.516913 0.384390 0.974840
O O8 0.500000 0.464731 0.750000
O O9 0.645615 0.292284 0.716516
O O10 0.500000 0.884930 0.250000
#
# Coordination Sequence:
#
# PCOD8135895 Si02
#       4
#     8   8   8   8
#     4  11  25  43  68 109 147 179 235 309 368 411
#     4  11  19  41  74  99 140 189 241 286 341 436
#     4  10  21  40  69 101 138 188 242 280 348 443
#     4  10  19  40  71 101 138 186 242 282 346 432
#
# _framework density 27.234693
#
# number of rings (size 3 to 8) (size 9 to 14) (size 15 to 20)
#    0.000    1.500    7.500    3.000    0.000    4.000 
#    4.500    1.250    5.500    9.000    0.000    0.000 
#    0.000    0.000    0.000    0.000    0.000    0.000 
#
# Total GULP energy -198311.137393 kJ/mol
# GULP energy per Si atom -12394.446087 kJ/mol
# Density = 2.717271 g / cm^3
# Si number density = 27.234693 Si / 1000 Ang^3
#
#
#
# Elastic Constant Matrix: (Units=GPa)
#
#
# Indices 1 2 3 4 5 6 
#
# 1 194.8641 35.4139 108.1615 0.0000 -24.1924 0.0000
# 2 35.4139 55.9658 20.3558 0.0000 -3.3841 0.0000
# 3 108.1615 20.3558 166.3800 0.0000 0.8966 0.0000
# 4 0.0000 0.0000 0.0000 2.2604 0.0000 -15.3803
# 5 -24.1924 -3.3841 0.8966 0.0000 86.5326 0.0000
# 6 0.0000 0.0000 0.0000 -15.3803 0.0000 32.6508
#
#
#
# Elastic Compliance Matrix: (Units=1/GPa)
#
#
# Indices 1 2 3 4 5 6 
#
# 1 0.009171 -0.003642 -0.005529 0.000000 0.002479 0.000000
# 2 -0.003642 0.020196 -0.000102 0.000000 -0.000227 0.000000
# 3 -0.005529 -0.000102 0.009626 0.000000 -0.001650 0.000000
# 4 0.000000 0.000000 0.000000 -0.200622 0.000000 -0.094504
# 5 0.002479 -0.000227 -0.001650 0.000000 0.012258 0.000000
# 6 0.000000 0.000000 0.000000 -0.094504 0.000000 -0.013889
#
#
# Mechanical properties :
#
#
# Convention : Reuss Voigt Hill
#
# Bulk Modulus (GPa) = 48.90942 82.78580 65.84761
# Shear Modulus (GPa) = -36.25848 41.17403 2.45777
#
# Velocity S-wave (km/s) = -3.65270 3.89243 0.95100
# Velocity P-wave (km/s) = 0.45588 7.11791 5.04343
#
# Compressibility (1/GPa) = 0.02044596
#
# Stress axis : x y z
#
# Youngs Moduli (GPa) = 109.04451 49.51490 103.88151
#
# Poissons Ratio (x) = 0.18033 0.57441
# Poissons Ratio (y) = 0.39713 0.01061
# Poissons Ratio (z) = 0.60296 0.00506
#
# Static dielectric constant tensor:
#      x y z
#    x 5.511970 0.000000 0.667670 
#    y 0.000000 4.541940 0.000000 
#    z 0.667670 0.000000 6.634110 
# 
# 
# High freq. dielectric constant tensor:
#      x y z
#    x 2.109770 0.000000 -0.009880 
#    y 0.000000 2.067500 0.000000 
#    z -0.009880 0.000000 2.100610 
# 
# From -- ./inp_files/75587.got.cif
#   From: 2010.06.25/outbox.cif.g09.slc.cpg/sg15_38_cif.got.tgz:75587.got - 2010.06.28 07:06:18.
