data_PCOD8135011
_publ_section_title
;
Structure prediction by ZEFSAII (Michael W. Deem and Ramdas Pophale) SiO2 
 PCOD8135011
Probable space group: C 2/C
;
_chemical_formula_sum "Si O2"
_cell_formula_units_Z 56
_cell_length_a 12.040541
_cell_length_b 27.970592
_cell_length_c 9.768463
_cell_angle_alpha 90.000000
_cell_angle_beta 62.796867
_cell_angle_gamma 90.000000
_cell_volume 2925.949389
_symmetry_space_group_name_H-M "C 2/C"
_symmetry_group_IT_number 15
_symmetry_cell_setting 'monoclinic'
loop_
_space_group_symop_operation_xyz
x,y,z
-x,y,1/2-z
-x,-y,-z
x,-y,1/2+z
1/2+x,1/2+y,z
1/2-x,1/2+y,1/2-z
1/2-x,1/2-y,-z
1/2+x,1/2-y,1/2+z
loop_
_atom_site_type_symbol
_atom_site_label
_atom_site_fract_x
_atom_site_fract_y
_atom_site_fract_z
Si Si1 0.402085 0.302170 0.076438
Si Si2 0.162539 0.853083 0.909170
Si Si3 0.752791 0.862333 0.941275
Si Si4 0.969728 0.295713 0.420987
Si Si5 0.772205 0.298138 0.069394
Si Si6 0.553086 0.557280 0.583402
Si Si7 0.893878 0.953196 0.915788
O O1 0.336977 0.305957 0.259451
O O2 0.543885 0.319697 0.009456
O O3 0.335969 0.336440 0.006400
O O4 0.391341 0.247408 0.032218
O O5 0.201557 0.845328 0.732139
O O6 0.270831 0.838713 0.953726
O O7 0.144381 0.908993 0.947496
O O8 0.772050 0.919686 0.956443
O O9 0.609270 0.845316 0.035633
O O10 0.000000 0.280358 0.250000
O O11 0.095264 0.302930 0.433841
O O12 0.750000 0.250000 0.000000
O O13 0.500000 0.582894 0.750000
O O14 0.628492 0.509950 0.593478
O O15 0.435541 0.548374 0.550433
O O16 0.000000 0.934590 0.750000
#
# Coordination Sequence:
#
# PCOD8135011 Si02
#       7
#     8   8   8   8   8   8   8
#     4  12  23  40  63  89 124 164 207 257 307 366
#     4  12  23  38  63  94 126 160 199 261 321 364
#     4  12  23  40  63  87 126 164 205 250 307 378
#     4  12  26  42  62  88 122 170 215 244 302 373
#     4  12  26  42  59  89 127 166 210 256 301 363
#     4  10  20  33  59  93 128 155 193 256 323 365
#     4  10  19  37  59  92 125 156 198 255 318 367
#
# _framework density 19.139088000000001
#
# number of rings (size 3 to 8) (size 9 to 14) (size 15 to 20)
#    0.000    0.571    5.714    3.857    0.000    1.714 
#    0.000    0.000    0.000    0.857    0.000    0.000 
#    0.000    0.000    0.000    0.000    0.000    0.000 
#
# Total GULP energy -347111.136597 kJ/mol
# GULP energy per Si atom -12396.826307 kJ/mol
# Density = 1.909553 g / cm^3
# Si number density = 19.139088 Si / 1000 Ang^3
#
#
#
# Elastic Constant Matrix: (Units=GPa)
#
#
# Indices 1 2 3 4 5 6 
#
# 1 96.6181 30.2736 18.3363 0.0000 14.0529 0.0000
# 2 30.2736 92.9763 17.8804 0.0000 -0.5854 0.0000
# 3 18.3363 17.8804 107.9360 0.0000 25.1673 0.0000
# 4 0.0000 0.0000 0.0000 27.9566 0.0000 8.0523
# 5 14.0529 -0.5854 25.1673 0.0000 30.6001 0.0000
# 6 0.0000 0.0000 0.0000 8.0523 0.0000 26.5905
#
#
#
# Elastic Compliance Matrix: (Units=1/GPa)
#
#
# Indices 1 2 3 4 5 6 
#
# 1 0.012481 -0.004078 -0.000111 0.000000 -0.005718 0.000000
# 2 -0.004078 0.012556 -0.002326 0.000000 0.004026 0.000000
# 3 -0.000111 -0.002326 0.011961 0.000000 -0.009831 0.000000
# 4 0.000000 0.000000 0.000000 0.039188 0.000000 -0.011867
# 5 -0.005718 0.004026 -0.009831 0.000000 0.043468 0.000000
# 6 0.000000 0.000000 0.000000 -0.011867 0.000000 0.041201
#
#
# Mechanical properties :
#
#
# Convention : Reuss Voigt Hill
#
# Bulk Modulus (GPa) = 41.72454 47.83457 44.77955
# Shear Modulus (GPa) = 27.49132 32.43210 29.96171
#
# Velocity S-wave (km/s) = 3.79409 4.12095 3.96090
# Velocity P-wave (km/s) = 6.40637 6.90582 6.66078
#
# Compressibility (1/GPa) = 0.02396671
#
# Stress axis : x y z
#
# Youngs Moduli (GPa) = 80.12336 79.64296 83.60319
#
# Poissons Ratio (x) = 0.32482 0.00931
# Poissons Ratio (y) = 0.32678 0.19446
# Poissons Ratio (z) = 0.00892 0.18525
#
# Static dielectric constant tensor:
#      x y z
#    x 0.674800 0.000000 -0.140350 
#    y 0.000000 3.677550 0.000000 
#    z -0.140350 0.000000 3.304440 
# 
# 
# High freq. dielectric constant tensor:
#      x y z
#    x 1.723260 0.000000 0.034320 
#    y 0.000000 1.743400 0.000000 
#    z 0.034320 0.000000 1.758710 
# 
# From -- ./inp_files/34332.got.cif
#   From: 2010.06.25/outbox.cif.g09.slc.cpg/sg15_18_cif.got.tgz:34332.got - 2010.06.28 07:06:18.
