data_PCOD8135005
_publ_section_title
;
Structure prediction by ZEFSAII (Michael W. Deem and Ramdas Pophale) SiO2 
 PCOD8135005
Probable space group: C 2/C
;
_chemical_formula_sum "Si O2"
_cell_formula_units_Z 56
_cell_length_a 14.362354
_cell_length_b 27.272523
_cell_length_c 11.991889
_cell_angle_alpha 90.000000
_cell_angle_beta 36.419968
_cell_angle_gamma 90.000000
_cell_volume 2788.721377
_symmetry_space_group_name_H-M "C 2/C"
_symmetry_group_IT_number 15
_symmetry_cell_setting 'monoclinic'
loop_
_space_group_symop_operation_xyz
x,y,z
-x,y,1/2-z
-x,-y,-z
x,-y,1/2+z
1/2+x,1/2+y,z
1/2-x,1/2+y,1/2-z
1/2-x,1/2-y,-z
1/2+x,1/2-y,1/2+z
loop_
_atom_site_type_symbol
_atom_site_label
_atom_site_fract_x
_atom_site_fract_y
_atom_site_fract_z
Si Si1 0.895088 0.369369 0.249218
Si Si2 0.649123 0.200437 0.905486
Si Si3 0.815962 0.944067 0.934981
Si Si4 0.812254 0.282908 0.834191
Si Si5 0.316423 0.366088 0.415713
Si Si6 0.169482 0.459773 0.632171
Si Si7 0.906156 0.549423 0.059299
O O1 0.876199 0.320796 0.193044
O O2 0.739341 0.393837 0.451956
O O3 0.000000 0.351439 0.250000
O O4 0.972673 0.410815 0.099587
O O5 0.736254 0.253055 0.803790
O O6 0.765308 0.162250 0.853967
O O7 0.497489 0.210147 0.131554
O O8 0.733963 0.955492 0.894906
O O9 0.000000 0.938784 0.750000
O O10 0.774489 0.991829 0.047955
O O11 0.750000 0.250000 0.000000
O O12 0.744758 0.337266 0.915440
O O13 0.500000 0.371141 0.250000
O O14 0.243287 0.420338 0.476754
O O15 0.165613 0.432352 0.754973
O O16 0.000000 0.477055 0.750000
O O17 0.000000 0.500000 0.000000
#
# Coordination Sequence:
#
# PCOD8135005 Si02
#       7
#     8   8   8   8   8   8   8
#     4  10  22  43  62  86 119 169 216 249 303 376
#     4  11  22  39  66  87 125 163 200 253 319 378
#     4  11  24  39  58  88 127 163 206 266 310 355
#     4  10  19  37  59  90 120 155 189 248 317 369
#     4  11  22  34  55  93 128 156 197 251 308 379
#     4  12  21  36  60  87 122 163 211 248 304 385
#     4  11  20  38  61  83 115 168 207 247 302 368
#
# _framework density 20.080887000000001
#
# number of rings (size 3 to 8) (size 9 to 14) (size 15 to 20)
#    0.000    1.143    2.857    6.857    0.000    1.714 
#    0.000    3.571    0.000    0.000    0.000    0.000 
#    0.000    0.000    0.000    0.000    0.000    0.000 
#
# Total GULP energy -346965.633869 kJ/mol
# GULP energy per Si atom -12391.629781 kJ/mol
# Density = 2.003518 g / cm^3
# Si number density = 20.080887 Si / 1000 Ang^3
#
#
#
# Elastic Constant Matrix: (Units=GPa)
#
#
# Indices 1 2 3 4 5 6 
#
# 1 96.8963 26.4411 48.2065 0.0000 2.9256 0.0000
# 2 26.4411 75.3368 19.6647 0.0000 -6.8242 0.0000
# 3 48.2065 19.6647 101.5728 -0.0001 -21.3547 0.0000
# 4 0.0000 0.0000 -0.0001 21.0240 0.0001 7.4926
# 5 2.9256 -6.8242 -21.3547 0.0001 38.8553 0.0000
# 6 0.0000 0.0000 0.0000 7.4926 0.0000 36.8860
#
#
#
# Elastic Compliance Matrix: (Units=1/GPa)
#
#
# Indices 1 2 3 4 5 6 
#
# 1 0.015517 -0.003945 -0.007905 0.000000 -0.006206 0.000000
# 2 -0.003945 0.015024 -0.000474 0.000000 0.002675 0.000000
# 3 -0.007905 -0.000474 0.015599 0.000000 0.009085 0.000000
# 4 0.000000 0.000000 0.000000 0.051277 0.000000 -0.010416
# 5 -0.006206 0.002675 0.009085 0.000000 0.031667 0.000000
# 6 0.000000 0.000000 0.000000 -0.010416 0.000000 0.029226
#
#
# Mechanical properties :
#
#
# Convention : Reuss Voigt Hill
#
# Bulk Modulus (GPa) = 46.52958 51.38115 48.95536
# Shear Modulus (GPa) = 26.29881 31.31931 28.80906
#
# Velocity S-wave (km/s) = 3.62283 3.95353 3.79179
# Velocity P-wave (km/s) = 6.38132 6.81786 6.60320
#
# Compressibility (1/GPa) = 0.02149171
#
# Stress axis : x y z
#
# Youngs Moduli (GPa) = 64.44490 66.55886 64.10691
#
# Poissons Ratio (x) = 0.26256 0.50680
# Poissons Ratio (y) = 0.25422 0.03040
# Poissons Ratio (z) = 0.50947 0.03156
#
# Static dielectric constant tensor:
#      x y z
#    x 4.007950 0.000000 0.214890 
#    y 0.000000 3.920810 0.000000 
#    z 0.214890 0.000000 3.778540 
# 
# 
# High freq. dielectric constant tensor:
#      x y z
#    x 1.772870 0.000000 -0.005840 
#    y 0.000000 1.784630 0.000000 
#    z -0.005840 0.000000 1.778500 
# 
# From -- ./inp_files/101737.got.cif
#   From: 2010.06.25/outbox.cif.g09.slc.cpg/sg15_51_cif.got.tgz:101737.got - 2010.06.28 07:06:18.
