data_PCOD8135402
_publ_section_title
;
Structure prediction by ZEFSAII (Michael W. Deem and Ramdas Pophale) SiO2 
 PCOD8135402
Probable space group: C 2/C
;
_chemical_formula_sum "Si O2"
_cell_formula_units_Z 48
_cell_length_a 19.068039
_cell_length_b 12.656922
_cell_length_c 10.571850
_cell_angle_alpha 90.000000
_cell_angle_beta 60.806491
_cell_angle_gamma 90.000000
_cell_volume 2227.348116
_symmetry_space_group_name_H-M "C 2/C"
_symmetry_group_IT_number 15
_symmetry_cell_setting 'monoclinic'
loop_
_space_group_symop_operation_xyz
x,y,z
-x,y,1/2-z
-x,-y,-z
x,-y,1/2+z
1/2+x,1/2+y,z
1/2-x,1/2+y,1/2-z
1/2-x,1/2-y,-z
1/2+x,1/2-y,1/2+z
loop_
_atom_site_type_symbol
_atom_site_label
_atom_site_fract_x
_atom_site_fract_y
_atom_site_fract_z
Si Si1 0.237218 0.698829 0.216712
Si Si2 0.913004 0.062504 0.690090
Si Si3 0.758469 0.034567 0.397901
Si Si4 0.500000 0.747589 0.750000
Si Si5 0.152086 0.157230 0.985385
Si Si6 0.846298 0.652837 0.472168
Si Si7 0.500000 0.386593 0.750000
O O1 0.267253 0.589852 0.252694
O O2 0.178921 0.745685 0.376059
O O3 0.187983 0.679760 0.134439
O O4 0.310621 0.776444 0.117984
O O5 0.883228 0.064021 0.571758
O O6 0.952340 0.173749 0.693783
O O7 0.832112 0.048985 0.846653
O O8 0.971935 0.963156 0.659137
O O9 0.770805 0.118802 0.500761
O O10 0.674514 0.970529 0.482064
O O11 0.558712 0.824254 0.617684
O O12 0.075657 0.186607 0.142865
#
# Coordination Sequence:
#
# PCOD8135402 Si02
#       7
#     8   8   8   4   8   8   4
#     4  11  23  43  67  96 130 169 222 264 321 392
#     4  10  19  38  61  94 126 165 212 268 324 379
#     4  11  23  40  68  96 129 172 217 268 320 389
#     4  11  22  40  65  94 130 170 219 264 319 380
#     4  11  20  39  61  98 130 165 210 270 327 379
#     4  11  23  43  67  94 130 175 215 265 322 387
#     4   9  22  30  59  96 136 162 203 272 333 376
#
# _framework density 21.550291000000001
#
# number of rings (size 3 to 8) (size 9 to 14) (size 15 to 20)
#    0.000    1.333    3.333    3.000    0.000    5.333 
#    0.000    1.667    0.000    0.000    0.000    0.000 
#    0.000    0.000    0.000    0.000    0.000    0.000 
#
# Total GULP energy -297476.351785 kJ/mol
# GULP energy per Si atom -12394.847991 kJ/mol
# Density = 2.150124 g / cm^3
# Si number density = 21.550291 Si / 1000 Ang^3
#
#
#
# Elastic Constant Matrix: (Units=GPa)
#
#
# Indices 1 2 3 4 5 6 
#
# 1 69.0993 34.7021 35.8360 0.0000 -5.3555 0.0000
# 2 34.7021 80.7848 51.8565 0.0000 -11.5575 0.0000
# 3 35.8360 51.8565 103.5158 0.0000 -12.7481 0.0000
# 4 0.0000 0.0000 0.0000 33.5262 0.0000 -2.2211
# 5 -5.3555 -11.5575 -12.7481 0.0000 39.5410 0.0000
# 6 0.0000 0.0000 0.0000 -2.2211 0.0000 24.6617
#
#
#
# Elastic Compliance Matrix: (Units=1/GPa)
#
#
# Indices 1 2 3 4 5 6 
#
# 1 0.019394 -0.005958 -0.003770 0.000000 -0.000330 0.000000
# 2 -0.005958 0.020314 -0.007791 0.000000 0.002619 0.000000
# 3 -0.003770 -0.007791 0.015126 0.000000 0.002089 0.000000
# 4 0.000000 0.000000 0.000000 0.030006 0.000000 0.002702
# 5 -0.000330 0.002619 0.002089 0.000000 0.026684 0.000000
# 6 0.000000 0.000000 0.000000 0.002702 0.000000 0.040792
#
#
# Mechanical properties :
#
#
# Convention : Reuss Voigt Hill
#
# Bulk Modulus (GPa) = 50.51789 55.35436 52.93613
# Shear Modulus (GPa) = 25.77953 28.27945 27.02949
#
# Velocity S-wave (km/s) = 3.46244 3.62643 3.54538
# Velocity P-wave (km/s) = 6.28310 6.57849 6.43249
#
# Compressibility (1/GPa) = 0.01979497
#
# Stress axis : x y z
#
# Youngs Moduli (GPa) = 51.56334 49.22762 66.11298
#
# Poissons Ratio (x) = 0.29331 0.24923
# Poissons Ratio (y) = 0.30722 0.51509
# Poissons Ratio (z) = 0.19438 0.38354
#
# Static dielectric constant tensor:
#      x y z
#    x 4.045860 0.000000 -0.044800 
#    y 0.000000 3.687230 0.000000 
#    z -0.044800 0.000000 4.013490 
# 
# 
# High freq. dielectric constant tensor:
#      x y z
#    x 1.838600 0.000000 0.003550 
#    y 0.000000 1.814760 0.000000 
#    z 0.003550 0.000000 1.853770 
# 
# From -- ./inp_files/110910.got.cif
#   From: 2010.06.25/outbox.cif.g09.slc.cpg/sg15_56_cif.got.tgz:110910.got - 2010.06.28 07:06:18.
