data_PCOD8135362
_publ_section_title
;
Structure prediction by ZEFSAII (Michael W. Deem and Ramdas Pophale) SiO2 
 PCOD8135362
Probable space group: C 2/C
;
_chemical_formula_sum "Si O2"
_cell_formula_units_Z 48
_cell_length_a 22.753303
_cell_length_b 9.468052
_cell_length_c 17.981720
_cell_angle_alpha 90.000000
_cell_angle_beta 38.238584
_cell_angle_gamma 90.000000
_cell_volume 2397.635098
_symmetry_space_group_name_H-M "C 2/C"
_symmetry_group_IT_number 15
_symmetry_cell_setting 'monoclinic'
loop_
_space_group_symop_operation_xyz
x,y,z
-x,y,1/2-z
-x,-y,-z
x,-y,1/2+z
1/2+x,1/2+y,z
1/2-x,1/2+y,1/2-z
1/2-x,1/2-y,-z
1/2+x,1/2-y,1/2+z
loop_
_atom_site_type_symbol
_atom_site_label
_atom_site_fract_x
_atom_site_fract_y
_atom_site_fract_z
Si Si1 0.390410 0.705585 0.734764
Si Si2 0.399709 0.876739 0.168507
Si Si3 0.449411 0.903106 0.955450
Si Si4 0.147827 0.771585 0.066801
Si Si5 0.733962 0.433225 0.863108
Si Si6 0.906275 0.060021 0.131482
O O1 0.480865 0.769082 0.601297
O O2 0.418877 0.710352 0.794425
O O3 0.297940 0.792722 0.802968
O O4 0.374308 0.544405 0.728577
O O5 0.419036 0.711265 0.158521
O O6 0.487480 0.956848 0.121865
O O7 0.300274 0.927341 0.305246
O O8 0.391573 0.920995 0.089515
O O9 0.382160 0.866586 0.952058
O O10 0.250000 0.750000 0.000000
O O11 0.155629 0.913426 0.007259
O O12 0.680024 0.432329 0.839586
O O13 0.000000 0.000000 0.000000
#
# Coordination Sequence:
#
# PCOD8135362 Si02
#       6
#     8   8   8   8   8   8
#     4  10  21  36  62  87 119 166 209 253 308 379
#     4  10  21  36  60  90 124 155 211 259 315 356
#     4  10  19  38  60  88 118 158 207 260 299 373
#     4  10  20  36  59  88 116 160 206 246 306 373
#     4  10  21  37  58  86 125 157 204 261 308 373
#     4  12  21  36  57  93 123 159 206 262 317 368
#
# _framework density 20.019727
#
# number of rings (size 3 to 8) (size 9 to 14) (size 15 to 20)
#    0.000    1.667    3.333    1.500    2.333    0.000 
#    0.000    0.833    0.000   22.000    0.000    0.000 
#    0.000    0.000    0.000    0.000    0.000    0.000 
#
# Total GULP energy -297419.690150 kJ/mol
# GULP energy per Si atom -12392.487090 kJ/mol
# Density = 1.997416 g / cm^3
# Si number density = 20.019727 Si / 1000 Ang^3
#
#
#
# Elastic Constant Matrix: (Units=GPa)
#
#
# Indices 1 2 3 4 5 6 
#
# 1 127.5653 48.9928 19.3548 0.0001 5.5373 0.0000
# 2 48.9928 157.1082 35.1775 0.0032 -0.5342 -0.0026
# 3 19.3548 35.1775 59.1638 0.0002 10.3107 -0.0003
# 4 0.0001 0.0032 0.0002 24.5289 -0.0011 6.5022
# 5 5.5373 -0.5342 10.3107 -0.0011 28.7584 0.0009
# 6 0.0000 -0.0026 -0.0003 6.5022 0.0009 32.9026
#
#
#
# Elastic Compliance Matrix: (Units=1/GPa)
#
#
# Indices 1 2 3 4 5 6 
#
# 1 0.009065 -0.002562 -0.001205 0.000000 -0.001361 0.000000
# 2 -0.002562 0.008156 -0.004399 -0.000001 0.002222 0.000001
# 3 -0.001205 -0.004399 0.021211 0.000000 -0.007454 0.000000
# 4 0.000000 -0.000001 0.000000 0.043022 0.000002 -0.008502
# 5 -0.001361 0.002222 -0.007454 0.000002 0.037748 -0.000001
# 6 0.000000 0.000001 0.000000 -0.008502 -0.000001 0.032073
#
#
# Mechanical properties :
#
#
# Convention : Reuss Voigt Hill
#
# Bulk Modulus (GPa) = 45.24679 61.20972 53.22826
# Shear Modulus (GPa) = 28.57571 33.25878 30.91724
#
# Velocity S-wave (km/s) = 3.78216 4.08033 3.93407
# Velocity P-wave (km/s) = 6.45935 7.26910 6.87616
#
# Compressibility (1/GPa) = 0.02210101
#
# Stress axis : x y z
#
# Youngs Moduli (GPa) = 110.31616 122.60440 47.14521
#
# Poissons Ratio (x) = 0.31406 0.05682
# Poissons Ratio (y) = 0.28258 0.20738
# Poissons Ratio (z) = 0.13296 0.53931
#
# Static dielectric constant tensor:
#      x y z
#    x 3.717030 0.000000 0.178960 
#    y 0.000000 3.675800 0.000000 
#    z 0.178960 0.000000 4.330980 
# 
# 
# High freq. dielectric constant tensor:
#      x y z
#    x 1.781180 0.000000 -0.012550 
#    y 0.000000 1.758420 0.000000 
#    z -0.012550 0.000000 1.784140 
# 
# From -- ./inp_files/176960.got.cif
#   From: 2010.06.25/outbox.cif.g09.slc.cpg/sg15_89_cif.got.tgz:176960.got - 2010.06.28 07:06:18.
