data_PCOD8135616
_publ_section_title
;
Structure prediction by ZEFSAII (Michael W. Deem and Ramdas Pophale) SiO2 
 PCOD8135616
Probable space group: C 2/C
;
_chemical_formula_sum "Si O2"
_cell_formula_units_Z 60
_cell_length_a 15.539689
_cell_length_b 8.785533
_cell_length_c 21.887805
_cell_angle_alpha 90.000000
_cell_angle_beta 80.968268
_cell_angle_gamma 90.000000
_cell_volume 2951.171252
_symmetry_space_group_name_H-M "C 2/C"
_symmetry_group_IT_number 15
_symmetry_cell_setting 'monoclinic'
loop_
_space_group_symop_operation_xyz
x,y,z
-x,y,1/2-z
-x,-y,-z
x,-y,1/2+z
1/2+x,1/2+y,z
1/2-x,1/2+y,1/2-z
1/2-x,1/2-y,-z
1/2+x,1/2-y,1/2+z
loop_
_atom_site_type_symbol
_atom_site_label
_atom_site_fract_x
_atom_site_fract_y
_atom_site_fract_z
Si Si1 0.239212 0.590505 0.035763
Si Si2 0.425903 0.891407 0.483020
Si Si3 0.922199 0.407592 0.715991
Si Si4 0.616468 0.605268 0.826239
Si Si5 0.699313 0.011816 0.172516
Si Si6 0.414697 0.429150 0.037614
Si Si7 0.500000 0.433250 0.750000
Si Si8 0.968526 0.327428 0.344675
O O1 0.161419 0.490231 0.016125
O O2 0.220714 0.615996 0.110532
O O3 0.328986 0.500195 0.016043
O O4 0.250000 0.750000 0.000000
O O5 0.408163 0.753198 0.531130
O O6 0.463537 0.811585 0.417790
O O7 0.500000 0.000000 0.500000
O O8 0.909657 0.282781 0.664806
O O9 0.832072 0.395402 0.764685
O O10 0.000000 0.351157 0.750000
O O11 0.946382 0.572325 0.684307
O O12 0.720108 0.589572 0.815413
O O13 0.579575 0.526921 0.891503
O O14 0.578789 0.534991 0.767564
O O15 0.619221 0.903406 0.167728
O O16 0.500000 0.500000 0.000000
O O17 0.529562 0.334553 0.688558
#
# Coordination Sequence:
#
# PCOD8135616 Si02
#       8
#     8   8   8   8   8   8   4   8
#     4  10  22  41  63  91 125 162 208 255 303 368
#     4  11  22  40  67  94 122 165 206 253 319 371
#     4  10  19  39  59  84 120 158 191 240 307 362
#     4  11  24  38  60  89 122 154 206 252 299 359
#     4   9  21  39  61  85 121 155 199 247 297 360
#     4  11  23  42  62  89 126 164 208 258 305 362
#     4  12  22  38  58  90 122 156 204 250 304 356
#     4  10  21  40  64  86 122 159 200 250 308 369
#
# _framework density 20.330911
#
# number of rings (size 3 to 8) (size 9 to 14) (size 15 to 20)
#    0.000    1.600    2.667    2.800    1.867    3.200 
#    2.400    1.333    0.000    0.000    0.000    0.000 
#    0.000    0.000    0.000    0.000    0.000    0.000 
#
# Total GULP energy -371830.713855 kJ/mol
# GULP energy per Si atom -12394.357129 kJ/mol
# Density = 2.028464 g / cm^3
# Si number density = 20.330911 Si / 1000 Ang^3
#
#
#
# Elastic Constant Matrix: (Units=GPa)
#
#
# Indices 1 2 3 4 5 6 
#
# 1 119.1988 37.1793 36.7271 0.0000 -10.0130 0.0000
# 2 37.1793 97.5604 26.3426 0.0000 2.8159 0.0000
# 3 36.7271 26.3426 77.3710 0.0000 -1.0347 0.0000
# 4 0.0000 0.0000 0.0000 37.6864 0.0000 -1.3504
# 5 -10.0130 2.8159 -1.0347 0.0000 32.4729 0.0000
# 6 0.0000 0.0000 0.0000 -1.3504 0.0000 20.4138
#
#
#
# Elastic Compliance Matrix: (Units=1/GPa)
#
#
# Indices 1 2 3 4 5 6 
#
# 1 0.010923 -0.003168 -0.004060 0.000000 0.003514 0.000000
# 2 -0.003168 0.012246 -0.002694 0.000000 -0.002125 0.000000
# 3 -0.004060 -0.002694 0.015762 0.000000 -0.000516 0.000000
# 4 0.000000 0.000000 0.000000 0.026598 0.000000 0.001759
# 5 0.003514 -0.002125 -0.000516 0.000000 0.032046 0.000000
# 6 0.000000 0.000000 0.000000 0.001759 0.000000 0.049103
#
#
# Mechanical properties :
#
#
# Convention : Reuss Voigt Hill
#
# Bulk Modulus (GPa) = 52.38815 54.95871 53.67343
# Shear Modulus (GPa) = 28.92100 31.04004 29.98052
#
# Velocity S-wave (km/s) = 3.77571 3.91159 3.84425
# Velocity P-wave (km/s) = 6.69565 6.89141 6.79423
#
# Compressibility (1/GPa) = 0.01908829
#
# Stress axis : x y z
#
# Youngs Moduli (GPa) = 91.54582 81.65844 63.44324
#
# Poissons Ratio (x) = 0.25870 0.25756
# Poissons Ratio (y) = 0.29003 0.17092
# Poissons Ratio (z) = 0.37164 0.21999
#
# Static dielectric constant tensor:
#      x y z
#    x 3.921270 0.000000 -0.247720 
#    y 0.000000 3.663320 0.000000 
#    z -0.247720 0.000000 4.277290 
# 
# 
# High freq. dielectric constant tensor:
#      x y z
#    x 1.800630 0.000000 -0.000660 
#    y 0.000000 1.785460 0.000000 
#    z -0.000660 0.000000 1.803750 
# 
# From -- ./inp_files/272805.got.cif
#   From: 2010.06.25/outbox.cif.g09.slc.cpg/sg15_137_cif.got.tgz:272805.got - 2010.06.28 07:06:18.
