data_PCOD8135034
_publ_section_title
;
Structure prediction by ZEFSAII (Michael W. Deem and Ramdas Pophale) SiO2 
 PCOD8135034
Probable space group: C 2/C
;
_chemical_formula_sum "Si O2"
_cell_formula_units_Z 48
_cell_length_a 18.104042
_cell_length_b 16.393927
_cell_length_c 11.335061
_cell_angle_alpha 90.000000
_cell_angle_beta 134.122923
_cell_angle_gamma 90.000000
_cell_volume 2414.986969
_symmetry_space_group_name_H-M "C 2/C"
_symmetry_group_IT_number 15
_symmetry_cell_setting 'monoclinic'
loop_
_space_group_symop_operation_xyz
x,y,z
-x,y,1/2-z
-x,-y,-z
x,-y,1/2+z
1/2+x,1/2+y,z
1/2-x,1/2+y,1/2-z
1/2-x,1/2-y,-z
1/2+x,1/2-y,1/2+z
loop_
_atom_site_type_symbol
_atom_site_label
_atom_site_fract_x
_atom_site_fract_y
_atom_site_fract_z
Si Si1 0.614267 0.527481 0.598747
Si Si2 0.653765 0.330929 0.982202
Si Si3 0.768187 0.131204 0.335589
Si Si4 0.101938 0.141293 0.797091
Si Si5 0.359715 0.758488 0.262934
Si Si6 0.428808 0.783791 0.908468
O O1 0.500000 0.500000 0.500000
O O2 0.620851 0.577432 0.482369
O O3 0.692753 0.452368 0.678802
O O4 0.646042 0.584524 0.742412
O O5 0.608096 0.307348 0.802973
O O6 0.778956 0.323522 0.119200
O O7 0.613150 0.267262 0.030024
O O8 0.803333 0.143486 0.508551
O O9 0.813670 0.208268 0.319037
O O10 0.643285 0.136554 0.191230
O O11 0.071863 0.229534 0.711258
O O12 0.000000 0.105583 0.750000
O O13 0.456033 0.808715 0.424080
#
# Coordination Sequence:
#
# PCOD8135034 Si02
#       6
#     8   8   8   8   8   8
#     4  11  22  36  55  84 118 151 183 240 289 341
#     4   9  21  36  57  85 115 146 189 238 282 333
#     4  11  22  35  56  86 115 149 187 232 292 336
#     4  11  20  37  55  84 114 146 187 232 285 336
#     4  10  19  37  60  84 111 149 192 235 278 332
#     4  10  20  36  58  83 112 150 191 234 274 343
#
# _framework density 19.875885
#
# number of rings (size 3 to 8) (size 9 to 14) (size 15 to 20)
#    0.000    1.667    3.333    2.000    2.333    0.000 
#    3.000    0.833    0.000    0.000    4.333    0.000 
#    0.000    0.000    0.000    0.000    0.000    0.000 
#
# Total GULP energy -297504.242719 kJ/mol
# GULP energy per Si atom -12396.010113 kJ/mol
# Density = 1.983065 g / cm^3
# Si number density = 19.875885 Si / 1000 Ang^3
#
#
#
# Elastic Constant Matrix: (Units=GPa)
#
#
# Indices 1 2 3 4 5 6 
#
# 1 68.8632 28.3391 39.9382 0.0000 1.0282 0.0000
# 2 28.3391 75.4086 37.1098 0.0000 13.9694 0.0000
# 3 39.9382 37.1098 118.4408 0.0000 1.5499 0.0000
# 4 0.0000 0.0000 0.0000 17.4502 0.0000 6.3191
# 5 1.0282 13.9694 1.5499 0.0000 32.0772 0.0000
# 6 0.0000 0.0000 0.0000 6.3191 0.0000 33.4945
#
#
#
# Elastic Compliance Matrix: (Units=1/GPa)
#
#
# Indices 1 2 3 4 5 6 
#
# 1 0.019534 -0.005248 -0.004967 0.000000 0.001899 0.000000
# 2 -0.005248 0.018619 -0.003963 0.000000 -0.007749 0.000000
# 3 -0.004967 -0.003963 0.011342 0.000000 0.001337 0.000000
# 4 0.000000 0.000000 0.000000 0.061508 0.000000 -0.011604
# 5 0.001899 -0.007749 0.001337 0.000000 0.034424 0.000000
# 6 0.000000 0.000000 0.000000 -0.011604 0.000000 0.032045
#
#
# Mechanical properties :
#
#
# Convention : Reuss Voigt Hill
#
# Bulk Modulus (GPa) = 47.30698 52.60963 49.95830
# Shear Modulus (GPa) = 23.48805 27.09273 25.29039
#
# Velocity S-wave (km/s) = 3.44137 3.69602 3.57096
# Velocity P-wave (km/s) = 6.29631 6.68884 6.49554
#
# Compressibility (1/GPa) = 0.02113853
#
# Stress axis : x y z
#
# Youngs Moduli (GPa) = 51.19314 53.70878 88.16758
#
# Poissons Ratio (x) = 0.28188 0.43795
# Poissons Ratio (y) = 0.26868 0.34937
# Poissons Ratio (z) = 0.25429 0.21282
#
# Static dielectric constant tensor:
#      x y z
#    x 4.011700 0.000000 0.038420 
#    y 0.000000 3.538990 0.000000 
#    z 0.038420 0.000000 4.021830 
# 
# 
# High freq. dielectric constant tensor:
#      x y z
#    x 1.779930 0.000000 -0.010610 
#    y 0.000000 1.733130 0.000000 
#    z -0.010610 0.000000 1.786950 
# 
# From -- ./inp_files/106514.got.cif
#   From: 2010.06.25/outbox.cif.g09.slc.cpg/sg15_54_cif.got.tgz:106514.got - 2010.06.28 07:06:18.
