data_PCOD8135872
_publ_section_title
;
Structure prediction by ZEFSAII (Michael W. Deem and Ramdas Pophale) SiO2 
 PCOD8135872
Probable space group: C 2/C
;
_chemical_formula_sum "Si O2"
_cell_formula_units_Z 56
_cell_length_a 26.105838
_cell_length_b 18.062598
_cell_length_c 8.414258
_cell_angle_alpha 90.000000
_cell_angle_beta 140.190000
_cell_angle_gamma 90.000000
_cell_volume 2540.265136
_symmetry_space_group_name_H-M "C 2/C"
_symmetry_group_IT_number 15
_symmetry_cell_setting 'monoclinic'
loop_
_space_group_symop_operation_xyz
x,y,z
-x,y,1/2-z
-x,-y,-z
x,-y,1/2+z
1/2+x,1/2+y,z
1/2-x,1/2+y,1/2-z
1/2-x,1/2-y,-z
1/2+x,1/2-y,1/2+z
loop_
_atom_site_type_symbol
_atom_site_label
_atom_site_fract_x
_atom_site_fract_y
_atom_site_fract_z
Si Si1 0.000000 0.666197 0.750000
Si Si2 0.051211 0.206467 0.152868
Si Si3 0.691864 0.544271 0.180061
Si Si4 0.965105 0.926773 0.340733
Si Si5 0.194637 0.105870 0.533261
Si Si6 0.876260 0.403630 0.455761
Si Si7 0.872843 0.563392 0.582860
Si Si8 0.000000 0.289549 0.750000
O O1 0.992075 0.722724 0.875606
O O2 0.920963 0.614078 0.570361
O O3 0.138191 0.178606 0.424065
O O4 0.056902 0.235346 0.987036
O O5 0.990021 0.138359 0.020279
O O6 0.669809 0.567050 0.307208
O O7 0.778081 0.575940 0.334042
O O8 0.630465 0.576636 0.904622
O O9 0.684929 0.454491 0.150964
O O10 0.000000 0.916185 0.250000
O O11 0.000000 0.000000 0.500000
O O12 0.286924 0.129851 0.750400
O O13 0.889640 0.477746 0.587894
O O14 0.899392 0.417840 0.325817
O O15 0.935191 0.344269 0.677967
#
# Coordination Sequence:
#
# PCOD8135872 Si02
#       8
#     4   8   8   8   8   8   8   4
#     4  12  27  44  59  92 138 174 220 258 331 386
#     4  12  25  41  62  90 133 173 213 266 324 392
#     4  10  19  40  67  96 126 160 221 274 320 374
#     4  12  22  38  65  94 126 169 215 270 315 389
#     4  10  21  41  65  98 125 166 218 270 323 382
#     4  10  23  41  72  95 125 167 221 272 325 386
#     4  10  23  43  67  97 126 170 218 276 316 390
#     4  12  23  42  61  96 126 176 206 262 331 388
#
# _framework density 22.044943
#
# number of rings (size 3 to 8) (size 9 to 14) (size 15 to 20)
#    0.000    1.143    5.000    0.429    3.000    2.857 
#    2.571    0.714    0.000    0.000    0.000    0.000 
#    0.000    0.000    0.000    0.000    0.000    0.000 
#
# Total GULP energy -346894.816432 kJ/mol
# GULP energy per Si atom -12389.100587 kJ/mol
# Density = 2.199477 g / cm^3
# Si number density = 22.044943 Si / 1000 Ang^3
#
#
#
# Elastic Constant Matrix: (Units=GPa)
#
#
# Indices 1 2 3 4 5 6 
#
# 1 62.0821 23.9633 14.6949 0.0000 10.3315 0.0000
# 2 23.9633 111.2989 37.7620 0.0000 15.1782 0.0000
# 3 14.6949 37.7620 89.1196 0.0000 23.7823 0.0000
# 4 0.0000 0.0000 0.0000 31.6712 0.0000 -24.6198
# 5 10.3315 15.1782 23.7823 0.0000 21.7817 0.0000
# 6 0.0000 0.0000 0.0000 -24.6198 0.0000 -20.0334
#
#
#
# Elastic Compliance Matrix: (Units=1/GPa)
#
#
# Indices 1 2 3 4 5 6 
#
# 1 0.018385 -0.003067 0.000035 0.000000 -0.006621 0.000000
# 2 -0.003067 0.011194 -0.003590 0.000000 -0.002426 0.000000
# 3 0.000035 -0.003590 0.017037 0.000000 -0.016117 0.000000
# 4 0.000000 0.000000 0.000000 0.016148 0.000000 -0.019845
# 5 -0.006621 -0.002426 -0.016117 0.000000 0.068338 0.000000
# 6 0.000000 0.000000 0.000000 -0.019845 0.000000 -0.025529
#
#
# Mechanical properties :
#
#
# Convention : Reuss Voigt Hill
#
# Bulk Modulus (GPa) = 29.96528 46.14900 38.05714
# Shear Modulus (GPa) = 38.47839 19.08925 28.78382
#
# Velocity S-wave (km/s) = 4.18239 2.94585 3.61735
# Velocity P-wave (km/s) = 6.07828 5.70528 5.89473
#
# Compressibility (1/GPa) = 0.03337195
#
# Stress axis : x y z
#
# Youngs Moduli (GPa) = 54.39132 89.33263 58.69485
#
# Poissons Ratio (x) = 0.27402 -0.00207
# Poissons Ratio (y) = 0.16684 0.21072
# Poissons Ratio (z) = -0.00191 0.32072
#
# Static dielectric constant tensor:
#      x y z
#    x 3.721050 0.000000 0.120000 
#    y 0.000000 4.652050 0.000000 
#    z 0.120000 0.000000 4.250230 
# 
# 
# High freq. dielectric constant tensor:
#      x y z
#    x 1.856050 0.000000 0.012060 
#    y 0.000000 1.866170 0.000000 
#    z 0.012060 0.000000 1.871570 
# 
# From -- ./inp_files/67229.got.cif
#   From: 2010.06.25/outbox.cif.g09.slc.cpg/sg15_34_cif.got.tgz:67229.got - 2010.06.28 07:06:18.
