data_PCOD8135308
_publ_section_title
;
Structure prediction by ZEFSAII (Michael W. Deem and Ramdas Pophale) SiO2 
 PCOD8135308
Probable space group: C 2/C
;
_chemical_formula_sum "Si O2"
_cell_formula_units_Z 48
_cell_length_a 12.086788
_cell_length_b 24.346010
_cell_length_c 8.718859
_cell_angle_alpha 90.000000
_cell_angle_beta 70.220247
_cell_angle_gamma 90.000000
_cell_volume 2414.282959
_symmetry_space_group_name_H-M "C 2/C"
_symmetry_group_IT_number 15
_symmetry_cell_setting 'monoclinic'
loop_
_space_group_symop_operation_xyz
x,y,z
-x,y,1/2-z
-x,-y,-z
x,-y,1/2+z
1/2+x,1/2+y,z
1/2-x,1/2+y,1/2-z
1/2-x,1/2-y,-z
1/2+x,1/2-y,1/2+z
loop_
_atom_site_type_symbol
_atom_site_label
_atom_site_fract_x
_atom_site_fract_y
_atom_site_fract_z
Si Si1 0.628726 0.895234 0.639690
Si Si2 0.436205 0.147375 0.637536
Si Si3 0.848403 0.301429 0.627810
Si Si4 0.712453 0.315369 0.396646
Si Si5 0.656463 0.463321 0.034449
Si Si6 0.103646 0.932237 0.396397
O O1 0.500000 0.917848 0.750000
O O2 0.624910 0.891629 0.456947
O O3 0.660879 0.837904 0.712058
O O4 0.734183 0.938278 0.614306
O O5 0.500000 0.114893 0.750000
O O6 0.528791 0.184895 0.507398
O O7 0.337684 0.185949 0.755034
O O8 0.736035 0.311384 0.568973
O O9 0.855681 0.235793 0.649687
O O10 0.637602 0.369571 0.404749
O O11 0.662046 0.454173 0.212934
O O12 0.537161 0.435090 0.030088
O O13 0.655684 0.528855 0.005532
#
# Coordination Sequence:
#
# PCOD8135308 Si02
#       6
#     8   8   8   8   8   8
#     4  10  20  39  59  90 121 153 196 242 292 355
#     4   9  18  36  57  79 121 157 189 245 291 346
#     4   9  21  34  57  89 123 157 191 241 298 349
#     4  10  19  38  58  85 118 161 200 233 298 356
#     4  10  22  41  60  89 115 155 200 245 300 340
#     4  10  22  40  63  84 118 153 199 250 289 347
#
# _framework density 19.881679999999999
#
# number of rings (size 3 to 8) (size 9 to 14) (size 15 to 20)
#    0.000    2.333    1.667    0.000    2.333    2.000 
#    9.000    5.000    0.000    0.000    0.000    0.000 
#    0.000    0.000    0.000    0.000    0.000    0.000 
#
# Total GULP energy -297349.292912 kJ/mol
# GULP energy per Si atom -12389.553871 kJ/mol
# Density = 1.983643 g / cm^3
# Si number density = 19.881680 Si / 1000 Ang^3
#
#
#
# Elastic Constant Matrix: (Units=GPa)
#
#
# Indices 1 2 3 4 5 6 
#
# 1 78.4000 41.5785 35.6985 0.0000 -5.0876 0.0000
# 2 41.5785 114.3867 34.5743 0.0000 -3.1028 0.0000
# 3 35.6985 34.5743 82.2089 0.0000 8.5535 0.0000
# 4 0.0000 0.0000 0.0000 18.8503 0.0000 2.7921
# 5 -5.0876 -3.1028 8.5535 0.0000 30.2317 0.0000
# 6 0.0000 0.0000 0.0000 2.7921 0.0000 28.3237
#
#
#
# Elastic Compliance Matrix: (Units=1/GPa)
#
#
# Indices 1 2 3 4 5 6 
#
# 1 0.018476 -0.004614 -0.006549 0.000000 0.004489 0.000000
# 2 -0.004614 0.011324 -0.002884 0.000000 0.001202 0.000000
# 3 -0.006549 -0.002884 0.016863 0.000000 -0.006169 0.000000
# 4 0.000000 0.000000 0.000000 0.053836 0.000000 -0.005307
# 5 0.004489 0.001202 -0.006169 0.000000 0.035702 0.000000
# 6 0.000000 0.000000 0.000000 -0.005307 0.000000 0.035829
#
#
# Mechanical properties :
#
#
# Convention : Reuss Voigt Hill
#
# Bulk Modulus (GPa) = 53.85739 55.41090 54.63414
# Shear Modulus (GPa) = 24.23502 26.35742 25.29622
#
# Velocity S-wave (km/s) = 3.49515 3.64499 3.57085
# Velocity P-wave (km/s) = 6.59059 6.75614 6.67388
#
# Compressibility (1/GPa) = 0.01856755
#
# Stress axis : x y z
#
# Youngs Moduli (GPa) = 54.12515 88.30977 59.30243
#
# Poissons Ratio (x) = 0.40750 0.38839
# Poissons Ratio (y) = 0.24976 0.17101
# Poissons Ratio (z) = 0.35448 0.25465
#
# Static dielectric constant tensor:
#      x y z
#    x 3.826360 0.000000 0.136110 
#    y 0.000000 3.409980 0.000000 
#    z 0.136110 0.000000 3.818000 
# 
# 
# High freq. dielectric constant tensor:
#      x y z
#    x 1.783860 0.000000 -0.000080 
#    y 0.000000 1.750550 0.000000 
#    z -0.000080 0.000000 1.779510 
# 
# From -- ./inp_files/32539.got.cif
#   From: 2010.06.25/outbox.cif.g09.slc.cpg/sg15_17_cif.got.tgz:32539.got - 2010.06.28 07:06:18.
