data_PCOD8135727
_publ_section_title
;
Structure prediction by ZEFSAII (Michael W. Deem and Ramdas Pophale) SiO2 
 PCOD8135727
Probable space group: C 2/C
;
_chemical_formula_sum "Si O2"
_cell_formula_units_Z 40
_cell_length_a 10.410056
_cell_length_b 9.090277
_cell_length_c 22.009515
_cell_angle_alpha 90.000000
_cell_angle_beta 79.457360
_cell_angle_gamma 90.000000
_cell_volume 2047.607687
_symmetry_space_group_name_H-M "C 2/C"
_symmetry_group_IT_number 15
_symmetry_cell_setting 'monoclinic'
loop_
_space_group_symop_operation_xyz
x,y,z
-x,y,1/2-z
-x,-y,-z
x,-y,1/2+z
1/2+x,1/2+y,z
1/2-x,1/2+y,1/2-z
1/2-x,1/2-y,-z
1/2+x,1/2-y,1/2+z
loop_
_atom_site_type_symbol
_atom_site_label
_atom_site_fract_x
_atom_site_fract_y
_atom_site_fract_z
Si Si1 0.801426 0.409987 0.981615
Si Si2 0.972468 0.580029 0.359074
Si Si3 0.732278 0.404522 0.381223
Si Si4 0.484871 0.597826 0.819937
Si Si5 0.768502 0.439247 0.609226
O O1 0.937692 0.388906 0.933407
O O2 0.703751 0.502006 0.945311
O O3 0.750000 0.250000 0.000000
O O4 0.821439 0.497976 0.041534
O O5 0.871692 0.459598 0.340262
O O6 0.955373 0.728555 0.321996
O O7 0.123177 0.525588 0.347645
O O8 0.617545 0.437891 0.344120
O O9 0.747835 0.234798 0.396045
O O10 0.500000 0.541450 0.750000
O O11 0.367653 0.511728 0.861669
#
# Coordination Sequence:
#
# PCOD8135727 Si02
#       5
#     8   8   8   8   8
#     4  10  19  39  65  92 126 157 188 247 315 363
#     4   9  22  41  60  91 119 157 198 242 303 360
#     4   9  23  38  59  95 117 154 201 243 304 358
#     4  11  24  42  60  84 121 164 208 250 294 351
#     4  11  20  39  62  91 124 156 197 250 301 364
#
# _framework density 19.534991999999999
#
# number of rings (size 3 to 8) (size 9 to 14) (size 15 to 20)
#    1.200    0.800    2.000    1.200    0.000    7.200 
#    0.000    1.000    0.000    0.000    0.000    0.000 
#    0.000    0.000    0.000    0.000    0.000    0.000 
#
# Total GULP energy -247836.397984 kJ/mol
# GULP energy per Si atom -12391.819899 kJ/mol
# Density = 1.949053 g / cm^3
# Si number density = 19.534992 Si / 1000 Ang^3
#
#
#
# Elastic Constant Matrix: (Units=GPa)
#
#
# Indices 1 2 3 4 5 6 
#
# 1 112.2721 57.4161 13.6490 0.0000 22.1166 0.0000
# 2 57.4161 96.2984 16.1293 0.0000 22.6002 0.0000
# 3 13.6490 16.1293 64.3292 0.0000 7.2319 0.0000
# 4 0.0000 0.0000 0.0000 5.8482 0.0000 -2.9301
# 5 22.1166 22.6002 7.2319 0.0000 18.2138 0.0000
# 6 0.0000 0.0000 0.0000 -2.9301 0.0000 21.0814
#
#
#
# Elastic Compliance Matrix: (Units=1/GPa)
#
#
# Indices 1 2 3 4 5 6 
#
# 1 0.013849 -0.006040 -0.000394 0.000000 -0.009166 0.000000
# 2 -0.006040 0.017466 -0.001555 0.000000 -0.013721 0.000000
# 3 -0.000394 -0.001555 0.016484 0.000000 -0.004137 0.000000
# 4 0.000000 0.000000 0.000000 0.183790 0.000000 0.025545
# 5 -0.009166 -0.013721 -0.004137 0.000000 0.084700 0.000000
# 6 0.000000 0.000000 0.000000 0.025545 0.000000 0.050986
#
#
# Mechanical properties :
#
#
# Convention : Reuss Voigt Hill
#
# Bulk Modulus (GPa) = 31.42597 49.69871 40.56234
# Shear Modulus (GPa) = 12.69484 21.40905 17.05194
#
# Velocity S-wave (km/s) = 2.55198 3.31408 2.95768
# Velocity P-wave (km/s) = 4.98051 6.33563 5.69850
#
# Compressibility (1/GPa) = 0.03182081
#
# Stress axis : x y z
#
# Youngs Moduli (GPa) = 72.20524 57.25254 60.66634
#
# Poissons Ratio (x) = 0.34583 0.02388
# Poissons Ratio (y) = 0.43615 0.09435
# Poissons Ratio (z) = 0.02842 0.08904
#
# Static dielectric constant tensor:
#      x y z
#    x 3.581430 0.000000 -0.010000 
#    y 0.000000 3.532850 0.000000 
#    z -0.010000 0.000000 3.393090 
# 
# 
# High freq. dielectric constant tensor:
#      x y z
#    x 1.764250 0.000000 0.004900 
#    y 0.000000 1.763420 0.000000 
#    z 0.004900 0.000000 1.745260 
# 
# From -- ./inp_files/235838.got.cif
#   From: 2010.06.25/outbox.cif.g09.slc.cpg/sg15_118_cif.got.tgz:235838.got - 2010.06.28 07:06:18.
