data_PCOD8135282
_publ_section_title
;
Structure prediction by ZEFSAII (Michael W. Deem and Ramdas Pophale) SiO2 
 PCOD8135282
Probable space group: C 2/C
;
_chemical_formula_sum "Si O2"
_cell_formula_units_Z 52
_cell_length_a 12.385638
_cell_length_b 25.352929
_cell_length_c 8.649504
_cell_angle_alpha 90.000000
_cell_angle_beta 91.512348
_cell_angle_gamma 90.000000
_cell_volume 2715.103679
_symmetry_space_group_name_H-M "C 2/C"
_symmetry_group_IT_number 15
_symmetry_cell_setting 'monoclinic'
loop_
_space_group_symop_operation_xyz
x,y,z
-x,y,1/2-z
-x,-y,-z
x,-y,1/2+z
1/2+x,1/2+y,z
1/2-x,1/2+y,1/2-z
1/2-x,1/2-y,-z
1/2+x,1/2-y,1/2+z
loop_
_atom_site_type_symbol
_atom_site_label
_atom_site_fract_x
_atom_site_fract_y
_atom_site_fract_z
Si Si1 0.616543 0.942094 0.686861
Si Si2 0.024217 0.256532 0.506672
Si Si3 0.500000 0.666694 0.750000
Si Si4 0.724538 0.356438 0.181418
Si Si5 0.803206 0.331665 0.849993
Si Si6 0.618090 0.049049 0.824385
Si Si7 0.832219 0.744508 0.789028
O O1 0.500000 0.932963 0.750000
O O2 0.683084 0.889197 0.725542
O O3 0.607004 0.952819 0.506097
O O4 0.669217 0.993682 0.768354
O O5 0.018416 0.203156 0.602015
O O6 0.079667 0.304800 0.604449
O O7 0.094110 0.249091 0.357412
O O8 0.900661 0.265357 0.447683
O O9 0.394933 0.628814 0.757950
O O10 0.803207 0.404417 0.225765
O O11 0.755419 0.305570 0.281325
O O12 0.731135 0.339674 0.001488
O O13 0.742801 0.296773 0.717909
O O14 0.500000 0.059469 0.750000
#
# Coordination Sequence:
#
# PCOD8135282 Si02
#       7
#     8   8   4   8   8   8   8
#     4  10  21  36  60  83 113 145 180 243 292 336
#     4  10  21  33  57  79 120 148 190 233 273 351
#     4  12  20  38  50  86 120 148 190 234 278 330
#     4  10  21  34  60  79 118 154 186 234 284 339
#     4  10  19  38  57  84 119 153 185 230 293 341
#     4  10  21  39  57  85 111 146 191 234 292 340
#     4  10  19  38  55  82 110 161 189 219 297 338
#
# _framework density 19.152123
#
# number of rings (size 3 to 8) (size 9 to 14) (size 15 to 20)
#    0.000    1.846    3.077    2.769    7.538    0.615 
#    5.538    0.000    0.000    5.538    0.000    0.000 
#    0.000    0.000    0.000    0.000    0.000    0.000 
#
# Total GULP energy -322164.791247 kJ/mol
# GULP energy per Si atom -12390.953509 kJ/mol
# Density = 1.910853 g / cm^3
# Si number density = 19.152123 Si / 1000 Ang^3
#
#
#
# Elastic Constant Matrix: (Units=GPa)
#
#
# Indices 1 2 3 4 5 6 
#
# 1 112.9775 69.1771 28.9961 0.0000 3.4952 0.0000
# 2 69.1771 137.8590 22.8646 0.0000 -0.4864 0.0000
# 3 28.9961 22.8646 36.0989 0.0000 -4.9096 0.0000
# 4 0.0000 0.0000 0.0000 21.6094 0.0000 0.2089
# 5 3.4952 -0.4864 -4.9096 0.0000 19.7124 0.0000
# 6 0.0000 0.0000 0.0000 0.2089 0.0000 25.9706
#
#
#
# Elastic Compliance Matrix: (Units=1/GPa)
#
#
# Indices 1 2 3 4 5 6 
#
# 1 0.015008 -0.006074 -0.008891 0.000000 -0.005025 0.000000
# 2 -0.006074 0.010587 -0.001703 0.000000 0.000914 0.000000
# 3 -0.008891 -0.001703 0.037397 0.000000 0.010849 0.000000
# 4 0.000000 0.000000 0.000000 0.046280 0.000000 -0.000372
# 5 -0.005025 0.000914 0.010849 0.000000 0.054345 0.000000
# 6 0.000000 0.000000 0.000000 -0.000372 0.000000 0.038508
#
#
# Mechanical properties :
#
#
# Convention : Reuss Voigt Hill
#
# Bulk Modulus (GPa) = 33.71904 58.77900 46.24902
# Shear Modulus (GPa) = 20.37929 24.51831 22.44880
#
# Velocity S-wave (km/s) = 3.26555 3.58185 3.42735
# Velocity P-wave (km/s) = 5.64470 6.91834 6.31372
#
# Compressibility (1/GPa) = 0.02965683
#
# Stress axis : x y z
#
# Youngs Moduli (GPa) = 66.63139 94.45258 26.73980
#
# Poissons Ratio (x) = 0.57371 0.23775
# Poissons Ratio (y) = 0.40472 0.04553
# Poissons Ratio (z) = 0.59244 0.16082
#
# Static dielectric constant tensor:
#      x y z
#    x 3.793190 0.000000 0.081110 
#    y 0.000000 3.639650 0.000000 
#    z 0.081110 0.000000 3.540500 
# 
# 
# High freq. dielectric constant tensor:
#      x y z
#    x 1.736230 0.000000 -0.010020 
#    y 0.000000 1.734730 0.000000 
#    z -0.010020 0.000000 1.743340 
# 
# From -- ./inp_files/33584.got.cif
#   From: 2010.06.25/outbox.cif.g09.slc.cpg/sg15_17_cif.got.tgz:33584.got - 2010.06.28 07:06:18.
