data_PCOD8135744
_publ_section_title
;
Structure prediction by ZEFSAII (Michael W. Deem and Ramdas Pophale) SiO2 
 PCOD8135744
Probable space group: C 2/C
;
_chemical_formula_sum "Si O2"
_cell_formula_units_Z 60
_cell_length_a 12.103678
_cell_length_b 16.735773
_cell_length_c 14.004023
_cell_angle_alpha 90.000000
_cell_angle_beta 103.917715
_cell_angle_gamma 90.000000
_cell_volume 2753.436749
_symmetry_space_group_name_H-M "C 2/C"
_symmetry_group_IT_number 15
_symmetry_cell_setting 'monoclinic'
loop_
_space_group_symop_operation_xyz
x,y,z
-x,y,1/2-z
-x,-y,-z
x,-y,1/2+z
1/2+x,1/2+y,z
1/2-x,1/2+y,1/2-z
1/2-x,1/2-y,-z
1/2+x,1/2-y,1/2+z
loop_
_atom_site_type_symbol
_atom_site_label
_atom_site_fract_x
_atom_site_fract_y
_atom_site_fract_z
Si Si1 0.500000 0.121556 0.750000
Si Si2 0.706579 0.917929 0.984799
Si Si3 0.542581 0.531635 0.611234
Si Si4 0.719055 0.076489 0.088348
Si Si5 0.429276 0.325209 0.017990
Si Si6 0.504428 0.842117 0.037433
Si Si7 0.042145 0.122108 0.352771
Si Si8 0.699198 0.005618 0.292109
O O1 0.499457 0.174658 0.848346
O O2 0.388008 0.067364 0.726610
O O3 0.796239 0.844537 0.009464
O O4 0.601803 0.906038 0.035155
O O5 0.759545 0.000790 0.033866
O O6 0.664491 0.930646 0.867211
O O7 0.500000 0.500000 0.500000
O O8 0.503482 0.624799 0.611163
O O9 0.477903 0.473281 0.671175
O O10 0.677242 0.529178 0.656727
O O11 0.824430 0.138831 0.102749
O O12 0.694603 0.053122 0.192170
O O13 0.614577 0.122133 0.019762
O O14 0.461652 0.232099 0.024577
O O15 0.458104 0.352363 0.917823
O O16 0.000000 0.168961 0.250000
#
# Coordination Sequence:
#
# PCOD8135744 Si02
#       8
#     4   8   8   8   8   8   8   8
#     4  12  26  44  64 102 140 184 232 284 354 420
#     4  12  21  45  71  95 134 184 234 280 337 416
#     4  10  19  39  66  97 124 170 225 286 329 394
#     4  12  23  41  72 105 131 179 239 288 343 404
#     4  11  24  42  67  99 139 183 221 285 358 418
#     4  12  28  43  65 101 146 189 220 285 359 425
#     4  11  20  38  68 100 129 169 232 291 336 402
#     4  12  22  42  74 101 131 173 243 293 329 411
#
# _framework density 21.790949000000001
#
# number of rings (size 3 to 8) (size 9 to 14) (size 15 to 20)
#    0.000    0.533    8.000    2.400    0.933    0.533 
#    0.000    0.000    5.867    0.000    0.000    0.000 
#    0.000    0.000    0.000    0.000    0.000    0.000 
#
# Total GULP energy -371719.163002 kJ/mol
# GULP energy per Si atom -12390.638767 kJ/mol
# Density = 2.174135 g / cm^3
# Si number density = 21.790949 Si / 1000 Ang^3
#
#
#
# Elastic Constant Matrix: (Units=GPa)
#
#
# Indices 1 2 3 4 5 6 
#
# 1 138.1577 9.9257 33.1428 0.0000 21.3806 0.0000
# 2 9.9257 49.5635 5.6074 0.0000 10.3263 0.0000
# 3 33.1428 5.6074 112.2601 0.0000 -2.4203 0.0000
# 4 0.0000 0.0000 0.0000 9.9902 0.0000 -3.5965
# 5 21.3806 10.3263 -2.4203 0.0000 37.5706 0.0000
# 6 0.0000 0.0000 0.0000 -3.5965 0.0000 25.8483
#
#
#
# Elastic Compliance Matrix: (Units=1/GPa)
#
#
# Indices 1 2 3 4 5 6 
#
# 1 0.008676 -0.000396 -0.002649 0.000000 -0.004999 0.000000
# 2 -0.000396 0.021582 -0.001086 0.000000 -0.005776 0.000000
# 3 -0.002649 -0.001086 0.009797 0.000000 0.002437 0.000000
# 4 0.000000 0.000000 0.000000 0.105377 0.000000 0.014662
# 5 -0.004999 -0.005776 0.002437 0.000000 0.031206 0.000000
# 6 0.000000 0.000000 0.000000 0.014662 0.000000 0.040727
#
#
# Mechanical properties :
#
#
# Convention : Reuss Voigt Hill
#
# Bulk Modulus (GPa) = 31.45437 44.14813 37.80125
# Shear Modulus (GPa) = 21.16638 31.43552 26.30095
#
# Velocity S-wave (km/s) = 3.12001 3.80227 3.47791
# Velocity P-wave (km/s) = 5.23882 6.29128 5.78902
#
# Compressibility (1/GPa) = 0.03179208
#
# Stress axis : x y z
#
# Youngs Moduli (GPa) = 115.26406 46.33548 102.07382
#
# Poissons Ratio (x) = 0.01836 0.27043
# Poissons Ratio (y) = 0.04567 0.11081
# Poissons Ratio (z) = 0.30537 0.05030
#
# Static dielectric constant tensor:
#      x y z
#    x 3.963870 0.000000 0.037880 
#    y 0.000000 4.569950 0.000000 
#    z 0.037880 0.000000 4.953440 
# 
# 
# High freq. dielectric constant tensor:
#      x y z
#    x 1.871290 0.000000 -0.003300 
#    y 0.000000 1.827710 0.000000 
#    z -0.003300 0.000000 1.865320 
# 
# From -- ./inp_files/145717.got.cif
#   From: 2010.06.25/outbox.cif.g09.slc.cpg/sg15_73_cif.got.tgz:145717.got - 2010.06.28 07:06:18.
