data_PCOD8135783
_publ_section_title
;
Structure prediction by ZEFSAII (Michael W. Deem and Ramdas Pophale) SiO2 
 PCOD8135783
Probable space group: C 2/C
;
_chemical_formula_sum "Si O2"
_cell_formula_units_Z 64
_cell_length_a 19.558462
_cell_length_b 22.395458
_cell_length_c 17.149657
_cell_angle_alpha 90.000000
_cell_angle_beta 157.807824
_cell_angle_gamma 90.000000
_cell_volume 2837.354328
_symmetry_space_group_name_H-M "C 2/C"
_symmetry_group_IT_number 15
_symmetry_cell_setting 'monoclinic'
loop_
_space_group_symop_operation_xyz
x,y,z
-x,y,1/2-z
-x,-y,-z
x,-y,1/2+z
1/2+x,1/2+y,z
1/2-x,1/2+y,1/2-z
1/2-x,1/2-y,-z
1/2+x,1/2-y,1/2+z
loop_
_atom_site_type_symbol
_atom_site_label
_atom_site_fract_x
_atom_site_fract_y
_atom_site_fract_z
Si Si1 0.864282 0.072164 0.307007
Si Si2 0.044059 0.192123 0.472280
Si Si3 0.194231 0.997146 0.604202
Si Si4 0.071436 0.321197 0.152942
Si Si5 0.610741 0.386728 0.442090
Si Si6 0.648716 0.695159 0.751339
Si Si7 0.037621 0.323578 0.643120
Si Si8 0.520887 0.062109 0.863383
O O1 0.883962 0.143817 0.316357
O O2 0.065594 0.047325 0.504445
O O3 0.779190 0.054011 0.301027
O O4 0.726205 0.042365 0.099446
O O5 0.214108 0.166462 0.603523
O O6 0.150623 0.210849 0.662699
O O7 0.961535 0.253481 0.351749
O O8 0.379431 0.025510 0.767806
O O9 0.098900 0.958809 0.434694
O O10 0.979641 0.368190 0.114249
O O11 0.992352 0.332258 0.981762
O O12 0.500000 0.364093 0.250000
O O13 0.508638 0.353549 0.404604
O O14 0.823368 0.370229 0.671379
O O15 0.608021 0.758913 0.746961
O O16 0.843431 0.667962 0.980995
O O17 0.500000 0.050722 0.750000
#
# Coordination Sequence:
#
# PCOD8135783 Si02
#       8
#     8   8   8   8   8   8   8   8
#     4  11  23  45  77  98 132 180 235 299 336 414
#     4  10  19  39  71 104 134 172 230 293 343 407
#     4  11  26  47  70  98 134 181 248 282 344 412
#     4  10  21  39  70 104 136 175 229 281 351 420
#     4  12  26  40  62  91 133 177 222 280 342 415
#     4  10  20  39  64  98 128 173 221 273 348 395
#     4  10  21  39  67  92 133 169 221 282 327 408
#     4  12  27  45  69 103 144 185 232 288 360 414
#
# _framework density 22.556224
#
# number of rings (size 3 to 8) (size 9 to 14) (size 15 to 20)
#    0.000    1.250    3.750    1.875    3.500    2.000 
#    0.000    2.500    0.000    0.000    0.000    0.000 
#    0.000    0.000    0.000    0.000    0.000    0.000 
#
# Total GULP energy -396472.315998 kJ/mol
# GULP energy per Si atom -12389.759875 kJ/mol
# Density = 2.250488 g / cm^3
# Si number density = 22.556224 Si / 1000 Ang^3
#
#
#
# Elastic Constant Matrix: (Units=GPa)
#
#
# Indices 1 2 3 4 5 6 
#
# 1 48.6517 17.5470 40.2556 -0.0001 10.1919 0.0000
# 2 17.5470 98.9537 14.6500 0.0000 6.6962 0.0000
# 3 40.2556 14.6500 115.6649 0.0001 11.6285 0.0001
# 4 -0.0001 0.0000 0.0001 30.3233 0.0000 5.0557
# 5 10.1919 6.6962 11.6285 0.0000 26.6941 0.0000
# 6 0.0000 0.0000 0.0001 5.0557 0.0000 20.3252
#
#
#
# Elastic Compliance Matrix: (Units=1/GPa)
#
#
# Indices 1 2 3 4 5 6 
#
# 1 0.031389 -0.003658 -0.009777 0.000000 -0.006808 0.000000
# 2 -0.003658 0.010840 0.000035 0.000000 -0.001338 0.000000
# 3 -0.009777 0.000035 0.012204 0.000000 -0.001592 0.000000
# 4 0.000000 0.000000 0.000000 0.034405 0.000000 -0.008558
# 5 -0.006808 -0.001338 -0.001592 0.000000 0.041090 0.000000
# 6 0.000000 0.000000 0.000000 -0.008558 0.000000 0.051329
#
#
# Mechanical properties :
#
#
# Convention : Reuss Voigt Hill
#
# Bulk Modulus (GPa) = 36.18894 45.35283 40.77089
# Shear Modulus (GPa) = 23.01307 28.18972 25.60139
#
# Velocity S-wave (km/s) = 3.19761 3.53902 3.37264
# Velocity P-wave (km/s) = 5.45084 6.07040 5.76894
#
# Compressibility (1/GPa) = 0.02763275
#
# Stress axis : x y z
#
# Youngs Moduli (GPa) = 31.85788 92.25284 81.93987
#
# Poissons Ratio (x) = 0.33746 0.80112
# Poissons Ratio (y) = 0.11654 -0.00284
# Poissons Ratio (z) = 0.31147 -0.00320
#
# Static dielectric constant tensor:
#      x y z
#    x 3.718680 0.000000 0.246650 
#    y 0.000000 3.966330 0.000000 
#    z 0.246650 0.000000 4.108940 
# 
# 
# High freq. dielectric constant tensor:
#      x y z
#    x 1.853410 0.000000 0.027280 
#    y 0.000000 1.892510 0.000000 
#    z 0.027280 0.000000 1.893710 
# 
# From -- ./inp_files/216971.got.cif
#   From: 2010.06.25/outbox.cif.g09.slc.cpg/sg15_109_cif.got.tgz:216971.got - 2010.06.28 07:06:18.
