data_PCOD8135111
_publ_section_title
;
Structure prediction by ZEFSAII (Michael W. Deem and Ramdas Pophale) SiO2 
 PCOD8135111
Probable space group: C 2/C
;
_chemical_formula_sum "Si O2"
_cell_formula_units_Z 52
_cell_length_a 19.222268
_cell_length_b 17.545331
_cell_length_c 22.488647
_cell_angle_alpha 90.000000
_cell_angle_beta 159.327170
_cell_angle_gamma 90.000000
_cell_volume 2677.581037
_symmetry_space_group_name_H-M "C 2/C"
_symmetry_group_IT_number 15
_symmetry_cell_setting 'monoclinic'
loop_
_space_group_symop_operation_xyz
x,y,z
-x,y,1/2-z
-x,-y,-z
x,-y,1/2+z
1/2+x,1/2+y,z
1/2-x,1/2+y,1/2-z
1/2-x,1/2-y,-z
1/2+x,1/2-y,1/2+z
loop_
_atom_site_type_symbol
_atom_site_label
_atom_site_fract_x
_atom_site_fract_y
_atom_site_fract_z
Si Si1 0.727697 0.508317 0.949430
Si Si2 0.040574 0.502321 0.602390
Si Si3 0.772537 0.822852 0.057475
Si Si4 0.314496 0.853710 0.218465
Si Si5 0.074009 0.667186 0.132885
Si Si6 0.000000 0.586059 0.750000
Si Si7 0.543647 0.748998 0.070989
O O1 0.500000 0.492169 0.750000
O O2 0.776609 0.594697 0.009863
O O3 0.837060 0.487498 0.975401
O O4 0.815659 0.461146 0.075257
O O5 0.000000 0.500000 0.500000
O O6 0.186274 0.569403 0.741477
O O7 0.134416 0.420252 0.693515
O O8 0.000000 0.828482 0.250000
O O9 0.750000 0.750000 0.000000
O O10 0.631393 0.809805 0.000790
O O11 0.410871 0.863055 0.231090
O O12 0.432464 0.785621 0.344965
O O13 0.090494 0.826303 0.031241
O O14 0.251802 0.721580 0.295976
O O15 0.045146 0.683017 0.039759
#
# Coordination Sequence:
#
# PCOD8135111 Si02
#       7
#     8   8   8   8   8   4   8
#     4   9  21  39  58  87 120 160 197 254 305 355
#     4  10  19  37  62  84 117 157 199 241 298 360
#     4  10  20  34  55  83 115 157 202 236 299 360
#     4  10  22  40  61  88 117 157 198 252 304 366
#     4  10  20  36  57  83 118 155 190 245 290 350
#     4  10  22  42  62  86 122 152 210 254 304 368
#     4  10  21  38  58  85 121 149 196 249 302 349
#
# _framework density 19.420514000000001
#
# number of rings (size 3 to 8) (size 9 to 14) (size 15 to 20)
#    0.000    2.154    1.538    0.923    1.077    2.462 
#    5.538    0.000    0.000    0.000    0.000    0.000 
#    0.000    0.000    0.000    0.000    0.000    0.000 
#
# Total GULP energy -322104.756742 kJ/mol
# GULP energy per Si atom -12388.644490 kJ/mol
# Density = 1.937631 g / cm^3
# Si number density = 19.420514 Si / 1000 Ang^3
#
#
#
# Elastic Constant Matrix: (Units=GPa)
#
#
# Indices 1 2 3 4 5 6 
#
# 1 114.5178 60.6213 46.8920 0.0327 -0.4219 0.0053
# 2 60.6213 121.5856 59.1977 0.0611 2.5901 0.0032
# 3 46.8920 59.1977 105.4680 0.1611 5.2911 0.0042
# 4 0.0327 0.0611 0.1611 31.6829 0.0249 -1.4150
# 5 -0.4219 2.5901 5.2911 0.0249 26.5488 -0.0071
# 6 0.0053 0.0032 0.0042 -1.4150 -0.0071 32.6877
#
#
#
# Elastic Compliance Matrix: (Units=1/GPa)
#
#
# Indices 1 2 3 4 5 6 
#
# 1 0.012486 -0.004842 -0.002896 0.000010 0.001248 0.000000
# 2 -0.004842 0.013196 -0.005238 0.000006 -0.000320 0.000000
# 3 -0.002896 -0.005238 0.013824 -0.000056 -0.002290 -0.000004
# 4 0.000010 0.000006 -0.000056 0.031624 -0.000019 0.001369
# 5 0.001248 -0.000320 -0.002290 -0.000019 0.038174 0.000008
# 6 0.000000 0.000000 -0.000004 0.001369 0.000008 0.030652
#
#
# Mechanical properties :
#
#
# Convention : Reuss Voigt Hill
#
# Bulk Modulus (GPa) = 73.77928 74.99927 74.38928
# Shear Modulus (GPa) = 29.33832 29.84124 29.58978
#
# Velocity S-wave (km/s) = 3.89097 3.92418 3.90761
# Velocity P-wave (km/s) = 7.63276 7.69641 7.66465
#
# Compressibility (1/GPa) = 0.01355394
#
# Stress axis : x y z
#
# Youngs Moduli (GPa) = 80.09052 75.78214 72.33693
#
# Poissons Ratio (x) = 0.36692 0.20951
# Poissons Ratio (y) = 0.38778 0.37889
# Poissons Ratio (z) = 0.23197 0.39693
#
# Static dielectric constant tensor:
#      x y z
#    x 3.179180 0.001970 0.625670 
#    y 0.001970 3.458730 -0.003980 
#    z 0.625670 -0.003980 2.296750 
# 
# 
# High freq. dielectric constant tensor:
#      x y z
#    x 1.750480 -0.000010 0.003840 
#    y -0.000010 1.767620 -0.000020 
#    z 0.003840 -0.000020 1.750580 
# 
# From -- ./inp_files/56059.got.cif
#   From: 2010.06.25/outbox.cif.g09.slc.cpg/sg15_29_cif.got.tgz:56059.got - 2010.06.28 07:06:18.
