data_PCOD8135850
_publ_section_title
;
Structure prediction by ZEFSAII (Michael W. Deem and Ramdas Pophale) SiO2 
 PCOD8135850
Probable space group: C 2/C
;
_chemical_formula_sum "Si O2"
_cell_formula_units_Z 60
_cell_length_a 9.493813
_cell_length_b 18.169287
_cell_length_c 20.251136
_cell_angle_alpha 90.000000
_cell_angle_beta 56.260916
_cell_angle_gamma 90.000000
_cell_volume 2904.889422
_symmetry_space_group_name_H-M "C 2/C"
_symmetry_group_IT_number 15
_symmetry_cell_setting 'monoclinic'
loop_
_space_group_symop_operation_xyz
x,y,z
-x,y,1/2-z
-x,-y,-z
x,-y,1/2+z
1/2+x,1/2+y,z
1/2-x,1/2+y,1/2-z
1/2-x,1/2-y,-z
1/2+x,1/2-y,1/2+z
loop_
_atom_site_type_symbol
_atom_site_label
_atom_site_fract_x
_atom_site_fract_y
_atom_site_fract_z
Si Si1 0.365598 0.682995 0.448952
Si Si2 0.106033 0.693912 0.864853
Si Si3 0.846198 0.541101 0.462713
Si Si4 0.710796 0.902853 0.095912
Si Si5 0.645155 0.360601 0.306026
Si Si6 0.500000 0.481217 0.250000
Si Si7 0.714808 0.064580 0.398817
Si Si8 0.301019 0.320484 0.446606
O O1 0.250000 0.750000 0.500000
O O2 0.546482 0.720294 0.383957
O O3 0.370567 0.627215 0.510453
O O4 0.287726 0.642660 0.405209
O O5 0.251027 0.689472 0.771893
O O6 0.178573 0.667498 0.915936
O O7 0.958338 0.636532 0.886564
O O8 0.807886 0.491031 0.408257
O O9 0.815787 0.489777 0.533152
O O10 0.715670 0.608813 0.501157
O O11 0.035337 0.574938 0.408982
O O12 0.732657 0.886549 0.167046
O O13 0.565282 0.432236 0.293339
O O14 0.494220 0.310329 0.373294
O O15 0.346317 0.531796 0.312761
O O16 0.250000 0.250000 0.500000
#
# Coordination Sequence:
#
# PCOD8135850 Si02
#       8
#     8   8   8   8   8   4   8   8
#     4   9  19  38  61  94 126 157 214 260 308 379
#     4  11  21  42  65  92 133 169 213 267 324 387
#     4  10  19  40  65  90 125 164 215 256 321 377
#     4  10  22  38  69  96 121 168 219 267 316 389
#     4  12  23  41  65  93 129 169 216 269 334 388
#     4  12  22  42  62  96 132 160 216 268 334 396
#     4  10  20  38  68  94 122 170 208 268 318 382
#     4  12  24  41  65  92 127 178 220 262 322 392
#
# _framework density 20.654831000000001
#
# number of rings (size 3 to 8) (size 9 to 14) (size 15 to 20)
#    0.000    1.333    2.667    5.200    0.000    1.600 
#    9.600    0.000    0.000    1.600    0.000    0.000 
#    0.000    0.000    0.000    0.000    0.000    0.000 
#
# Total GULP energy -372013.881609 kJ/mol
# GULP energy per Si atom -12400.462720 kJ/mol
# Density = 2.060782 g / cm^3
# Si number density = 20.654831 Si / 1000 Ang^3
#
#
#
# Elastic Constant Matrix: (Units=GPa)
#
#
# Indices 1 2 3 4 5 6 
#
# 1 87.9837 32.8237 43.3487 -0.0001 6.3790 0.0001
# 2 32.8237 112.6349 48.6991 0.0000 -6.8797 0.0000
# 3 43.3487 48.6991 122.6538 0.0000 -16.6627 0.0000
# 4 -0.0001 0.0000 0.0000 31.0772 0.0000 1.5548
# 5 6.3790 -6.8797 -16.6627 0.0000 42.5236 0.0000
# 6 0.0001 0.0000 0.0000 1.5548 0.0000 30.0393
#
#
#
# Elastic Compliance Matrix: (Units=1/GPa)
#
#
# Indices 1 2 3 4 5 6 
#
# 1 0.015086 -0.002538 -0.004951 0.000000 -0.004614 0.000000
# 2 -0.002538 0.011145 -0.003413 0.000000 0.000846 0.000000
# 3 -0.004951 -0.003413 0.011918 0.000000 0.004861 0.000000
# 4 0.000000 0.000000 0.000000 0.032261 0.000000 -0.001670
# 5 -0.004614 0.000846 0.004861 0.000000 0.026250 0.000000
# 6 0.000000 0.000000 0.000000 -0.001670 0.000000 0.033376
#
#
# Mechanical properties :
#
#
# Convention : Reuss Voigt Hill
#
# Bulk Modulus (GPa) = 61.17723 63.66838 62.42281
# Shear Modulus (GPa) = 31.78840 33.95477 32.87158
#
# Velocity S-wave (km/s) = 3.92730 4.05892 3.99365
# Velocity P-wave (km/s) = 7.08859 7.27037 7.18005
#
# Compressibility (1/GPa) = 0.01634595
#
# Stress axis : x y z
#
# Youngs Moduli (GPa) = 66.28546 89.72457 83.90357
#
# Poissons Ratio (x) = 0.22768 0.41541
# Poissons Ratio (y) = 0.16820 0.28639
# Poissons Ratio (z) = 0.32819 0.30626
#
# Static dielectric constant tensor:
#      x y z
#    x 3.786950 0.000000 -0.194140 
#    y 0.000000 4.073480 0.000000 
#    z -0.194140 0.000000 4.031460 
# 
# 
# High freq. dielectric constant tensor:
#      x y z
#    x 1.803160 0.000000 -0.009740 
#    y 0.000000 1.801810 0.000000 
#    z -0.009740 0.000000 1.807250 
# 
# From -- ./inp_files/233061.got.cif
#   From: 2010.06.25/outbox.cif.g09.slc.cpg/sg15_117_cif.got.tgz:233061.got - 2010.06.28 07:06:18.
