data_PCOD8135609
_publ_section_title
;
Structure prediction by ZEFSAII (Michael W. Deem and Ramdas Pophale) SiO2 
 PCOD8135609
Probable space group: C 2/C
;
_chemical_formula_sum "Si O2"
_cell_formula_units_Z 60
_cell_length_a 8.720894
_cell_length_b 11.794064
_cell_length_c 26.501498
_cell_angle_alpha 90.000000
_cell_angle_beta 95.800667
_cell_angle_gamma 90.000000
_cell_volume 2711.848398
_symmetry_space_group_name_H-M "C 2/C"
_symmetry_group_IT_number 15
_symmetry_cell_setting 'monoclinic'
loop_
_space_group_symop_operation_xyz
x,y,z
-x,y,1/2-z
-x,-y,-z
x,-y,1/2+z
1/2+x,1/2+y,z
1/2-x,1/2+y,1/2-z
1/2-x,1/2-y,-z
1/2+x,1/2-y,1/2+z
loop_
_atom_site_type_symbol
_atom_site_label
_atom_site_fract_x
_atom_site_fract_y
_atom_site_fract_z
Si Si1 0.305445 0.459917 0.426360
Si Si2 0.498431 0.238077 0.412453
Si Si3 0.640277 0.750364 0.174800
Si Si4 0.858370 0.208942 0.435065
Si Si5 0.500000 0.900032 0.250000
Si Si6 0.521534 0.700724 0.805668
Si Si7 0.214036 0.997338 0.188645
Si Si8 0.115014 0.338282 0.497602
O O1 0.429656 0.359352 0.428267
O O2 0.387849 0.575622 0.447028
O O3 0.233157 0.481961 0.368152
O O4 0.165763 0.440625 0.462613
O O5 0.679142 0.240414 0.430080
O O6 0.465798 0.219957 0.351224
O O7 0.414886 0.137965 0.443049
O O8 0.569616 0.739372 0.116876
O O9 0.517418 0.818269 0.202813
O O10 0.798454 0.822879 0.180013
O O11 0.667101 0.625741 0.198476
O O12 0.951004 0.283947 0.477588
O O13 0.352788 0.975441 0.231997
O O14 0.500000 0.760624 0.750000
O O15 0.430067 0.582723 0.803010
O O16 0.250000 0.250000 0.500000
#
# Coordination Sequence:
#
# PCOD8135609 Si02
#       8
#     8   8   8   8   4   8   8   8
#     4   9  20  39  58  81 115 152 185 234 287 337
#     4   9  20  35  58  87 109 148 197 227 278 341
#     4  10  23  37  57  85 110 151 192 232 286 341
#     4  10  20  39  59  80 117 151 187 232 287 344
#     4  12  22  32  56  84 108 144 192 236 282 334
#     4  10  19  39  59  77 117 156 181 235 286 328
#     4  10  22  37  57  83 114 148 192 232 283 343
#     4  10  20  36  60  87 116 148 188 240 285 335
#
# _framework density 22.125132000000001
#
# number of rings (size 3 to 8) (size 9 to 14) (size 15 to 20)
#    0.000    2.133    1.333    1.200    1.867    2.667 
#    0.000    2.667    0.000   19.200    0.000    0.000 
#    0.000    0.000    0.000    0.000    0.000    0.000 
#
# Total GULP energy -371686.989577 kJ/mol
# GULP energy per Si atom -12389.566319 kJ/mol
# Density = 2.207477 g / cm^3
# Si number density = 22.125132 Si / 1000 Ang^3
#
#
#
# Elastic Constant Matrix: (Units=GPa)
#
#
# Indices 1 2 3 4 5 6 
#
# 1 55.2760 10.6094 16.4213 0.0000 3.3049 0.0000
# 2 10.6094 51.5351 15.3553 0.0000 4.9714 0.0000
# 3 16.4213 15.3553 124.3797 0.0000 -23.5918 0.0000
# 4 0.0000 0.0000 0.0000 16.9844 0.0000 3.9759
# 5 3.3049 4.9714 -23.5918 0.0000 32.9407 0.0000
# 6 0.0000 0.0000 0.0000 3.9759 0.0000 19.6387
#
#
#
# Elastic Compliance Matrix: (Units=1/GPa)
#
#
# Indices 1 2 3 4 5 6 
#
# 1 0.019730 -0.002829 -0.002951 0.000000 -0.003666 0.000000
# 2 -0.002829 0.021478 -0.003285 0.000000 -0.005311 0.000000
# 3 -0.002951 -0.003285 0.010398 0.000000 0.008239 0.000000
# 4 0.000000 0.000000 0.000000 0.061807 0.000000 -0.012513
# 5 -0.003666 -0.005311 0.008239 0.000000 0.037427 0.000000
# 6 0.000000 0.000000 0.000000 -0.012513 0.000000 0.053453
#
#
# Mechanical properties :
#
#
# Convention : Reuss Voigt Hill
#
# Bulk Modulus (GPa) = 29.87289 35.10697 32.48993
# Shear Modulus (GPa) = 21.40583 26.49974 23.95278
#
# Velocity S-wave (km/s) = 3.11382 3.46457 3.29387
# Velocity P-wave (km/s) = 5.14383 5.64856 5.40209
#
# Compressibility (1/GPa) = 0.03347516
#
# Stress axis : x y z
#
# Youngs Moduli (GPa) = 50.68465 46.55969 96.17451
#
# Poissons Ratio (x) = 0.13171 0.28381
# Poissons Ratio (y) = 0.14338 0.31597
# Poissons Ratio (z) = 0.14957 0.15296
#
# Static dielectric constant tensor:
#      x y z
#    x 3.936110 0.000000 -0.272100 
#    y 0.000000 3.761880 0.000000 
#    z -0.272100 0.000000 4.779740 
# 
# 
# High freq. dielectric constant tensor:
#      x y z
#    x 1.862010 0.000000 -0.012420 
#    y 0.000000 1.842390 0.000000 
#    z -0.012420 0.000000 1.894640 
# 
# From -- ./inp_files/288025.got.cif
#   From: 2010.06.25/outbox.cif.g09.slc.cpg/sg15_145_cif.got.tgz:288025.got - 2010.06.28 07:06:18.
