data_PCOD8135139
_publ_section_title
;
Structure prediction by ZEFSAII (Michael W. Deem and Ramdas Pophale) SiO2 
 PCOD8135139
Probable space group: C 2/C
;
_chemical_formula_sum "Si O2"
_cell_formula_units_Z 48
_cell_length_a 20.109264
_cell_length_b 16.685656
_cell_length_c 9.402450
_cell_angle_alpha 90.000000
_cell_angle_beta 127.318975
_cell_angle_gamma 90.000000
_cell_volume 2508.976507
_symmetry_space_group_name_H-M "C 2/C"
_symmetry_group_IT_number 15
_symmetry_cell_setting 'monoclinic'
loop_
_space_group_symop_operation_xyz
x,y,z
-x,y,1/2-z
-x,-y,-z
x,-y,1/2+z
1/2+x,1/2+y,z
1/2-x,1/2+y,1/2-z
1/2-x,1/2-y,-z
1/2+x,1/2-y,1/2+z
loop_
_atom_site_type_symbol
_atom_site_label
_atom_site_fract_x
_atom_site_fract_y
_atom_site_fract_z
Si Si1 0.299104 0.032140 0.503223
Si Si2 0.951103 0.557741 0.330253
Si Si3 0.051623 0.841604 0.949811
Si Si4 0.810001 0.030377 0.876359
Si Si5 0.423453 0.158400 0.551402
Si Si6 0.961699 0.069870 0.546472
O O1 0.221044 0.049582 0.504669
O O2 0.340139 0.115226 0.502353
O O3 0.363074 0.979589 0.675993
O O4 0.268383 0.978401 0.330955
O O5 0.937047 0.638111 0.403061
O O6 0.000000 0.578571 0.250000
O O7 0.000000 0.500000 0.500000
O O8 0.084528 0.753667 0.953324
O O9 0.000000 0.877752 0.750000
O O10 0.132376 0.894676 0.091765
O O11 0.986459 0.846531 0.999191
O O12 0.862425 0.946705 0.934945
O O13 0.500000 0.127800 0.750000
O O14 0.000000 0.070226 0.750000
O O15 0.000000 0.000000 0.500000
#
# Coordination Sequence:
#
# PCOD8135139 Si02
#       6
#     8   8   8   8   8   8
#     4  12  21  35  61  90 117 153 198 248 303 358
#     4  12  20  38  62  84 111 153 206 242 283 358
#     4  10  22  41  61  87 122 160 204 248 295 356
#     4  11  21  35  61  91 119 156 195 246 304 360
#     4  11  23  40  62  88 118 158 205 251 295 355
#     4  10  19  37  63  87 119 160 208 243 285 360
#
# _framework density 19.131305999999999
#
# number of rings (size 3 to 8) (size 9 to 14) (size 15 to 20)
#    0.000    1.000    5.000    5.000    0.000    1.333 
#    0.000    0.833    0.000    0.000    0.000    0.000 
#    0.000    0.000    0.000    0.000    0.000    0.000 
#
# Total GULP energy -297515.886775 kJ/mol
# GULP energy per Si atom -12396.495282 kJ/mol
# Density = 1.908776 g / cm^3
# Si number density = 19.131306 Si / 1000 Ang^3
#
#
#
# Elastic Constant Matrix: (Units=GPa)
#
#
# Indices 1 2 3 4 5 6 
#
# 1 138.0845 42.0496 38.6283 0.0000 -17.8995 0.0000
# 2 42.0496 80.7436 40.6308 0.0000 2.5815 0.0000
# 3 38.6283 40.6308 128.2932 0.0000 -8.0747 0.0000
# 4 0.0000 0.0000 0.0000 22.8661 0.0000 2.6141
# 5 -17.8995 2.5815 -8.0747 0.0000 41.0701 0.0000
# 6 0.0000 0.0000 0.0000 2.6141 0.0000 30.9389
#
#
#
# Elastic Compliance Matrix: (Units=1/GPa)
#
#
# Indices 1 2 3 4 5 6 
#
# 1 0.009475 -0.004479 -0.001171 0.000000 0.004181 0.000000
# 2 -0.004479 0.016993 -0.004276 0.000000 -0.003861 0.000000
# 3 -0.001171 -0.004276 0.009605 0.000000 0.001647 0.000000
# 4 0.000000 0.000000 0.000000 0.044159 0.000000 -0.003731
# 5 0.004181 -0.003861 0.001647 0.000000 0.026737 0.000000
# 6 0.000000 0.000000 0.000000 -0.003731 0.000000 0.032637
#
#
# Mechanical properties :
#
#
# Convention : Reuss Voigt Hill
#
# Bulk Modulus (GPa) = 61.64968 65.52654 63.58811
# Shear Modulus (GPa) = 30.32758 34.02918 32.17838
#
# Velocity S-wave (km/s) = 3.98582 4.22206 4.10564
# Velocity P-wave (km/s) = 7.31278 7.62188 7.46893
#
# Compressibility (1/GPa) = 0.01622069
#
# Stress axis : x y z
#
# Youngs Moduli (GPa) = 105.53538 58.84937 104.11004
#
# Poissons Ratio (x) = 0.26358 0.12196
# Poissons Ratio (y) = 0.47268 0.44518
# Poissons Ratio (z) = 0.12363 0.25164
#
# Static dielectric constant tensor:
#      x y z
#    x 4.048370 0.000000 -0.225660 
#    y 0.000000 3.342620 0.000000 
#    z -0.225660 0.000000 3.818050 
# 
# 
# High freq. dielectric constant tensor:
#      x y z
#    x 1.756070 0.000000 -0.009590 
#    y 0.000000 1.710850 0.000000 
#    z -0.009590 0.000000 1.760730 
# 
# From -- ./inp_files/56410.got.cif
#   From: 2010.06.25/outbox.cif.g09.slc.cpg/sg15_29_cif.got.tgz:56410.got - 2010.06.28 07:06:18.
