data_PCOD8135009
_publ_section_title
;
Structure prediction by ZEFSAII (Michael W. Deem and Ramdas Pophale) SiO2 
 PCOD8135009
Probable space group: C 2/C
;
_chemical_formula_sum "Si O2"
_cell_formula_units_Z 52
_cell_length_a 28.280526
_cell_length_b 9.108719
_cell_length_c 19.575790
_cell_angle_alpha 90.000000
_cell_angle_beta 152.780284
_cell_angle_gamma 90.000000
_cell_volume 2306.555991
_symmetry_space_group_name_H-M "C 2/C"
_symmetry_group_IT_number 15
_symmetry_cell_setting 'monoclinic'
loop_
_space_group_symop_operation_xyz
x,y,z
-x,y,1/2-z
-x,-y,-z
x,-y,1/2+z
1/2+x,1/2+y,z
1/2-x,1/2+y,1/2-z
1/2-x,1/2-y,-z
1/2+x,1/2-y,1/2+z
loop_
_atom_site_type_symbol
_atom_site_label
_atom_site_fract_x
_atom_site_fract_y
_atom_site_fract_z
Si Si1 0.047131 0.951923 0.701615
Si Si2 0.520743 0.237812 0.116731
Si Si3 0.623881 0.753153 0.197439
Si Si4 0.500000 0.744474 0.250000
Si Si5 0.690747 0.187568 0.229366
Si Si6 0.189276 0.911428 0.122493
Si Si7 0.035019 0.570851 0.921518
O O1 0.080881 0.870072 0.815721
O O2 0.932010 0.880107 0.543985
O O3 0.121834 0.901902 0.735581
O O4 0.041359 0.127320 0.695311
O O5 0.629667 0.197305 0.221504
O O6 0.480534 0.103034 0.110470
O O7 0.435989 0.277715 0.950398
O O8 0.740045 0.810560 0.336227
O O9 0.567641 0.872563 0.172270
O O10 0.444433 0.852925 0.124944
O O11 0.715161 0.351438 0.232706
O O12 0.792436 0.085035 0.367261
O O13 0.630097 0.093953 0.094276
#
# Coordination Sequence:
#
# PCOD8135009 Si02
#       7
#     8   8   8   4   8   8   8
#     4  11  24  38  62  92 125 166 206 258 300 372
#     4  11  19  38  59  90 125 153 205 261 317 351
#     4  10  19  37  59  91 127 157 193 253 324 359
#     4  10  22  44  60  80 122 178 222 226 310 372
#     4  11  22  34  61  96 124 156 197 257 322 364
#     4  12  21  35  61  98 128 154 203 254 316 370
#     4  10  19  40  59  82 121 170 201 248 300 372
#
# _framework density 22.544435
#
# number of rings (size 3 to 8) (size 9 to 14) (size 15 to 20)
#    0.000    1.231    7.692    2.308    2.154    0.615 
#    0.000    3.077    0.000    0.923    0.000    0.000 
#    0.000    0.000    0.000    0.000    0.000    0.000 
#
# Total GULP energy -322132.074796 kJ/mol
# GULP energy per Si atom -12389.695184 kJ/mol
# Density = 2.249312 g / cm^3
# Si number density = 22.544435 Si / 1000 Ang^3
#
#
#
# Elastic Constant Matrix: (Units=GPa)
#
#
# Indices 1 2 3 4 5 6 
#
# 1 96.9067 43.1138 23.2217 0.0000 -8.9909 0.0000
# 2 43.1138 141.2862 -1.1357 0.0000 -23.0461 0.0000
# 3 23.2217 -1.1357 20.7562 0.0000 8.0637 0.0000
# 4 0.0000 0.0000 0.0000 22.7523 0.0000 3.6323
# 5 -8.9909 -23.0461 8.0637 0.0000 30.2775 0.0000
# 6 0.0000 0.0000 0.0000 3.6323 0.0000 35.0589
#
#
#
# Elastic Compliance Matrix: (Units=1/GPa)
#
#
# Indices 1 2 3 4 5 6 
#
# 1 0.019260 -0.004624 -0.025271 0.000000 0.008930 0.000000
# 2 -0.004624 0.009280 0.003871 0.000000 0.004660 0.000000
# 3 -0.025271 0.003871 0.087485 0.000000 -0.027857 0.000000
# 4 0.000000 0.000000 0.000000 0.044691 0.000000 -0.004630
# 5 0.008930 0.004660 -0.027857 0.000000 0.046646 0.000000
# 6 0.000000 0.000000 0.000000 -0.004630 0.000000 0.029003
#
#
# Mechanical properties :
#
#
# Convention : Reuss Voigt Hill
#
# Bulk Modulus (GPa) = 15.63045 43.26097 29.44571
# Shear Modulus (GPa) = 16.14264 30.53435 23.33850
#
# Velocity S-wave (km/s) = 2.67879 3.68422 3.22098
# Velocity P-wave (km/s) = 4.06400 6.10973 5.18869
#
# Compressibility (1/GPa) = 0.06397768
#
# Stress axis : x y z
#
# Youngs Moduli (GPa) = 51.91980 107.75865 11.43053
#
# Poissons Ratio (x) = 0.49826 0.28886
# Poissons Ratio (y) = 0.24007 -0.04424
# Poissons Ratio (z) = 1.31205 -0.41709
#
# Static dielectric constant tensor:
#      x y z
#    x 4.194940 0.000000 0.101460 
#    y 0.000000 4.251090 0.000000 
#    z 0.101460 0.000000 3.557980 
# 
# 
# High freq. dielectric constant tensor:
#      x y z
#    x 1.884480 0.000000 0.020800 
#    y 0.000000 1.908280 0.000000 
#    z 0.020800 0.000000 1.827520 
# 
# From -- ./inp_files/171769.got.cif
#   From: 2010.06.25/outbox.cif.g09.slc.cpg/sg15_86_cif.got.tgz:171769.got - 2010.06.28 07:06:18.
