data_PCOD8135103
_publ_section_title
;
Structure prediction by ZEFSAII (Michael W. Deem and Ramdas Pophale) SiO2 
 PCOD8135103
Probable space group: C 2/C
;
_chemical_formula_sum "Si O2"
_cell_formula_units_Z 52
_cell_length_a 15.908522
_cell_length_b 19.495210
_cell_length_c 12.995136
_cell_angle_alpha 90.000000
_cell_angle_beta 137.994033
_cell_angle_gamma 90.000000
_cell_volume 2697.116472
_symmetry_space_group_name_H-M "C 2/C"
_symmetry_group_IT_number 15
_symmetry_cell_setting 'monoclinic'
loop_
_space_group_symop_operation_xyz
x,y,z
-x,y,1/2-z
-x,-y,-z
x,-y,1/2+z
1/2+x,1/2+y,z
1/2-x,1/2+y,1/2-z
1/2-x,1/2-y,-z
1/2+x,1/2-y,1/2+z
loop_
_atom_site_type_symbol
_atom_site_label
_atom_site_fract_x
_atom_site_fract_y
_atom_site_fract_z
Si Si1 0.865872 0.476372 0.582644
Si Si2 0.000000 0.822472 0.750000
Si Si3 0.033287 0.644175 0.461183
Si Si4 0.542612 0.188146 0.896433
Si Si5 0.228973 0.894966 0.861943
Si Si6 0.244648 0.392344 0.844563
Si Si7 0.620715 0.726231 0.931761
O O1 0.884925 0.418091 0.511367
O O2 0.803255 0.542014 0.476866
O O3 0.772108 0.453288 0.588522
O O4 0.000000 0.497127 0.750000
O O5 0.029415 0.771706 0.874651
O O6 0.105754 0.876322 0.813108
O O7 0.091491 0.716093 0.486700
O O8 0.037407 0.647667 0.589136
O O9 0.892052 0.643274 0.288045
O O10 0.500000 0.153911 0.750000
O O11 0.688007 0.174046 0.053703
O O12 0.206263 0.916453 0.722473
O O13 0.353966 0.343801 0.985696
O O14 0.500000 0.714941 0.750000
O O15 0.750000 0.750000 0.000000
#
# Coordination Sequence:
#
# PCOD8135103 Si02
#       7
#     8   4   8   8   8   8   8
#     4  10  21  38  63  92 124 165 214 259 315 380
#     4  10  22  42  56  86 126 162 208 252 316 376
#     4  10  19  37  61  95 129 154 211 269 313 370
#     4   9  21  36  61  89 119 159 211 254 311 365
#     4  11  22  40  63  85 129 165 204 266 315 380
#     4  10  22  39  62  93 121 161 214 262 315 372
#     4  12  20  37  64  95 125 163 200 261 323 375
#
# _framework density 19.279848999999999
#
# number of rings (size 3 to 8) (size 9 to 14) (size 15 to 20)
#    0.462    1.231    3.077    2.308    0.000    6.769 
#    1.385    0.769    3.385    0.000    0.000    0.000 
#    0.000    0.000    0.000    0.000    0.000    0.000 
#
# Total GULP energy -322132.846767 kJ/mol
# GULP energy per Si atom -12389.724876 kJ/mol
# Density = 1.923597 g / cm^3
# Si number density = 19.279849 Si / 1000 Ang^3
#
#
#
# Elastic Constant Matrix: (Units=GPa)
#
#
# Indices 1 2 3 4 5 6 
#
# 1 106.6331 45.6054 54.6093 0.0000 -15.4563 0.0000
# 2 45.6054 107.5974 55.6060 0.0000 -2.4120 0.0000
# 3 54.6093 55.6060 100.9712 0.0000 -14.5107 0.0000
# 4 0.0000 0.0000 0.0000 18.3322 0.0000 8.5677
# 5 -15.4563 -2.4120 -14.5107 0.0000 32.1088 0.0000
# 6 0.0000 0.0000 0.0000 8.5677 0.0000 18.4701
#
#
#
# Elastic Compliance Matrix: (Units=1/GPa)
#
#
# Indices 1 2 3 4 5 6 
#
# 1 0.014008 -0.003126 -0.005261 0.000000 0.004131 0.000000
# 2 -0.003126 0.013866 -0.006430 0.000000 -0.003369 0.000000
# 3 -0.005261 -0.006430 0.016958 0.000000 0.004648 0.000000
# 4 0.000000 0.000000 0.000000 0.069648 0.000000 -0.032307
# 5 0.004131 -0.003369 0.004648 0.000000 0.034980 0.000000
# 6 0.000000 0.000000 0.000000 -0.032307 0.000000 0.069128
#
#
# Mechanical properties :
#
#
# Convention : Reuss Voigt Hill
#
# Bulk Modulus (GPa) = 65.79409 69.64923 67.72166
# Shear Modulus (GPa) = 19.74042 24.40764 22.07403
#
# Velocity S-wave (km/s) = 3.20330 3.56190 3.38735
# Velocity P-wave (km/s) = 6.91964 7.28835 7.10639
#
# Compressibility (1/GPa) = 0.01519893
#
# Stress axis : x y z
#
# Youngs Moduli (GPa) = 71.38888 72.11791 58.96873
#
# Poissons Ratio (x) = 0.22543 0.31023
# Poissons Ratio (y) = 0.22315 0.37916
# Poissons Ratio (z) = 0.37557 0.46371
#
# Static dielectric constant tensor:
#      x y z
#    x 3.710670 0.000000 -0.092460 
#    y 0.000000 3.306280 0.000000 
#    z -0.092460 0.000000 3.613210 
# 
# 
# High freq. dielectric constant tensor:
#      x y z
#    x 1.756720 0.000000 -0.013740 
#    y 0.000000 1.740600 0.000000 
#    z -0.013740 0.000000 1.739440 
# 
# From -- ./inp_files/99845.got.cif
#   From: 2010.06.25/outbox.cif.g09.slc.cpg/sg15_50_cif.got.tgz:99845.got - 2010.06.28 07:06:18.
