data_PCOD8135781
_publ_section_title
;
Structure prediction by ZEFSAII (Michael W. Deem and Ramdas Pophale) SiO2 
 PCOD8135781
Probable space group: C 2/C
;
_chemical_formula_sum "Si O2"
_cell_formula_units_Z 44
_cell_length_a 7.581565
_cell_length_b 12.221017
_cell_length_c 23.139377
_cell_angle_alpha 90.000000
_cell_angle_beta 60.605384
_cell_angle_gamma 90.000000
_cell_volume 1867.951591
_symmetry_space_group_name_H-M "C 2/C"
_symmetry_group_IT_number 15
_symmetry_cell_setting 'monoclinic'
loop_
_space_group_symop_operation_xyz
x,y,z
-x,y,1/2-z
-x,-y,-z
x,-y,1/2+z
1/2+x,1/2+y,z
1/2-x,1/2+y,1/2-z
1/2-x,1/2-y,-z
1/2+x,1/2-y,1/2+z
loop_
_atom_site_type_symbol
_atom_site_label
_atom_site_fract_x
_atom_site_fract_y
_atom_site_fract_z
Si Si1 0.042222 0.343548 0.522057
Si Si2 0.894649 0.444392 0.437339
Si Si3 0.917171 0.861302 0.862288
Si Si4 0.416799 0.134070 0.703527
Si Si5 0.010808 0.122748 0.475607
Si Si6 0.000000 0.964959 0.250000
O O1 0.060780 0.412734 0.459056
O O2 0.820969 0.345055 0.586992
O O3 0.123525 0.219960 0.494968
O O4 0.177920 0.424537 0.542978
O O5 0.727825 0.349656 0.473910
O O6 0.983544 0.443470 0.359952
O O7 0.046964 0.875211 0.900821
O O8 0.016686 0.758969 0.814187
O O9 0.943544 0.963843 0.815422
O O10 0.500000 0.087808 0.750000
O O11 0.177104 0.118426 0.739091
O O12 0.000000 0.000000 0.500000
#
# Coordination Sequence:
#
# PCOD8135781 Si02
#       6
#     8   8   8   8   8   4
#     4  10  19  39  70  94 127 179 224 286 360 403
#     4  10  20  39  67  97 128 179 231 280 351 414
#     4  11  22  44  68  97 140 183 231 294 353 413
#     4  12  25  46  73 100 139 191 239 287 351 423
#     4  11  23  37  66 105 138 175 230 295 359 423
#     4  12  28  46  70 104 142 192 238 290 348 426
#
# _framework density 23.555212000000001
#
# number of rings (size 3 to 8) (size 9 to 14) (size 15 to 20)
#    0.000    1.091    6.364    1.091    2.545    0.727 
#    1.636    1.818    0.000    0.000    0.000    0.000 
#    0.000    0.000    0.000    0.000    0.000    0.000 
#
# Total GULP energy -272555.173435 kJ/mol
# GULP energy per Si atom -12388.871520 kJ/mol
# Density = 2.350160 g / cm^3
# Si number density = 23.555212 Si / 1000 Ang^3
#
#
#
# Elastic Constant Matrix: (Units=GPa)
#
#
# Indices 1 2 3 4 5 6 
#
# 1 91.0939 54.5894 47.2853 0.0000 8.0557 0.0000
# 2 54.5894 155.6286 47.4495 0.0000 3.9108 0.0000
# 3 47.2853 47.4495 142.5204 0.0000 15.7623 0.0000
# 4 0.0000 0.0000 0.0000 28.8658 0.0000 -6.4450
# 5 8.0557 3.9108 15.7623 0.0000 34.4046 0.0000
# 6 0.0000 0.0000 0.0000 -6.4450 0.0000 39.9659
#
#
#
# Elastic Compliance Matrix: (Units=1/GPa)
#
#
# Indices 1 2 3 4 5 6 
#
# 1 0.015552 -0.004335 -0.003548 0.000000 -0.001523 0.000000
# 2 -0.004335 0.008363 -0.001425 0.000000 0.000717 0.000000
# 3 -0.003548 -0.001425 0.009015 0.000000 -0.003137 0.000000
# 4 0.000000 0.000000 0.000000 0.035937 0.000000 0.005795
# 5 -0.001523 0.000717 -0.003137 0.000000 0.030778 0.000000
# 6 0.000000 0.000000 0.000000 0.005795 0.000000 0.025956
#
#
# Mechanical properties :
#
#
# Convention : Reuss Voigt Hill
#
# Bulk Modulus (GPa) = 69.86629 76.43236 73.14933
# Shear Modulus (GPa) = 33.55953 36.64185 35.10069
#
# Velocity S-wave (km/s) = 3.77864 3.94835 3.86443
# Velocity P-wave (km/s) = 6.98302 7.30100 7.14378
#
# Compressibility (1/GPa) = 0.01431305
#
# Stress axis : x y z
#
# Youngs Moduli (GPa) = 64.30046 119.57891 110.92341
#
# Poissons Ratio (x) = 0.51838 0.39357
# Poissons Ratio (y) = 0.27875 0.15809
# Poissons Ratio (z) = 0.22814 0.17043
#
# Static dielectric constant tensor:
#      x y z
#    x 1.189400 0.000000 0.861640 
#    y 0.000000 4.199930 0.000000 
#    z 0.861640 0.000000 4.039770 
# 
# 
# High freq. dielectric constant tensor:
#      x y z
#    x 1.953540 0.000000 0.003260 
#    y 0.000000 1.959800 0.000000 
#    z 0.003260 0.000000 1.927960 
# 
# From -- ./inp_files/230309.got.cif
#   From: 2010.06.25/outbox.cif.g09.slc.cpg/sg15_116_cif.got.tgz:230309.got - 2010.06.28 07:06:18.
