data_PCOD8135729
_publ_section_title
;
Structure prediction by ZEFSAII (Michael W. Deem and Ramdas Pophale) SiO2 
 PCOD8135729
Probable space group: C 2/C
;
_chemical_formula_sum "Si O2"
_cell_formula_units_Z 52
_cell_length_a 14.592566
_cell_length_b 9.533006
_cell_length_c 28.626503
_cell_angle_alpha 90.000000
_cell_angle_beta 39.029615
_cell_angle_gamma 90.000000
_cell_volume 2507.717988
_symmetry_space_group_name_H-M "C 2/C"
_symmetry_group_IT_number 15
_symmetry_cell_setting 'monoclinic'
loop_
_space_group_symop_operation_xyz
x,y,z
-x,y,1/2-z
-x,-y,-z
x,-y,1/2+z
1/2+x,1/2+y,z
1/2-x,1/2+y,1/2-z
1/2-x,1/2-y,-z
1/2+x,1/2-y,1/2+z
loop_
_atom_site_type_symbol
_atom_site_label
_atom_site_fract_x
_atom_site_fract_y
_atom_site_fract_z
Si Si1 0.895104 0.971279 0.621726
Si Si2 0.410683 0.989824 0.640501
Si Si3 0.614847 0.227721 0.519850
Si Si4 0.500000 0.343389 0.750000
Si Si5 0.084480 0.067038 0.785110
Si Si6 0.185937 0.250594 0.887468
Si Si7 0.579620 0.875645 0.763849
O O1 0.752498 0.878859 0.688151
O O2 0.021123 0.869092 0.554988
O O3 0.940567 0.054151 0.650121
O O4 0.869024 0.090540 0.593207
O O5 0.405101 0.848044 0.612066
O O6 0.463953 0.960761 0.672346
O O7 0.523715 0.095983 0.573424
O O8 0.252393 0.058687 0.703770
O O9 0.750000 0.250000 0.500000
O O10 0.668350 0.192293 0.446667
O O11 0.491325 0.443063 0.798742
O O12 0.356326 0.247867 0.805457
O O13 0.024657 0.216498 0.792023
O O14 0.500000 0.940994 0.750000
#
# Coordination Sequence:
#
# PCOD8135729 Si02
#       7
#     8   8   8   4   8   8   8
#     4  11  24  41  64  96 131 168 219 270 329 377
#     4  10  23  43  63  94 129 174 214 260 331 391
#     4  12  26  44  65  92 137 177 217 270 328 387
#     4  10  22  38  70  98 126 168 228 264 330 394
#     4  10  19  39  65  93 128 166 210 274 318 387
#     4  11  24  43  68  94 133 175 219 268 327 391
#     4  11  22  38  69  99 129 164 220 275 322 380
#
# _framework density 20.735983999999998
#
# number of rings (size 3 to 8) (size 9 to 14) (size 15 to 20)
#    0.000    1.231    3.846    1.846    3.231    1.231 
#    0.000    0.769    0.000    0.000    0.000    0.000 
#    0.000    0.000    0.000    0.000    0.000    0.000 
#
# Total GULP energy -322500.611518 kJ/mol
# GULP energy per Si atom -12403.869674 kJ/mol
# Density = 2.068879 g / cm^3
# Si number density = 20.735984 Si / 1000 Ang^3
#
#
#
# Elastic Constant Matrix: (Units=GPa)
#
#
# Indices 1 2 3 4 5 6 
#
# 1 128.0925 36.2124 36.3513 -0.0001 14.9810 0.0000
# 2 36.2124 110.8496 36.5936 -0.0001 -9.2254 0.0000
# 3 36.3513 36.5936 82.1046 0.0000 7.6295 0.0000
# 4 -0.0001 -0.0001 0.0000 23.2007 0.0000 -4.9955
# 5 14.9810 -9.2254 7.6295 0.0000 36.3056 0.0000
# 6 0.0000 0.0000 0.0000 -4.9955 0.0000 19.2699
#
#
#
# Elastic Compliance Matrix: (Units=1/GPa)
#
#
# Indices 1 2 3 4 5 6 
#
# 1 0.009828 -0.002633 -0.002793 0.000000 -0.004137 0.000000
# 2 -0.002633 0.011809 -0.004566 0.000000 0.005047 0.000000
# 3 -0.002793 -0.004566 0.015760 0.000000 -0.003320 0.000000
# 4 0.000000 0.000000 0.000000 0.045650 0.000000 0.011834
# 5 -0.004137 0.005047 -0.003320 0.000000 0.031231 0.000000
# 6 0.000000 0.000000 0.000000 0.011834 0.000000 0.054962
#
#
# Mechanical properties :
#
#
# Convention : Reuss Voigt Hill
#
# Bulk Modulus (GPa) = 57.43316 59.92905 58.68110
# Shear Modulus (GPa) = 25.63720 29.88120 27.75920
#
# Velocity S-wave (km/s) = 3.52001 3.80021 3.66279
# Velocity P-wave (km/s) = 6.65418 6.94400 6.80064
#
# Compressibility (1/GPa) = 0.01741154
#
# Stress axis : x y z
#
# Youngs Moduli (GPa) = 101.75293 84.68285 63.45168
#
# Poissons Ratio (x) = 0.22295 0.17724
# Poissons Ratio (y) = 0.26789 0.28975
# Poissons Ratio (z) = 0.28423 0.38670
#
# Static dielectric constant tensor:
#      x y z
#    x 3.974700 0.000000 0.066180 
#    y 0.000000 3.663960 0.000000 
#    z 0.066180 0.000000 3.570690 
# 
# 
# High freq. dielectric constant tensor:
#      x y z
#    x 1.821590 0.000000 0.013140 
#    y 0.000000 1.819790 0.000000 
#    z 0.013140 0.000000 1.795430 
# 
# From -- ./inp_files/313070.got.cif
#   From: 2010.06.25/outbox.cif.g09.slc.cpg/sg15_157_cif.got.tgz:313070.got - 2010.06.28 07:06:18.
