data_PCOD8135749
_publ_section_title
;
Structure prediction by ZEFSAII (Michael W. Deem and Ramdas Pophale) SiO2 
 PCOD8135749
Probable space group: C 2/C
;
_chemical_formula_sum "Si O2"
_cell_formula_units_Z 48
_cell_length_a 26.432524
_cell_length_b 10.402309
_cell_length_c 16.465514
_cell_angle_alpha 90.000000
_cell_angle_beta 150.501245
_cell_angle_gamma 90.000000
_cell_volume 2229.286169
_symmetry_space_group_name_H-M "C 2/C"
_symmetry_group_IT_number 15
_symmetry_cell_setting 'monoclinic'
loop_
_space_group_symop_operation_xyz
x,y,z
-x,y,1/2-z
-x,-y,-z
x,-y,1/2+z
1/2+x,1/2+y,z
1/2-x,1/2+y,1/2-z
1/2-x,1/2-y,-z
1/2+x,1/2-y,1/2+z
loop_
_atom_site_type_symbol
_atom_site_label
_atom_site_fract_x
_atom_site_fract_y
_atom_site_fract_z
Si Si1 0.689934 0.807249 0.341981
Si Si2 0.397628 0.221055 0.192429
Si Si3 0.738849 0.755486 0.724567
Si Si4 0.755763 0.097778 0.406783
Si Si5 0.524866 0.181309 0.877393
Si Si6 0.395648 0.101683 0.027059
O O1 0.750000 0.750000 0.500000
O O2 0.709667 0.716498 0.291443
O O3 0.569963 0.805589 0.194519
O O4 0.734693 0.948534 0.387802
O O5 0.338170 0.185295 0.191278
O O6 0.372984 0.108357 0.091689
O O7 0.520530 0.214089 0.379093
O O8 0.358737 0.357708 0.100372
O O9 0.764221 0.870509 0.822888
O O10 0.617297 0.730708 0.540836
O O11 0.790770 0.625413 0.831593
O O12 0.500000 0.220939 0.750000
O O13 0.563324 0.036309 0.938501
#
# Coordination Sequence:
#
# PCOD8135749 Si02
#       6
#     8   8   8   8   8   8
#     4  12  25  44  69 101 138 188 230 283 364 418
#     4   9  18  36  69  98 129 178 224 286 340 407
#     4  11  26  38  63 104 136 173 234 292 335 409
#     4  10  21  41  64 102 136 172 232 289 341 405
#     4  12  22  43  70  96 138 187 233 286 344 422
#     4  10  19  39  67 102 129 176 241 273 343 417
#
# _framework density 21.531555999999998
#
# number of rings (size 3 to 8) (size 9 to 14) (size 15 to 20)
#    0.000    1.333    5.000    1.000    2.333    1.333 
#    3.000    8.333    0.000    5.000    0.000    0.000 
#    0.000    0.000    0.000    0.000    0.000    0.000 
#
# Total GULP energy -297468.196482 kJ/mol
# GULP energy per Si atom -12394.508187 kJ/mol
# Density = 2.148255 g / cm^3
# Si number density = 21.531556 Si / 1000 Ang^3
#
#
#
# Elastic Constant Matrix: (Units=GPa)
#
#
# Indices 1 2 3 4 5 6 
#
# 1 153.0497 56.1291 52.9166 0.0000 -4.1678 0.0000
# 2 56.1291 54.7455 55.6429 0.0000 1.0372 0.0000
# 3 52.9166 55.6429 155.3453 0.0000 5.1714 0.0000
# 4 0.0000 0.0000 0.0000 24.7811 0.0000 5.2367
# 5 -4.1678 1.0372 5.1714 0.0000 40.2701 0.0000
# 6 0.0000 0.0000 0.0000 5.2367 0.0000 33.8723
#
#
#
# Elastic Compliance Matrix: (Units=1/GPa)
#
#
# Indices 1 2 3 4 5 6 
#
# 1 0.010561 -0.011245 0.000386 0.000000 0.001333 0.000000
# 2 -0.011245 0.040712 -0.010724 0.000000 -0.000835 0.000000
# 3 0.000386 -0.010724 0.010180 0.000000 -0.000991 0.000000
# 4 0.000000 0.000000 0.000000 0.041716 0.000000 -0.006449
# 5 0.001333 -0.000835 -0.000991 0.000000 0.025119 0.000000
# 6 0.000000 0.000000 0.000000 -0.006449 0.000000 0.030520
#
#
# Mechanical properties :
#
#
# Convention : Reuss Voigt Hill
#
# Bulk Modulus (GPa) = 54.68719 76.94640 65.81679
# Shear Modulus (GPa) = 24.03052 33.01484 28.52268
#
# Velocity S-wave (km/s) = 3.34437 3.92002 3.64358
# Velocity P-wave (km/s) = 6.35349 7.50352 6.95233
#
# Compressibility (1/GPa) = 0.01828582
#
# Stress axis : x y z
#
# Youngs Moduli (GPa) = 94.69063 24.56306 98.23277
#
# Poissons Ratio (x) = 0.27622 -0.03794
# Poissons Ratio (y) = 1.06484 1.05344
# Poissons Ratio (z) = -0.03657 0.26341
#
# Static dielectric constant tensor:
#      x y z
#    x 3.317520 0.000000 -0.513910 
#    y 0.000000 3.589470 0.000000 
#    z -0.513910 0.000000 3.968940 
# 
# 
# High freq. dielectric constant tensor:
#      x y z
#    x 1.859600 0.000000 -0.003710 
#    y 0.000000 1.806230 0.000000 
#    z -0.003710 0.000000 1.853940 
# 
# From -- ./inp_files/224681.got.cif
#   From: 2010.06.25/outbox.cif.g09.slc.cpg/sg15_113_cif.got.tgz:224681.got - 2010.06.28 07:06:18.
