data_PCOD8135800
_publ_section_title
;
Structure prediction by ZEFSAII (Michael W. Deem and Ramdas Pophale) SiO2 
 PCOD8135800
Probable space group: C 2/C
;
_chemical_formula_sum "Si O2"
_cell_formula_units_Z 56
_cell_length_a 16.462361
_cell_length_b 9.350604
_cell_length_c 23.456833
_cell_angle_alpha 90.000000
_cell_angle_beta 131.653589
_cell_angle_gamma 90.000000
_cell_volume 2697.891841
_symmetry_space_group_name_H-M "C 2/C"
_symmetry_group_IT_number 15
_symmetry_cell_setting 'monoclinic'
loop_
_space_group_symop_operation_xyz
x,y,z
-x,y,1/2-z
-x,-y,-z
x,-y,1/2+z
1/2+x,1/2+y,z
1/2-x,1/2+y,1/2-z
1/2-x,1/2-y,-z
1/2+x,1/2-y,1/2+z
loop_
_atom_site_type_symbol
_atom_site_label
_atom_site_fract_x
_atom_site_fract_y
_atom_site_fract_z
Si Si1 0.421566 0.216645 0.883433
Si Si2 0.311277 0.380507 0.594875
Si Si3 0.377895 0.908207 0.082877
Si Si4 0.028979 0.986161 0.147959
Si Si5 0.699913 0.593811 0.818861
Si Si6 0.783953 0.684214 0.076060
Si Si7 0.451166 0.636779 0.505047
O O1 0.500583 0.118569 0.882912
O O2 0.410220 0.376266 0.851420
O O3 0.304421 0.140961 0.831006
O O4 0.469953 0.228545 0.971122
O O5 0.341849 0.212890 0.611511
O O6 0.204646 0.407717 0.508151
O O7 0.411578 0.465848 0.614756
O O8 0.284907 0.436088 0.646256
O O9 0.376335 0.062913 0.112081
O O10 0.097520 0.914006 0.229676
O O11 0.008126 0.854442 0.093637
O O12 0.672678 0.699037 0.858967
O O13 0.750000 0.750000 0.000000
O O14 0.677367 0.609211 0.051446
O O15 0.500000 0.500000 0.500000
#
# Coordination Sequence:
#
# PCOD8135800 Si02
#       7
#     8   8   8   8   8   8   8
#     4   9  22  39  60  93 125 156 213 259 303 366
#     4  10  20  36  66  92 114 164 208 252 306 374
#     4  10  20  39  64  93 121 155 212 257 300 361
#     4  10  19  40  61  87 128 165 205 250 316 377
#     4  11  22  39  61  92 127 168 200 254 321 364
#     4  11  20  38  60  93 124 158 207 258 297 367
#     4   9  18  36  61  86 117 160 202 250 299 365
#
# _framework density 20.756948000000001
#
# number of rings (size 3 to 8) (size 9 to 14) (size 15 to 20)
#    0.000    2.000    2.857    0.429    2.000    0.571 
#    2.571    2.857    0.000    8.571    0.000    0.000 
#    0.000    0.000    0.000    0.000    0.000    0.000 
#
# Total GULP energy -347016.536241 kJ/mol
# GULP energy per Si atom -12393.447723 kJ/mol
# Density = 2.070970 g / cm^3
# Si number density = 20.756948 Si / 1000 Ang^3
#
#
#
# Elastic Constant Matrix: (Units=GPa)
#
#
# Indices 1 2 3 4 5 6 
#
# 1 62.8626 35.0938 6.4835 0.0000 -7.0850 0.0000
# 2 35.0938 91.3488 32.4522 0.0000 -8.3506 0.0000
# 3 6.4835 32.4522 94.4655 0.0000 -23.4548 0.0000
# 4 0.0000 0.0000 0.0000 27.4407 0.0000 -2.2750
# 5 -7.0850 -8.3506 -23.4548 0.0000 21.6061 0.0000
# 6 0.0000 0.0000 0.0000 -2.2750 0.0000 39.0395
#
#
#
# Elastic Compliance Matrix: (Units=1/GPa)
#
#
# Indices 1 2 3 4 5 6 
#
# 1 0.021217 -0.008669 0.003309 0.000000 0.007200 0.000000
# 2 -0.008669 0.016011 -0.005578 0.000000 -0.002710 0.000000
# 3 0.003309 -0.005578 0.016441 0.000000 0.016776 0.000000
# 4 0.000000 0.000000 0.000000 0.036619 0.000000 0.002134
# 5 0.007200 -0.002710 0.016776 0.000000 0.065809 0.000000
# 6 0.000000 0.000000 0.000000 0.002134 0.000000 0.025739
#
#
# Mechanical properties :
#
#
# Convention : Reuss Voigt Hill
#
# Bulk Modulus (GPa) = 31.45269 44.08179 37.76724
# Shear Modulus (GPa) = 23.33075 29.26041 26.29558
#
# Velocity S-wave (km/s) = 3.35624 3.75863 3.56312
# Velocity P-wave (km/s) = 5.49590 6.33400 5.92978
#
# Compressibility (1/GPa) = 0.03179378
#
# Stress axis : x y z
#
# Youngs Moduli (GPa) = 47.13161 62.45585 60.82527
#
# Poissons Ratio (x) = 0.54141 -0.20129
# Poissons Ratio (y) = 0.40857 0.33931
# Poissons Ratio (z) = -0.15597 0.34840
#
# Static dielectric constant tensor:
#      x y z
#    x 4.035080 0.000000 -0.176060 
#    y 0.000000 3.929850 0.000000 
#    z -0.176060 0.000000 3.848480 
# 
# 
# High freq. dielectric constant tensor:
#      x y z
#    x 1.825130 0.000000 -0.001100 
#    y 0.000000 1.803140 0.000000 
#    z -0.001100 0.000000 1.788530 
# 
# From -- ./inp_files/298591.got.cif
#   From: 2010.06.25/outbox.cif.g09.slc.cpg/sg15_150_cif.got.tgz:298591.got - 2010.06.28 07:06:18.
