data_PCOD8135928
_publ_section_title
;
Structure prediction by ZEFSAII (Michael W. Deem and Ramdas Pophale) SiO2 
 PCOD8135928
Probable space group: C 2/C
;
_chemical_formula_sum "Si O2"
_cell_formula_units_Z 60
_cell_length_a 15.824271
_cell_length_b 12.124998
_cell_length_c 17.393605
_cell_angle_alpha 90.000000
_cell_angle_beta 55.333473
_cell_angle_gamma 90.000000
_cell_volume 2744.849134
_symmetry_space_group_name_H-M "C 2/C"
_symmetry_group_IT_number 15
_symmetry_cell_setting 'monoclinic'
loop_
_space_group_symop_operation_xyz
x,y,z
-x,y,1/2-z
-x,-y,-z
x,-y,1/2+z
1/2+x,1/2+y,z
1/2-x,1/2+y,1/2-z
1/2-x,1/2-y,-z
1/2+x,1/2-y,1/2+z
loop_
_atom_site_type_symbol
_atom_site_label
_atom_site_fract_x
_atom_site_fract_y
_atom_site_fract_z
Si Si1 0.575204 0.720046 0.890074
Si Si2 0.850499 0.976610 0.360184
Si Si3 0.954860 0.012982 0.147419
Si Si4 0.889386 0.220765 0.089833
Si Si5 0.646194 0.904652 0.945102
Si Si6 0.000000 0.439688 0.750000
Si Si7 0.658885 0.771668 0.680438
Si Si8 0.056000 0.563849 0.866659
O O1 0.586206 0.587713 0.884029
O O2 0.655337 0.778133 0.908498
O O3 0.597004 0.763041 0.792968
O O4 0.459189 0.753303 0.979330
O O5 0.890627 0.022369 0.258574
O O6 0.834594 0.845314 0.365632
O O7 0.926157 0.997190 0.392054
O O8 0.748367 0.045972 0.429601
O O9 0.946741 0.122460 0.102790
O O10 0.774781 0.183499 0.127197
O O11 0.879364 0.323845 0.154012
O O12 0.608771 0.972134 0.890974
O O13 0.562576 0.911764 0.054751
O O14 0.090878 0.360525 0.667964
O O15 0.942159 0.519283 0.720333
#
# Coordination Sequence:
#
# PCOD8135928 Si02
#       8
#     8   8   8   8   8   4   8   8
#     4  10  21  39  63  90 121 161 208 254 298 368
#     4  10  21  38  61  88 120 164 201 248 314 359
#     4  10  22  38  59  93 126 156 203 255 299 369
#     4  11  23  41  63  88 125 169 200 245 313 377
#     4  10  19  41  64  86 119 167 202 248 305 374
#     4  12  24  38  60  98 124 150 208 276 294 362
#     4  11  22  39  63  90 121 160 209 252 310 357
#     4  10  23  39  62  90 123 158 207 251 308 361
#
# _framework density 21.859124000000001
#
# number of rings (size 3 to 8) (size 9 to 14) (size 15 to 20)
#    0.000    1.600    2.667    2.800    0.000    2.133 
#    0.000    7.333    0.000    0.000    0.000    0.000 
#    0.000    0.000    0.000    0.000    0.000    0.000 
#
# Total GULP energy -371893.896352 kJ/mol
# GULP energy per Si atom -12396.463212 kJ/mol
# Density = 2.180937 g / cm^3
# Si number density = 21.859124 Si / 1000 Ang^3
#
#
#
# Elastic Constant Matrix: (Units=GPa)
#
#
# Indices 1 2 3 4 5 6 
#
# 1 88.7328 36.2811 16.1518 0.0000 -20.7889 0.0000
# 2 36.2811 95.5737 22.3587 0.0000 -2.9402 0.0000
# 3 16.1518 22.3587 37.8229 0.0000 -9.3661 0.0000
# 4 0.0000 0.0000 0.0000 10.0814 0.0000 1.9102
# 5 -20.7889 -2.9402 -9.3661 0.0000 25.0373 0.0000
# 6 0.0000 0.0000 0.0000 1.9102 0.0000 35.0085
#
#
#
# Elastic Compliance Matrix: (Units=1/GPa)
#
#
# Indices 1 2 3 4 5 6 
#
# 1 0.016828 -0.005876 -0.000467 0.000000 0.013108 0.000000
# 2 -0.005876 0.014238 -0.007386 0.000000 -0.005970 0.000000
# 3 -0.000467 -0.007386 0.033827 0.000000 0.011399 0.000000
# 4 0.000000 0.000000 0.000000 0.100228 0.000000 -0.005469
# 5 0.013108 -0.005970 0.011399 0.000000 0.054388 0.000000
# 6 0.000000 0.000000 0.000000 -0.005469 0.000000 0.028863
#
#
# Mechanical properties :
#
#
# Convention : Reuss Voigt Hill
#
# Bulk Modulus (GPa) = 26.71182 41.30142 34.00662
# Shear Modulus (GPa) = 17.34257 23.84796 20.59527
#
# Velocity S-wave (km/s) = 2.81975 3.30659 3.07283
# Velocity P-wave (km/s) = 4.77994 5.78908 5.30854
#
# Compressibility (1/GPa) = 0.03743661
#
# Stress axis : x y z
#
# Youngs Moduli (GPa) = 59.42358 70.23543 29.56197
#
# Poissons Ratio (x) = 0.41269 0.01380
# Poissons Ratio (y) = 0.34916 0.21834
# Poissons Ratio (z) = 0.02775 0.51874
#
# Static dielectric constant tensor:
#      x y z
#    x 3.827120 0.000000 -0.142940 
#    y 0.000000 4.136830 0.000000 
#    z -0.142940 0.000000 3.814590 
# 
# 
# High freq. dielectric constant tensor:
#      x y z
#    x 1.845990 0.000000 -0.011400 
#    y 0.000000 1.865660 0.000000 
#    z -0.011400 0.000000 1.844860 
# 
# From -- ./inp_files/243667.got.cif
#   From: 2010.06.25/outbox.cif.g09.slc.cpg/sg15_122_cif.got.tgz:243667.got - 2010.06.28 07:06:18.
