data_PCOD8135376
_publ_section_title
;
Structure prediction by ZEFSAII (Michael W. Deem and Ramdas Pophale) SiO2 
 PCOD8135376
Probable space group: C 2/C
;
_chemical_formula_sum "Si O2"
_cell_formula_units_Z 64
_cell_length_a 16.212962
_cell_length_b 32.893051
_cell_length_c 8.660565
_cell_angle_alpha 90.000000
_cell_angle_beta 136.241136
_cell_angle_gamma 90.000000
_cell_volume 3194.355943
_symmetry_space_group_name_H-M "C 2/C"
_symmetry_group_IT_number 15
_symmetry_cell_setting 'monoclinic'
loop_
_space_group_symop_operation_xyz
x,y,z
-x,y,1/2-z
-x,-y,-z
x,-y,1/2+z
1/2+x,1/2+y,z
1/2-x,1/2+y,1/2-z
1/2-x,1/2-y,-z
1/2+x,1/2-y,1/2+z
loop_
_atom_site_type_symbol
_atom_site_label
_atom_site_fract_x
_atom_site_fract_y
_atom_site_fract_z
Si Si1 0.868500 0.893100 0.132011
Si Si2 0.485810 0.821721 0.412222
Si Si3 0.262879 0.811186 0.600977
Si Si4 0.754816 0.984468 0.525386
Si Si5 0.447453 0.901612 0.515194
Si Si6 0.330655 0.052063 0.295368
Si Si7 0.301851 0.555711 0.799422
Si Si8 0.879720 0.738350 0.997644
O O1 0.872832 0.906621 0.319534
O O2 0.000000 0.898616 0.250000
O O3 0.827119 0.847133 0.060048
O O4 0.779772 0.921864 0.917191
O O5 0.500000 0.817240 0.250000
O O6 0.618513 0.827219 0.657743
O O7 0.412756 0.861771 0.367565
O O8 0.415828 0.782207 0.383308
O O9 0.195218 0.779877 0.625282
O O10 0.295895 0.791638 0.481750
O O11 0.682309 0.954559 0.538873
O O12 0.837362 0.955936 0.523960
O O13 0.666168 0.008978 0.290752
O O14 0.829555 0.015991 0.730727
O O15 0.500000 0.886518 0.750000
O O16 0.544761 0.926150 0.552286
O O17 0.337342 0.931478 0.395406
O O18 0.000000 0.749274 0.250000
#
# Coordination Sequence:
#
# PCOD8135376 Si02
#       8
#     8   8   8   8   8   8   8   8
#     4  11  21  37  58  83 111 149 202 245 292 338
#     4  11  23  35  55  89 121 154 188 233 299 347
#     4  10  19  38  61  83 115 148 197 240 280 346
#     4   9  20  37  54  81 116 145 195 235 298 351
#     4  12  20  35  57  79 120 149 191 237 290 349
#     4  10  21  36  55  83 111 154 187 242 290 348
#     4  10  21  35  55  81 111 152 188 243 290 351
#     4   9  19  36  62  88 113 150 193 234 284 348
#
# _framework density 20.035336999999998
#
# number of rings (size 3 to 8) (size 9 to 14) (size 15 to 20)
#    0.000    1.750    3.750    2.250    1.750    3.500 
#    0.000   10.625    0.000    1.500    0.000    0.000 
#    0.000    0.000    0.000    0.000    0.000    0.000 
#
# Total GULP energy -396645.811584 kJ/mol
# GULP energy per Si atom -12395.181612 kJ/mol
# Density = 1.998974 g / cm^3
# Si number density = 20.035337 Si / 1000 Ang^3
#
#
#
# Elastic Constant Matrix: (Units=GPa)
#
#
# Indices 1 2 3 4 5 6 
#
# 1 134.5721 52.2122 34.9285 0.0000 -15.2239 0.0000
# 2 52.2122 93.1274 18.4497 0.0000 -7.9911 0.0000
# 3 34.9285 18.4497 25.8451 0.0000 -9.9726 0.0000
# 4 0.0000 0.0000 0.0000 8.6554 0.0000 -3.6587
# 5 -15.2239 -7.9911 -9.9726 0.0000 48.0476 0.0000
# 6 0.0000 0.0000 0.0000 -3.6587 0.0000 31.9566
#
#
#
# Elastic Compliance Matrix: (Units=1/GPa)
#
#
# Indices 1 2 3 4 5 6 
#
# 1 0.012818 -0.004368 -0.014043 0.000000 0.000420 0.000000
# 2 -0.004368 0.013998 -0.004049 0.000000 0.000104 0.000000
# 3 -0.014043 -0.004049 0.063684 0.000000 0.008095 0.000000
# 4 0.000000 0.000000 0.000000 0.121410 0.000000 0.013900
# 5 0.000420 0.000104 0.008095 0.000000 0.022643 0.000000
# 6 0.000000 0.000000 0.000000 0.013900 0.000000 0.032884
#
#
# Mechanical properties :
#
#
# Convention : Reuss Voigt Hill
#
# Bulk Modulus (GPa) = 21.93931 51.63615 36.78773
# Shear Modulus (GPa) = 15.26481 27.59555 21.43018
#
# Velocity S-wave (km/s) = 2.76324 3.71528 3.27405
# Velocity P-wave (km/s) = 4.59943 6.65079 5.71785
#
# Compressibility (1/GPa) = 0.04558029
#
# Stress axis : x y z
#
# Youngs Moduli (GPa) = 78.01421 71.43758 15.70258
#
# Poissons Ratio (x) = 0.31207 0.22050
# Poissons Ratio (y) = 0.34080 0.06358
# Poissons Ratio (z) = 1.09552 0.28925
#
# Static dielectric constant tensor:
#      x y z
#    x 3.935670 0.000000 -0.166040 
#    y 0.000000 3.817840 0.000000 
#    z -0.166040 0.000000 3.281590 
# 
# 
# High freq. dielectric constant tensor:
#      x y z
#    x 1.794460 0.000000 -0.010850 
#    y 0.000000 1.789920 0.000000 
#    z -0.010850 0.000000 1.736070 
# 
# From -- ./inp_files/44873.got.cif
#   From: 2010.06.25/outbox.cif.g09.slc.cpg/sg15_23_cif.got.tgz:44873.got - 2010.06.28 07:06:18.
