data_PCOD8135435
_publ_section_title
;
Structure prediction by ZEFSAII (Michael W. Deem and Ramdas Pophale) SiO2 
 PCOD8135435
Probable space group: C 2/C
;
_chemical_formula_sum "Si O2"
_cell_formula_units_Z 56
_cell_length_a 20.074517
_cell_length_b 9.550948
_cell_length_c 28.607654
_cell_angle_alpha 90.000000
_cell_angle_beta 150.596193
_cell_angle_gamma 90.000000
_cell_volume 2692.907221
_symmetry_space_group_name_H-M "C 2/C"
_symmetry_group_IT_number 15
_symmetry_cell_setting 'monoclinic'
loop_
_space_group_symop_operation_xyz
x,y,z
-x,y,1/2-z
-x,-y,-z
x,-y,1/2+z
1/2+x,1/2+y,z
1/2-x,1/2+y,1/2-z
1/2-x,1/2-y,-z
1/2+x,1/2-y,1/2+z
loop_
_atom_site_type_symbol
_atom_site_label
_atom_site_fract_x
_atom_site_fract_y
_atom_site_fract_z
Si Si1 0.602154 0.555520 0.683924
Si Si2 0.631950 0.519488 0.805508
Si Si3 0.400887 0.998666 0.367910
Si Si4 0.594624 0.467942 0.014489
Si Si5 0.380474 0.159028 0.447147
Si Si6 0.557650 0.829915 0.896877
Si Si7 0.790362 0.294927 0.600371
O O1 0.603444 0.481732 0.734669
O O2 0.756729 0.554134 0.759752
O O3 0.499892 0.468231 0.589065
O O4 0.554932 0.713111 0.662643
O O5 0.500000 0.458211 0.750000
O O6 0.768909 0.439552 0.904071
O O7 0.647781 0.686357 0.824349
O O8 0.387382 0.132908 0.395129
O O9 0.492004 0.030286 0.378188
O O10 0.471170 0.874788 0.440782
O O11 0.500000 0.500000 0.000000
O O12 0.659783 0.317161 0.064447
O O13 0.716373 0.579696 0.082786
O O14 0.591964 0.852733 0.862793
O O15 0.692400 0.794576 0.007649
#
# Coordination Sequence:
#
# PCOD8135435 Si02
#       7
#     8   8   8   8   8   8   8
#     4  10  23  36  65  95 126 164 227 262 319 383
#     4  11  21  42  69  95 124 169 224 271 318 402
#     4  10  21  37  64  93 127 175 221 261 323 401
#     4  11  25  43  64  96 137 171 213 278 334 387
#     4  10  22  40  64  91 132 177 211 268 341 383
#     4  10  19  38  62  93 125 164 222 264 311 395
#     4  10  21  39  67  92 126 172 214 264 329 382
#
# _framework density 20.795369000000001
#
# number of rings (size 3 to 8) (size 9 to 14) (size 15 to 20)
#    0.000    1.714    2.857    1.714    6.000    0.000 
#    0.000    3.571    0.000    0.000    0.000    0.000 
#    0.000    0.000    0.000    0.000    0.000    0.000 
#
# Total GULP energy -347105.838827 kJ/mol
# GULP energy per Si atom -12396.637101 kJ/mol
# Density = 2.074804 g / cm^3
# Si number density = 20.795369 Si / 1000 Ang^3
#
#
#
# Elastic Constant Matrix: (Units=GPa)
#
#
# Indices 1 2 3 4 5 6 
#
# 1 146.1169 52.1796 28.9484 0.0000 16.1736 0.0000
# 2 52.1796 84.4800 20.5102 -0.0003 2.2571 0.0000
# 3 28.9484 20.5102 71.9636 -0.0006 9.4945 0.0001
# 4 0.0000 -0.0003 -0.0006 24.3507 -0.0002 2.9552
# 5 16.1736 2.2571 9.4945 -0.0002 31.8789 0.0001
# 6 0.0000 0.0000 0.0001 2.9552 0.0001 31.5254
#
#
#
# Elastic Compliance Matrix: (Units=1/GPa)
#
#
# Indices 1 2 3 4 5 6 
#
# 1 0.009547 -0.005356 -0.001796 0.000000 -0.003930 0.000000
# 2 -0.005356 0.015723 -0.002642 0.000000 0.002391 0.000000
# 3 -0.001796 -0.002642 0.015849 0.000000 -0.003622 0.000000
# 4 0.000000 0.000000 0.000000 0.041539 0.000000 -0.003894
# 5 -0.003930 0.002391 -0.003622 0.000000 0.034272 0.000000
# 6 0.000000 0.000000 0.000000 -0.003894 0.000000 0.032085
#
#
# Mechanical properties :
#
#
# Convention : Reuss Voigt Hill
#
# Bulk Modulus (GPa) = 46.44250 56.20410 51.32330
# Shear Modulus (GPa) = 28.44459 30.94582 29.69521
#
# Velocity S-wave (km/s) = 3.70243 3.86179 3.78295
# Velocity P-wave (km/s) = 6.37644 6.85350 6.61927
#
# Compressibility (1/GPa) = 0.02153200
#
# Stress axis : x y z
#
# Youngs Moduli (GPa) = 104.74261 63.60175 63.09500
#
# Poissons Ratio (x) = 0.34065 0.11329
# Poissons Ratio (y) = 0.56100 0.16670
# Poissons Ratio (z) = 0.18807 0.16804
#
# Static dielectric constant tensor:
#      x y z
#    x 3.963680 0.000000 0.077790 
#    y 0.000000 3.570910 0.000000 
#    z 0.077790 0.000000 4.020680 
# 
# 
# High freq. dielectric constant tensor:
#      x y z
#    x 1.820630 0.000000 0.007000 
#    y 0.000000 1.779260 0.000000 
#    z 0.007000 0.000000 1.820790 
# 
# From -- ./inp_files/317581.got.cif
#   From: 2010.06.25/outbox.cif.g09.slc.cpg/sg15_159_cif.got.tgz:317581.got - 2010.06.28 07:06:18.
