data_PCOD8135283
_publ_section_title
;
Structure prediction by ZEFSAII (Michael W. Deem and Ramdas Pophale) SiO2 
 PCOD8135283
Probable space group: C 2/C
;
_chemical_formula_sum "Si O2"
_cell_formula_units_Z 36
_cell_length_a 15.649031
_cell_length_b 14.746274
_cell_length_c 13.646435
_cell_angle_alpha 90.000000
_cell_angle_beta 145.724044
_cell_angle_gamma 90.000000
_cell_volume 1773.518274
_symmetry_space_group_name_H-M "C 2/C"
_symmetry_group_IT_number 15
_symmetry_cell_setting 'monoclinic'
loop_
_space_group_symop_operation_xyz
x,y,z
-x,y,1/2-z
-x,-y,-z
x,-y,1/2+z
1/2+x,1/2+y,z
1/2-x,1/2+y,1/2-z
1/2-x,1/2-y,-z
1/2+x,1/2-y,1/2+z
loop_
_atom_site_type_symbol
_atom_site_label
_atom_site_fract_x
_atom_site_fract_y
_atom_site_fract_z
Si Si1 0.823340 0.651615 0.063273
Si Si2 0.725111 0.370233 0.911231
Si Si3 0.500000 0.772766 0.250000
Si Si4 0.182725 0.038985 0.760090
Si Si5 0.157344 0.002810 0.021395
O O1 0.766269 0.585288 0.095157
O O2 0.000000 0.662485 0.250000
O O3 0.750000 0.750000 0.000000
O O4 0.784476 0.608818 0.919398
O O5 0.896836 0.336162 0.084697
O O6 0.661290 0.425083 0.943938
O O7 0.610352 0.286744 0.785041
O O8 0.730482 0.434667 0.822853
O O9 0.007453 0.049053 0.625282
O O10 0.207372 0.050477 0.667445
#
# Coordination Sequence:
#
# PCOD8135283 Si02
#       5
#     8   8   4   8   8
#     4  11  23  42  63  87 119 161 204 250 295 358
#     4  10  19  38  55  85 115 154 181 241 284 345
#     4  10  20  34  58  80 118 148 192 224 296 338
#     4  10  21  40  62  86 119 156 195 242 303 349
#     4  10  21  40  62  86 119 156 195 242 303 349
#
# _framework density 20.298635999999998
#
# number of rings (size 3 to 8) (size 9 to 14) (size 15 to 20)
#    0.000    1.778    2.222    3.333    6.222    0.889 
#    8.000    0.000    0.000    0.000    0.000    0.000 
#    0.000    0.000    0.000    0.000    0.000    0.000 
#
# Total GULP energy -223145.857332 kJ/mol
# GULP energy per Si atom -12396.992074 kJ/mol
# Density = 2.025244 g / cm^3
# Si number density = 20.298636 Si / 1000 Ang^3
#
#
#
# Elastic Constant Matrix: (Units=GPa)
#
#
# Indices 1 2 3 4 5 6 
#
# 1 74.2416 29.3463 43.9200 0.0000 -2.9129 0.0000
# 2 29.3463 79.5894 36.3608 0.0000 6.3014 0.0000
# 3 43.9200 36.3608 136.2888 -0.0001 16.7735 0.0000
# 4 0.0000 0.0000 -0.0001 34.0726 0.0000 7.3571
# 5 -2.9129 6.3014 16.7735 0.0000 38.6297 0.0000
# 6 0.0000 0.0000 0.0000 7.3571 0.0000 14.7148
#
#
#
# Elastic Compliance Matrix: (Units=1/GPa)
#
#
# Indices 1 2 3 4 5 6 
#
# 1 0.018681 -0.004829 -0.005284 0.000000 0.004491 0.000000
# 2 -0.004829 0.015576 -0.002368 0.000000 -0.001877 0.000000
# 3 -0.005284 -0.002368 0.010220 0.000000 -0.004450 0.000000
# 4 0.000000 0.000000 0.000000 0.032901 0.000000 -0.016450
# 5 0.004491 -0.001877 -0.004450 0.000000 0.028464 0.000000
# 6 0.000000 0.000000 0.000000 -0.016450 0.000000 0.076183
#
#
# Mechanical properties :
#
#
# Convention : Reuss Voigt Hill
#
# Bulk Modulus (GPa) = 51.24943 56.59712 53.92328
# Shear Modulus (GPa) = 23.42008 29.51627 26.46817
#
# Velocity S-wave (km/s) = 3.40041 3.81740 3.61493
# Velocity P-wave (km/s) = 6.38119 6.88279 6.63673
#
# Compressibility (1/GPa) = 0.01951241
#
# Stress axis : x y z
#
# Youngs Moduli (GPa) = 53.53089 64.20251 97.85014
#
# Poissons Ratio (x) = 0.31006 0.51707
# Poissons Ratio (y) = 0.25852 0.23173
# Poissons Ratio (z) = 0.28287 0.15204
#
# Static dielectric constant tensor:
#      x y z
#    x 3.490560 0.000000 0.033460 
#    y 0.000000 3.880470 0.000000 
#    z 0.033460 0.000000 3.895660 
# 
# 
# High freq. dielectric constant tensor:
#      x y z
#    x 1.769250 0.000000 0.010020 
#    y 0.000000 1.798420 0.000000 
#    z 0.010020 0.000000 1.806150 
# 
# From -- ./inp_files/37668.got.cif
#   From: 2010.06.25/outbox.cif.g09.slc.cpg/sg15_19_cif.got.tgz:37668.got - 2010.06.28 07:06:18.
