data_PCOD8135202
_publ_section_title
;
Structure prediction by ZEFSAII (Michael W. Deem and Ramdas Pophale) SiO2 
 PCOD8135202
Probable space group: C 2/C
;
_chemical_formula_sum "Si O2"
_cell_formula_units_Z 56
_cell_length_a 30.721293
_cell_length_b 11.150138
_cell_length_c 14.684117
_cell_angle_alpha 90.000000
_cell_angle_beta 31.805974
_cell_angle_gamma 90.000000
_cell_volume 2651.030830
_symmetry_space_group_name_H-M "C 2/C"
_symmetry_group_IT_number 15
_symmetry_cell_setting 'monoclinic'
loop_
_space_group_symop_operation_xyz
x,y,z
-x,y,1/2-z
-x,-y,-z
x,-y,1/2+z
1/2+x,1/2+y,z
1/2-x,1/2+y,1/2-z
1/2-x,1/2-y,-z
1/2+x,1/2-y,1/2+z
loop_
_atom_site_type_symbol
_atom_site_label
_atom_site_fract_x
_atom_site_fract_y
_atom_site_fract_z
Si Si1 0.888787 0.027506 0.603837
Si Si2 0.827848 0.207879 0.126644
Si Si3 0.610041 0.002618 0.716180
Si Si4 0.945980 0.865691 0.662586
Si Si5 0.048520 0.644680 0.982211
Si Si6 0.309272 0.765237 0.482583
Si Si7 0.239848 0.320252 0.426856
O O1 0.857446 0.929461 0.586207
O O2 0.905708 0.966267 0.670427
O O3 0.823604 0.134794 0.730759
O O4 0.975345 0.087577 0.420374
O O5 0.898982 0.300579 0.029180
O O6 0.745170 0.233576 0.330847
O O7 0.809482 0.233913 0.054383
O O8 0.600936 0.039466 0.838927
O O9 0.625814 0.124008 0.631910
O O10 0.692681 0.935836 0.544717
O O11 0.531845 0.918249 0.829867
O O12 0.971944 0.749405 0.554986
O O13 0.874038 0.844091 0.864945
O O14 0.250000 0.750000 0.500000
O O15 0.250000 0.250000 0.500000
#
# Coordination Sequence:
#
# PCOD8135202 Si02
#       7
#     8   8   8   8   8   8   8
#     4  10  20  41  62  97 128 169 210 265 323 388
#     4  11  23  41  66  95 132 168 223 262 317 395
#     4  10  19  37  64  95 130 170 209 259 329 375
#     4   9  18  35  70  92 129 165 209 260 325 391
#     4   9  19  36  67  98 126 172 214 258 320 396
#     4  11  17  39  67  98 125 171 213 257 321 392
#     4  12  26  41  64  92 132 171 222 274 322 375
#
# _framework density 21.123858999999999
#
# number of rings (size 3 to 8) (size 9 to 14) (size 15 to 20)
#    0.000    1.714    5.714    0.857    0.000    1.714 
#    0.000    0.714   12.571    0.000    0.000    0.000 
#    0.000    0.000    0.000    0.000    0.000    0.000 
#
# Total GULP energy -346914.610240 kJ/mol
# GULP energy per Si atom -12389.807509 kJ/mol
# Density = 2.107578 g / cm^3
# Si number density = 21.123859 Si / 1000 Ang^3
#
#
#
# Elastic Constant Matrix: (Units=GPa)
#
#
# Indices 1 2 3 4 5 6 
#
# 1 110.0756 53.7211 30.6366 0.0000 -6.1989 0.0000
# 2 53.7211 84.8103 43.8444 0.0000 -15.5205 0.0000
# 3 30.6366 43.8444 91.0165 0.0000 -23.7861 0.0000
# 4 0.0000 0.0000 0.0000 55.5019 0.0000 -13.4082
# 5 -6.1989 -15.5205 -23.7861 0.0000 24.9513 0.0000
# 6 0.0000 0.0000 0.0000 -13.4082 0.0000 19.2728
#
#
#
# Elastic Compliance Matrix: (Units=1/GPa)
#
#
# Indices 1 2 3 4 5 6 
#
# 1 0.013346 -0.008362 -0.001274 0.000000 -0.003101 0.000000
# 2 -0.008362 0.021161 -0.005969 0.000000 0.005395 0.000000
# 3 -0.001274 -0.005969 0.017631 0.000000 0.012778 0.000000
# 4 0.000000 0.000000 0.000000 0.021657 0.000000 0.015067
# 5 -0.003101 0.005395 0.012778 0.000000 0.054845 0.000000
# 6 0.000000 0.000000 0.000000 0.015067 0.000000 0.062369
#
#
# Mechanical properties :
#
#
# Convention : Reuss Voigt Hill
#
# Bulk Modulus (GPa) = 47.78658 60.25627 54.02143
# Shear Modulus (GPa) = 21.81548 30.45854 26.13701
#
# Velocity S-wave (km/s) = 3.21712 3.80136 3.52137
# Velocity P-wave (km/s) = 6.03912 6.91768 6.49327
#
# Compressibility (1/GPa) = 0.02092638
#
# Stress axis : x y z
#
# Youngs Moduli (GPa) = 74.92984 47.25685 56.71923
#
# Poissons Ratio (x) = 0.39517 0.07228
# Poissons Ratio (y) = 0.62658 0.33855
# Poissons Ratio (z) = 0.09549 0.28207
#
# Static dielectric constant tensor:
#      x y z
#    x 3.413840 0.000000 -0.224550 
#    y 0.000000 -18.232470 0.000000 
#    z -0.224550 0.000000 4.108570 
# 
# 
# High freq. dielectric constant tensor:
#      x y z
#    x 1.785920 0.000000 -0.015050 
#    y 0.000000 1.839100 0.000000 
#    z -0.015050 0.000000 1.840770 
# 
# From -- ./inp_files/181888.got.cif
#   From: 2010.06.25/outbox.cif.g09.slc.cpg/sg15_91_cif.got.tgz:181888.got - 2010.06.28 07:06:18.
