data_PCOD8135428
_publ_section_title
;
Structure prediction by ZEFSAII (Michael W. Deem and Ramdas Pophale) SiO2 
 PCOD8135428
Probable space group: C 2/C
;
_chemical_formula_sum "Si O2"
_cell_formula_units_Z 48
_cell_length_a 8.899170
_cell_length_b 18.175504
_cell_length_c 14.725772
_cell_angle_alpha 90.000000
_cell_angle_beta 86.721398
_cell_angle_gamma 90.000000
_cell_volume 2377.949469
_symmetry_space_group_name_H-M "C 2/C"
_symmetry_group_IT_number 15
_symmetry_cell_setting 'monoclinic'
loop_
_space_group_symop_operation_xyz
x,y,z
-x,y,1/2-z
-x,-y,-z
x,-y,1/2+z
1/2+x,1/2+y,z
1/2-x,1/2+y,1/2-z
1/2-x,1/2-y,-z
1/2+x,1/2-y,1/2+z
loop_
_atom_site_type_symbol
_atom_site_label
_atom_site_fract_x
_atom_site_fract_y
_atom_site_fract_z
Si Si1 0.677393 0.196054 0.739532
Si Si2 0.578823 0.598277 0.335835
Si Si3 0.364262 0.433808 0.188348
Si Si4 0.361165 0.367051 0.993969
Si Si5 0.708821 0.222059 0.100775
Si Si6 0.623613 0.220089 0.416139
O O1 0.500000 0.209537 0.750000
O O2 0.713068 0.109811 0.721602
O O3 0.748651 0.212014 0.834422
O O4 0.756213 0.247638 0.660681
O O5 0.500000 0.634661 0.250000
O O6 0.655199 0.521325 0.303855
O O7 0.449845 0.587722 0.414926
O O8 0.705296 0.648926 0.373449
O O9 0.500000 0.407623 0.250000
O O10 0.389524 0.414072 0.082617
O O11 0.417496 0.282975 0.007743
O O12 0.189456 0.353228 0.963858
O O13 0.535062 0.199397 0.122272
O O14 0.750000 0.250000 0.000000
#
# Coordination Sequence:
#
# PCOD8135428 Si02
#       6
#     8   8   8   8   8   8
#     4  11  23  41  65  91 126 167 213 267 318 378
#     4  11  23  41  62  94 127 168 213 258 317 378
#     4  10  23  41  63  88 125 170 213 256 318 382
#     4  10  19  38  62  90 127 163 208 261 311 377
#     4  12  23  37  66  98 128 162 212 264 318 378
#     4  10  21  37  64  96 127 162 211 262 317 370
#
# _framework density 20.185458000000001
#
# number of rings (size 3 to 8) (size 9 to 14) (size 15 to 20)
#    0.000    1.333    1.667    5.500    4.667    0.000 
#    0.000    5.833    0.000    0.000    0.000    0.000 
#    0.000    0.000    0.000    0.000    0.000    0.000 
#
# Total GULP energy -297435.931017 kJ/mol
# GULP energy per Si atom -12393.163792 kJ/mol
# Density = 2.013951 g / cm^3
# Si number density = 20.185458 Si / 1000 Ang^3
#
#
#
# Elastic Constant Matrix: (Units=GPa)
#
#
# Indices 1 2 3 4 5 6 
#
# 1 153.9364 43.7891 61.2612 0.0000 17.9029 0.0000
# 2 43.7891 83.3947 37.0287 0.0000 8.0089 0.0000
# 3 61.2612 37.0287 147.0336 0.0000 11.4546 0.0000
# 4 0.0000 0.0000 0.0000 30.0773 0.0000 5.8477
# 5 17.9029 8.0089 11.4546 0.0000 31.5424 0.0000
# 6 0.0000 0.0000 0.0000 5.8477 0.0000 26.3461
#
#
#
# Elastic Compliance Matrix: (Units=1/GPa)
#
#
# Indices 1 2 3 4 5 6 
#
# 1 0.008816 -0.003151 -0.002626 0.000000 -0.003250 0.000000
# 2 -0.003151 0.014785 -0.002323 0.000000 -0.001122 0.000000
# 3 -0.002626 -0.002323 0.008561 0.000000 -0.001028 0.000000
# 4 0.000000 0.000000 0.000000 0.034747 0.000000 -0.007712
# 5 -0.003250 -0.001122 -0.001028 0.000000 0.034206 0.000000
# 6 0.000000 0.000000 0.000000 -0.007712 0.000000 0.039668
#
#
# Mechanical properties :
#
#
# Convention : Reuss Voigt Hill
#
# Bulk Modulus (GPa) = 62.65470 74.28031 68.46750
# Shear Modulus (GPa) = 30.80653 33.74554 32.27603
#
# Velocity S-wave (km/s) = 3.91087 4.09317 4.00306
# Velocity P-wave (km/s) = 7.17636 7.69529 7.44035
#
# Compressibility (1/GPa) = 0.01596050
#
# Stress axis : x y z
#
# Youngs Moduli (GPa) = 113.43539 67.63678 116.81400
#
# Poissons Ratio (x) = 0.21310 0.30680
# Poissons Ratio (y) = 0.35740 0.27139
# Poissons Ratio (z) = 0.29792 0.15714
#
# Static dielectric constant tensor:
#      x y z
#    x 3.756840 0.000000 0.184110 
#    y 0.000000 3.472730 0.000000 
#    z 0.184110 0.000000 4.066150 
# 
# 
# High freq. dielectric constant tensor:
#      x y z
#    x 1.782330 0.000000 0.014250 
#    y 0.000000 1.766640 0.000000 
#    z 0.014250 0.000000 1.811900 
# 
# From -- ./inp_files/134853.got.cif
#   From: 2010.06.25/outbox.cif.g09.slc.cpg/sg15_68_cif.got.tgz:134853.got - 2010.06.28 07:06:18.
