data_PCOD8135039
_publ_section_title
;
Structure prediction by ZEFSAII (Michael W. Deem and Ramdas Pophale) SiO2 
 PCOD8135039
Probable space group: C 2/C
;
_chemical_formula_sum "Si O2"
_cell_formula_units_Z 56
_cell_length_a 13.281816
_cell_length_b 9.138908
_cell_length_c 22.477271
_cell_angle_alpha 90.000000
_cell_angle_beta 83.630006
_cell_angle_gamma 90.000000
_cell_volume 2711.476037
_symmetry_space_group_name_H-M "C 2/C"
_symmetry_group_IT_number 15
_symmetry_cell_setting 'monoclinic'
loop_
_space_group_symop_operation_xyz
x,y,z
-x,y,1/2-z
-x,-y,-z
x,-y,1/2+z
1/2+x,1/2+y,z
1/2-x,1/2+y,1/2-z
1/2-x,1/2-y,-z
1/2+x,1/2-y,1/2+z
loop_
_atom_site_type_symbol
_atom_site_label
_atom_site_fract_x
_atom_site_fract_y
_atom_site_fract_z
Si Si1 0.401141 0.784477 0.290128
Si Si2 0.159872 0.998114 0.374035
Si Si3 0.820142 0.265022 0.715038
Si Si4 0.872699 0.397903 0.827311
Si Si5 0.995143 0.237359 0.401412
Si Si6 0.934826 0.563067 0.114850
Si Si7 0.358931 0.272983 0.021899
O O1 0.500000 0.723864 0.250000
O O2 0.300706 0.715387 0.268261
O O3 0.404168 0.741972 0.359621
O O4 0.399538 0.959664 0.286597
O O5 0.266539 0.082349 0.368139
O O6 0.070904 0.113301 0.375072
O O7 0.152547 0.887361 0.318718
O O8 0.147732 0.914436 0.436683
O O9 0.868668 0.268543 0.778057
O O10 0.856006 0.402546 0.672862
O O11 0.957381 0.365351 0.871856
O O12 0.055700 0.390531 0.396666
O O13 0.945566 0.200182 0.467481
O O14 0.894554 0.631546 0.056415
O O15 0.250000 0.250000 0.000000
#
# Coordination Sequence:
#
# PCOD8135039 Si02
#       7
#     8   8   8   8   8   8   8
#     4  10  20  36  60  88 117 157 200 242 295 353
#     4  10  23  39  59  92 123 153 198 252 302 344
#     4  10  20  37  60  87 121 159 195 243 300 357
#     4  10  19  37  60  84 119 159 198 240 289 361
#     4  11  21  39  63  89 121 158 200 249 298 355
#     4  10  21  38  62  89 114 160 206 238 295 365
#     4  11  22  42  64  85 119 160 202 250 299 355
#
# _framework density 20.652958000000002
#
# number of rings (size 3 to 8) (size 9 to 14) (size 15 to 20)
#    0.000    1.714    0.000    7.286    0.000    1.143 
#    0.000   21.429    0.000    0.000    0.000    0.000 
#    0.000    0.000    0.000    0.000    0.000    0.000 
#
# Total GULP energy -347188.373334 kJ/mol
# GULP energy per Si atom -12399.584762 kJ/mol
# Density = 2.060595 g / cm^3
# Si number density = 20.652958 Si / 1000 Ang^3
#
#
#
# Elastic Constant Matrix: (Units=GPa)
#
#
# Indices 1 2 3 4 5 6 
#
# 1 129.6096 59.7381 49.7564 0.0000 1.0156 0.0000
# 2 59.7381 76.1742 50.2323 0.0000 4.2046 0.0000
# 3 49.7564 50.2323 111.1174 0.0000 0.7109 0.0000
# 4 0.0000 0.0000 0.0000 27.0241 0.0000 -0.6974
# 5 1.0156 4.2046 0.7109 0.0000 47.4321 0.0000
# 6 0.0000 0.0000 0.0000 -0.6974 0.0000 31.6994
#
#
#
# Elastic Compliance Matrix: (Units=1/GPa)
#
#
# Indices 1 2 3 4 5 6 
#
# 1 0.012300 -0.008607 -0.001620 0.000000 0.000524 0.000000
# 2 -0.008607 0.024837 -0.007362 0.000000 -0.001907 0.000000
# 3 -0.001620 -0.007362 0.013050 0.000000 0.000492 0.000000
# 4 0.000000 0.000000 0.000000 0.037025 0.000000 0.000815
# 5 0.000524 -0.001907 0.000492 0.000000 0.021233 0.000000
# 6 0.000000 0.000000 0.000000 0.000815 0.000000 0.031564
#
#
# Mechanical properties :
#
#
# Convention : Reuss Voigt Hill
#
# Bulk Modulus (GPa) = 66.62400 70.70608 68.66504
# Shear Modulus (GPa) = 27.74821 31.70942 29.72882
#
# Velocity S-wave (km/s) = 3.66942 3.92260 3.79812
# Velocity P-wave (km/s) = 7.09096 7.40441 7.24938
#
# Compressibility (1/GPa) = 0.01500961
#
# Stress axis : x y z
#
# Youngs Moduli (GPa) = 81.29881 40.26181 76.62777
#
# Poissons Ratio (x) = 0.34652 0.12417
# Poissons Ratio (y) = 0.69970 0.56414
# Poissons Ratio (z) = 0.13174 0.29641
#
# Static dielectric constant tensor:
#      x y z
#    x 3.942750 0.000000 -0.030850 
#    y 0.000000 3.573110 0.000000 
#    z -0.030850 0.000000 3.861540 
# 
# 
# High freq. dielectric constant tensor:
#      x y z
#    x 1.818850 0.000000 -0.004390 
#    y 0.000000 1.787730 0.000000 
#    z -0.004390 0.000000 1.815460 
# 
# From -- ./inp_files/236989.got.cif
#   From: 2010.06.25/outbox.cif.g09.slc.cpg/sg15_119_cif.got.tgz:236989.got - 2010.06.28 07:06:18.
