data_PCOD8135240
_publ_section_title
;
Structure prediction by ZEFSAII (Michael W. Deem and Ramdas Pophale) SiO2 
 PCOD8135240
Probable space group: C 2/C
;
_chemical_formula_sum "Si O2"
_cell_formula_units_Z 52
_cell_length_a 11.668913
_cell_length_b 14.942542
_cell_length_c 13.892705
_cell_angle_alpha 90.000000
_cell_angle_beta 108.819713
_cell_angle_gamma 90.000000
_cell_volume 2292.872496
_symmetry_space_group_name_H-M "C 2/C"
_symmetry_group_IT_number 15
_symmetry_cell_setting 'monoclinic'
loop_
_space_group_symop_operation_xyz
x,y,z
-x,y,1/2-z
-x,-y,-z
x,-y,1/2+z
1/2+x,1/2+y,z
1/2-x,1/2+y,1/2-z
1/2-x,1/2-y,-z
1/2+x,1/2-y,1/2+z
loop_
_atom_site_type_symbol
_atom_site_label
_atom_site_fract_x
_atom_site_fract_y
_atom_site_fract_z
Si Si1 0.630888 0.688750 0.304824
Si Si2 0.044421 0.255311 0.915386
Si Si3 0.758426 0.566444 0.803314
Si Si4 0.500000 0.612413 0.750000
Si Si5 0.646516 0.902074 0.565890
Si Si6 0.785712 0.765402 0.874398
Si Si7 0.885516 0.607434 0.659360
O O1 0.500000 0.643418 0.250000
O O2 0.716601 0.636697 0.402296
O O3 0.703336 0.685337 0.223836
O O4 0.609974 0.785428 0.345650
O O5 0.979804 0.177098 0.837005
O O6 0.157709 0.295769 0.885327
O O7 0.948154 0.332509 0.913447
O O8 0.100692 0.209840 0.026542
O O9 0.617143 0.548438 0.789337
O O10 0.848205 0.491942 0.869930
O O11 0.796180 0.658920 0.863353
O O12 0.770986 0.572843 0.690433
O O13 0.612203 0.930307 0.447993
O O14 0.000000 0.571543 0.750000
#
# Coordination Sequence:
#
# PCOD8135240 Si02
#       7
#     8   8   8   4   8   8   8
#     4  10  21  38  63  90 125 164 226 266 314 393
#     4  10  19  37  66  94 118 169 231 263 322 394
#     4  10  23  42  60  91 138 169 210 268 342 391
#     4  10  22  44  66  88 134 180 218 270 326 390
#     4  12  23  38  66  97 126 174 219 273 323 398
#     4   9  20  40  63  92 127 170 212 280 326 390
#     4  10  22  42  63  89 127 170 207 272 335 387
#
# _framework density 22.678975999999999
#
# number of rings (size 3 to 8) (size 9 to 14) (size 15 to 20)
#    0.000    1.846    0.000    6.000    1.077    3.692 
#   15.231    0.769    0.000    0.000    0.000    0.000 
#    0.000    0.000    0.000    0.000    0.000    0.000 
#
# Total GULP energy -322341.836949 kJ/mol
# GULP energy per Si atom -12397.762960 kJ/mol
# Density = 2.262736 g / cm^3
# Si number density = 22.678976 Si / 1000 Ang^3
#
#
#
# Elastic Constant Matrix: (Units=GPa)
#
#
# Indices 1 2 3 4 5 6 
#
# 1 120.2707 36.1287 36.8132 0.0000 8.1893 0.0000
# 2 36.1287 44.4640 26.5850 0.0000 1.7677 0.0000
# 3 36.8132 26.5850 106.9812 0.0000 6.4780 0.0000
# 4 0.0000 0.0000 0.0000 21.9035 0.0000 4.6304
# 5 8.1893 1.7677 6.4780 0.0000 37.6709 0.0000
# 6 0.0000 0.0000 0.0000 4.6304 0.0000 20.7610
#
#
#
# Elastic Compliance Matrix: (Units=1/GPa)
#
#
# Indices 1 2 3 4 5 6 
#
# 1 0.011434 -0.008142 -0.001803 0.000000 -0.001794 0.000000
# 2 -0.008142 0.032212 -0.005274 0.000000 0.001165 0.000000
# 3 -0.001803 -0.005274 0.011358 0.000000 -0.001314 0.000000
# 4 0.000000 0.000000 0.000000 0.047914 0.000000 -0.010687
# 5 -0.001794 0.001165 -0.001314 0.000000 0.027107 0.000000
# 6 0.000000 0.000000 0.000000 -0.010687 0.000000 0.050551
#
#
# Mechanical properties :
#
#
# Convention : Reuss Voigt Hill
#
# Bulk Modulus (GPa) = 40.70314 52.30772 46.50543
# Shear Modulus (GPa) = 22.81007 27.54636 25.17821
#
# Velocity S-wave (km/s) = 3.17484 3.48892 3.33558
# Velocity P-wave (km/s) = 5.60589 6.27253 5.94855
#
# Compressibility (1/GPa) = 0.02456813
#
# Stress axis : x y z
#
# Youngs Moduli (GPa) = 87.45699 31.04404 88.04440
#
# Poissons Ratio (x) = 0.25275 0.15873
# Poissons Ratio (y) = 0.71203 0.46433
# Poissons Ratio (z) = 0.15767 0.16372
#
# Static dielectric constant tensor:
#      x y z
#    x 4.338780 0.000000 0.054630 
#    y 0.000000 3.595200 0.000000 
#    z 0.054630 0.000000 4.236840 
# 
# 
# High freq. dielectric constant tensor:
#      x y z
#    x 1.908780 0.000000 0.006920 
#    y 0.000000 1.853860 0.000000 
#    z 0.006920 0.000000 1.902690 
# 
# From -- ./inp_files/144316.got.cif
#   From: 2010.06.25/outbox.cif.g09.slc.cpg/sg15_73_cif.got.tgz:144316.got - 2010.06.28 07:06:18.
