data_PCOD8135847
_publ_section_title
;
Structure prediction by ZEFSAII (Michael W. Deem and Ramdas Pophale) SiO2 
 PCOD8135847
Probable space group: C 2/C
;
_chemical_formula_sum "Si O2"
_cell_formula_units_Z 40
_cell_length_a 17.014113
_cell_length_b 11.130798
_cell_length_c 20.951589
_cell_angle_alpha 90.000000
_cell_angle_beta 150.561983
_cell_angle_gamma 90.000000
_cell_volume 1950.113753
_symmetry_space_group_name_H-M "C 2/C"
_symmetry_group_IT_number 15
_symmetry_cell_setting 'monoclinic'
loop_
_space_group_symop_operation_xyz
x,y,z
-x,y,1/2-z
-x,-y,-z
x,-y,1/2+z
1/2+x,1/2+y,z
1/2-x,1/2+y,1/2-z
1/2-x,1/2-y,-z
1/2+x,1/2-y,1/2+z
loop_
_atom_site_type_symbol
_atom_site_label
_atom_site_fract_x
_atom_site_fract_y
_atom_site_fract_z
Si Si1 0.029658 0.488078 0.627491
Si Si2 0.606243 0.452059 0.237449
Si Si3 0.724950 0.379631 0.452670
Si Si4 0.852909 0.083351 0.876917
Si Si5 0.640154 0.149394 0.087349
O O1 0.892174 0.449187 0.579775
O O2 0.976195 0.606867 0.551369
O O3 0.189640 0.515149 0.780546
O O4 0.060951 0.381281 0.599254
O O5 0.683558 0.369498 0.347788
O O6 0.414309 0.456287 0.110774
O O7 0.646952 0.391097 0.198862
O O8 0.685009 0.585452 0.295752
O O9 0.750000 0.250000 0.500000
O O10 0.850734 0.207790 0.913430
O O11 0.000000 0.000000 0.000000
#
# Coordination Sequence:
#
# PCOD8135847 Si02
#       5
#     8   8   8   8   8
#     4   9  20  37  61  90 117 165 206 249 325 361
#     4   9  21  39  60  92 123 163 208 257 333 360
#     4  10  19  40  65  88 122 162 206 262 311 378
#     4  11  23  38  63  93 126 160 216 260 307 377
#     4   9  19  38  61  84 125 163 204 261 308 372
#
# _framework density 20.511624000000001
#
# number of rings (size 3 to 8) (size 9 to 14) (size 15 to 20)
#    0.000    2.400    0.000    2.400    5.600    0.000 
#   18.000    1.000    8.800    0.000    0.000    0.000 
#    0.000    0.000    0.000    0.000    0.000    0.000 
#
# Total GULP energy -247947.430477 kJ/mol
# GULP energy per Si atom -12397.371524 kJ/mol
# Density = 2.046494 g / cm^3
# Si number density = 20.511624 Si / 1000 Ang^3
#
#
#
# Elastic Constant Matrix: (Units=GPa)
#
#
# Indices 1 2 3 4 5 6 
#
# 1 69.4568 34.4450 42.5569 0.0001 24.0306 0.0000
# 2 34.4450 141.0352 73.4695 -0.0013 12.3187 -0.0004
# 3 42.5569 73.4695 152.7892 -0.0015 41.1406 -0.0004
# 4 0.0001 -0.0013 -0.0015 26.3682 -0.0006 2.4256
# 5 24.0306 12.3187 41.1406 -0.0006 45.8014 -0.0003
# 6 0.0000 -0.0004 -0.0004 2.4256 -0.0003 21.6347
#
#
#
# Elastic Compliance Matrix: (Units=1/GPa)
#
#
# Indices 1 2 3 4 5 6 
#
# 1 0.019850 -0.003181 -0.001880 -0.000001 -0.007870 0.000000
# 2 -0.003181 0.010116 -0.004874 0.000000 0.003326 0.000000
# 3 -0.001880 -0.004874 0.011599 0.000000 -0.008121 0.000000
# 4 -0.000001 0.000000 0.000000 0.038320 0.000000 -0.004296
# 5 -0.007870 0.003326 -0.008121 0.000000 0.032363 0.000000
# 6 0.000000 0.000000 0.000000 -0.004296 0.000000 0.046704
#
#
# Mechanical properties :
#
#
# Convention : Reuss Voigt Hill
#
# Bulk Modulus (GPa) = 46.09389 73.80267 59.94828
# Shear Modulus (GPa) = 26.87413 32.94818 29.91116
#
# Velocity S-wave (km/s) = 3.62358 4.01224 3.82285
# Velocity P-wave (km/s) = 6.32677 7.58440 6.98395
#
# Compressibility (1/GPa) = 0.02169485
#
# Stress axis : x y z
#
# Youngs Moduli (GPa) = 50.37805 98.85598 86.21441
#
# Poissons Ratio (x) = 0.31448 0.16208
# Poissons Ratio (y) = 0.16026 0.42019
# Poissons Ratio (z) = 0.09471 0.48180
#
# Static dielectric constant tensor:
#      x y z
#    x 3.755400 0.000000 0.282660 
#    y 0.000000 3.373500 0.000000 
#    z 0.282660 0.000000 4.017540 
# 
# 
# High freq. dielectric constant tensor:
#      x y z
#    x 1.787040 0.000000 0.019240 
#    y 0.000000 1.775170 0.000000 
#    z 0.019240 0.000000 1.816740 
# 
# From -- ./inp_files/276769.got.cif
#   From: 2010.06.25/outbox.cif.g09.slc.cpg/sg15_139_cif.got.tgz:276769.got - 2010.06.28 07:06:18.
