data_PCOD8135254
_publ_section_title
;
Structure prediction by ZEFSAII (Michael W. Deem and Ramdas Pophale) SiO2 
 PCOD8135254
Probable space group: C 2/C
;
_chemical_formula_sum "Si O2"
_cell_formula_units_Z 60
_cell_length_a 14.081816
_cell_length_b 18.541435
_cell_length_c 8.964866
_cell_angle_alpha 90.000000
_cell_angle_beta 80.322396
_cell_angle_gamma 90.000000
_cell_volume 2307.390387
_symmetry_space_group_name_H-M "C 2/C"
_symmetry_group_IT_number 15
_symmetry_cell_setting 'monoclinic'
loop_
_space_group_symop_operation_xyz
x,y,z
-x,y,1/2-z
-x,-y,-z
x,-y,1/2+z
1/2+x,1/2+y,z
1/2-x,1/2+y,1/2-z
1/2-x,1/2-y,-z
1/2+x,1/2-y,1/2+z
loop_
_atom_site_type_symbol
_atom_site_label
_atom_site_fract_x
_atom_site_fract_y
_atom_site_fract_z
Si Si1 0.624481 0.780057 0.898096
Si Si2 0.319938 0.278169 0.695581
Si Si3 0.117452 0.910981 0.946943
Si Si4 0.000000 0.378893 0.750000
Si Si5 0.890933 0.648725 0.800082
Si Si6 0.909832 0.858745 0.943340
Si Si7 0.798480 0.982416 0.868365
Si Si8 0.600077 0.002344 0.064638
O O1 0.709019 0.791585 0.759647
O O2 0.533731 0.828788 0.876596
O O3 0.594323 0.696143 0.916124
O O4 0.659856 0.810628 0.047446
O O5 0.342396 0.328012 0.545543
O O6 0.339172 0.191209 0.674434
O O7 0.396642 0.312941 0.794448
O O8 0.178567 0.957781 0.807034
O O9 0.134166 0.949625 0.101490
O O10 0.006225 0.907412 0.926521
O O11 0.090864 0.426567 0.669095
O O12 0.882749 0.563011 0.821890
O O13 0.000000 0.671075 0.750000
O O14 0.822254 0.915952 0.973894
O O15 0.686779 0.005052 0.922597
O O16 0.500000 0.000000 0.000000
#
# Coordination Sequence:
#
# PCOD8135254 Si02
#       8
#     8   8   8   4   8   8   8   8
#     4  11  22  41  62  95 133 179 227 286 346 415
#     4  10  19  37  67  95 126 175 234 284 335 405
#     4  11  23  43  70 108 140 184 232 298 359 425
#     4  12  26  42  66  96 150 186 224 288 374 414
#     4  11  20  35  63  93 124 166 227 283 325 406
#     4  10  21  40  68  99 133 181 236 286 347 418
#     4  11  24  42  70 103 143 182 237 292 360 427
#     4  12  25  41  65 101 140 186 235 289 359 429
#
# _framework density 26.003401
#
# number of rings (size 3 to 8) (size 9 to 14) (size 15 to 20)
#    0.000    1.067    2.000    8.400    1.867    0.000 
#    2.400    0.000    0.000    2.400    0.000    0.000 
#    0.000    0.000    0.000    0.000    0.000    0.000 
#
# Total GULP energy -371658.310554 kJ/mol
# GULP energy per Si atom -12388.610352 kJ/mol
# Density = 2.594422 g / cm^3
# Si number density = 26.003401 Si / 1000 Ang^3
#
#
#
# Elastic Constant Matrix: (Units=GPa)
#
#
# Indices 1 2 3 4 5 6 
#
# 1 80.1998 11.9459 7.2920 0.0000 -23.8438 0.0000
# 2 11.9459 117.1333 3.5623 0.0000 15.9389 0.0000
# 3 7.2920 3.5623 28.0222 0.0000 -7.3230 0.0000
# 4 0.0000 0.0000 0.0000 22.3119 0.0000 0.9588
# 5 -23.8438 15.9389 -7.3230 0.0000 32.7837 0.0000
# 6 0.0000 0.0000 0.0000 0.9588 0.0000 18.8862
#
#
#
# Elastic Compliance Matrix: (Units=1/GPa)
#
#
# Indices 1 2 3 4 5 6 
#
# 1 0.017305 -0.003705 -0.000289 0.000000 0.014323 0.000000
# 2 -0.003705 0.010099 -0.002450 0.000000 -0.008152 0.000000
# 3 -0.000289 -0.002450 0.038581 0.000000 0.009599 0.000000
# 4 0.000000 0.000000 0.000000 0.044917 0.000000 -0.002280
# 5 0.014323 -0.008152 0.009599 0.000000 0.047028 0.000000
# 6 0.000000 0.000000 0.000000 -0.002280 0.000000 0.053064
#
#
# Mechanical properties :
#
#
# Convention : Reuss Voigt Hill
#
# Bulk Modulus (GPa) = 18.83355 30.10619 24.46987
# Shear Modulus (GPa) = 20.69689 28.30004 24.49846
#
# Velocity S-wave (km/s) = 2.82428 3.30255 3.07274
# Velocity P-wave (km/s) = 4.23012 5.11325 4.69251
#
# Compressibility (1/GPa) = 0.05309673
#
# Stress axis : x y z
#
# Youngs Moduli (GPa) = 57.78559 99.02035 25.91944
#
# Poissons Ratio (x) = 0.36688 0.00750
# Poissons Ratio (y) = 0.21410 0.06350
# Poissons Ratio (z) = 0.01671 0.24260
#
# Static dielectric constant tensor:
#      x y z
#    x 4.537270 0.000000 -0.144030 
#    y 0.000000 5.383350 0.000000 
#    z -0.144030 0.000000 4.387230 
# 
# 
# High freq. dielectric constant tensor:
#      x y z
#    x 2.035300 0.000000 -0.020450 
#    y 0.000000 2.059800 0.000000 
#    z -0.020450 0.000000 2.001370 
# 
# From -- ./inp_files/98723.got.cif
#   From: 2010.06.25/outbox.cif.g09.slc.cpg/sg15_50_cif.got.tgz:98723.got - 2010.06.28 07:06:18.
