data_PCOD8135561
_publ_section_title
;
Structure prediction by ZEFSAII (Michael W. Deem and Ramdas Pophale) SiO2 
 PCOD8135561
Probable space group: C 2/C
;
_chemical_formula_sum "Si O2"
_cell_formula_units_Z 56
_cell_length_a 16.511103
_cell_length_b 18.125245
_cell_length_c 9.209418
_cell_angle_alpha 90.000000
_cell_angle_beta 75.485445
_cell_angle_gamma 90.000000
_cell_volume 2668.119040
_symmetry_space_group_name_H-M "C 2/C"
_symmetry_group_IT_number 15
_symmetry_cell_setting 'monoclinic'
loop_
_space_group_symop_operation_xyz
x,y,z
-x,y,1/2-z
-x,-y,-z
x,-y,1/2+z
1/2+x,1/2+y,z
1/2-x,1/2+y,1/2-z
1/2-x,1/2-y,-z
1/2+x,1/2-y,1/2+z
loop_
_atom_site_type_symbol
_atom_site_label
_atom_site_fract_x
_atom_site_fract_y
_atom_site_fract_z
Si Si1 0.081585 0.802399 0.371726
Si Si2 0.249744 0.329426 0.068006
Si Si3 0.025310 0.359364 0.907105
Si Si4 0.815200 0.445639 0.620625
Si Si5 0.855870 0.683652 0.603884
Si Si6 0.256390 0.918357 0.967462
Si Si7 0.598359 0.666237 0.535887
O O1 0.158713 0.844635 0.408503
O O2 0.073679 0.716846 0.422114
O O3 0.097518 0.797420 0.193984
O O4 0.999361 0.849933 0.455598
O O5 0.179157 0.337571 0.222746
O O6 0.250000 0.250000 0.000000
O O7 0.237685 0.388113 0.947746
O O8 0.085665 0.426677 0.929002
O O9 0.000000 0.365827 0.750000
O O10 0.942521 0.360991 0.043314
O O11 0.791428 0.525899 0.572852
O O12 0.788012 0.443958 0.798838
O O13 0.792859 0.660585 0.501776
O O14 0.867121 0.772007 0.591034
O O15 0.155171 0.907793 0.005171
#
# Coordination Sequence:
#
# PCOD8135561 Si02
#       7
#     8   8   8   8   8   8   8
#     4  10  19  38  68 101 129 165 216 283 326 391
#     4  12  24  40  66 101 135 170 223 278 332 391
#     4  11  20  42  65 102 134 170 221 272 333 398
#     4  12  27  44  63  94 136 174 220 277 327 403
#     4  11  22  39  70  97 129 174 220 268 329 398
#     4  12  24  43  66  92 128 178 221 264 337 397
#     4  10  20  38  71  96 125 169 223 268 330 389
#
# _framework density 20.988569999999999
#
# number of rings (size 3 to 8) (size 9 to 14) (size 15 to 20)
#    0.000    0.857    7.143    2.143    0.000    1.143 
#    0.000    2.857    0.000    0.000    0.000    0.000 
#    0.000    0.000    0.000    0.000    0.000    0.000 
#
# Total GULP energy -347165.744561 kJ/mol
# GULP energy per Si atom -12398.776591 kJ/mol
# Density = 2.094080 g / cm^3
# Si number density = 20.988570 Si / 1000 Ang^3
#
#
#
# Elastic Constant Matrix: (Units=GPa)
#
#
# Indices 1 2 3 4 5 6 
#
# 1 123.6920 40.8445 32.8528 0.0000 -25.4382 0.0000
# 2 40.8445 62.8979 26.1088 0.0000 -9.4444 0.0000
# 3 32.8528 26.1088 111.3214 0.0000 -12.7892 0.0000
# 4 0.0000 0.0000 0.0000 24.7734 0.0000 10.9646
# 5 -25.4382 -9.4444 -12.7892 0.0000 31.6553 0.0000
# 6 0.0000 0.0000 0.0000 10.9646 0.0000 43.3630
#
#
#
# Elastic Compliance Matrix: (Units=1/GPa)
#
#
# Indices 1 2 3 4 5 6 
#
# 1 0.011937 -0.006144 -0.001248 0.000000 0.007255 0.000000
# 2 -0.006144 0.021213 -0.003148 0.000000 0.000120 0.000000
# 3 -0.001248 -0.003148 0.010347 0.000000 0.002238 0.000000
# 4 0.000000 0.000000 0.000000 0.045453 0.000000 -0.011493
# 5 0.007255 0.000120 0.002238 0.000000 0.038360 0.000000
# 6 0.000000 0.000000 0.000000 -0.011493 0.000000 0.025967
#
#
# Mechanical properties :
#
#
# Convention : Reuss Voigt Hill
#
# Bulk Modulus (GPa) = 44.61106 55.28037 49.94572
# Shear Modulus (GPa) = 27.49804 33.16536 30.33170
#
# Velocity S-wave (km/s) = 3.62352 3.97944 3.80564
# Velocity P-wave (km/s) = 6.22957 6.89276 6.56954
#
# Compressibility (1/GPa) = 0.02241596
#
# Stress axis : x y z
#
# Youngs Moduli (GPa) = 83.77249 47.13988 96.64749
#
# Poissons Ratio (x) = 0.28963 0.12065
# Poissons Ratio (y) = 0.51471 0.30428
# Poissons Ratio (z) = 0.10457 0.14841
#
# Static dielectric constant tensor:
#      x y z
#    x 4.824350 0.000000 -0.064770 
#    y 0.000000 3.292340 0.000000 
#    z -0.064770 0.000000 3.687950 
# 
# 
# High freq. dielectric constant tensor:
#      x y z
#    x 1.837810 0.000000 -0.005940 
#    y 0.000000 1.792230 0.000000 
#    z -0.005940 0.000000 1.821170 
# 
# From -- ./inp_files/48999.got.cif
#   From: 2010.06.25/outbox.cif.g09.slc.cpg/sg15_25_cif.got.tgz:48999.got - 2010.06.28 07:06:18.
