data_PCOD8135401
_publ_section_title
;
Structure prediction by ZEFSAII (Michael W. Deem and Ramdas Pophale) SiO2 
 PCOD8135401
Probable space group: C 2/C
;
_chemical_formula_sum "Si O2"
_cell_formula_units_Z 56
_cell_length_a 21.392094
_cell_length_b 21.741774
_cell_length_c 11.340666
_cell_angle_alpha 90.000000
_cell_angle_beta 146.069622
_cell_angle_gamma 90.000000
_cell_volume 2944.184857
_symmetry_space_group_name_H-M "C 2/C"
_symmetry_group_IT_number 15
_symmetry_cell_setting 'monoclinic'
loop_
_space_group_symop_operation_xyz
x,y,z
-x,y,1/2-z
-x,-y,-z
x,-y,1/2+z
1/2+x,1/2+y,z
1/2-x,1/2+y,1/2-z
1/2-x,1/2-y,-z
1/2+x,1/2-y,1/2+z
loop_
_atom_site_type_symbol
_atom_site_label
_atom_site_fract_x
_atom_site_fract_y
_atom_site_fract_z
Si Si1 0.560308 0.024089 0.471380
Si Si2 0.378671 0.604703 0.099187
Si Si3 0.799658 0.975181 0.896663
Si Si4 0.080435 0.885608 0.573258
Si Si5 0.820385 0.873272 0.118330
Si Si6 0.373036 0.720709 0.520577
Si Si7 0.811564 0.356831 0.358950
O O1 0.500000 0.008818 0.250000
O O2 0.583883 0.098589 0.514608
O O3 0.500000 0.000000 0.500000
O O4 0.680168 0.990986 0.652239
O O5 0.500000 0.628251 0.250000
O O6 0.366132 0.616725 0.216164
O O7 0.362592 0.533608 0.046177
O O8 0.283209 0.644565 0.888274
O O9 0.883572 0.949528 0.929528
O O10 0.781717 0.926587 0.971381
O O11 0.140655 0.829469 0.602450
O O12 0.946489 0.882099 0.361755
O O13 0.808160 0.806503 0.034431
O O14 0.735826 0.881919 0.092599
O O15 0.500000 0.728259 0.750000
O O16 0.336684 0.785806 0.415347
#
# Coordination Sequence:
#
# PCOD8135401 Si02
#       7
#     8   8   8   8   8   8   8
#     4  11  25  42  60  86 123 160 210 256 294 364
#     4  11  22  34  56  89 121 154 183 236 301 358
#     4  10  23  35  61  86 116 156 189 234 309 352
#     4  10  21  38  59  87 126 145 190 248 296 362
#     4  10  19  38  61  93 116 148 196 251 297 358
#     4   9  20  38  59  84 114 156 201 250 290 344
#     4  11  22  36  63  86 114 160 201 241 300 354
#
# _framework density 19.020544999999998
#
# number of rings (size 3 to 8) (size 9 to 14) (size 15 to 20)
#    0.000    1.714    1.429    3.857    8.000    1.714 
#    0.000    1.429    0.000    0.000    0.000    0.000 
#    0.000    0.000    0.000    0.000    0.000    0.000 
#
# Total GULP energy -346998.127814 kJ/mol
# GULP energy per Si atom -12392.790279 kJ/mol
# Density = 1.897725 g / cm^3
# Si number density = 19.020545 Si / 1000 Ang^3
#
#
#
# Elastic Constant Matrix: (Units=GPa)
#
#
# Indices 1 2 3 4 5 6 
#
# 1 100.5611 23.1704 37.2236 0.0000 -18.8420 0.0000
# 2 23.1704 100.6041 58.1863 0.0000 -3.3359 0.0000
# 3 37.2236 58.1863 114.1489 0.0000 -24.3260 0.0000
# 4 0.0000 0.0000 0.0000 -14.4360 0.0000 -31.8256
# 5 -18.8420 -3.3359 -24.3260 0.0000 36.9673 0.0000
# 6 0.0000 0.0000 0.0000 -31.8256 0.0000 -6.7883
#
#
#
# Elastic Compliance Matrix: (Units=1/GPa)
#
#
# Indices 1 2 3 4 5 6 
#
# 1 0.011919 -0.001274 -0.002288 0.000000 0.004455 0.000000
# 2 -0.001274 0.014765 -0.008101 0.000000 -0.004648 0.000000
# 3 -0.002288 -0.008101 0.015390 0.000000 0.008230 0.000000
# 4 0.000000 0.000000 0.000000 0.007420 0.000000 -0.034787
# 5 0.004455 -0.004648 0.008230 0.000000 0.034318 0.000000
# 6 0.000000 0.000000 0.000000 -0.034787 0.000000 0.015779
#
#
# Mechanical properties :
#
#
# Convention : Reuss Voigt Hill
#
# Bulk Modulus (GPa) = 53.34105 61.38609 57.36357
# Shear Modulus (GPa) = 38.70960 16.26420 27.48690
#
# Velocity S-wave (km/s) = 4.51615 2.92736 3.80559
# Velocity P-wave (km/s) = 7.43633 6.61585 7.03806
#
# Compressibility (1/GPa) = 0.01874729
#
# Stress axis : x y z
#
# Youngs Moduli (GPa) = 83.89700 67.72875 64.97709
#
# Poissons Ratio (x) = 0.08629 0.14867
# Poissons Ratio (y) = 0.10689 0.52639
# Poissons Ratio (z) = 0.19197 0.54869
#
# Static dielectric constant tensor:
#      x y z
#    x 3.714140 0.000000 -0.149350 
#    y 0.000000 3.389110 0.000000 
#    z -0.149350 0.000000 3.676200 
# 
# 
# High freq. dielectric constant tensor:
#      x y z
#    x 1.742460 0.000000 -0.009080 
#    y 0.000000 1.738870 0.000000 
#    z -0.009080 0.000000 1.746270 
# 
# From -- ./inp_files/119872.got.cif
#   From: 2010.06.25/outbox.cif.g09.slc.cpg/sg15_60_cif.got.tgz:119872.got - 2010.06.28 07:06:18.
