data_PCOD8135106
_publ_section_title
;
Structure prediction by ZEFSAII (Michael W. Deem and Ramdas Pophale) SiO2 
 PCOD8135106
Probable space group: C 2/C
;
_chemical_formula_sum "Si O2"
_cell_formula_units_Z 56
_cell_length_a 17.426130
_cell_length_b 9.627049
_cell_length_c 15.864390
_cell_angle_alpha 90.000000
_cell_angle_beta 108.102775
_cell_angle_gamma 90.000000
_cell_volume 2529.705373
_symmetry_space_group_name_H-M "C 2/C"
_symmetry_group_IT_number 15
_symmetry_cell_setting 'monoclinic'
loop_
_space_group_symop_operation_xyz
x,y,z
-x,y,1/2-z
-x,-y,-z
x,-y,1/2+z
1/2+x,1/2+y,z
1/2-x,1/2+y,1/2-z
1/2-x,1/2-y,-z
1/2+x,1/2-y,1/2+z
loop_
_atom_site_type_symbol
_atom_site_label
_atom_site_fract_x
_atom_site_fract_y
_atom_site_fract_z
Si Si1 0.177857 0.735842 0.812281
Si Si2 0.749187 0.532320 0.444107
Si Si3 0.500000 0.639456 0.250000
Si Si4 0.852618 0.546609 0.124311
Si Si5 0.265562 0.769171 0.350941
Si Si6 0.619275 0.425085 0.529778
Si Si7 0.530821 0.587395 0.629692
Si Si8 0.500000 0.813011 0.750000
O O1 0.228426 0.814014 0.903143
O O2 0.180752 0.571307 0.825224
O O3 0.227415 0.765418 0.744691
O O4 0.082759 0.773240 0.777240
O O5 0.834794 0.512493 0.523272
O O6 0.750209 0.431688 0.363050
O O7 0.678986 0.492454 0.483998
O O8 0.503740 0.545871 0.334007
O O9 0.806866 0.688502 0.128655
O O10 0.945517 0.584820 0.174343
O O11 0.347789 0.719034 0.422496
O O12 0.608201 0.539639 0.601249
O O13 0.537464 0.370435 0.459994
O O14 0.550215 0.713557 0.701692
#
# Coordination Sequence:
#
# PCOD8135106 Si02
#       8
#     8   8   4   8   8   8   8   4
#     4  12  24  42  64  95 133 173 220 266 334 393
#     4  11  23  42  67  93 129 172 219 274 326 390
#     4  11  21  38  64  94 128 172 210 270 310 386
#     4  11  25  42  64  94 131 172 213 280 328 386
#     4  11  23  40  67  94 128 170 222 268 324 391
#     4  10  19  37  62 103 128 165 220 273 319 383
#     4  10  20  35  66  95 130 170 217 263 317 391
#     4  11  23  42  64  96 136 178 226 264 338 392
#
# _framework density 22.136966000000001
#
# number of rings (size 3 to 8) (size 9 to 14) (size 15 to 20)
#    0.000    1.143    2.857    5.143    2.000    2.286 
#    0.000    1.429    0.000    6.000    0.000    0.000 
#    0.000    0.000    0.000    0.000    0.000    0.000 
#
# Total GULP energy -347049.116360 kJ/mol
# GULP energy per Si atom -12394.611299 kJ/mol
# Density = 2.208658 g / cm^3
# Si number density = 22.136966 Si / 1000 Ang^3
#
#
#
# Elastic Constant Matrix: (Units=GPa)
#
#
# Indices 1 2 3 4 5 6 
#
# 1 69.0218 13.6426 34.7032 0.0000 -2.2257 0.0000
# 2 13.6426 76.4246 22.5608 0.0000 4.2459 0.0000
# 3 34.7032 22.5608 97.2093 0.0000 -4.1467 0.0000
# 4 0.0000 0.0000 0.0000 26.5186 0.0000 2.4923
# 5 -2.2257 4.2459 -4.1467 0.0000 41.8465 0.0000
# 6 0.0000 0.0000 0.0000 2.4923 0.0000 23.7946
#
#
#
# Elastic Compliance Matrix: (Units=1/GPa)
#
#
# Indices 1 2 3 4 5 6 
#
# 1 0.017806 -0.001434 -0.006002 0.000000 0.000498 0.000000
# 2 -0.001434 0.014292 -0.002882 0.000000 -0.001812 0.000000
# 3 -0.006002 -0.002882 0.013153 0.000000 0.001277 0.000000
# 4 0.000000 0.000000 0.000000 0.038084 0.000000 -0.003989
# 5 0.000498 -0.001812 0.001277 0.000000 0.024234 0.000000
# 6 0.000000 0.000000 0.000000 -0.003989 0.000000 0.042444
#
#
# Mechanical properties :
#
#
# Convention : Reuss Voigt Hill
#
# Bulk Modulus (GPa) = 40.62829 42.71875 41.67352
# Shear Modulus (GPa) = 27.95546 29.88188 28.91867
#
# Velocity S-wave (km/s) = 3.55750 3.67803 3.61827
# Velocity P-wave (km/s) = 5.93864 6.11364 6.02677
#
# Compressibility (1/GPa) = 0.02461339
#
# Stress axis : x y z
#
# Youngs Moduli (GPa) = 56.16199 69.96746 76.02647
#
# Poissons Ratio (x) = 0.10035 0.45634
# Poissons Ratio (y) = 0.08055 0.21913
# Poissons Ratio (z) = 0.33711 0.20167
#
# Static dielectric constant tensor:
#      x y z
#    x 3.896760 0.000000 0.106190 
#    y 0.000000 3.905750 0.000000 
#    z 0.106190 0.000000 4.330660 
# 
# 
# High freq. dielectric constant tensor:
#      x y z
#    x 1.854020 0.000000 0.003140 
#    y 0.000000 1.864720 0.000000 
#    z 0.003140 0.000000 1.887640 
# 
# From -- ./inp_files/209671.got.cif
#   From: 2010.06.25/outbox.cif.g09.slc.cpg/sg15_105_cif.got.tgz:209671.got - 2010.06.28 07:06:18.
