data_PCOD8135317
_publ_section_title
;
Structure prediction by ZEFSAII (Michael W. Deem and Ramdas Pophale) SiO2 
 PCOD8135317
Probable space group: C 2/C
;
_chemical_formula_sum "Si O2"
_cell_formula_units_Z 48
_cell_length_a 19.492934
_cell_length_b 26.936345
_cell_length_c 5.279187
_cell_angle_alpha 90.000000
_cell_angle_beta 131.405599
_cell_angle_gamma 90.000000
_cell_volume 2079.079419
_symmetry_space_group_name_H-M "C 2/C"
_symmetry_group_IT_number 15
_symmetry_cell_setting 'monoclinic'
loop_
_space_group_symop_operation_xyz
x,y,z
-x,y,1/2-z
-x,-y,-z
x,-y,1/2+z
1/2+x,1/2+y,z
1/2-x,1/2+y,1/2-z
1/2-x,1/2-y,-z
1/2+x,1/2-y,1/2+z
loop_
_atom_site_type_symbol
_atom_site_label
_atom_site_fract_x
_atom_site_fract_y
_atom_site_fract_z
Si Si1 0.689720 0.216635 0.562550
Si Si2 0.808163 0.179489 0.296699
Si Si3 0.697507 0.470453 0.201718
Si Si4 0.000000 0.374916 0.250000
Si Si5 0.000000 0.689772 0.250000
Si Si6 0.806393 0.614188 0.190628
Si Si7 0.000000 0.135457 0.750000
Si Si8 0.500000 0.570773 0.250000
O O1 0.707088 0.275711 0.522632
O O2 0.591375 0.223042 0.462959
O O3 0.673768 0.171694 0.330718
O O4 0.770329 0.201037 0.946072
O O5 0.763061 0.125258 0.246270
O O6 0.914099 0.170838 0.508572
O O7 0.728246 0.502363 0.520736
O O8 0.753558 0.418680 0.353449
O O9 0.588749 0.463528 0.932548
O O10 0.987358 0.343905 0.472344
O O11 0.093559 0.408586 0.498584
O O12 0.013852 0.102814 0.534025
#
# Coordination Sequence:
#
# PCOD8135317 Si02
#       8
#     8   8   8   4   4   8   4   4
#     4  10  22  38  65  94 135 182 223 279 327 407
#     4  11  22  40  62  98 136 180 226 269 337 399
#     4  12  27  45  73 102 133 176 231 287 344 409
#     4  10  22  38  69  91 121 173 212 264 330 396
#     4  10  19  38  58  94 126 170 223 257 314 391
#     4  11  23  44  67  94 135 173 227 280 343 401
#     4  12  25  41  70 104 143 187 218 283 328 409
#     4  12  24  47  71  99 142 180 227 274 350 404
#
# _framework density 23.087142
#
# number of rings (size 3 to 8) (size 9 to 14) (size 15 to 20)
#    0.000    1.000    3.333    3.500    2.333    0.000 
#    0.000    2.500    0.000    0.000    0.000    0.000 
#    0.000    0.000    0.000    0.000    0.000    0.000 
#
# Total GULP energy -297369.497199 kJ/mol
# GULP energy per Si atom -12390.395717 kJ/mol
# Density = 2.303459 g / cm^3
# Si number density = 23.087142 Si / 1000 Ang^3
#
#
#
# Elastic Constant Matrix: (Units=GPa)
#
#
# Indices 1 2 3 4 5 6 
#
# 1 46.0256 17.1959 36.5683 0.0000 13.5348 0.0000
# 2 17.1959 53.0065 18.2626 0.0000 8.4721 0.0000
# 3 36.5683 18.2626 126.4322 0.0000 22.6651 0.0000
# 4 0.0000 0.0000 0.0000 19.9431 0.0000 -24.6718
# 5 13.5348 8.4721 22.6651 0.0000 65.2408 0.0000
# 6 0.0000 0.0000 0.0000 -24.6718 0.0000 -5.9395
#
#
#
# Elastic Compliance Matrix: (Units=1/GPa)
#
#
# Indices 1 2 3 4 5 6 
#
# 1 0.031167 -0.007067 -0.007464 0.000000 -0.002955 0.000000
# 2 -0.007067 0.021632 -0.000896 0.000000 -0.001032 0.000000
# 3 -0.007464 -0.000896 0.010557 0.000000 -0.002003 0.000000
# 4 0.000000 0.000000 0.000000 0.008168 0.000000 -0.033929
# 5 -0.002955 -0.001032 -0.002003 0.000000 0.016771 0.000000
# 6 0.000000 0.000000 0.000000 -0.033929 0.000000 -0.027426
#
#
# Mechanical properties :
#
#
# Convention : Reuss Voigt Hill
#
# Bulk Modulus (GPa) = 30.76738 41.05755 35.91247
# Shear Modulus (GPa) = 48.75475 26.07802 37.41639
#
# Velocity S-wave (km/s) = 4.60039 3.36452 4.03011
# Velocity P-wave (km/s) = 6.44776 5.73722 6.10284
#
# Compressibility (1/GPa) = 0.03250195
#
# Stress axis : x y z
#
# Youngs Moduli (GPa) = 32.08570 46.22842 94.72793
#
# Poissons Ratio (x) = 0.32669 0.70703
# Poissons Ratio (y) = 0.22675 0.08484
# Poissons Ratio (z) = 0.23948 0.04141
#
# Static dielectric constant tensor:
#      x y z
#    x 4.700650 0.000000 0.442900 
#    y 0.000000 4.162430 0.000000 
#    z 0.442900 0.000000 4.416100 
# 
# 
# High freq. dielectric constant tensor:
#      x y z
#    x 1.930220 0.000000 0.015250 
#    y 0.000000 1.894480 0.000000 
#    z 0.015250 0.000000 1.922870 
# 
# From -- ./inp_files/8296.got.cif
#   From: 2010.06.25/outbox.cif.g09.slc.cpg/sg15_5_cif.got.tgz:8296.got - 2010.06.28 07:06:18.
