data_PCOD8135458
_publ_section_title
;
Structure prediction by ZEFSAII (Michael W. Deem and Ramdas Pophale) SiO2 
 PCOD8135458
Probable space group: C 2/C
;
_chemical_formula_sum "Si O2"
_cell_formula_units_Z 44
_cell_length_a 26.637977
_cell_length_b 15.134501
_cell_length_c 12.934859
_cell_angle_alpha 90.000000
_cell_angle_beta 22.674514
_cell_angle_gamma 90.000000
_cell_volume 2010.252088
_symmetry_space_group_name_H-M "C 2/C"
_symmetry_group_IT_number 15
_symmetry_cell_setting 'monoclinic'
loop_
_space_group_symop_operation_xyz
x,y,z
-x,y,1/2-z
-x,-y,-z
x,-y,1/2+z
1/2+x,1/2+y,z
1/2-x,1/2+y,1/2-z
1/2-x,1/2-y,-z
1/2+x,1/2-y,1/2+z
loop_
_atom_site_type_symbol
_atom_site_label
_atom_site_fract_x
_atom_site_fract_y
_atom_site_fract_z
Si Si1 0.896509 0.037943 0.777078
Si Si2 0.851886 0.493075 0.881140
Si Si3 0.767700 0.633136 0.701585
Si Si4 0.623830 0.738103 0.671067
Si Si5 0.920985 0.631011 0.610643
Si Si6 0.500000 0.585779 0.250000
O O1 0.921432 0.138602 0.765323
O O2 0.000000 0.000000 0.500000
O O3 0.908706 0.975405 0.852504
O O4 0.751855 0.040648 0.006252
O O5 0.869047 0.598498 0.823349
O O6 0.989711 0.446506 0.604508
O O7 0.802248 0.465308 0.089582
O O8 0.848916 0.708647 0.486982
O O9 0.801411 0.641924 0.758229
O O10 0.610506 0.646011 0.983972
O O11 0.750000 0.750000 0.500000
O O12 0.502041 0.779199 0.965733
#
# Coordination Sequence:
#
# PCOD8135458 Si02
#       6
#     8   8   8   8   8   4
#     4  12  23  41  65  93 124 167 215 256 321 377
#     4  10  19  38  63  90 124 170 205 256 321 374
#     4  11  22  40  66  93 129 170 214 260 320 377
#     4  11  21  40  65  89 122 167 212 260 319 373
#     4  10  21  37  63  96 127 165 214 260 312 381
#     4  12  24  38  66  90 130 166 212 268 314 378
#
# _framework density 21.887802000000001
#
# number of rings (size 3 to 8) (size 9 to 14) (size 15 to 20)
#    0.000    1.091    7.273    2.182    2.545    0.000 
#    0.000    0.909    8.000    0.000    0.000    0.000 
#    0.000    0.000    0.000    0.000    0.000    0.000 
#
# Total GULP energy -272548.116556 kJ/mol
# GULP energy per Si atom -12388.550753 kJ/mol
# Density = 2.183798 g / cm^3
# Si number density = 21.887802 Si / 1000 Ang^3
#
#
#
# Elastic Constant Matrix: (Units=GPa)
#
#
# Indices 1 2 3 4 5 6 
#
# 1 58.3393 8.7177 6.3482 0.0000 -14.6370 0.0000
# 2 8.7177 102.6346 41.6949 0.0000 -0.3979 0.0000
# 3 6.3482 41.6949 103.4107 -0.0001 -5.1122 0.0000
# 4 0.0000 0.0000 -0.0001 29.0824 0.0000 -5.3144
# 5 -14.6370 -0.3979 -5.1122 0.0000 35.6874 0.0000
# 6 0.0000 0.0000 0.0000 -5.3144 0.0000 23.1673
#
#
#
# Elastic Compliance Matrix: (Units=1/GPa)
#
#
# Indices 1 2 3 4 5 6 
#
# 1 0.019374 -0.001543 -0.000176 0.000000 0.007904 0.000000
# 2 -0.001543 0.011785 -0.004715 0.000000 -0.001177 0.000000
# 3 -0.000176 -0.004715 0.011659 0.000000 0.001545 0.000000
# 4 0.000000 0.000000 0.000000 0.035890 0.000000 0.008233
# 5 0.007904 -0.001177 0.001545 0.000000 0.031471 0.000000
# 6 0.000000 0.000000 0.000000 0.008233 0.000000 0.045053
#
#
# Mechanical properties :
#
#
# Convention : Reuss Voigt Hill
#
# Bulk Modulus (GPa) = 33.39129 41.98961 37.69045
# Shear Modulus (GPa) = 28.07668 31.42900 29.75284
#
# Velocity S-wave (km/s) = 3.58544 3.79346 3.69092
# Velocity P-wave (km/s) = 5.69467 6.19780 5.95156
#
# Compressibility (1/GPa) = 0.02994793
#
# Stress axis : x y z
#
# Youngs Moduli (GPa) = 51.61590 84.85081 85.77374
#
# Poissons Ratio (x) = 0.13095 0.01513
# Poissons Ratio (y) = 0.07966 0.40445
# Poissons Ratio (z) = 0.00910 0.40010
#
# Static dielectric constant tensor:
#      x y z
#    x 3.955320 0.000000 0.010530 
#    y 0.000000 4.115330 0.000000 
#    z 0.010530 0.000000 4.285280 
# 
# 
# High freq. dielectric constant tensor:
#      x y z
#    x 1.848620 0.000000 -0.018410 
#    y 0.000000 1.836890 0.000000 
#    z -0.018410 0.000000 1.871250 
# 
# From -- ./inp_files/182269.got.cif
#   From: 2010.06.25/outbox.cif.g09.slc.cpg/sg15_92_cif.got.tgz:182269.got - 2010.06.28 07:06:18.
