data_PCOD8135162
_publ_section_title
;
Structure prediction by ZEFSAII (Michael W. Deem and Ramdas Pophale) SiO2 
 PCOD8135162
Probable space group: C 2/C
;
_chemical_formula_sum "Si O2"
_cell_formula_units_Z 56
_cell_length_a 24.903741
_cell_length_b 9.263685
_cell_length_c 16.796953
_cell_angle_alpha 90.000000
_cell_angle_beta 138.755434
_cell_angle_gamma 90.000000
_cell_volume 2554.730892
_symmetry_space_group_name_H-M "C 2/C"
_symmetry_group_IT_number 15
_symmetry_cell_setting 'monoclinic'
loop_
_space_group_symop_operation_xyz
x,y,z
-x,y,1/2-z
-x,-y,-z
x,-y,1/2+z
1/2+x,1/2+y,z
1/2-x,1/2+y,1/2-z
1/2-x,1/2-y,-z
1/2+x,1/2-y,1/2+z
loop_
_atom_site_type_symbol
_atom_site_label
_atom_site_fract_x
_atom_site_fract_y
_atom_site_fract_z
Si Si1 0.975307 0.882369 0.099793
Si Si2 0.035127 0.327827 0.455271
Si Si3 0.713553 0.992888 0.295053
Si Si4 0.630816 0.613659 0.447390
Si Si5 0.601923 0.376621 0.733219
Si Si6 0.450223 0.889684 0.849005
Si Si7 0.322405 0.706627 0.326536
O O1 0.024323 0.739043 0.183641
O O2 0.925861 0.969943 0.111716
O O3 0.911450 0.830104 0.961742
O O4 0.045692 0.988422 0.147104
O O5 0.096726 0.244117 0.464368
O O6 0.061673 0.316188 0.576660
O O7 0.945090 0.268090 0.343177
O O8 0.025193 0.497938 0.425218
O O9 0.777942 0.917892 0.424861
O O10 0.689550 0.879363 0.198186
O O11 0.637522 0.038697 0.266307
O O12 0.750052 0.138915 0.297627
O O13 0.630901 0.648513 0.355105
O O14 0.680454 0.374392 0.762880
#
# Coordination Sequence:
#
# PCOD8135162 Si02
#       7
#     8   8   8   8   8   8   8
#     4  10  21  37  66  92 114 161 206 259 287 363
#     4  10  19  37  63  92 114 159 203 264 290 359
#     4  11  24  39  60  97 121 162 195 264 306 371
#     4  10  24  41  63  86 128 164 211 233 313 380
#     4  11  21  41  64  89 118 169 207 247 294 381
#     4  11  20  36  63  93 126 143 211 261 313 333
#     4  11  22  39  64  90 123 155 213 251 311 348
#
# _framework density 21.920117000000001
#
# number of rings (size 3 to 8) (size 9 to 14) (size 15 to 20)
#    0.000    1.429    2.857    3.857    6.000    0.571 
#    0.000    3.571    3.143    0.000    0.000    0.000 
#    0.000    0.000    0.000    0.000    0.000    0.000 
#
# Total GULP energy -346885.015830 kJ/mol
# GULP energy per Si atom -12388.750565 kJ/mol
# Density = 2.187023 g / cm^3
# Si number density = 21.920117 Si / 1000 Ang^3
#
#
#
# Elastic Constant Matrix: (Units=GPa)
#
#
# Indices 1 2 3 4 5 6 
#
# 1 66.0157 20.6694 28.7749 0.0000 10.4363 0.0000
# 2 20.6694 107.6965 20.5876 0.0000 12.7528 0.0000
# 3 28.7749 20.5876 73.9464 0.0000 14.9739 0.0000
# 4 0.0000 0.0000 0.0000 21.4839 0.0000 11.0227
# 5 10.4363 12.7528 14.9739 0.0000 21.3561 0.0000
# 6 0.0000 0.0000 0.0000 11.0227 0.0000 21.7963
#
#
#
# Elastic Compliance Matrix: (Units=1/GPa)
#
#
# Indices 1 2 3 4 5 6 
#
# 1 0.019035 -0.002040 -0.006063 0.000000 -0.003833 0.000000
# 2 -0.002040 0.010429 -0.001224 0.000000 -0.004372 0.000000
# 3 -0.006063 -0.001224 0.018036 0.000000 -0.008952 0.000000
# 4 0.000000 0.000000 0.000000 0.062855 0.000000 -0.031787
# 5 -0.003833 -0.004372 -0.008952 0.000000 0.057586 0.000000
# 6 0.000000 0.000000 0.000000 -0.031787 0.000000 0.061954
#
#
# Mechanical properties :
#
#
# Convention : Reuss Voigt Hill
#
# Bulk Modulus (GPa) = 34.66806 43.08025 38.87416
# Shear Modulus (GPa) = 19.36740 24.76905 22.06822
#
# Velocity S-wave (km/s) = 2.97567 3.36515 3.17638
# Velocity P-wave (km/s) = 5.25891 5.89872 5.58798
#
# Compressibility (1/GPa) = 0.02884499
#
# Stress axis : x y z
#
# Youngs Moduli (GPa) = 52.53359 95.88932 55.44380
#
# Poissons Ratio (x) = 0.19566 0.33616
# Poissons Ratio (y) = 0.10719 0.06787
# Poissons Ratio (z) = 0.31852 0.11738
#
# Static dielectric constant tensor:
#      x y z
#    x 3.802860 0.000000 0.193590 
#    y 0.000000 4.180270 0.000000 
#    z 0.193590 0.000000 3.862140 
# 
# 
# High freq. dielectric constant tensor:
#      x y z
#    x 1.842020 0.000000 0.019490 
#    y 0.000000 1.875460 0.000000 
#    z 0.019490 0.000000 1.848510 
# 
# From -- ./inp_files/222058.got.cif
#   From: 2010.06.25/outbox.cif.g09.slc.cpg/sg15_112_cif.got.tgz:222058.got - 2010.06.28 07:06:18.
