data_PCOD8135938
_publ_section_title
;
Structure prediction by ZEFSAII (Michael W. Deem and Ramdas Pophale) SiO2 
 PCOD8135938
Probable space group: C 2/C
;
_chemical_formula_sum "Si O2"
_cell_formula_units_Z 52
_cell_length_a 25.176669
_cell_length_b 13.733648
_cell_length_c 12.335020
_cell_angle_alpha 90.000000
_cell_angle_beta 144.325295
_cell_angle_gamma 90.000000
_cell_volume 2487.302601
_symmetry_space_group_name_H-M "C 2/C"
_symmetry_group_IT_number 15
_symmetry_cell_setting 'monoclinic'
loop_
_space_group_symop_operation_xyz
x,y,z
-x,y,1/2-z
-x,-y,-z
x,-y,1/2+z
1/2+x,1/2+y,z
1/2-x,1/2+y,1/2-z
1/2-x,1/2-y,-z
1/2+x,1/2-y,1/2+z
loop_
_atom_site_type_symbol
_atom_site_label
_atom_site_fract_x
_atom_site_fract_y
_atom_site_fract_z
Si Si1 0.882396 0.985805 0.377294
Si Si2 0.130385 0.841285 0.791309
Si Si3 0.782744 0.473851 0.752631
Si Si4 0.902473 0.506924 0.131230
Si Si5 0.000000 0.108172 0.250000
Si Si6 0.664592 0.870027 0.307128
Si Si7 0.744214 0.136206 0.513997
O O1 0.814386 0.026301 0.353733
O O2 0.966568 0.949975 0.588880
O O3 0.917415 0.076357 0.362281
O O4 0.837148 0.902609 0.224989
O O5 0.120304 0.735873 0.718864
O O6 0.084538 0.832462 0.836050
O O7 0.236979 0.868512 0.970949
O O8 0.817951 0.582941 0.780986
O O9 0.773827 0.409223 0.632575
O O10 0.857028 0.437928 0.963089
O O11 0.905767 0.438221 0.242559
O O12 0.840966 0.603503 0.051944
O O13 0.000000 0.541838 0.250000
O O14 0.750000 0.250000 0.500000
#
# Coordination Sequence:
#
# PCOD8135938 Si02
#       7
#     8   8   8   8   4   8   8
#     4  11  21  41  62  91 125 169 210 257 326 377
#     4  11  22  39  62  94 122 167 215 257 323 381
#     4  10  19  41  65  86 124 172 201 261 324 371
#     4  10  22  41  66  94 125 165 214 260 324 381
#     4  12  24  38  66  90 132 164 214 272 312 378
#     4  10  21  39  63  90 125 162 216 263 315 388
#     4  10  22  40  64  91 126 167 212 259 320 386
#
# _framework density 20.906182000000001
#
# number of rings (size 3 to 8) (size 9 to 14) (size 15 to 20)
#    0.000    1.538    6.154    0.462    1.077    6.154 
#    2.769    0.000    8.462    0.000    0.000    0.000 
#    0.000    0.000    0.000    0.000    0.000    0.000 
#
# Total GULP energy -322136.649296 kJ/mol
# GULP energy per Si atom -12389.871127 kJ/mol
# Density = 2.085860 g / cm^3
# Si number density = 20.906182 Si / 1000 Ang^3
#
#
#
# Elastic Constant Matrix: (Units=GPa)
#
#
# Indices 1 2 3 4 5 6 
#
# 1 137.6172 40.8342 26.5090 0.0000 3.4271 0.0000
# 2 40.8342 124.0622 24.2025 0.0000 -5.4250 0.0000
# 3 26.5090 24.2025 81.3860 0.0000 -7.6710 0.0000
# 4 0.0000 0.0000 0.0000 11.1874 0.0000 -7.0119
# 5 3.4271 -5.4250 -7.6710 0.0000 33.7862 0.0000
# 6 0.0000 0.0000 0.0000 -7.0119 0.0000 13.0983
#
#
#
# Elastic Compliance Matrix: (Units=1/GPa)
#
#
# Indices 1 2 3 4 5 6 
#
# 1 0.008454 -0.002431 -0.002195 0.000000 -0.001746 0.000000
# 2 -0.002431 0.009278 -0.001843 0.000000 0.001318 0.000000
# 3 -0.002195 -0.001843 0.013840 0.000000 0.003069 0.000000
# 4 0.000000 0.000000 0.000000 0.134522 0.000000 0.072014
# 5 -0.001746 0.001318 0.003069 0.000000 0.030683 0.000000
# 6 0.000000 0.000000 0.000000 0.072014 0.000000 0.114897
#
#
# Mechanical properties :
#
#
# Convention : Reuss Voigt Hill
#
# Bulk Modulus (GPa) = 53.66810 58.46186 56.06498
# Shear Modulus (GPa) = 15.11378 28.38236 21.74807
#
# Velocity S-wave (km/s) = 2.69166 3.68857 3.22882
# Velocity P-wave (km/s) = 5.94867 6.79451 6.38561
#
# Compressibility (1/GPa) = 0.01863304
#
# Stress axis : x y z
#
# Youngs Moduli (GPa) = 118.28477 107.78539 72.25650
#
# Poissons Ratio (x) = 0.26199 0.15864
# Poissons Ratio (y) = 0.28751 0.13317
# Poissons Ratio (z) = 0.25969 0.19865
#
# Static dielectric constant tensor:
#      x y z
#    x 4.182930 0.000000 -0.040550 
#    y 0.000000 3.763590 0.000000 
#    z -0.040550 0.000000 3.719000 
# 
# 
# High freq. dielectric constant tensor:
#      x y z
#    x 1.845950 0.000000 -0.006980 
#    y 0.000000 1.791550 0.000000 
#    z -0.006980 0.000000 1.804700 
# 
# From -- ./inp_files/118834.got.cif
#   From: 2010.06.25/outbox.cif.g09.slc.cpg/sg15_60_cif.got.tgz:118834.got - 2010.06.28 07:06:18.
