data_PCOD8135691
_publ_section_title
;
Structure prediction by ZEFSAII (Michael W. Deem and Ramdas Pophale) SiO2 
 PCOD8135691
Probable space group: C 2/C
;
_chemical_formula_sum "Si O2"
_cell_formula_units_Z 56
_cell_length_a 13.760777
_cell_length_b 22.732996
_cell_length_c 9.626377
_cell_angle_alpha 90.000000
_cell_angle_beta 109.579662
_cell_angle_gamma 90.000000
_cell_volume 2837.231357
_symmetry_space_group_name_H-M "C 2/C"
_symmetry_group_IT_number 15
_symmetry_cell_setting 'monoclinic'
loop_
_space_group_symop_operation_xyz
x,y,z
-x,y,1/2-z
-x,-y,-z
x,-y,1/2+z
1/2+x,1/2+y,z
1/2-x,1/2+y,1/2-z
1/2-x,1/2-y,-z
1/2+x,1/2-y,1/2+z
loop_
_atom_site_type_symbol
_atom_site_label
_atom_site_fract_x
_atom_site_fract_y
_atom_site_fract_z
Si Si1 0.711330 0.446808 0.766454
Si Si2 0.478172 0.289511 0.581175
Si Si3 0.452317 0.842914 0.081742
Si Si4 0.454249 0.948840 0.882765
Si Si5 0.081350 0.111028 0.974483
Si Si6 0.867305 0.926983 0.288817
Si Si7 0.281021 0.361616 0.482870
O O1 0.832615 0.457329 0.812476
O O2 0.669074 0.422490 0.601681
O O3 0.656815 0.508094 0.777326
O O4 0.680800 0.401166 0.870924
O O5 0.500000 0.305273 0.750000
O O6 0.496067 0.220701 0.559761
O O7 0.559769 0.323936 0.523976
O O8 0.360902 0.308837 0.492229
O O9 0.500000 0.865391 0.250000
O O10 0.330325 0.835020 0.042572
O O11 0.480695 0.887482 0.971844
O O12 0.500000 0.949518 0.750000
O O13 0.500000 0.000000 0.000000
O O14 0.123475 0.116776 0.838125
O O15 0.974989 0.073579 0.925974
O O16 0.776300 0.903376 0.344495
#
# Coordination Sequence:
#
# PCOD8135691 Si02
#       7
#     8   8   8   8   8   8   8
#     4  11  22  37  64  85 124 161 203 243 305 369
#     4  10  19  39  64  86 123 158 200 253 295 369
#     4  10  23  41  66  88 115 162 210 249 302 352
#     4  11  27  44  64  91 122 161 203 255 295 358
#     4  10  21  37  57  94 125 159 196 244 314 357
#     4  10  22  34  57  94 126 157 193 252 303 369
#     4  10  21  37  60  90 117 162 203 250 297 363
#
# _framework density 19.737551
#
# number of rings (size 3 to 8) (size 9 to 14) (size 15 to 20)
#    0.000    1.714    1.429    2.143    8.000    3.429 
#    5.143    0.000    0.000    2.571    0.000    0.000 
#    0.000    0.000    0.000    0.000    0.000    0.000 
#
# Total GULP energy -347255.761141 kJ/mol
# GULP energy per Si atom -12401.991469 kJ/mol
# Density = 1.969263 g / cm^3
# Si number density = 19.737551 Si / 1000 Ang^3
#
#
#
# Elastic Constant Matrix: (Units=GPa)
#
#
# Indices 1 2 3 4 5 6 
#
# 1 70.2947 40.9984 46.8921 0.0000 -3.0844 0.0000
# 2 40.9984 102.1549 57.9818 0.0000 4.6077 0.0000
# 3 46.8921 57.9818 128.2249 0.0000 -4.5591 0.0000
# 4 0.0000 0.0000 0.0000 31.4768 0.0000 2.1029
# 5 -3.0844 4.6077 -4.5591 0.0000 30.5199 0.0000
# 6 0.0000 0.0000 0.0000 2.1029 0.0000 15.1288
#
#
#
# Elastic Compliance Matrix: (Units=1/GPa)
#
#
# Indices 1 2 3 4 5 6 
#
# 1 0.020986 -0.005666 -0.005033 0.000000 0.002224 0.000000
# 2 -0.005666 0.014958 -0.004818 0.000000 -0.003551 0.000000
# 3 -0.005033 -0.004818 0.011889 0.000000 0.001995 0.000000
# 4 0.000000 0.000000 0.000000 0.032067 0.000000 -0.004457
# 5 0.002224 -0.003551 0.001995 0.000000 0.033824 0.000000
# 6 0.000000 0.000000 0.000000 -0.004457 0.000000 0.066719
#
#
# Mechanical properties :
#
#
# Convention : Reuss Voigt Hill
#
# Bulk Modulus (GPa) = 59.53035 65.82434 62.67735
# Shear Modulus (GPa) = 23.03342 25.74525 24.38934
#
# Velocity S-wave (km/s) = 3.41982 3.61554 3.51904
# Velocity P-wave (km/s) = 6.76905 7.13104 6.95240
#
# Compressibility (1/GPa) = 0.01679816
#
# Stress axis : x y z
#
# Youngs Moduli (GPa) = 47.65192 66.85535 84.11079
#
# Poissons Ratio (x) = 0.37878 0.42336
# Poissons Ratio (y) = 0.26998 0.40524
# Poissons Ratio (z) = 0.23985 0.32211
#
# Static dielectric constant tensor:
#      x y z
#    x 3.496710 0.000000 0.043300 
#    y 0.000000 3.516270 0.000000 
#    z 0.043300 0.000000 3.738260 
# 
# 
# High freq. dielectric constant tensor:
#      x y z
#    x 1.762760 0.000000 0.004660 
#    y 0.000000 1.764860 0.000000 
#    z 0.004660 0.000000 1.781160 
# 
# From -- ./inp_files/42259.got.cif
#   From: 2010.06.25/outbox.cif.g09.slc.cpg/sg15_22_cif.got.tgz:42259.got - 2010.06.28 07:06:18.
