data_PCOD8135736
_publ_section_title
;
Structure prediction by ZEFSAII (Michael W. Deem and Ramdas Pophale) SiO2 
 PCOD8135736
Probable space group: C 2/C
;
_chemical_formula_sum "Si O2"
_cell_formula_units_Z 48
_cell_length_a 13.641113
_cell_length_b 14.224226
_cell_length_c 12.605825
_cell_angle_alpha 90.000000
_cell_angle_beta 56.857147
_cell_angle_gamma 90.000000
_cell_volume 2048.028624
_symmetry_space_group_name_H-M "C 2/C"
_symmetry_group_IT_number 15
_symmetry_cell_setting 'monoclinic'
loop_
_space_group_symop_operation_xyz
x,y,z
-x,y,1/2-z
-x,-y,-z
x,-y,1/2+z
1/2+x,1/2+y,z
1/2-x,1/2+y,1/2-z
1/2-x,1/2-y,-z
1/2+x,1/2-y,1/2+z
loop_
_atom_site_type_symbol
_atom_site_label
_atom_site_fract_x
_atom_site_fract_y
_atom_site_fract_z
Si Si1 0.652864 0.580213 0.304826
Si Si2 0.000000 0.343719 0.250000
Si Si3 0.068550 0.205936 0.595884
Si Si4 0.058634 0.208743 0.022721
Si Si5 0.221538 0.258417 0.686296
Si Si6 0.241401 0.602649 0.675096
Si Si7 0.000000 0.029009 0.750000
O O1 0.535928 0.625196 0.423126
O O2 0.756358 0.660080 0.236287
O O3 0.703001 0.499332 0.350621
O O4 0.611282 0.537221 0.216533
O O5 0.964948 0.280025 0.369923
O O6 0.891780 0.409635 0.284521
O O7 0.094439 0.251289 0.700109
O O8 0.186665 0.215716 0.459786
O O9 0.040756 0.094880 0.628386
O O10 0.960440 0.251460 0.587718
O O11 0.188063 0.165166 0.953589
O O12 0.254160 0.156434 0.714544
#
# Coordination Sequence:
#
# PCOD8135736 Si02
#       7
#     8   4   8   8   8   8   4
#     4  11  23  39  68 107 134 171 234 286 330 408
#     4  12  25  46  63  98 144 190 217 290 359 422
#     4  10  19  39  65  99 136 172 220 288 336 398
#     4  11  23  43  72 100 133 180 245 284 341 400
#     4  10  22  39  64 102 139 175 220 281 348 406
#     4  12  23  43  68 101 140 182 225 296 347 404
#     4  12  21  36  71 106 132 172 237 290 331 386
#
# _framework density 23.437173999999999
#
# number of rings (size 3 to 8) (size 9 to 14) (size 15 to 20)
#    0.000    1.000    6.667    1.500    2.333    0.000 
#    0.000    2.500    0.000    2.000    0.000    0.000 
#    0.000    0.000    0.000    0.000    0.000    0.000 
#
# Total GULP energy -297324.785536 kJ/mol
# GULP energy per Si atom -12388.532731 kJ/mol
# Density = 2.338383 g / cm^3
# Si number density = 23.437174 Si / 1000 Ang^3
#
#
#
# Elastic Constant Matrix: (Units=GPa)
#
#
# Indices 1 2 3 4 5 6 
#
# 1 169.9415 29.8718 5.1442 0.0000 -9.7101 0.0000
# 2 29.8718 81.7456 3.4978 0.0000 -1.1501 0.0000
# 3 5.1442 3.4978 38.9499 0.0000 14.7712 0.0000
# 4 0.0000 0.0000 0.0000 2.9926 0.0000 18.4199
# 5 -9.7101 -1.1501 14.7712 0.0000 43.0806 0.0000
# 6 0.0000 0.0000 0.0000 18.4199 0.0000 26.0020
#
#
#
# Elastic Compliance Matrix: (Units=1/GPa)
#
#
# Indices 1 2 3 4 5 6 
#
# 1 0.006429 -0.002266 -0.001347 0.000000 0.001851 0.000000
# 2 -0.002266 0.013103 -0.000939 0.000000 0.000161 0.000000
# 3 -0.001347 -0.000939 0.029956 0.000000 -0.010600 0.000000
# 4 0.000000 0.000000 0.000000 -0.099443 0.000000 0.070445
# 5 0.001851 0.000161 -0.010600 0.000000 0.027268 0.000000
# 6 0.000000 0.000000 0.000000 0.070445 0.000000 -0.011445
#
#
# Mechanical properties :
#
#
# Convention : Reuss Voigt Hill
#
# Bulk Modulus (GPa) = 24.76143 40.85164 32.80653
# Shear Modulus (GPa) = -432.30789 31.22327 -200.54231
#
# Velocity S-wave (km/s) = -13.59612 3.65391 -9.26022
# Velocity P-wave (km/s) = 15.35853 5.93881 10.01536
#
# Compressibility (1/GPa) = 0.04038539
#
# Stress axis : x y z
#
# Youngs Moduli (GPa) = 155.54133 76.31592 33.38212
#
# Poissons Ratio (x) = 0.17291 0.04498
# Poissons Ratio (y) = 0.35241 0.03133
# Poissons Ratio (z) = 0.20959 0.07162
#
# Static dielectric constant tensor:
#      x y z
#    x 5.440380 0.000000 0.110660 
#    y 0.000000 4.351370 0.000000 
#    z 0.110660 0.000000 4.431740 
# 
# 
# High freq. dielectric constant tensor:
#      x y z
#    x 1.961980 0.000000 0.003340 
#    y 0.000000 1.892140 0.000000 
#    z 0.003340 0.000000 1.936050 
# 
# From -- ./inp_files/153317.got.cif
#   From: 2010.06.25/outbox.cif.g09.slc.cpg/sg15_77_cif.got.tgz:153317.got - 2010.06.28 07:06:18.
