data_PCOD8135099
_publ_section_title
;
Structure prediction by ZEFSAII (Michael W. Deem and Ramdas Pophale) SiO2 
 PCOD8135099
Probable space group: C 2/C
;
_chemical_formula_sum "Si O2"
_cell_formula_units_Z 64
_cell_length_a 24.033251
_cell_length_b 12.661346
_cell_length_c 14.370406
_cell_angle_alpha 90.000000
_cell_angle_beta 134.664273
_cell_angle_gamma 90.000000
_cell_volume 3110.114320
_symmetry_space_group_name_H-M "C 2/C"
_symmetry_group_IT_number 15
_symmetry_cell_setting 'monoclinic'
loop_
_space_group_symop_operation_xyz
x,y,z
-x,y,1/2-z
-x,-y,-z
x,-y,1/2+z
1/2+x,1/2+y,z
1/2-x,1/2+y,1/2-z
1/2-x,1/2-y,-z
1/2+x,1/2-y,1/2+z
loop_
_atom_site_type_symbol
_atom_site_label
_atom_site_fract_x
_atom_site_fract_y
_atom_site_fract_z
Si Si1 0.261021 0.747160 0.751438
Si Si2 0.300977 0.568186 0.432225
Si Si3 0.068190 0.909618 0.266143
Si Si4 0.353462 0.986274 0.180576
Si Si5 0.159582 0.039533 0.706234
Si Si6 0.966759 0.331310 0.807501
Si Si7 0.314478 0.933278 0.933667
Si Si8 0.890652 0.392100 0.401443
O O1 0.244381 0.825280 0.646746
O O2 0.326605 0.663089 0.798832
O O3 0.297265 0.813438 0.880621
O O4 0.177928 0.694000 0.675428
O O5 0.354119 0.593623 0.581783
O O6 0.235406 0.482859 0.384259
O O7 0.351502 0.524414 0.403484
O O8 0.085112 0.972263 0.188963
O O9 0.046083 0.792426 0.211570
O O10 0.000000 0.962129 0.250000
O O11 0.406493 0.914548 0.310941
O O12 0.385807 0.105967 0.224666
O O13 0.357670 0.934384 0.083661
O O14 0.233012 0.994657 0.849310
O O15 0.000000 0.375275 0.750000
O O16 0.029010 0.349613 0.962470
O O17 0.366533 0.996732 0.920325
#
# Coordination Sequence:
#
# PCOD8135099 Si02
#       8
#     8   8   8   8   8   8   8   8
#     4  10  19  37  61  90 126 160 209 258 304 368
#     4  11  22  38  64  94 118 164 215 260 314 357
#     4  11  24  38  62  94 120 165 212 253 318 369
#     4  12  21  38  63  90 125 166 203 256 311 372
#     4  10  21  39  60  89 129 157 205 268 303 366
#     4  11  23  38  61  93 129 163 201 262 313 367
#     4  10  21  36  63  94 121 162 211 257 312 362
#     4  11  22  41  57  95 130 160 210 253 313 373
#
# _framework density 20.578023000000002
#
# number of rings (size 3 to 8) (size 9 to 14) (size 15 to 20)
#    0.000    1.250    6.250    2.625    1.750    2.000 
#    0.000    0.000    0.000    0.000    0.000    0.000 
#    0.000    0.000    0.000    0.000    0.000    0.000 
#
# Total GULP energy -396679.577029 kJ/mol
# GULP energy per Si atom -12396.236782 kJ/mol
# Density = 2.053119 g / cm^3
# Si number density = 20.578023 Si / 1000 Ang^3
#
#
#
# Elastic Constant Matrix: (Units=GPa)
#
#
# Indices 1 2 3 4 5 6 
#
# 1 101.5251 24.6953 27.9754 0.0000 -6.2243 0.0000
# 2 24.6953 64.1599 21.8453 0.0000 -8.7963 0.0000
# 3 27.9754 21.8453 105.8698 0.0000 -19.4962 0.0000
# 4 0.0000 0.0000 0.0000 27.8440 0.0000 0.4705
# 5 -6.2243 -8.7963 -19.4962 0.0000 29.5235 0.0000
# 6 0.0000 0.0000 0.0000 0.4705 0.0000 20.8347
#
#
#
# Elastic Compliance Matrix: (Units=1/GPa)
#
#
# Indices 1 2 3 4 5 6 
#
# 1 0.011348 -0.003615 -0.002289 0.000000 -0.000196 0.000000
# 2 -0.003615 0.018166 -0.002205 0.000000 0.003194 0.000000
# 3 -0.002289 -0.002205 0.011721 0.000000 0.006601 0.000000
# 4 0.000000 0.000000 0.000000 0.035928 0.000000 -0.000811
# 5 -0.000196 0.003194 0.006601 0.000000 0.039140 0.000000
# 6 0.000000 0.000000 0.000000 -0.000811 0.000000 0.048015
#
#
# Mechanical properties :
#
#
# Convention : Reuss Voigt Hill
#
# Bulk Modulus (GPa) = 39.97291 46.73186 43.35239
# Shear Modulus (GPa) = 26.47245 28.77637 27.62441
#
# Velocity S-wave (km/s) = 3.59059 3.74358 3.66788
# Velocity P-wave (km/s) = 6.05450 6.43776 6.24907
#
# Compressibility (1/GPa) = 0.02501694
#
# Stress axis : x y z
#
# Youngs Moduli (GPa) = 88.12242 55.04692 85.31845
#
# Poissons Ratio (x) = 0.19902 0.19527
# Poissons Ratio (y) = 0.31860 0.18812
# Poissons Ratio (z) = 0.20169 0.12137
#
# Static dielectric constant tensor:
#      x y z
#    x 3.874350 0.000000 -0.080630 
#    y 0.000000 3.551530 0.000000 
#    z -0.080630 0.000000 3.746160 
# 
# 
# High freq. dielectric constant tensor:
#      x y z
#    x 1.802760 0.000000 -0.011690 
#    y 0.000000 1.785200 0.000000 
#    z -0.011690 0.000000 1.805460 
# 
# From -- ./inp_files/177874.got.cif
#   From: 2010.06.25/outbox.cif.g09.slc.cpg/sg15_89_cif.got.tgz:177874.got - 2010.06.28 07:06:18.
