data_PCOD8135768
_publ_section_title
;
Structure prediction by ZEFSAII (Michael W. Deem and Ramdas Pophale) SiO2 
 PCOD8135768
Probable space group: C 2/C
;
_chemical_formula_sum "Si O2"
_cell_formula_units_Z 60
_cell_length_a 16.588190
_cell_length_b 8.591971
_cell_length_c 22.147578
_cell_angle_alpha 90.000000
_cell_angle_beta 117.864312
_cell_angle_gamma 90.000000
_cell_volume 2790.604378
_symmetry_space_group_name_H-M "C 2/C"
_symmetry_group_IT_number 15
_symmetry_cell_setting 'monoclinic'
loop_
_space_group_symop_operation_xyz
x,y,z
-x,y,1/2-z
-x,-y,-z
x,-y,1/2+z
1/2+x,1/2+y,z
1/2-x,1/2+y,1/2-z
1/2-x,1/2-y,-z
1/2+x,1/2-y,1/2+z
loop_
_atom_site_type_symbol
_atom_site_label
_atom_site_fract_x
_atom_site_fract_y
_atom_site_fract_z
Si Si1 0.057226 0.886332 0.457399
Si Si2 0.500000 0.631259 0.750000
Si Si3 0.467420 0.376564 0.647143
Si Si4 0.310420 0.311925 0.203436
Si Si5 0.317510 0.808709 0.573315
Si Si6 0.136303 0.066219 0.586741
Si Si7 0.703030 0.830110 0.426272
Si Si8 0.669787 0.393749 0.720175
O O1 0.086403 0.762657 0.416437
O O2 0.958523 0.836151 0.449366
O O3 0.042250 0.059420 0.424138
O O4 0.130417 0.918145 0.537293
O O5 0.448439 0.523400 0.683500
O O6 0.581780 0.734268 0.749605
O O7 0.389048 0.249655 0.630156
O O8 0.570474 0.310819 0.696474
O O9 0.284721 0.257021 0.126911
O O10 0.301163 0.498762 0.212213
O O11 0.248312 0.228407 0.231909
O O12 0.250000 0.750000 0.500000
O O13 0.326119 0.993002 0.572580
O O14 0.220602 0.177459 0.599152
O O15 0.155302 0.012427 0.660555
O O16 0.750000 0.750000 0.500000
#
# Coordination Sequence:
#
# PCOD8135768 Si02
#       8
#     8   4   8   8   8   8   8   8
#     4  10  19  39  68  90 128 180 223 267 337 404
#     4  10  22  42  72  88 132 190 224 264 352 404
#     4  10  21  40  63  94 131 179 222 268 336 402
#     4  11  23  45  67  98 134 180 226 277 338 412
#     4  12  22  42  70 101 132 177 230 278 340 402
#     4  10  20  38  67  91 132 174 216 272 335 394
#     4  12  23  40  66 104 138 172 225 286 343 396
#     4  10  23  44  64  93 134 178 223 271 343 402
#
# _framework density 21.500720000000001
#
# number of rings (size 3 to 8) (size 9 to 14) (size 15 to 20)
#    0.000    1.333    5.333    0.000    0.000    2.133 
#    2.400    2.000    0.000    0.000    0.000    0.000 
#    0.000    0.000    0.000    0.000    0.000    0.000 
#
# Total GULP energy -371663.097310 kJ/mol
# GULP energy per Si atom -12388.769910 kJ/mol
# Density = 2.145178 g / cm^3
# Si number density = 21.500720 Si / 1000 Ang^3
#
#
#
# Elastic Constant Matrix: (Units=GPa)
#
#
# Indices 1 2 3 4 5 6 
#
# 1 170.9178 59.9325 22.1087 0.0000 23.7528 0.0000
# 2 59.9325 88.5554 44.6837 0.0000 17.4377 0.0000
# 3 22.1087 44.6837 82.1876 0.0000 5.8608 0.0000
# 4 0.0000 0.0000 0.0000 32.5284 0.0000 3.3754
# 5 23.7528 17.4377 5.8608 0.0000 35.8598 0.0000
# 6 0.0000 0.0000 0.0000 3.3754 0.0000 39.2411
#
#
#
# Elastic Compliance Matrix: (Units=1/GPa)
#
#
# Indices 1 2 3 4 5 6 
#
# 1 0.007993 -0.005325 0.000949 0.000000 -0.002860 0.000000
# 2 -0.005325 0.020633 -0.009431 0.000000 -0.004965 0.000000
# 3 0.000949 -0.009431 0.016955 0.000000 0.001186 0.000000
# 4 0.000000 0.000000 0.000000 0.031019 0.000000 -0.002668
# 5 -0.002860 -0.004965 0.001186 0.000000 0.032001 0.000000
# 6 0.000000 0.000000 0.000000 -0.002668 0.000000 0.025713
#
#
# Mechanical properties :
#
#
# Convention : Reuss Voigt Hill
#
# Bulk Modulus (GPa) = 55.66071 66.12342 60.89206
# Shear Modulus (GPa) = 29.77681 35.85492 32.81587
#
# Velocity S-wave (km/s) = 3.72549 4.08807 3.91099
# Velocity P-wave (km/s) = 6.66706 7.28725 6.98404
#
# Compressibility (1/GPa) = 0.01796600
#
# Stress axis : x y z
#
# Youngs Moduli (GPa) = 125.11476 48.46717 58.98015
#
# Poissons Ratio (x) = 0.25809 -0.05597
# Poissons Ratio (y) = 0.66623 0.55624
# Poissons Ratio (z) = -0.11873 0.45710
#
# Static dielectric constant tensor:
#      x y z
#    x 4.260280 0.000000 0.176510 
#    y 0.000000 3.410920 0.000000 
#    z 0.176510 0.000000 3.870040 
# 
# 
# High freq. dielectric constant tensor:
#      x y z
#    x 1.874920 0.000000 -0.004230 
#    y 0.000000 1.791440 0.000000 
#    z -0.004230 0.000000 1.851050 
# 
# From -- ./inp_files/276570.got.cif
#   From: 2010.06.25/outbox.cif.g09.slc.cpg/sg15_139_cif.got.tgz:276570.got - 2010.06.28 07:06:18.
