data_PCOD8135028
_publ_section_title
;
Structure prediction by ZEFSAII (Michael W. Deem and Ramdas Pophale) SiO2 
 PCOD8135028
Probable space group: C 2/C
;
_chemical_formula_sum "Si O2"
_cell_formula_units_Z 56
_cell_length_a 19.035342
_cell_length_b 9.111733
_cell_length_c 19.015960
_cell_angle_alpha 90.000000
_cell_angle_beta 63.261728
_cell_angle_gamma 90.000000
_cell_volume 2945.546878
_symmetry_space_group_name_H-M "C 2/C"
_symmetry_group_IT_number 15
_symmetry_cell_setting 'monoclinic'
loop_
_space_group_symop_operation_xyz
x,y,z
-x,y,1/2-z
-x,-y,-z
x,-y,1/2+z
1/2+x,1/2+y,z
1/2-x,1/2+y,1/2-z
1/2-x,1/2-y,-z
1/2+x,1/2-y,1/2+z
loop_
_atom_site_type_symbol
_atom_site_label
_atom_site_fract_x
_atom_site_fract_y
_atom_site_fract_z
Si Si1 0.722322 0.583270 0.512891
Si Si2 0.471178 0.041194 0.339184
Si Si3 0.139292 0.433436 0.793418
Si Si4 0.319562 0.899444 0.360015
Si Si5 0.104897 0.888409 0.262417
Si Si6 0.940247 0.857167 0.376421
Si Si7 0.233409 0.924018 0.651257
O O1 0.750000 0.750000 0.500000
O O2 0.758012 0.487060 0.434950
O O3 0.627038 0.570271 0.544767
O O4 0.746529 0.526561 0.578595
O O5 0.500000 0.098252 0.250000
O O6 0.406628 0.912343 0.357667
O O7 0.551060 0.997747 0.345169
O O8 0.432903 0.182116 0.393756
O O9 0.183202 0.535061 0.716961
O O10 0.140279 0.270044 0.762297
O O11 0.182483 0.424089 0.848430
O O12 0.294700 0.731752 0.365883
O O13 0.079001 0.896578 0.194206
O O14 0.029837 0.915994 0.348751
O O15 0.171520 0.014288 0.237754
#
# Coordination Sequence:
#
# PCOD8135028 Si02
#       7
#     8   8   8   8   8   8   8
#     4  11  21  36  59  81 112 156 194 226 281 359
#     4   9  15  32  58  81 105 149 196 232 272 341
#     4  10  19  37  60  82 113 150 192 233 289 342
#     4  11  20  36  57  88 119 146 188 245 288 342
#     4   9  16  33  56  78 109 143 188 230 275 337
#     4   9  14  31  57  81  95 144 199 222 255 341
#     4  11  23  34  56  92 115 141 188 250 295 324
#
# _framework density 19.011749999999999
#
# number of rings (size 3 to 8) (size 9 to 14) (size 15 to 20)
#    0.000    2.000    5.714    2.143    0.000    0.000 
#   15.429    0.714    0.000    7.714    0.000    0.000 
#    0.000    0.000    0.000    0.000    0.000    0.000 
#
# Total GULP energy -346876.775242 kJ/mol
# GULP energy per Si atom -12388.456259 kJ/mol
# Density = 1.896848 g / cm^3
# Si number density = 19.011750 Si / 1000 Ang^3
#
#
#
# Elastic Constant Matrix: (Units=GPa)
#
#
# Indices 1 2 3 4 5 6 
#
# 1 110.0965 45.7273 32.8877 0.0000 -11.7818 0.0000
# 2 45.7273 105.8767 40.0169 -0.0001 -9.1808 -0.0001
# 3 32.8877 40.0169 74.7589 0.0000 -17.9382 0.0000
# 4 0.0000 -0.0001 0.0000 12.0468 0.0000 -4.3237
# 5 -11.7818 -9.1808 -17.9382 0.0000 20.9740 0.0000
# 6 0.0000 -0.0001 0.0000 -4.3237 0.0000 7.7698
#
#
#
# Elastic Compliance Matrix: (Units=1/GPa)
#
#
# Indices 1 2 3 4 5 6 
#
# 1 0.011725 -0.003918 -0.002380 0.000000 0.002835 0.000000
# 2 -0.003918 0.013151 -0.005615 0.000000 -0.001247 0.000000
# 3 -0.002380 -0.005615 0.020784 0.000000 0.013981 0.000000
# 4 0.000000 0.000000 0.000000 0.103726 0.000000 0.057720
# 5 0.002835 -0.001247 0.013981 0.000000 0.060682 0.000000
# 6 0.000000 0.000000 0.000000 0.057720 0.000000 0.160822
#
#
# Mechanical properties :
#
#
# Convention : Reuss Voigt Hill
#
# Bulk Modulus (GPa) = 45.80303 58.66623 52.23463
# Shear Modulus (GPa) = 12.43798 19.63147 16.03472
#
# Velocity S-wave (km/s) = 2.56056 3.21689 2.90730
# Velocity P-wave (km/s) = 5.73465 6.68750 6.22932
#
# Compressibility (1/GPa) = 0.02183262
#
# Stress axis : x y z
#
# Youngs Moduli (GPa) = 85.28911 76.03741 48.11477
#
# Poissons Ratio (x) = 0.29794 0.11452
# Poissons Ratio (y) = 0.33420 0.27017
# Poissons Ratio (z) = 0.20300 0.42696
#
# Static dielectric constant tensor:
#      x y z
#    x 3.917310 0.000000 -0.597720 
#    y 0.000000 3.337070 0.000000 
#    z -0.597720 0.000000 3.718390 
# 
# 
# High freq. dielectric constant tensor:
#      x y z
#    x 1.736410 0.000000 -0.031360 
#    y 0.000000 1.725450 0.000000 
#    z -0.031360 0.000000 1.716980 
# 
# From -- ./inp_files/247338.got.cif
#   From: 2010.06.25/outbox.cif.g09.slc.cpg/sg15_124_cif.got.tgz:247338.got - 2010.06.28 07:06:18.
