data_PCOD8135065
_publ_section_title
;
Structure prediction by ZEFSAII (Michael W. Deem and Ramdas Pophale) SiO2 
 PCOD8135065
Probable space group: C 2/C
;
_chemical_formula_sum "Si O2"
_cell_formula_units_Z 52
_cell_length_a 11.948701
_cell_length_b 16.232452
_cell_length_c 28.543154
_cell_angle_alpha 90.000000
_cell_angle_beta 151.649467
_cell_angle_gamma 90.000000
_cell_volume 2628.915067
_symmetry_space_group_name_H-M "C 2/C"
_symmetry_group_IT_number 15
_symmetry_cell_setting 'monoclinic'
loop_
_space_group_symop_operation_xyz
x,y,z
-x,y,1/2-z
-x,-y,-z
x,-y,1/2+z
1/2+x,1/2+y,z
1/2-x,1/2+y,1/2-z
1/2-x,1/2-y,-z
1/2+x,1/2-y,1/2+z
loop_
_atom_site_type_symbol
_atom_site_label
_atom_site_fract_x
_atom_site_fract_y
_atom_site_fract_z
Si Si1 0.381977 0.517636 0.157089
Si Si2 0.424160 0.311051 0.955430
Si Si3 0.276322 0.983795 0.229131
Si Si4 0.975470 0.625182 0.967664
Si Si5 0.866434 0.402101 0.076234
Si Si6 0.063696 0.951437 0.476393
Si Si7 0.500000 0.886238 0.750000
O O1 0.500000 0.537650 0.250000
O O2 0.580040 0.521376 0.190614
O O3 0.260115 0.428129 0.112426
O O4 0.190270 0.587621 0.076091
O O5 0.427062 0.215675 0.969966
O O6 0.223919 0.329058 0.843119
O O7 0.673200 0.340490 0.025949
O O8 0.364373 0.359295 0.981927
O O9 0.448121 0.057776 0.276548
O O10 0.423818 0.912116 0.308948
O O11 0.160221 0.944687 0.140062
O O12 0.032401 0.635549 0.933873
O O13 0.768264 0.494231 0.027210
O O14 0.000000 0.000000 0.500000
#
# Coordination Sequence:
#
# PCOD8135065 Si02
#       7
#     8   8   8   8   8   8   4
#     4  11  24  44  66  87 120 177 223 255 315 395
#     4  11  23  37  63  98 129 161 208 275 331 369
#     4  12  21  38  68  94 122 172 217 257 318 398
#     4  11  24  43  64  88 130 167 218 268 314 389
#     4  11  20  38  66  91 128 169 207 259 322 387
#     4  10  19  37  60  94 125 162 206 257 324 376
#     4  12  20  36  66  98 124 156 214 272 322 382
#
# _framework density 19.780023
#
# number of rings (size 3 to 8) (size 9 to 14) (size 15 to 20)
#    0.000    0.923    7.692    1.385    1.077    0.000 
#    2.769    0.769    0.000    0.000    0.000    0.000 
#    0.000    0.000    0.000    0.000    0.000    0.000 
#
# Total GULP energy -322463.592951 kJ/mol
# GULP energy per Si atom -12402.445883 kJ/mol
# Density = 1.973500 g / cm^3
# Si number density = 19.780023 Si / 1000 Ang^3
#
#
#
# Elastic Constant Matrix: (Units=GPa)
#
#
# Indices 1 2 3 4 5 6 
#
# 1 73.8524 19.2839 19.0533 -0.0001 0.5503 -0.0001
# 2 19.2839 113.9643 31.1903 0.0010 -12.5886 0.0000
# 3 19.0533 31.1903 141.2902 0.0030 -21.0431 0.0011
# 4 -0.0001 0.0010 0.0030 17.1277 0.0006 -1.3426
# 5 0.5503 -12.5886 -21.0431 0.0006 30.3607 0.0003
# 6 -0.0001 0.0000 0.0011 -1.3426 0.0003 20.9934
#
#
#
# Elastic Compliance Matrix: (Units=1/GPa)
#
#
# Indices 1 2 3 4 5 6 
#
# 1 0.014620 -0.002242 -0.001845 0.000001 -0.002473 0.000000
# 2 -0.002242 0.009889 -0.001409 0.000000 0.003164 0.000000
# 3 -0.001845 -0.001409 0.008425 -0.000002 0.005289 -0.000001
# 4 0.000001 0.000000 -0.000002 0.058679 -0.000003 0.003753
# 5 -0.002473 0.003164 0.005289 -0.000003 0.037960 -0.000001
# 6 0.000000 0.000000 -0.000001 0.003753 -0.000001 0.047874
#
#
# Mechanical properties :
#
#
# Convention : Reuss Voigt Hill
#
# Bulk Modulus (GPa) = 45.57547 52.01800 48.79673
# Shear Modulus (GPa) = 25.54209 31.00164 28.27186
#
# Velocity S-wave (km/s) = 3.59738 3.96323 3.78473
# Velocity P-wave (km/s) = 6.35185 6.87738 6.61983
#
# Compressibility (1/GPa) = 0.02194163
#
# Stress axis : x y z
#
# Youngs Moduli (GPa) = 68.39751 101.11877 118.69096
#
# Poissons Ratio (x) = 0.22673 0.21899
# Poissons Ratio (y) = 0.15336 0.16729
# Poissons Ratio (z) = 0.12619 0.14253
#
# Static dielectric constant tensor:
#      x y z
#    x 3.701760 0.000000 -0.014050 
#    y 0.000000 3.560670 0.000000 
#    z -0.014050 0.000000 3.857350 
# 
# 
# High freq. dielectric constant tensor:
#      x y z
#    x 1.766970 0.000000 0.001730 
#    y 0.000000 1.743930 0.000000 
#    z 0.001730 0.000000 1.792460 
# 
# From -- ./inp_files/293437.got.cif
#   From: 2010.06.25/outbox.cif.g09.slc.cpg/sg15_147_cif.got.tgz:293437.got - 2010.06.28 07:06:18.
