data_PCOD8135860
_publ_section_title
;
Structure prediction by ZEFSAII (Michael W. Deem and Ramdas Pophale) SiO2 
 PCOD8135860
Probable space group: C 2/C
;
_chemical_formula_sum "Si O2"
_cell_formula_units_Z 48
_cell_length_a 8.977406
_cell_length_b 14.162419
_cell_length_c 16.641850
_cell_angle_alpha 90.000000
_cell_angle_beta 92.253717
_cell_angle_gamma 90.000000
_cell_volume 2114.237864
_symmetry_space_group_name_H-M "C 2/C"
_symmetry_group_IT_number 15
_symmetry_cell_setting 'monoclinic'
loop_
_space_group_symop_operation_xyz
x,y,z
-x,y,1/2-z
-x,-y,-z
x,-y,1/2+z
1/2+x,1/2+y,z
1/2-x,1/2+y,1/2-z
1/2-x,1/2-y,-z
1/2+x,1/2-y,1/2+z
loop_
_atom_site_type_symbol
_atom_site_label
_atom_site_fract_x
_atom_site_fract_y
_atom_site_fract_z
Si Si1 0.212282 0.214178 0.679499
Si Si2 0.455554 0.851324 0.928109
Si Si3 0.742067 0.836408 0.834111
Si Si4 0.831730 0.055013 0.048204
Si Si5 0.515121 0.750625 0.413737
Si Si6 0.394672 0.479863 0.370031
O O1 0.117756 0.254657 0.603891
O O2 0.182617 0.281401 0.754937
O O3 0.387569 0.214586 0.660695
O O4 0.149209 0.108079 0.687771
O O5 0.602822 0.875075 0.881790
O O6 0.334543 0.936156 0.918246
O O7 0.490837 0.834748 0.022173
O O8 0.843732 0.762959 0.885011
O O9 0.842254 0.928731 0.817384
O O10 0.915791 0.155546 0.047688
O O11 0.816096 0.019347 0.956179
O O12 0.927031 0.984557 0.107586
#
# Coordination Sequence:
#
# PCOD8135860 Si02
#       6
#     8   8   8   8   8   8
#     4  11  21  43  65  90 131 184 217 268 333 398
#     4  11  20  40  64  96 129 174 214 279 329 388
#     4  11  25  37  62 100 143 162 219 276 339 401
#     4   9  18  37  70  95 119 164 234 273 315 396
#     4  10  19  40  66  92 124 183 221 258 322 410
#     4  10  20  40  67  95 125 171 226 272 324 404
#
# _framework density 22.703216000000001
#
# number of rings (size 3 to 8) (size 9 to 14) (size 15 to 20)
#    0.000    1.667    3.333    2.500    0.000    0.667 
#    0.000   13.333    0.000    0.000    0.000    0.000 
#    0.000    0.000    0.000    0.000    0.000    0.000 
#
# Total GULP energy -297538.176233 kJ/mol
# GULP energy per Si atom -12397.424010 kJ/mol
# Density = 2.265154 g / cm^3
# Si number density = 22.703216 Si / 1000 Ang^3
#
#
#
# Elastic Constant Matrix: (Units=GPa)
#
#
# Indices 1 2 3 4 5 6 
#
# 1 139.7052 32.1137 35.2153 0.0000 -5.9175 0.0000
# 2 32.1137 100.7179 35.7578 0.0000 15.5663 0.0000
# 3 35.2153 35.7578 70.1480 0.0000 -0.0677 0.0000
# 4 0.0000 0.0000 0.0000 30.4536 0.0000 9.0897
# 5 -5.9175 15.5663 -0.0677 0.0000 32.3140 0.0000
# 6 0.0000 0.0000 0.0000 9.0897 0.0000 35.3896
#
#
#
# Elastic Compliance Matrix: (Units=1/GPa)
#
#
# Indices 1 2 3 4 5 6 
#
# 1 0.008540 -0.001937 -0.003297 0.000000 0.002490 0.000000
# 2 -0.001937 0.013780 -0.006059 0.000000 -0.007006 0.000000
# 3 -0.003297 -0.006059 0.019002 0.000000 0.002355 0.000000
# 4 0.000000 0.000000 0.000000 0.035563 0.000000 -0.009134
# 5 0.002490 -0.007006 0.002355 0.000000 0.034782 0.000000
# 6 0.000000 0.000000 0.000000 -0.009134 0.000000 0.030603
#
#
# Mechanical properties :
#
#
# Convention : Reuss Voigt Hill
#
# Bulk Modulus (GPa) = 53.37514 57.41608 55.39561
# Shear Modulus (GPa) = 29.22250 33.46372 31.34311
#
# Velocity S-wave (km/s) = 3.59158 3.84339 3.71962
# Velocity P-wave (km/s) = 6.38438 6.71120 6.54983
#
# Compressibility (1/GPa) = 0.01873531
#
# Stress axis : x y z
#
# Youngs Moduli (GPa) = 117.09837 72.56826 52.62733
#
# Poissons Ratio (x) = 0.14057 0.17353
# Poissons Ratio (y) = 0.22684 0.31885
# Poissons Ratio (z) = 0.38610 0.43967
#
# Static dielectric constant tensor:
#      x y z
#    x 4.219180 0.000000 0.113800 
#    y 0.000000 3.832620 0.000000 
#    z 0.113800 0.000000 3.794170 
# 
# 
# High freq. dielectric constant tensor:
#      x y z
#    x 1.900550 0.000000 0.008440 
#    y 0.000000 1.874520 0.000000 
#    z 0.008440 0.000000 1.877440 
# 
# From -- ./inp_files/189267.got.cif
#   From: 2010.06.25/outbox.cif.g09.slc.cpg/sg15_95_cif.got.tgz:189267.got - 2010.06.28 07:06:18.
