data_PCOD8135446
_publ_section_title
;
Structure prediction by ZEFSAII (Michael W. Deem and Ramdas Pophale) SiO2 
 PCOD8135446
Probable space group: C 2/C
;
_chemical_formula_sum "Si O2"
_cell_formula_units_Z 40
_cell_length_a 18.863767
_cell_length_b 9.994878
_cell_length_c 14.250319
_cell_angle_alpha 90.000000
_cell_angle_beta 51.480465
_cell_angle_gamma 90.000000
_cell_volume 2102.117819
_symmetry_space_group_name_H-M "C 2/C"
_symmetry_group_IT_number 15
_symmetry_cell_setting 'monoclinic'
loop_
_space_group_symop_operation_xyz
x,y,z
-x,y,1/2-z
-x,-y,-z
x,-y,1/2+z
1/2+x,1/2+y,z
1/2-x,1/2+y,1/2-z
1/2-x,1/2-y,-z
1/2+x,1/2-y,1/2+z
loop_
_atom_site_type_symbol
_atom_site_label
_atom_site_fract_x
_atom_site_fract_y
_atom_site_fract_z
Si Si1 0.605152 0.618803 0.484428
Si Si2 0.298188 0.832415 0.766594
Si Si3 0.598645 0.160392 0.131027
Si Si4 0.416052 0.671718 0.543201
Si Si5 0.906759 0.540725 0.028895
O O1 0.689692 0.676038 0.354934
O O2 0.600462 0.688062 0.590176
O O3 0.516565 0.653680 0.499318
O O4 0.614245 0.458219 0.490874
O O5 0.327283 0.857193 0.849944
O O6 0.345872 0.696306 0.688216
O O7 0.330926 0.956480 0.674095
O O8 0.500000 0.122925 0.250000
O O9 0.624391 0.059745 0.025880
O O10 0.415797 0.806820 0.479741
O O11 0.000000 0.500000 0.000000
#
# Coordination Sequence:
#
# PCOD8135446 Si02
#       5
#     8   8   8   8   8
#     4  11  21  38  63  89 126 157 207 259 302 371
#     4  10  23  38  65  88 124 165 209 242 319 366
#     4  12  20  39  65  91 122 164 211 249 305 372
#     4   9  22  39  60  90 123 160 201 254 313 351
#     4  10  19  38  63  85 122 161 206 247 296 371
#
# _framework density 19.028431000000001
#
# number of rings (size 3 to 8) (size 9 to 14) (size 15 to 20)
#    1.200    0.400    6.000    0.600    2.800    0.000 
#    0.000    2.000    4.400    0.000    0.000    0.000 
#    0.000    0.000    0.000    0.000    0.000    0.000 
#
# Total GULP energy -247819.606955 kJ/mol
# GULP energy per Si atom -12390.980348 kJ/mol
# Density = 1.898512 g / cm^3
# Si number density = 19.028431 Si / 1000 Ang^3
#
#
#
# Elastic Constant Matrix: (Units=GPa)
#
#
# Indices 1 2 3 4 5 6 
#
# 1 59.6436 41.1251 46.9370 0.0000 -4.7530 0.0000
# 2 41.1251 138.4525 36.9833 0.0000 18.5966 0.0000
# 3 46.9370 36.9833 94.2698 0.0000 -2.0445 0.0000
# 4 0.0000 0.0000 0.0000 37.5760 0.0000 8.8183
# 5 -4.7530 18.5966 -2.0445 0.0000 43.3657 0.0000
# 6 0.0000 0.0000 0.0000 8.8183 0.0000 21.1027
#
#
#
# Elastic Compliance Matrix: (Units=1/GPa)
#
#
# Indices 1 2 3 4 5 6 
#
# 1 0.032475 -0.006870 -0.013347 0.000000 0.005876 0.000000
# 2 -0.006870 0.010130 -0.000664 0.000000 -0.005128 0.000000
# 3 -0.013347 -0.000664 0.017506 0.000000 -0.000353 0.000000
# 4 0.000000 0.000000 0.000000 0.029506 0.000000 -0.012330
# 5 0.005876 -0.005128 -0.000353 0.000000 0.025886 0.000000
# 6 0.000000 0.000000 0.000000 -0.012330 0.000000 0.052540
#
#
# Mechanical properties :
#
#
# Convention : Reuss Voigt Hill
#
# Bulk Modulus (GPa) = 54.50164 60.27296 57.38730
# Shear Modulus (GPa) = 23.15652 31.56358 27.36005
#
# Velocity S-wave (km/s) = 3.49226 4.07720 3.79601
# Velocity P-wave (km/s) = 6.70563 7.34226 7.03116
#
# Compressibility (1/GPa) = 0.01834807
#
# Stress axis : x y z
#
# Youngs Moduli (GPa) = 30.79300 98.71920 57.12282
#
# Poissons Ratio (x) = 0.67824 0.76239
# Poissons Ratio (y) = 0.21156 0.03796
# Poissons Ratio (z) = 0.41098 0.06560
#
# Static dielectric constant tensor:
#      x y z
#    x 3.267310 0.000000 -0.103260 
#    y 0.000000 3.809570 0.000000 
#    z -0.103260 0.000000 3.502150 
# 
# 
# High freq. dielectric constant tensor:
#      x y z
#    x 1.722410 0.000000 -0.023530 
#    y 0.000000 1.740620 0.000000 
#    z -0.023530 0.000000 1.733510 
# 
# From -- ./inp_files/166851.got.cif
#   From: 2010.06.25/outbox.cif.g09.slc.cpg/sg15_84_cif.got.tgz:166851.got - 2010.06.28 07:06:18.
