data_PCOD8135043
_publ_section_title
;
Structure prediction by ZEFSAII (Michael W. Deem and Ramdas Pophale) SiO2 
 PCOD8135043
Probable space group: C 2/C
;
_chemical_formula_sum "Si O2"
_cell_formula_units_Z 36
_cell_length_a 7.434463
_cell_length_b 22.530187
_cell_length_c 10.303499
_cell_angle_alpha 90.000000
_cell_angle_beta 94.373360
_cell_angle_gamma 90.000000
_cell_volume 1720.809365
_symmetry_space_group_name_H-M "C 2/C"
_symmetry_group_IT_number 15
_symmetry_cell_setting 'monoclinic'
loop_
_space_group_symop_operation_xyz
x,y,z
-x,y,1/2-z
-x,-y,-z
x,-y,1/2+z
1/2+x,1/2+y,z
1/2-x,1/2+y,1/2-z
1/2-x,1/2-y,-z
1/2+x,1/2-y,1/2+z
loop_
_atom_site_type_symbol
_atom_site_label
_atom_site_fract_x
_atom_site_fract_y
_atom_site_fract_z
Si Si1 0.597744 0.373681 0.884647
Si Si2 0.275169 0.372946 0.069677
Si Si3 0.883234 0.994895 0.121305
Si Si4 0.000000 0.797901 0.250000
Si Si5 0.460697 0.816047 0.889288
O O1 0.500000 0.349928 0.750000
O O2 0.689219 0.438450 0.859286
O O3 0.762953 0.331452 0.930665
O O4 0.455548 0.372288 0.992645
O O5 0.231253 0.442993 0.095158
O O6 0.326431 0.338640 0.205805
O O7 0.106894 0.339908 0.998383
O O8 0.000000 0.973684 0.250000
O O9 0.000000 0.000000 0.000000
O O10 0.966866 0.755631 0.374486
O O11 0.500000 0.845716 0.750000
#
# Coordination Sequence:
#
# PCOD8135043 Si02
#       5
#     8   8   8   4   8
#     4  10  19  37  60  86 115 152 196 241 293 348
#     4  11  20  39  61  82 120 153 195 247 293 347
#     4   9  19  34  62  89 114 158 197 241 304 354
#     4  10  22  38  58  86 122 160 190 242 302 342
#     4  10  22  36  56  87 112 155 201 234 287 358
#
# _framework density 20.920387999999999
#
# number of rings (size 3 to 8) (size 9 to 14) (size 15 to 20)
#    0.667    1.333    3.333    0.667    0.000    1.778 
#    0.000    3.333    0.000    0.000    0.000    0.000 
#    0.000    0.000    0.000    0.000    0.000    0.000 
#
# Total GULP energy -223000.818876 kJ/mol
# GULP energy per Si atom -12388.934382 kJ/mol
# Density = 2.087277 g / cm^3
# Si number density = 20.920388 Si / 1000 Ang^3
#
#
#
# Elastic Constant Matrix: (Units=GPa)
#
#
# Indices 1 2 3 4 5 6 
#
# 1 84.2956 30.5164 18.3309 0.0000 22.5475 0.0000
# 2 30.5164 109.7936 13.7115 0.0000 24.5540 0.0000
# 3 18.3309 13.7115 90.3810 0.0000 27.9520 0.0000
# 4 0.0000 0.0000 0.0000 29.4538 0.0000 6.6721
# 5 22.5475 24.5540 27.9520 0.0000 36.3462 0.0000
# 6 0.0000 0.0000 0.0000 6.6721 0.0000 8.7115
#
#
#
# Elastic Compliance Matrix: (Units=1/GPa)
#
#
# Indices 1 2 3 4 5 6 
#
# 1 0.014760 -0.002442 -0.000396 0.000000 -0.007202 0.000000
# 2 -0.002442 0.011178 0.000874 0.000000 -0.006709 0.000000
# 3 -0.000396 0.000874 0.014588 0.000000 -0.011564 0.000000
# 4 0.000000 0.000000 0.000000 0.041078 0.000000 -0.031462
# 5 -0.007202 -0.006709 -0.011564 0.000000 0.045407 0.000000
# 6 0.000000 0.000000 0.000000 -0.031462 0.000000 0.138888
#
#
# Mechanical properties :
#
#
# Convention : Reuss Voigt Hill
#
# Bulk Modulus (GPa) = 27.32331 45.50975 36.41653
# Shear Modulus (GPa) = 17.72887 29.69638 23.71262
#
# Velocity S-wave (km/s) = 2.91425 3.77171 3.37036
# Velocity P-wave (km/s) = 4.94093 6.38504 5.70883
#
# Compressibility (1/GPa) = 0.03659879
#
# Stress axis : x y z
#
# Youngs Moduli (GPa) = 67.75251 89.46187 68.54770
#
# Poissons Ratio (x) = 0.21849 0.02712
# Poissons Ratio (y) = 0.16547 -0.05993
# Poissons Ratio (z) = 0.02681 -0.07822
#
# Static dielectric constant tensor:
#      x y z
#    x 3.209320 0.000000 0.117450 
#    y 0.000000 4.332080 0.000000 
#    z 0.117450 0.000000 3.748000 
# 
# 
# High freq. dielectric constant tensor:
#      x y z
#    x 1.765630 0.000000 0.013810 
#    y 0.000000 1.838340 0.000000 
#    z 0.013810 0.000000 1.824310 
# 
# From -- ./inp_files/72922.got.cif
#   From: 2010.06.25/outbox.cif.g09.slc.cpg/sg15_37_cif.got.tgz:72922.got - 2010.06.28 07:06:18.
