data_PCOD8135965
_publ_section_title
;
Structure prediction by ZEFSAII (Michael W. Deem and Ramdas Pophale) SiO2 
 PCOD8135965
Probable space group: C 2/C
;
_chemical_formula_sum "Si O2"
_cell_formula_units_Z 48
_cell_length_a 9.015496
_cell_length_b 16.245627
_cell_length_c 15.950374
_cell_angle_alpha 90.000000
_cell_angle_beta 78.686842
_cell_angle_gamma 90.000000
_cell_volume 2290.737963
_symmetry_space_group_name_H-M "C 2/C"
_symmetry_group_IT_number 15
_symmetry_cell_setting 'monoclinic'
loop_
_space_group_symop_operation_xyz
x,y,z
-x,y,1/2-z
-x,-y,-z
x,-y,1/2+z
1/2+x,1/2+y,z
1/2-x,1/2+y,1/2-z
1/2-x,1/2-y,-z
1/2+x,1/2-y,1/2+z
loop_
_atom_site_type_symbol
_atom_site_label
_atom_site_fract_x
_atom_site_fract_y
_atom_site_fract_z
Si Si1 0.832657 0.182133 0.695702
Si Si2 0.640891 0.173902 0.996987
Si Si3 0.431438 0.862882 0.676102
Si Si4 0.376669 0.405723 0.365141
Si Si5 0.379331 0.241706 0.918432
Si Si6 0.109178 0.909609 0.663385
O O1 0.873231 0.274980 0.716195
O O2 0.813752 0.125461 0.780856
O O3 0.681906 0.189191 0.655087
O O4 0.974782 0.147175 0.626387
O O5 0.746599 0.101604 0.949289
O O6 0.521862 0.193812 0.937643
O O7 0.750000 0.250000 0.000000
O O8 0.556926 0.143463 0.089569
O O9 0.500000 0.908504 0.750000
O O10 0.287798 0.914998 0.663050
O O11 0.433680 0.499511 0.362242
O O12 0.425079 0.336289 0.897084
O O13 0.250000 0.250000 0.000000
O O14 0.000000 0.884980 0.750000
#
# Coordination Sequence:
#
# PCOD8135965 Si02
#       6
#     8   8   8   8   8   8
#     4  10  19  41  67  87 132 174 220 266 318 399
#     4  12  23  41  71  96 129 176 224 267 335 399
#     4  11  22  43  67  93 128 176 225 273 321 405
#     4  11  22  43  66  98 132 175 217 270 343 387
#     4  11  23  43  64  97 129 173 229 273 322 397
#     4  11  25  42  67  96 135 172 218 281 329 398
#
# _framework density 20.953945000000001
#
# number of rings (size 3 to 8) (size 9 to 14) (size 15 to 20)
#    0.000    1.000    8.333    0.000    7.000    0.667 
#    3.000    3.333    0.000    0.000    0.000    0.000 
#    0.000    0.000    0.000    0.000    0.000    0.000 
#
# Total GULP energy -297450.300185 kJ/mol
# GULP energy per Si atom -12393.762508 kJ/mol
# Density = 2.090625 g / cm^3
# Si number density = 20.953945 Si / 1000 Ang^3
#
#
#
# Elastic Constant Matrix: (Units=GPa)
#
#
# Indices 1 2 3 4 5 6 
#
# 1 94.4227 -0.5477 31.8158 0.0000 -1.9345 0.0000
# 2 -0.5477 75.6711 15.5072 0.0000 -2.3276 0.0000
# 3 31.8158 15.5072 106.1845 0.0000 -15.8616 0.0000
# 4 0.0000 0.0000 0.0000 23.7149 0.0000 -7.8508
# 5 -1.9345 -2.3276 -15.8616 0.0000 47.7319 0.0000
# 6 0.0000 0.0000 0.0000 -7.8508 0.0000 19.7145
#
#
#
# Elastic Compliance Matrix: (Units=1/GPa)
#
#
# Indices 1 2 3 4 5 6 
#
# 1 0.011856 0.000839 -0.003785 0.000000 -0.000736 0.000000
# 2 0.000839 0.013682 -0.002257 0.000000 -0.000049 0.000000
# 3 -0.003785 -0.002257 0.011408 0.000000 0.003528 0.000000
# 4 0.000000 0.000000 0.000000 0.048571 0.000000 0.019342
# 5 -0.000736 -0.000049 0.003528 0.000000 0.022090 0.000000
# 6 0.000000 0.000000 0.000000 0.019342 0.000000 0.058426
#
#
# Mechanical properties :
#
#
# Convention : Reuss Voigt Hill
#
# Bulk Modulus (GPa) = 37.67829 41.09208 39.38518
# Shear Modulus (GPa) = 26.98531 33.53246 30.25888
#
# Velocity S-wave (km/s) = 3.59254 4.00471 3.80421
# Velocity P-wave (km/s) = 5.93540 6.40600 6.17518
#
# Compressibility (1/GPa) = 0.02654048
#
# Stress axis : x y z
#
# Youngs Moduli (GPa) = 84.34730 73.08809 87.65695
#
# Poissons Ratio (x) = -0.06130 0.33176
# Poissons Ratio (y) = -0.07075 0.19782
# Poissons Ratio (z) = 0.31924 0.16494
#
# Static dielectric constant tensor:
#      x y z
#    x 4.081610 0.000000 -0.207600 
#    y 0.000000 3.601600 0.000000 
#    z -0.207600 0.000000 3.797160 
# 
# 
# High freq. dielectric constant tensor:
#      x y z
#    x 1.829490 0.000000 -0.010530 
#    y 0.000000 1.802000 0.000000 
#    z -0.010530 0.000000 1.821010 
# 
# From -- ./inp_files/189748.got.cif
#   From: 2010.06.25/outbox.cif.g09.slc.cpg/sg15_95_cif.got.tgz:189748.got - 2010.06.28 07:06:18.
