data_PCOD8135319
_publ_section_title
;
Structure prediction by ZEFSAII (Michael W. Deem and Ramdas Pophale) SiO2 
 PCOD8135319
Probable space group: C 2/C
;
_chemical_formula_sum "Si O2"
_cell_formula_units_Z 52
_cell_length_a 8.740420
_cell_length_b 20.373548
_cell_length_c 16.249225
_cell_angle_alpha 90.000000
_cell_angle_beta 80.265813
_cell_angle_gamma 90.000000
_cell_volume 2851.895003
_symmetry_space_group_name_H-M "C 2/C"
_symmetry_group_IT_number 15
_symmetry_cell_setting 'monoclinic'
loop_
_space_group_symop_operation_xyz
x,y,z
-x,y,1/2-z
-x,-y,-z
x,-y,1/2+z
1/2+x,1/2+y,z
1/2-x,1/2+y,1/2-z
1/2-x,1/2-y,-z
1/2+x,1/2-y,1/2+z
loop_
_atom_site_type_symbol
_atom_site_label
_atom_site_fract_x
_atom_site_fract_y
_atom_site_fract_z
Si Si1 0.403177 0.160110 0.473589
Si Si2 0.249302 0.174544 0.017059
Si Si3 0.411658 0.580353 0.591228
Si Si4 0.523835 0.659870 0.341458
Si Si5 0.731513 0.734897 0.629673
Si Si6 0.000000 0.851602 0.250000
Si Si7 0.821184 0.057603 0.058363
O O1 0.579034 0.147982 0.483244
O O2 0.388351 0.215170 0.403628
O O3 0.295815 0.182433 0.558960
O O4 0.345142 0.088991 0.448161
O O5 0.148224 0.164518 0.107141
O O6 0.250000 0.250000 0.000000
O O7 0.172686 0.140416 0.945406
O O8 0.440365 0.601084 0.682634
O O9 0.573586 0.561929 0.533064
O O10 0.300672 0.516527 0.593119
O O11 0.500000 0.643467 0.250000
O O12 0.622442 0.726363 0.345483
O O13 0.607299 0.598363 0.373826
O O14 0.640599 0.695198 0.708148
#
# Coordination Sequence:
#
# PCOD8135319 Si02
#       7
#     8   8   8   8   8   4   8
#     4  10  19  38  59  80 119 156 190 238 286 362
#     4  11  21  36  60  87 116 149 194 237 298 351
#     4  10  22  37  61  86 114 158 197 239 287 356
#     4  10  22  36  58  86 116 150 190 246 287 349
#     4  10  21  34  56  87 116 150 191 238 301 340
#     4  12  22  34  62  90 116 150 198 258 296 340
#     4   9  20  42  58  81 115 161 201 225 293 353
#
# _framework density 18.233491000000001
#
# number of rings (size 3 to 8) (size 9 to 14) (size 15 to 20)
#    0.000    1.846    3.077    0.923    5.385    0.615 
#    0.000    0.000    0.000    1.846    0.000    0.000 
#    0.000    0.000    0.000    0.000    0.000    0.000 
#
# Total GULP energy -322410.979946 kJ/mol
# GULP energy per Si atom -12400.422306 kJ/mol
# Density = 1.819199 g / cm^3
# Si number density = 18.233491 Si / 1000 Ang^3
#
#
#
# Elastic Constant Matrix: (Units=GPa)
#
#
# Indices 1 2 3 4 5 6 
#
# 1 85.1306 31.8691 31.0691 0.0000 -1.5463 0.0000
# 2 31.8691 123.9191 47.6775 0.0000 -4.8821 0.0000
# 3 31.0691 47.6775 127.4203 0.0000 3.8075 0.0000
# 4 0.0000 0.0000 0.0000 12.0245 0.0000 -1.4081
# 5 -1.5463 -4.8821 3.8075 0.0000 5.4862 0.0000
# 6 0.0000 0.0000 0.0000 -1.4081 0.0000 21.8051
#
#
#
# Elastic Compliance Matrix: (Units=1/GPa)
#
#
# Indices 1 2 3 4 5 6 
#
# 1 0.013630 -0.002395 -0.002531 0.000000 0.003467 0.000000
# 2 -0.002395 0.010555 -0.003703 0.000000 0.011287 0.000000
# 3 -0.002531 -0.003703 0.010182 0.000000 -0.011074 0.000000
# 4 0.000000 0.000000 0.000000 0.083797 0.000000 0.005411
# 5 0.003467 0.011287 -0.011074 0.000000 0.200982 0.000000
# 6 0.000000 0.000000 0.000000 0.005411 0.000000 0.046210
#
#
# Mechanical properties :
#
#
# Convention : Reuss Voigt Hill
#
# Bulk Modulus (GPa) = 58.44771 61.96681 60.20726
# Shear Modulus (GPa) = 12.87613 22.92012 17.89812
#
# Velocity S-wave (km/s) = 2.66029 3.54931 3.13646
# Velocity P-wave (km/s) = 6.44677 7.13132 6.79767
#
# Compressibility (1/GPa) = 0.01710931
#
# Stress axis : x y z
#
# Youngs Moduli (GPa) = 73.36838 94.74166 98.21698
#
# Poissons Ratio (x) = 0.22690 0.24857
# Poissons Ratio (y) = 0.17571 0.36367
# Poissons Ratio (z) = 0.18568 0.35080
#
# Static dielectric constant tensor:
#      x y z
#    x 3.288680 0.000000 0.045350 
#    y 0.000000 3.442110 0.000000 
#    z 0.045350 0.000000 3.305800 
# 
# 
# High freq. dielectric constant tensor:
#      x y z
#    x 1.701490 0.000000 0.006350 
#    y 0.000000 1.710270 0.000000 
#    z 0.006350 0.000000 1.703650 
# 
# From -- ./inp_files/135984.got.cif
#   From: 2010.06.25/outbox.cif.g09.slc.cpg/sg15_68_cif.got.tgz:135984.got - 2010.06.28 07:06:18.
