data_PCOD8135237
_publ_section_title
;
Structure prediction by ZEFSAII (Michael W. Deem and Ramdas Pophale) SiO2 
 PCOD8135237
Probable space group: C 2/C
;
_chemical_formula_sum "Si O2"
_cell_formula_units_Z 52
_cell_length_a 11.565006
_cell_length_b 17.131653
_cell_length_c 14.415593
_cell_angle_alpha 90.000000
_cell_angle_beta 113.524752
_cell_angle_gamma 90.000000
_cell_volume 2618.748573
_symmetry_space_group_name_H-M "C 2/C"
_symmetry_group_IT_number 15
_symmetry_cell_setting 'monoclinic'
loop_
_space_group_symop_operation_xyz
x,y,z
-x,y,1/2-z
-x,-y,-z
x,-y,1/2+z
1/2+x,1/2+y,z
1/2-x,1/2+y,1/2-z
1/2-x,1/2-y,-z
1/2+x,1/2-y,1/2+z
loop_
_atom_site_type_symbol
_atom_site_label
_atom_site_fract_x
_atom_site_fract_y
_atom_site_fract_z
Si Si1 0.878639 0.212903 0.501381
Si Si2 0.040357 0.321520 0.663075
Si Si3 0.500000 0.553092 0.250000
Si Si4 0.997389 0.502567 0.110415
Si Si5 0.801333 0.858408 0.795109
Si Si6 0.791650 0.521630 0.683122
Si Si7 0.487216 0.444658 0.409057
O O1 0.750000 0.250000 0.500000
O O2 0.868097 0.201686 0.387338
O O3 0.987906 0.274129 0.558922
O O4 0.924600 0.131310 0.560803
O O5 0.190634 0.314971 0.704755
O O6 0.000000 0.285762 0.750000
O O7 0.988021 0.408657 0.640200
O O8 0.610143 0.611073 0.257138
O O9 0.544866 0.496294 0.345511
O O10 0.874379 0.459829 0.116601
O O11 0.124071 0.465038 0.196488
O O12 0.000000 0.500000 0.000000
O O13 0.749432 0.931020 0.838359
O O14 0.664018 0.574256 0.650472
O O15 0.500000 0.500000 0.500000
#
# Coordination Sequence:
#
# PCOD8135237 Si02
#       7
#     8   8   4   8   8   8   8
#     4  12  23  40  67  94 131 168 221 274 337 405
#     4  11  21  40  61  91 126 167 213 273 331 392
#     4  10  22  40  68  94 134 174 218 278 336 386
#     4  10  19  37  66  92 125 177 219 270 335 397
#     4  10  20  43  61  89 132 174 206 277 340 391
#     4   9  18  38  59  89 135 159 216 277 323 386
#     4  11  23  39  65 101 129 171 224 283 335 393
#
# _framework density 19.856812000000001
#
# number of rings (size 3 to 8) (size 9 to 14) (size 15 to 20)
#    0.000    1.538    7.692    0.000    1.077    3.692 
#    2.769    0.769    0.000    0.000    0.000    0.000 
#    0.000    0.000    0.000    0.000    0.000    0.000 
#
# Total GULP energy -322160.399433 kJ/mol
# GULP energy per Si atom -12390.784594 kJ/mol
# Density = 1.981162 g / cm^3
# Si number density = 19.856812 Si / 1000 Ang^3
#
#
#
# Elastic Constant Matrix: (Units=GPa)
#
#
# Indices 1 2 3 4 5 6 
#
# 1 151.0266 49.0135 78.6677 0.0000 7.3254 0.0000
# 2 49.0135 70.4386 38.0680 0.0000 14.7559 0.0000
# 3 78.6677 38.0680 131.7959 0.0000 2.9710 0.0000
# 4 0.0000 0.0000 0.0000 43.0433 0.0000 9.0170
# 5 7.3254 14.7559 2.9710 0.0000 40.6000 0.0000
# 6 0.0000 0.0000 0.0000 9.0170 0.0000 26.1814
#
#
#
# Elastic Compliance Matrix: (Units=1/GPa)
#
#
# Indices 1 2 3 4 5 6 
#
# 1 0.010819 -0.004825 -0.005068 0.000000 0.000173 0.000000
# 2 -0.004825 0.020441 -0.002881 0.000000 -0.006348 0.000000
# 3 -0.005068 -0.002881 0.011419 0.000000 0.001126 0.000000
# 4 0.000000 0.000000 0.000000 0.025039 0.000000 -0.008623
# 5 0.000173 -0.006348 0.001126 0.000000 0.026824 0.000000
# 6 0.000000 0.000000 0.000000 -0.008623 0.000000 0.041165
#
#
# Mechanical properties :
#
#
# Convention : Reuss Voigt Hill
#
# Bulk Modulus (GPa) = 58.37377 76.08438 67.22907
# Shear Modulus (GPa) = 29.94635 34.46574 32.20604
#
# Velocity S-wave (km/s) = 3.88766 4.17071 4.03167
# Velocity P-wave (km/s) = 7.04365 7.84811 7.45674
#
# Compressibility (1/GPa) = 0.01713098
#
# Stress axis : x y z
#
# Youngs Moduli (GPa) = 92.43270 48.92088 87.57252
#
# Poissons Ratio (x) = 0.23606 0.44379
# Poissons Ratio (y) = 0.44602 0.25229
# Poissons Ratio (z) = 0.46842 0.14094
#
# Static dielectric constant tensor:
#      x y z
#    x 4.066580 0.000000 0.298680 
#    y 0.000000 3.509420 0.000000 
#    z 0.298680 0.000000 4.052430 
# 
# 
# High freq. dielectric constant tensor:
#      x y z
#    x 1.774930 0.000000 0.016950 
#    y 0.000000 1.736760 0.000000 
#    z 0.016950 0.000000 1.786200 
# 
# From -- ./inp_files/144151.got.cif
#   From: 2010.06.25/outbox.cif.g09.slc.cpg/sg15_73_cif.got.tgz:144151.got - 2010.06.28 07:06:18.
