data_PCOD8135016
_publ_section_title
;
Structure prediction by ZEFSAII (Michael W. Deem and Ramdas Pophale) SiO2 
 PCOD8135016
Probable space group: C 2/C
;
_chemical_formula_sum "Si O2"
_cell_formula_units_Z 60
_cell_length_a 19.305475
_cell_length_b 18.798134
_cell_length_c 9.016909
_cell_angle_alpha 90.000000
_cell_angle_beta 59.349815
_cell_angle_gamma 90.000000
_cell_volume 2815.144797
_symmetry_space_group_name_H-M "C 2/C"
_symmetry_group_IT_number 15
_symmetry_cell_setting 'monoclinic'
loop_
_space_group_symop_operation_xyz
x,y,z
-x,y,1/2-z
-x,-y,-z
x,-y,1/2+z
1/2+x,1/2+y,z
1/2-x,1/2+y,1/2-z
1/2-x,1/2-y,-z
1/2+x,1/2-y,1/2+z
loop_
_atom_site_type_symbol
_atom_site_label
_atom_site_fract_x
_atom_site_fract_y
_atom_site_fract_z
Si Si1 0.419635 0.787649 0.645146
Si Si2 0.556181 0.163263 0.819736
Si Si3 0.000000 0.168599 0.750000
Si Si4 0.658205 0.734154 0.068492
Si Si5 0.156728 0.074084 0.104770
Si Si6 0.131944 0.933835 0.968740
Si Si7 0.661216 0.950796 0.056483
Si Si8 0.316527 0.911507 0.806051
O O1 0.500739 0.835363 0.527438
O O2 0.445376 0.716452 0.701284
O O3 0.368650 0.771451 0.553473
O O4 0.358445 0.837094 0.806174
O O5 0.500000 0.189817 0.750000
O O6 0.620138 0.227744 0.755513
O O7 0.595184 0.087798 0.732561
O O8 0.062186 0.119348 0.594162
O O9 0.629345 0.652712 0.088392
O O10 0.750000 0.750000 0.000000
O O11 0.126631 0.056400 0.300361
O O12 0.252540 0.075578 0.982333
O O13 0.117490 0.013383 0.045849
O O14 0.219837 0.903590 0.918403
O O15 0.653979 0.034291 0.099062
O O16 0.651406 0.936351 0.891848
#
# Coordination Sequence:
#
# PCOD8135016 Si02
#       8
#     8   8   4   8   8   8   8   8
#     4  11  25  41  63  94 138 173 224 271 339 391
#     4  10  19  37  59  94 129 165 210 275 316 391
#     4  12  28  48  60  94 142 176 214 284 332 402
#     4  11  19  38  70  95 123 169 230 275 321 381
#     4  10  21  40  67  97 124 173 221 276 321 393
#     4  10  24  44  67  95 134 168 226 272 334 398
#     4  10  19  38  63  94 133 164 216 271 322 394
#     4  10  21  42  66  96 126 176 223 269 324 401
#
# _framework density 21.313291
#
# number of rings (size 3 to 8) (size 9 to 14) (size 15 to 20)
#    0.000    1.600    4.000    1.600    1.867    2.667 
#    4.800    0.000    0.000    0.000    0.000    0.000 
#    0.000    0.000    0.000    0.000    0.000    0.000 
#
# Total GULP energy -371768.879822 kJ/mol
# GULP energy per Si atom -12392.295994 kJ/mol
# Density = 2.126478 g / cm^3
# Si number density = 21.313291 Si / 1000 Ang^3
#
#
#
# Elastic Constant Matrix: (Units=GPa)
#
#
# Indices 1 2 3 4 5 6 
#
# 1 71.0056 46.9253 30.4998 0.0000 -11.3518 0.0000
# 2 46.9253 144.9021 49.0032 0.0000 -18.2540 0.0000
# 3 30.4998 49.0032 74.8854 0.0000 -16.7545 0.0000
# 4 0.0000 0.0000 0.0000 37.1839 0.0000 -3.9602
# 5 -11.3518 -18.2540 -16.7545 0.0000 25.1668 0.0000
# 6 0.0000 0.0000 0.0000 -3.9602 0.0000 39.9295
#
#
#
# Elastic Compliance Matrix: (Units=1/GPa)
#
#
# Indices 1 2 3 4 5 6 
#
# 1 0.019317 -0.004451 -0.004380 0.000000 0.002569 0.000000
# 2 -0.004451 0.010087 -0.004230 0.000000 0.002493 0.000000
# 3 -0.004380 -0.004230 0.019714 0.000000 0.008080 0.000000
# 4 0.000000 0.000000 0.000000 0.027180 0.000000 0.002696
# 5 0.002569 0.002493 0.008080 0.000000 0.048081 0.000000
# 6 0.000000 0.000000 0.000000 0.002696 0.000000 0.025312
#
#
# Mechanical properties :
#
#
# Convention : Reuss Voigt Hill
#
# Bulk Modulus (GPa) = 43.48768 60.40551 51.94660
# Shear Modulus (GPa) = 27.25116 31.41371 29.33243
#
# Velocity S-wave (km/s) = 3.57963 3.84331 3.71381
# Velocity P-wave (km/s) = 6.12644 6.93527 6.54336
#
# Compressibility (1/GPa) = 0.02299502
#
# Stress axis : x y z
#
# Youngs Moduli (GPa) = 51.76813 99.13587 50.72564
#
# Poissons Ratio (x) = 0.44122 0.22220
# Poissons Ratio (y) = 0.23040 0.21459
# Poissons Ratio (z) = 0.22676 0.41939
#
# Static dielectric constant tensor:
#      x y z
#    x 4.020140 0.000000 -0.546860 
#    y 0.000000 4.082180 0.000000 
#    z -0.546860 0.000000 4.327510 
# 
# 
# High freq. dielectric constant tensor:
#      x y z
#    x 1.827640 0.000000 -0.019680 
#    y 0.000000 1.844030 0.000000 
#    z -0.019680 0.000000 1.829830 
# 
# From -- ./inp_files/57016.got.cif
#   From: 2010.06.25/outbox.cif.g09.slc.cpg/sg15_29_cif.got.tgz:57016.got - 2010.06.28 07:06:18.
