data_PCOD8135125
_publ_section_title
;
Structure prediction by ZEFSAII (Michael W. Deem and Ramdas Pophale) SiO2 
 PCOD8135125
Probable space group: C 2/C
;
_chemical_formula_sum "Si O2"
_cell_formula_units_Z 40
_cell_length_a 10.055538
_cell_length_b 19.099792
_cell_length_c 15.014302
_cell_angle_alpha 90.000000
_cell_angle_beta 135.925410
_cell_angle_gamma 90.000000
_cell_volume 2005.834414
_symmetry_space_group_name_H-M "C 2/C"
_symmetry_group_IT_number 15
_symmetry_cell_setting 'monoclinic'
loop_
_space_group_symop_operation_xyz
x,y,z
-x,y,1/2-z
-x,-y,-z
x,-y,1/2+z
1/2+x,1/2+y,z
1/2-x,1/2+y,1/2-z
1/2-x,1/2-y,-z
1/2+x,1/2-y,1/2+z
loop_
_atom_site_type_symbol
_atom_site_label
_atom_site_fract_x
_atom_site_fract_y
_atom_site_fract_z
Si Si1 0.464395 0.735544 0.129369
Si Si2 0.944435 0.900268 0.927201
Si Si3 0.764559 0.652094 0.812698
Si Si4 0.352146 0.676207 0.556187
Si Si5 0.292774 0.967264 0.191395
O O1 0.500000 0.751026 0.250000
O O2 0.529217 0.656910 0.137287
O O3 0.574591 0.790027 0.120884
O O4 0.250000 0.750000 0.000000
O O5 0.809004 0.961568 0.824708
O O6 0.829088 0.868849 0.955923
O O7 0.154663 0.928922 0.053839
O O8 0.576177 0.687953 0.680911
O O9 0.739456 0.633840 0.905047
O O10 0.820419 0.580326 0.791499
O O11 0.250000 0.750000 0.500000
O O12 0.500000 0.982392 0.250000
#
# Coordination Sequence:
#
# PCOD8135125 Si02
#       5
#     8   8   8   8   8
#     4  12  24  41  66  95 127 166 212 267 318 375
#     4  10  22  40  61  91 123 163 212 261 309 384
#     4  10  21  37  63  88 122 165 205 258 328 375
#     4  10  19  37  62  91 123 155 209 266 315 377
#     4  10  21  42  60  85 127 167 205 259 324 375
#
# _framework density 19.941825000000001
#
# number of rings (size 3 to 8) (size 9 to 14) (size 15 to 20)
#    0.000    1.600    2.000    4.200    0.000    1.600 
#   10.800    1.000    0.000    0.000    0.000    0.000 
#    0.000    0.000    0.000    0.000    0.000    0.000 
#
# Total GULP energy -248031.749943 kJ/mol
# GULP energy per Si atom -12401.587497 kJ/mol
# Density = 1.989644 g / cm^3
# Si number density = 19.941825 Si / 1000 Ang^3
#
#
#
# Elastic Constant Matrix: (Units=GPa)
#
#
# Indices 1 2 3 4 5 6 
#
# 1 100.6470 34.4561 35.3163 0.0001 17.9704 0.0000
# 2 34.4561 114.1044 24.1587 0.0000 17.1091 0.0000
# 3 35.3163 24.1587 61.7034 0.0002 9.3558 0.0001
# 4 0.0001 0.0000 0.0002 30.9706 0.0001 -4.0775
# 5 17.9704 17.1091 9.3558 0.0001 30.5187 0.0001
# 6 0.0000 0.0000 0.0001 -4.0775 0.0001 37.7328
#
#
#
# Elastic Compliance Matrix: (Units=1/GPa)
#
#
# Indices 1 2 3 4 5 6 
#
# 1 0.013748 -0.002067 -0.006300 0.000000 -0.005005 0.000000
# 2 -0.002067 0.010470 -0.002319 0.000000 -0.003942 0.000000
# 3 -0.006300 -0.002319 0.020934 0.000000 -0.001408 0.000000
# 4 0.000000 0.000000 0.000000 0.032755 0.000000 0.003540
# 5 -0.005005 -0.003942 -0.001408 0.000000 0.038355 0.000000
# 6 0.000000 0.000000 0.000000 0.003540 0.000000 0.026885
#
#
# Mechanical properties :
#
#
# Convention : Reuss Voigt Hill
#
# Bulk Modulus (GPa) = 42.05290 51.59079 46.82185
# Shear Modulus (GPa) = 28.99478 32.01265 30.50372
#
# Velocity S-wave (km/s) = 3.81723 4.01097 3.91530
# Velocity P-wave (km/s) = 6.36882 6.88312 6.63096
#
# Compressibility (1/GPa) = 0.02377957
#
# Stress axis : x y z
#
# Youngs Moduli (GPa) = 72.73925 95.51089 47.76938
#
# Poissons Ratio (x) = 0.19742 0.30097
# Poissons Ratio (y) = 0.15035 0.11076
# Poissons Ratio (z) = 0.45829 0.22145
#
# Static dielectric constant tensor:
#      x y z
#    x 3.865530 0.000000 0.015360 
#    y 0.000000 3.742290 0.000000 
#    z 0.015360 0.000000 3.529190 
# 
# 
# High freq. dielectric constant tensor:
#      x y z
#    x 1.792280 0.000000 0.007560 
#    y 0.000000 1.778030 0.000000 
#    z 0.007560 0.000000 1.766120 
# 
# From -- ./inp_files/76886.got.cif
#   From: 2010.06.25/outbox.cif.g09.slc.cpg/sg15_39_cif.got.tgz:76886.got - 2010.06.28 07:06:18.
