data_PCOD8135408
_publ_section_title
;
Structure prediction by ZEFSAII (Michael W. Deem and Ramdas Pophale) SiO2 
 PCOD8135408
Probable space group: C 2/C
;
_chemical_formula_sum "Si O2"
_cell_formula_units_Z 56
_cell_length_a 17.597411
_cell_length_b 4.957477
_cell_length_c 32.091547
_cell_angle_alpha 90.000000
_cell_angle_beta 80.576817
_cell_angle_gamma 90.000000
_cell_volume 2761.848601
_symmetry_space_group_name_H-M "C 2/C"
_symmetry_group_IT_number 15
_symmetry_cell_setting 'monoclinic'
loop_
_space_group_symop_operation_xyz
x,y,z
-x,y,1/2-z
-x,-y,-z
x,-y,1/2+z
1/2+x,1/2+y,z
1/2-x,1/2+y,1/2-z
1/2-x,1/2-y,-z
1/2+x,1/2-y,1/2+z
loop_
_atom_site_type_symbol
_atom_site_label
_atom_site_fract_x
_atom_site_fract_y
_atom_site_fract_z
Si Si1 0.487358 0.753583 0.646376
Si Si2 0.463183 0.237238 0.707206
Si Si3 0.272037 0.309028 0.951199
Si Si4 0.742788 0.630364 0.349453
Si Si5 0.783202 0.643020 0.732206
Si Si6 0.854199 0.699466 0.409008
Si Si7 0.834657 0.369322 0.613136
O O1 0.473399 0.504966 0.678845
O O2 0.557052 0.733925 0.607286
O O3 0.419434 0.779446 0.618596
O O4 0.501734 0.003930 0.676107
O O5 0.500000 0.267943 0.750000
O O6 0.374690 0.155678 0.721907
O O7 0.316489 0.591561 0.944691
O O8 0.190612 0.321876 0.932857
O O9 0.334109 0.093516 0.928885
O O10 0.250000 0.250000 0.000000
O O11 0.757751 0.682007 0.300201
O O12 0.818205 0.728144 0.366553
O O13 0.725341 0.315670 0.356139
O O14 0.672490 0.818615 0.372586
O O15 0.752377 0.336933 0.728554
#
# Coordination Sequence:
#
# PCOD8135408 Si02
#       7
#     8   8   8   8   8   8   8
#     4  12  22  43  60  85 122 155 201 243 288 362
#     4  12  27  41  57  85 122 161 196 253 306 327
#     4  10  21  41  63  92 122 148 189 239 290 354
#     4  10  20  38  55  81 110 152 198 236 279 345
#     4  12  24  37  58  82 113 149 205 246 292 339
#     4  10  23  36  64  89 115 156 196 231 295 348
#     4  10  19  38  62  81 111 156 188 230 289 345
#
# _framework density 20.276274999999998
#
# number of rings (size 3 to 8) (size 9 to 14) (size 15 to 20)
#    0.000    1.143    2.857    3.429    4.000    0.000 
#    0.000    1.429    0.000    0.000    0.000    0.000 
#    0.000    0.000    0.000    0.000    0.000    0.000 
#
# Total GULP energy -346909.253504 kJ/mol
# GULP energy per Si atom -12389.616197 kJ/mol
# Density = 2.023013 g / cm^3
# Si number density = 20.276275 Si / 1000 Ang^3
#
#
#
# Elastic Constant Matrix: (Units=GPa)
#
#
# Indices 1 2 3 4 5 6 
#
# 1 93.7218 11.1167 34.1478 0.0001 -7.9376 0.0001
# 2 11.1167 71.8813 3.0276 0.0002 0.7598 -0.0002
# 3 34.1478 3.0276 77.5963 0.0000 8.3418 0.0000
# 4 0.0001 0.0002 0.0000 26.4574 0.0001 0.9970
# 5 -7.9376 0.7598 8.3418 0.0001 28.3059 0.0000
# 6 0.0001 -0.0002 0.0000 0.9970 0.0000 22.8266
#
#
#
# Elastic Compliance Matrix: (Units=1/GPa)
#
#
# Indices 1 2 3 4 5 6 
#
# 1 0.013813 -0.001919 -0.006636 0.000000 0.005881 0.000000
# 2 -0.001919 0.014203 0.000402 0.000000 -0.001038 0.000000
# 3 -0.006636 0.000402 0.016516 0.000000 -0.006739 0.000000
# 4 0.000000 0.000000 0.000000 0.037859 0.000000 -0.001654
# 5 0.005881 -0.001038 -0.006739 0.000000 0.038991 0.000000
# 6 0.000000 0.000000 0.000000 -0.001654 0.000000 0.043881
#
#
# Mechanical properties :
#
#
# Convention : Reuss Voigt Hill
#
# Bulk Modulus (GPa) = 35.42839 37.75373 36.59106
# Shear Modulus (GPa) = 26.18092 28.51179 27.34635
#
# Velocity S-wave (km/s) = 3.59724 3.75395 3.67643
# Velocity P-wave (km/s) = 5.89612 6.11961 6.00891
#
# Compressibility (1/GPa) = 0.02822595
#
# Stress axis : x y z
#
# Youngs Moduli (GPa) = 72.39313 70.40948 60.54591
#
# Poissons Ratio (x) = 0.13511 0.40180
# Poissons Ratio (y) = 0.13892 -0.02433
# Poissons Ratio (z) = 0.48042 -0.02830
#
# Static dielectric constant tensor:
#      x y z
#    x 3.687240 0.000000 0.280400 
#    y 0.000000 4.137640 0.000000 
#    z 0.280400 0.000000 3.568740 
# 
# 
# High freq. dielectric constant tensor:
#      x y z
#    x 1.783590 0.000000 0.012990 
#    y 0.000000 1.817720 0.000000 
#    z 0.012990 0.000000 1.779600 
# 
# From -- ./inp_files/223803.got.cif
#   From: 2010.06.25/outbox.cif.g09.slc.cpg/sg15_112_cif.got.tgz:223803.got - 2010.06.28 07:06:18.
