data_PCOD8135468
_publ_section_title
;
Structure prediction by ZEFSAII (Michael W. Deem and Ramdas Pophale) SiO2 
 PCOD8135468
Probable space group: C 2/C
;
_chemical_formula_sum "Si O2"
_cell_formula_units_Z 64
_cell_length_a 13.683072
_cell_length_b 28.467829
_cell_length_c 12.394116
_cell_angle_alpha 90.000000
_cell_angle_beta 41.072819
_cell_angle_gamma 90.000000
_cell_volume 3171.980987
_symmetry_space_group_name_H-M "C 2/C"
_symmetry_group_IT_number 15
_symmetry_cell_setting 'monoclinic'
loop_
_space_group_symop_operation_xyz
x,y,z
-x,y,1/2-z
-x,-y,-z
x,-y,1/2+z
1/2+x,1/2+y,z
1/2-x,1/2+y,1/2-z
1/2-x,1/2-y,-z
1/2+x,1/2-y,1/2+z
loop_
_atom_site_type_symbol
_atom_site_label
_atom_site_fract_x
_atom_site_fract_y
_atom_site_fract_z
Si Si1 0.815441 0.877609 0.725838
Si Si2 0.833571 0.948886 0.346574
Si Si3 0.433824 0.280673 0.689014
Si Si4 0.217732 0.200028 0.824632
Si Si5 0.848319 0.095624 0.600891
Si Si6 0.829456 0.379540 0.874168
Si Si7 0.172037 0.055469 0.102777
Si Si8 0.825933 0.794488 0.387471
O O1 0.821387 0.822498 0.750565
O O2 0.695989 0.885978 0.731542
O O3 0.751468 0.906786 0.881171
O O4 0.974697 0.897166 0.553938
O O5 0.812223 0.928990 0.244188
O O6 0.711904 0.926518 0.526913
O O7 0.000000 0.938788 0.250000
O O8 0.795135 0.003798 0.380215
O O9 0.500000 0.293205 0.750000
O O10 0.350832 0.230771 0.763695
O O11 0.563295 0.277520 0.492719
O O12 0.233011 0.145760 0.846429
O O13 0.228774 0.201100 0.687893
O O14 0.781358 0.062662 0.561300
O O15 0.000000 0.365567 0.750000
O O16 0.718795 0.339705 0.007790
O O17 0.000000 0.067868 0.250000
O O18 0.750000 0.750000 0.500000
O O19 0.000000 0.788478 0.250000
#
# Coordination Sequence:
#
# PCOD8135468 Si02
#       8
#     8   8   8   8   8   8   8   8
#     4  10  20  39  62  92 128 162 207 267 321 372
#     4  11  21  38  66  93 122 162 210 267 326 380
#     4  11  23  40  63  91 125 168 209 256 308 369
#     4  11  22  38  61  90 126 166 205 255 307 374
#     4  10  19  38  63  94 129 157 210 266 322 376
#     4  12  25  40  60  90 126 172 211 258 314 381
#     4   9  21  34  65 100 121 157 211 274 325 381
#     4  12  23  40  62  93 126 165 208 260 319 375
#
# _framework density 20.176666000000001
#
# number of rings (size 3 to 8) (size 9 to 14) (size 15 to 20)
#    0.000    1.250    2.500    6.000    1.750    2.500 
#    0.000    0.625    0.000    0.000    0.000    0.000 
#    0.000    0.000    0.000    0.000    0.000    0.000 
#
# Total GULP energy -396886.308252 kJ/mol
# GULP energy per Si atom -12402.697133 kJ/mol
# Density = 2.013074 g / cm^3
# Si number density = 20.176666 Si / 1000 Ang^3
#
#
#
# Elastic Constant Matrix: (Units=GPa)
#
#
# Indices 1 2 3 4 5 6 
#
# 1 105.8250 51.5319 45.5518 0.0000 25.7984 0.0000
# 2 51.5319 120.4411 44.6696 0.0000 4.8026 0.0000
# 3 45.5518 44.6696 70.5126 0.0000 11.8154 0.0000
# 4 0.0000 0.0000 0.0000 33.6872 0.0000 9.7507
# 5 25.7984 4.8026 11.8154 0.0000 38.6136 0.0000
# 6 0.0000 0.0000 0.0000 9.7507 0.0000 28.7539
#
#
#
# Elastic Compliance Matrix: (Units=1/GPa)
#
#
# Indices 1 2 3 4 5 6 
#
# 1 0.016360 -0.004271 -0.006451 0.000000 -0.008425 0.000000
# 2 -0.004271 0.011991 -0.005339 0.000000 0.002996 0.000000
# 3 -0.006451 -0.005339 0.022028 0.000000 -0.001766 0.000000
# 4 0.000000 0.000000 0.000000 0.032916 0.000000 -0.011162
# 5 -0.008425 0.002996 -0.001766 0.000000 0.031694 0.000000
# 6 0.000000 0.000000 0.000000 -0.011162 0.000000 0.038563
#
#
# Mechanical properties :
#
#
# Convention : Reuss Voigt Hill
#
# Bulk Modulus (GPa) = 54.77713 64.47612 59.62662
# Shear Modulus (GPa) = 26.07415 30.54596 28.31006
#
# Velocity S-wave (km/s) = 3.59875 3.89514 3.74987
# Velocity P-wave (km/s) = 6.66901 7.22874 6.95451
#
# Compressibility (1/GPa) = 0.01825579
#
# Stress axis : x y z
#
# Youngs Moduli (GPa) = 61.12323 83.39579 45.39756
#
# Poissons Ratio (x) = 0.35621 0.29287
# Poissons Ratio (y) = 0.26108 0.24238
# Poissons Ratio (z) = 0.39432 0.44525
#
# Static dielectric constant tensor:
#      x y z
#    x 3.565240 0.000000 0.341530 
#    y 0.000000 8.104360 0.000000 
#    z 0.341530 0.000000 3.683600 
# 
# 
# High freq. dielectric constant tensor:
#      x y z
#    x 1.778220 0.000000 0.031580 
#    y 0.000000 1.797840 0.000000 
#    z 0.031580 0.000000 1.779360 
# 
# From -- ./inp_files/44853.got.cif
#   From: 2010.06.25/outbox.cif.g09.slc.cpg/sg15_23_cif.got.tgz:44853.got - 2010.06.28 07:06:18.
