data_PCOD8135274
_publ_section_title
;
Structure prediction by ZEFSAII (Michael W. Deem and Ramdas Pophale) SiO2 
 PCOD8135274
Probable space group: C 2/C
;
_chemical_formula_sum "Si O2"
_cell_formula_units_Z 48
_cell_length_a 11.897413
_cell_length_b 38.649301
_cell_length_c 5.214663
_cell_angle_alpha 90.000000
_cell_angle_beta 106.363020
_cell_angle_gamma 90.000000
_cell_volume 2300.719107
_symmetry_space_group_name_H-M "C 2/C"
_symmetry_group_IT_number 15
_symmetry_cell_setting 'monoclinic'
loop_
_space_group_symop_operation_xyz
x,y,z
-x,y,1/2-z
-x,-y,-z
x,-y,1/2+z
1/2+x,1/2+y,z
1/2-x,1/2+y,1/2-z
1/2-x,1/2-y,-z
1/2+x,1/2-y,1/2+z
loop_
_atom_site_type_symbol
_atom_site_label
_atom_site_fract_x
_atom_site_fract_y
_atom_site_fract_z
Si Si1 0.871021 0.807334 0.936879
Si Si2 0.284540 0.135578 0.186053
Si Si3 0.636415 0.097574 0.778844
Si Si4 0.862135 0.518002 0.686241
Si Si5 0.367716 0.277047 0.434493
Si Si6 0.930744 0.701429 0.452797
O O1 0.846973 0.848927 0.949910
O O2 0.803558 0.795367 0.633308
O O3 0.804738 0.787199 0.128183
O O4 0.005232 0.796099 0.005737
O O5 0.285938 0.110970 0.433980
O O6 0.359984 0.169534 0.292548
O O7 0.332985 0.116214 0.967474
O O8 0.500000 0.103299 0.750000
O O9 0.668449 0.057489 0.771157
O O10 0.807754 0.505173 0.381404
O O11 0.000000 0.512198 0.750000
O O12 0.366243 0.236633 0.502920
O O13 0.000000 0.715723 0.250000
O O14 0.000000 0.687860 0.750000
#
# Coordination Sequence:
#
# PCOD8135274 Si02
#       6
#     8   8   8   8   8   8
#     4  10  20  36  53  73  93 128 175 221 275 303
#     4  12  24  33  52  77 104 138 172 212 262 325
#     4  11  22  38  51  75 114 143 167 205 254 292
#     4   9  17  31  54  77  97 135 180 202 222 281
#     4  10  19  38  54  67  94 128 169 236 276 297
#     4  12  21  36  51  69  96 133 176 214 271 309
#
# _framework density 20.863042
#
# number of rings (size 3 to 8) (size 9 to 14) (size 15 to 20)
#    0.000    1.333    3.333    5.000    0.000    4.000 
#    0.000    0.000    0.000    0.000    0.000    0.000 
#    0.000    0.000    0.000  210.000    0.000    0.000 
#
# Total GULP energy -297330.292313 kJ/mol
# GULP energy per Si atom -12388.762180 kJ/mol
# Density = 2.081556 g / cm^3
# Si number density = 20.863042 Si / 1000 Ang^3
#
#
#
# Elastic Constant Matrix: (Units=GPa)
#
#
# Indices 1 2 3 4 5 6 
#
# 1 26.0926 42.9861 29.2514 0.0000 -2.8267 0.0000
# 2 42.9861 149.1363 68.2320 0.0000 -19.2563 0.0000
# 3 29.2514 68.2320 175.4139 0.0000 -47.2287 0.0000
# 4 0.0000 0.0000 0.0000 41.3427 0.0000 -24.8308
# 5 -2.8267 -19.2563 -47.2287 0.0000 31.2287 0.0000
# 6 0.0000 0.0000 0.0000 -24.8308 0.0000 -98.1251
#
#
#
# Elastic Compliance Matrix: (Units=1/GPa)
#
#
# Indices 1 2 3 4 5 6 
#
# 1 0.086501 -0.022480 -0.012322 0.000000 -0.024667 0.000000
# 2 -0.022480 0.014002 0.000133 0.000000 0.006801 0.000000
# 3 -0.012322 0.000133 0.012526 0.000000 0.017910 0.000000
# 4 0.000000 0.000000 0.000000 0.020997 0.000000 -0.005313
# 5 -0.024667 0.006801 0.017910 0.000000 0.061069 0.000000
# 6 0.000000 0.000000 0.000000 -0.005313 0.000000 -0.008847
#
#
# Mechanical properties :
#
#
# Convention : Reuss Voigt Hill
#
# Bulk Modulus (GPa) = 22.88760 70.17575 46.53168
# Shear Modulus (GPa) = 18.50834 8.90082 13.70458
#
# Velocity S-wave (km/s) = 2.98171 2.06775 2.56575
# Velocity P-wave (km/s) = 4.78000 6.27775 5.57936
#
# Compressibility (1/GPa) = 0.04369178
#
# Stress axis : x y z
#
# Youngs Moduli (GPa) = 11.56061 71.41897 79.83473
#
# Poissons Ratio (x) = 1.60550 0.98369
# Poissons Ratio (y) = 0.25988 -0.01064
# Poissons Ratio (z) = 0.14244 -0.00952
#
# Static dielectric constant tensor:
#      x y z
#    x 3.856680 0.000000 -1.008760 
#    y 0.000000 3.784200 0.000000 
#    z -1.008760 0.000000 7.105160 
# 
# 
# High freq. dielectric constant tensor:
#      x y z
#    x 1.777880 0.000000 -0.029620 
#    y 0.000000 1.806760 0.000000 
#    z -0.029620 0.000000 1.849710 
# 
# From -- ./inp_files/8840.got.cif
#   From: 2010.06.25/outbox.cif.g09.slc.cpg/sg15_5_cif.got.tgz:8840.got - 2010.06.28 07:06:18.
