data_PCOD8135982
_publ_section_title
;
Structure prediction by ZEFSAII (Michael W. Deem and Ramdas Pophale) SiO2 
 PCOD8135982
Probable space group: C 2/C
;
_chemical_formula_sum "Si O2"
_cell_formula_units_Z 40
_cell_length_a 13.345869
_cell_length_b 11.515079
_cell_length_c 24.302204
_cell_angle_alpha 90.000000
_cell_angle_beta 31.812973
_cell_angle_gamma 90.000000
_cell_volume 1968.757305
_symmetry_space_group_name_H-M "C 2/C"
_symmetry_group_IT_number 15
_symmetry_cell_setting 'monoclinic'
loop_
_space_group_symop_operation_xyz
x,y,z
-x,y,1/2-z
-x,-y,-z
x,-y,1/2+z
1/2+x,1/2+y,z
1/2-x,1/2+y,1/2-z
1/2-x,1/2-y,-z
1/2+x,1/2-y,1/2+z
loop_
_atom_site_type_symbol
_atom_site_label
_atom_site_fract_x
_atom_site_fract_y
_atom_site_fract_z
Si Si1 0.252108 0.241966 0.718609
Si Si2 0.783007 0.785035 0.832766
Si Si3 0.221610 0.955680 0.153278
Si Si4 0.535394 0.631201 0.468677
Si Si5 0.186063 0.759557 0.091049
O O1 0.269160 0.244765 0.775947
O O2 0.295949 0.113482 0.673041
O O3 0.396226 0.338971 0.625847
O O4 0.037378 0.262186 0.798059
O O5 0.000000 0.773770 0.750000
O O6 0.693415 0.914311 0.883396
O O7 0.656003 0.701834 0.929337
O O8 0.271108 0.880679 0.075782
O O9 0.000000 0.975113 0.250000
O O10 0.500000 0.500000 0.500000
O O11 0.714221 0.657350 0.423155
O O12 0.250000 0.750000 0.000000
#
# Coordination Sequence:
#
# PCOD8135982 Si02
#       5
#     8   8   8   8   8
#     4  10  22  41  66  91 124 167 216 263 320 382
#     4  11  24  41  63  94 129 169 211 264 332 381
#     4   8  19  38  63  90 122 154 210 264 307 382
#     4  11  25  41  61  96 135 164 212 269 323 386
#     4  10  19  41  70  93 118 169 220 264 320 385
#
# _framework density 20.317385999999999
#
# number of rings (size 3 to 8) (size 9 to 14) (size 15 to 20)
#    0.000    2.000    2.000    1.800    2.800    7.200 
#    0.000    0.000    0.000    0.000    0.000    0.000 
#    0.000    0.000    0.000    0.000    0.000    0.000 
#
# Total GULP energy -247768.887354 kJ/mol
# GULP energy per Si atom -12388.444368 kJ/mol
# Density = 2.027114 g / cm^3
# Si number density = 20.317386 Si / 1000 Ang^3
#
#
#
# Elastic Constant Matrix: (Units=GPa)
#
#
# Indices 1 2 3 4 5 6 
#
# 1 99.0199 27.9422 28.4087 0.0000 2.5572 0.0000
# 2 27.9422 159.5631 55.2574 0.0000 -2.7281 -0.0002
# 3 28.4087 55.2574 111.1840 -0.0007 3.3849 -0.0005
# 4 0.0000 0.0000 -0.0007 32.1071 -0.0001 -5.0118
# 5 2.5572 -2.7281 3.3849 -0.0001 40.6766 0.0001
# 6 0.0000 -0.0002 -0.0005 -5.0118 0.0001 14.5614
#
#
#
# Elastic Compliance Matrix: (Units=1/GPa)
#
#
# Indices 1 2 3 4 5 6 
#
# 1 0.011086 -0.001180 -0.002228 0.000000 -0.000591 0.000000
# 2 -0.001180 0.007723 -0.003564 0.000000 0.000889 0.000000
# 3 -0.002228 -0.003564 0.011367 0.000000 -0.001045 0.000001
# 4 0.000000 0.000000 0.000000 0.032914 0.000000 0.011329
# 5 -0.000591 0.000889 -0.001045 0.000000 0.024768 0.000000
# 6 0.000000 0.000000 0.000001 0.011329 0.000000 0.072574
#
#
# Mechanical properties :
#
#
# Convention : Reuss Voigt Hill
#
# Bulk Modulus (GPa) = 61.60715 65.88707 63.74711
# Shear Modulus (GPa) = 27.81070 34.67958 31.24514
#
# Velocity S-wave (km/s) = 3.70376 4.13594 3.92580
# Velocity P-wave (km/s) = 6.97701 7.43689 7.21062
#
# Compressibility (1/GPa) = 0.01623188
#
# Stress axis : x y z
#
# Youngs Moduli (GPa) = 90.19994 129.48142 87.97768
#
# Poissons Ratio (x) = 0.15277 0.19605
# Poissons Ratio (y) = 0.10642 0.31355
# Poissons Ratio (z) = 0.20100 0.46146
#
# Static dielectric constant tensor:
#      x y z
#    x 3.290670 -0.000010 -0.361110 
#    y -0.000010 3.928420 0.000000 
#    z -0.361110 0.000000 3.836400 
# 
# 
# High freq. dielectric constant tensor:
#      x y z
#    x 1.790590 0.000000 -0.000790 
#    y 0.000000 1.789590 0.000000 
#    z -0.000790 0.000000 1.806350 
# 
# From -- ./inp_files/151221.got.cif
#   From: 2010.06.25/outbox.cif.g09.slc.cpg/sg15_76_cif.got.tgz:151221.got - 2010.06.28 07:06:18.
