data_PCOD8135438
_publ_section_title
;
Structure prediction by ZEFSAII (Michael W. Deem and Ramdas Pophale) SiO2 
 PCOD8135438
Probable space group: C 2/C
;
_chemical_formula_sum "Si O2"
_cell_formula_units_Z 56
_cell_length_a 11.857601
_cell_length_b 15.703807
_cell_length_c 14.476083
_cell_angle_alpha 90.000000
_cell_angle_beta 92.568450
_cell_angle_gamma 90.000000
_cell_volume 2692.875863
_symmetry_space_group_name_H-M "C 2/C"
_symmetry_group_IT_number 15
_symmetry_cell_setting 'monoclinic'
loop_
_space_group_symop_operation_xyz
x,y,z
-x,y,1/2-z
-x,-y,-z
x,-y,1/2+z
1/2+x,1/2+y,z
1/2-x,1/2+y,1/2-z
1/2-x,1/2-y,-z
1/2+x,1/2-y,1/2+z
loop_
_atom_site_type_symbol
_atom_site_label
_atom_site_fract_x
_atom_site_fract_y
_atom_site_fract_z
Si Si1 0.433332 0.218974 0.157438
Si Si2 0.286362 0.822886 0.356688
Si Si3 0.335823 0.005728 0.423697
Si Si4 0.195318 0.155751 0.492983
Si Si5 0.005672 0.733514 0.960448
Si Si6 0.328313 0.869793 0.160923
Si Si7 0.577297 0.035773 0.370660
O O1 0.500000 0.252192 0.250000
O O2 0.335150 0.284107 0.127992
O O3 0.383701 0.124651 0.173729
O O4 0.511804 0.209414 0.069222
O O5 0.275476 0.922752 0.378698
O O6 0.377845 0.769045 0.418668
O O7 0.316511 0.810199 0.249477
O O8 0.375128 0.975510 0.525368
O O9 0.251219 0.087100 0.425513
O O10 0.441602 0.031616 0.364615
O O11 0.250000 0.250000 0.500000
O O12 0.210185 0.122631 0.599406
O O13 0.065395 0.172550 0.455479
O O14 0.074875 0.662999 0.906026
O O15 0.369869 0.963199 0.193409
#
# Coordination Sequence:
#
# PCOD8135438 Si02
#       7
#     8   8   8   8   8   8   8
#     4  12  26  40  64  95 131 169 217 274 326 377
#     4  12  24  40  65  95 133 166 214 271 327 377
#     4  10  20  37  67  92 124 163 209 264 319 376
#     4   9  19  37  63  93 125 165 210 258 317 378
#     4  11  21  41  65  90 128 169 212 259 321 389
#     4  10  21  39  64  94 129 168 208 265 330 382
#     4  10  19  38  62  95 118 159 214 268 312 375
#
# _framework density 20.795611000000001
#
# number of rings (size 3 to 8) (size 9 to 14) (size 15 to 20)
#    0.000    1.429    2.857    4.286    2.000    1.143 
#    0.000    0.714    3.143    0.000    0.000    0.000 
#    0.000    0.000    0.000    0.000    0.000    0.000 
#
# Total GULP energy -346992.566788 kJ/mol
# GULP energy per Si atom -12392.591671 kJ/mol
# Density = 2.074828 g / cm^3
# Si number density = 20.795611 Si / 1000 Ang^3
#
#
#
# Elastic Constant Matrix: (Units=GPa)
#
#
# Indices 1 2 3 4 5 6 
#
# 1 78.6486 68.0251 18.6863 0.0000 16.1114 0.0000
# 2 68.0251 131.5969 22.8534 0.0000 8.0435 0.0000
# 3 18.6863 22.8534 77.1094 0.0000 1.6776 0.0000
# 4 0.0000 0.0000 0.0000 24.0203 0.0000 1.8191
# 5 16.1114 8.0435 1.6776 0.0000 25.3340 0.0000
# 6 0.0000 0.0000 0.0000 1.8191 0.0000 40.9967
#
#
#
# Elastic Compliance Matrix: (Units=1/GPa)
#
#
# Indices 1 2 3 4 5 6 
#
# 1 0.026945 -0.012707 -0.002482 0.000000 -0.012937 0.000000
# 2 -0.012707 0.014151 -0.001194 0.000000 0.003667 0.000000
# 3 -0.002482 -0.001194 0.013902 0.000000 0.001037 0.000000
# 4 0.000000 0.000000 0.000000 0.041772 0.000000 -0.001853
# 5 -0.012937 0.003667 0.001037 0.000000 0.046467 0.000000
# 6 0.000000 0.000000 0.000000 -0.001853 0.000000 0.024474
#
#
# Mechanical properties :
#
#
# Convention : Reuss Voigt Hill
#
# Bulk Modulus (GPa) = 44.98325 56.27605 50.62965
# Shear Modulus (GPa) = 24.05146 29.92287 26.98717
#
# Velocity S-wave (km/s) = 3.40452 3.79740 3.60632
# Velocity P-wave (km/s) = 6.09364 6.80788 6.46064
#
# Compressibility (1/GPa) = 0.02223049
#
# Stress axis : x y z
#
# Youngs Moduli (GPa) = 37.11250 70.66864 71.93434
#
# Poissons Ratio (x) = 0.89796 0.17856
# Poissons Ratio (y) = 0.47157 0.08592
# Poissons Ratio (z) = 0.09213 0.08441
#
# Static dielectric constant tensor:
#      x y z
#    x 3.934120 0.000000 0.217390 
#    y 0.000000 3.964800 0.000000 
#    z 0.217390 0.000000 3.824500 
# 
# 
# High freq. dielectric constant tensor:
#      x y z
#    x 1.784270 0.000000 0.007990 
#    y 0.000000 1.808040 0.000000 
#    z 0.007990 0.000000 1.822720 
# 
# From -- ./inp_files/144270.got.cif
#   From: 2010.06.25/outbox.cif.g09.slc.cpg/sg15_73_cif.got.tgz:144270.got - 2010.06.28 07:06:18.
