data_PCOD8135984
_publ_section_title
;
Structure prediction by ZEFSAII (Michael W. Deem and Ramdas Pophale) SiO2 
 PCOD8135984
Probable space group: C 2/C
;
_chemical_formula_sum "Si O2"
_cell_formula_units_Z 60
_cell_length_a 23.492506
_cell_length_b 8.885694
_cell_length_c 15.018037
_cell_angle_alpha 90.000000
_cell_angle_beta 116.708696
_cell_angle_gamma 90.000000
_cell_volume 2800.481778
_symmetry_space_group_name_H-M "C 2/C"
_symmetry_group_IT_number 15
_symmetry_cell_setting 'monoclinic'
loop_
_space_group_symop_operation_xyz
x,y,z
-x,y,1/2-z
-x,-y,-z
x,-y,1/2+z
1/2+x,1/2+y,z
1/2-x,1/2+y,1/2-z
1/2-x,1/2-y,-z
1/2+x,1/2-y,1/2+z
loop_
_atom_site_type_symbol
_atom_site_label
_atom_site_fract_x
_atom_site_fract_y
_atom_site_fract_z
Si Si1 0.311782 0.531247 0.007189
Si Si2 0.443474 0.614850 0.565916
Si Si3 0.995995 0.801792 0.919535
Si Si4 0.417158 0.923921 0.251094
Si Si5 0.742255 0.958163 0.634612
Si Si6 0.621992 0.836615 0.467613
Si Si7 0.721879 0.877272 0.293312
Si Si8 0.500000 0.176663 0.250000
O O1 0.369248 0.426004 0.016921
O O2 0.281765 0.476757 0.079034
O O3 0.334476 0.701643 0.038341
O O4 0.258158 0.527085 0.893859
O O5 0.490214 0.470753 0.604778
O O6 0.455458 0.700856 0.481529
O O7 0.455373 0.720580 0.657930
O O8 0.957389 0.718315 0.814617
O O9 0.063689 0.720839 0.987776
O O10 0.407139 0.916218 0.138364
O O11 0.351165 0.930643 0.257111
O O12 0.457431 0.077508 0.288896
O O13 0.667306 0.945285 0.556809
O O14 0.770802 0.800004 0.687615
O O15 0.750749 0.080527 0.717836
#
# Coordination Sequence:
#
# PCOD8135984 Si02
#       8
#     8   8   8   8   8   8   8   4
#     4  10  21  45  69  92 132 176 229 274 326 406
#     4  10  26  44  67 101 131 173 231 285 326 392
#     4  10  23  44  71  96 128 178 230 272 333 411
#     4  12  23  42  67  97 136 176 216 267 352 408
#     4  11  23  43  68  97 135 174 227 279 327 412
#     4  10  19  41  70  94 125 176 217 267 331 409
#     4  11  25  42  67 101 127 180 225 270 347 399
#     4  12  28  40  62 104 138 168 220 280 342 398
#
# _framework density 21.424885
#
# number of rings (size 3 to 8) (size 9 to 14) (size 15 to 20)
#    0.000    1.333    4.000    0.800    7.467    2.667 
#    4.800    1.333    0.000    0.000    0.000    0.000 
#    0.000    0.000    0.000    0.000    0.000    0.000 
#
# Total GULP energy -372097.981707 kJ/mol
# GULP energy per Si atom -12403.266057 kJ/mol
# Density = 2.137612 g / cm^3
# Si number density = 21.424885 Si / 1000 Ang^3
#
#
#
# Elastic Constant Matrix: (Units=GPa)
#
#
# Indices 1 2 3 4 5 6 
#
# 1 133.1632 26.5243 41.1774 0.0000 -5.8789 0.0000
# 2 26.5243 49.6113 28.1660 0.0000 -0.4977 0.0000
# 3 41.1774 28.1660 92.4450 0.0000 -10.9418 0.0000
# 4 0.0000 0.0000 0.0000 28.5346 0.0000 -4.2358
# 5 -5.8789 -0.4977 -10.9418 0.0000 40.9883 0.0000
# 6 0.0000 0.0000 0.0000 -4.2358 0.0000 24.4912
#
#
#
# Elastic Compliance Matrix: (Units=1/GPa)
#
#
# Indices 1 2 3 4 5 6 
#
# 1 0.009094 -0.003130 -0.003043 0.000000 0.000454 0.000000
# 2 -0.003130 0.025571 -0.006622 0.000000 -0.001906 0.000000
# 3 -0.003043 -0.006622 0.014590 0.000000 0.003378 0.000000
# 4 0.000000 0.000000 0.000000 0.035969 0.000000 0.006221
# 5 0.000454 -0.001906 0.003378 0.000000 0.025341 0.000000
# 6 0.000000 0.000000 0.000000 0.006221 0.000000 0.041907
#
#
# Mechanical properties :
#
#
# Convention : Reuss Voigt Hill
#
# Bulk Modulus (GPa) = 42.25827 51.88389 47.07108
# Shear Modulus (GPa) = 26.88885 30.75961 28.82423
#
# Velocity S-wave (km/s) = 3.54648 3.79317 3.67190
# Velocity P-wave (km/s) = 6.04457 6.59192 6.32417
#
# Compressibility (1/GPa) = 0.02366401
#
# Stress axis : x y z
#
# Youngs Moduli (GPa) = 109.96103 39.10747 68.53820
#
# Poissons Ratio (x) = 0.12239 0.20860
# Poissons Ratio (y) = 0.34414 0.45389
# Poissons Ratio (z) = 0.33467 0.25898
#
# Static dielectric constant tensor:
#      x y z
#    x 4.032320 0.000000 0.103420 
#    y 0.000000 3.667930 0.000000 
#    z 0.103420 0.000000 3.811990 
# 
# 
# High freq. dielectric constant tensor:
#      x y z
#    x 1.855150 0.000000 0.004140 
#    y 0.000000 1.822420 0.000000 
#    z 0.004140 0.000000 1.841950 
# 
# From -- ./inp_files/172433.got.cif
#   From: 2010.06.25/outbox.cif.g09.slc.cpg/sg15_87_cif.got.tgz:172433.got - 2010.06.28 07:06:18.
