data_PCOD8135875
_publ_section_title
;
Structure prediction by ZEFSAII (Michael W. Deem and Ramdas Pophale) SiO2 
 PCOD8135875
Probable space group: C 2/C
;
_chemical_formula_sum "Si O2"
_cell_formula_units_Z 36
_cell_length_a 7.569627
_cell_length_b 17.918104
_cell_length_c 13.825991
_cell_angle_alpha 90.000000
_cell_angle_beta 89.067391
_cell_angle_gamma 90.000000
_cell_volume 1875.017253
_symmetry_space_group_name_H-M "C 2/C"
_symmetry_group_IT_number 15
_symmetry_cell_setting 'monoclinic'
loop_
_space_group_symop_operation_xyz
x,y,z
-x,y,1/2-z
-x,-y,-z
x,-y,1/2+z
1/2+x,1/2+y,z
1/2-x,1/2+y,1/2-z
1/2-x,1/2-y,-z
1/2+x,1/2-y,1/2+z
loop_
_atom_site_type_symbol
_atom_site_label
_atom_site_fract_x
_atom_site_fract_y
_atom_site_fract_z
Si Si1 0.265750 0.162408 0.509679
Si Si2 0.500000 0.475467 0.750000
Si Si3 0.435924 0.905286 0.356320
Si Si4 0.457442 0.616316 0.645041
Si Si5 0.150958 0.425543 0.680751
O O1 0.250000 0.250000 0.500000
O O2 0.425777 0.129962 0.571178
O O3 0.291984 0.129694 0.403649
O O4 0.077563 0.142224 0.556497
O O5 0.494582 0.527430 0.654088
O O6 0.319833 0.429098 0.750954
O O7 0.500000 0.881692 0.250000
O O8 0.246311 0.868108 0.380004
O O9 0.418933 0.995376 0.361727
O O10 0.500000 0.654276 0.750000
O O11 0.000000 0.389757 0.750000
#
# Coordination Sequence:
#
# PCOD8135875 Si02
#       5
#     8   4   8   8   8
#     4  12  25  37  55  95 124 162 200 237 308 374
#     4   8  18  38  66  90 110 152 206 256 308 330
#     4  10  19  40  68  85 112 159 208 250 302 350
#     4   9  18  38  62  83 113 150 199 250 293 354
#     4  10  21  39  62  89 121 154 207 258 294 349
#
# _framework density 19.199822000000001
#
# number of rings (size 3 to 8) (size 9 to 14) (size 15 to 20)
#    0.667    1.333    2.222    2.000    0.000    7.111 
#    2.000    0.000    0.000    0.000    0.000    0.000 
#    0.000    0.000    0.000    0.000    0.000    0.000 
#
# Total GULP energy -223017.940997 kJ/mol
# GULP energy per Si atom -12389.885611 kJ/mol
# Density = 1.915612 g / cm^3
# Si number density = 19.199822 Si / 1000 Ang^3
#
#
#
# Elastic Constant Matrix: (Units=GPa)
#
#
# Indices 1 2 3 4 5 6 
#
# 1 178.2662 55.7258 69.9005 0.0000 -23.3023 0.0000
# 2 55.7258 71.1013 42.2913 0.0000 -11.1585 0.0000
# 3 69.9005 42.2913 106.4478 0.0000 -34.9198 0.0000
# 4 0.0000 0.0000 0.0000 22.8444 0.0000 -8.1655
# 5 -23.3023 -11.1585 -34.9198 0.0000 44.1750 0.0000
# 6 0.0000 0.0000 0.0000 -8.1655 0.0000 5.9593
#
#
#
# Elastic Compliance Matrix: (Units=1/GPa)
#
#
# Indices 1 2 3 4 5 6 
#
# 1 0.008483 -0.004391 -0.003675 0.000000 0.000461 0.000000
# 2 -0.004391 0.020766 -0.005949 0.000000 -0.001773 0.000000
# 3 -0.003675 -0.005949 0.017608 0.000000 0.010478 0.000000
# 4 0.000000 0.000000 0.000000 0.085793 0.000000 0.117553
# 5 0.000461 -0.001773 0.010478 0.000000 0.030715 0.000000
# 6 0.000000 0.000000 0.000000 0.117553 0.000000 0.328877
#
#
# Mechanical properties :
#
#
# Convention : Reuss Voigt Hill
#
# Bulk Modulus (GPa) = 53.11123 76.85007 64.98065
# Shear Modulus (GPa) = 9.49583 27.12225 18.30904
#
# Velocity S-wave (km/s) = 2.22633 3.76258 3.09140
# Velocity P-wave (km/s) = 5.85928 7.68045 6.83083
#
# Compressibility (1/GPa) = 0.01882841
#
# Stress axis : x y z
#
# Youngs Moduli (GPa) = 117.87717 48.15679 56.79155
#
# Poissons Ratio (x) = 0.21143 0.20873
# Poissons Ratio (y) = 0.51754 0.33783
# Poissons Ratio (z) = 0.43323 0.28646
#
# Static dielectric constant tensor:
#      x y z
#    x 3.785960 0.000000 -0.049420 
#    y 0.000000 3.202440 0.000000 
#    z -0.049420 0.000000 3.371890 
# 
# 
# High freq. dielectric constant tensor:
#      x y z
#    x 1.771130 0.000000 -0.009550 
#    y 0.000000 1.705780 0.000000 
#    z -0.009550 0.000000 1.738320 
# 
# From -- ./inp_files/133490.got.cif
#   From: 2010.06.25/outbox.cif.g09.slc.cpg/sg15_67_cif.got.tgz:133490.got - 2010.06.28 07:06:18.
