data_PCOD8135898
_publ_section_title
;
Structure prediction by ZEFSAII (Michael W. Deem and Ramdas Pophale) SiO2 
 PCOD8135898
Probable space group: C 2/C
;
_chemical_formula_sum "Si O2"
_cell_formula_units_Z 36
_cell_length_a 19.971336
_cell_length_b 8.687595
_cell_length_c 15.094275
_cell_angle_alpha 90.000000
_cell_angle_beta 43.631390
_cell_angle_gamma 90.000000
_cell_volume 1807.083499
_symmetry_space_group_name_H-M "C 2/C"
_symmetry_group_IT_number 15
_symmetry_cell_setting 'monoclinic'
loop_
_space_group_symop_operation_xyz
x,y,z
-x,y,1/2-z
-x,-y,-z
x,-y,1/2+z
1/2+x,1/2+y,z
1/2-x,1/2+y,1/2-z
1/2-x,1/2-y,-z
1/2+x,1/2-y,1/2+z
loop_
_atom_site_type_symbol
_atom_site_label
_atom_site_fract_x
_atom_site_fract_y
_atom_site_fract_z
Si Si1 0.506999 0.837907 0.340986
Si Si2 0.799957 0.588751 0.097612
Si Si3 0.000000 0.962066 0.750000
Si Si4 0.790483 0.080713 0.976996
Si Si5 0.210048 0.414421 0.218022
O O1 0.500000 0.914312 0.250000
O O2 0.414385 0.883438 0.486952
O O3 0.514026 0.650747 0.322357
O O4 0.596526 0.912294 0.305757
O O5 0.762050 0.537952 0.038147
O O6 0.773344 0.463391 0.196707
O O7 0.750027 0.745802 0.170316
O O8 0.093341 0.072213 0.648921
O O9 0.750000 0.250000 0.000000
O O10 0.766364 0.031757 0.100005
#
# Coordination Sequence:
#
# PCOD8135898 Si02
#       5
#     8   8   4   8   8
#     4  10  19  40  72  93 128 175 218 266 331 384
#     4  12  23  42  66 100 133 175 220 269 327 387
#     4  10  20  42  72  96 124 174 220 268 338 376
#     4  12  24  43  67  96 134 175 218 272 327 391
#     4  12  23  42  66 100 133 175 220 269 327 387
#
# _framework density 19.921603000000001
#
# number of rings (size 3 to 8) (size 9 to 14) (size 15 to 20)
#    0.667    0.000    6.667    2.667    0.000    1.778 
#    0.000    8.889    0.000    0.000    0.000    0.000 
#    0.000    0.000    0.000    0.000    0.000    0.000 
#
# Total GULP energy -223224.983622 kJ/mol
# GULP energy per Si atom -12401.387979 kJ/mol
# Density = 1.987626 g / cm^3
# Si number density = 19.921603 Si / 1000 Ang^3
#
#
#
# Elastic Constant Matrix: (Units=GPa)
#
#
# Indices 1 2 3 4 5 6 
#
# 1 58.7060 1.8807 33.9715 0.0000 -14.1039 0.0000
# 2 1.8807 89.6897 27.5708 0.0002 -6.1842 -0.0002
# 3 33.9715 27.5708 107.9413 -0.0001 -20.7499 0.0000
# 4 0.0000 0.0002 -0.0001 41.4300 0.0000 -1.4742
# 5 -14.1039 -6.1842 -20.7499 0.0000 48.1735 0.0000
# 6 0.0000 -0.0002 0.0000 -1.4742 0.0000 38.5734
#
#
#
# Elastic Compliance Matrix: (Units=1/GPa)
#
#
# Indices 1 2 3 4 5 6 
#
# 1 0.021677 0.001823 -0.006567 0.000000 0.003752 0.000000
# 2 0.001823 0.012255 -0.003597 0.000000 0.000558 0.000000
# 3 -0.006567 -0.003597 0.012856 0.000000 0.003153 0.000000
# 4 0.000000 0.000000 0.000000 0.024170 0.000000 0.000924
# 5 0.003752 0.000558 0.003153 0.000000 0.023287 0.000000
# 6 0.000000 0.000000 0.000000 0.000924 0.000000 0.025960
#
#
# Mechanical properties :
#
#
# Convention : Reuss Voigt Hill
#
# Bulk Modulus (GPa) = 33.21495 42.57590 37.89542
# Shear Modulus (GPa) = 34.03184 38.49633 36.26408
#
# Velocity S-wave (km/s) = 4.13763 4.40067 4.27117
# Velocity P-wave (km/s) = 6.28774 6.87308 6.58692
#
# Compressibility (1/GPa) = 0.03010693
#
# Stress axis : x y z
#
# Youngs Moduli (GPa) = 46.13211 81.59644 77.78608
#
# Poissons Ratio (x) = -0.14873 0.51078
# Poissons Ratio (y) = -0.08409 0.27978
# Poissons Ratio (z) = 0.30293 0.29348
#
# Static dielectric constant tensor:
#      x y z
#    x 3.547850 0.000000 0.113040 
#    y 0.000000 3.515820 0.000000 
#    z 0.113040 0.000000 3.792780 
# 
# 
# High freq. dielectric constant tensor:
#      x y z
#    x 1.773280 0.000000 -0.010600 
#    y 0.000000 1.768630 0.000000 
#    z -0.010600 0.000000 1.790670 
# 
# From -- ./inp_files/159047.got.cif
#   From: 2010.06.25/outbox.cif.g09.slc.cpg/sg15_80_cif.got.tgz:159047.got - 2010.06.28 07:06:18.
