data_PCOD8135490
_publ_section_title
;
Structure prediction by ZEFSAII (Michael W. Deem and Ramdas Pophale) SiO2 
 PCOD8135490
Probable space group: C 2/C
;
_chemical_formula_sum "Si O2"
_cell_formula_units_Z 52
_cell_length_a 11.400942
_cell_length_b 19.334913
_cell_length_c 18.111116
_cell_angle_alpha 90.000000
_cell_angle_beta 139.908581
_cell_angle_gamma 90.000000
_cell_volume 2571.106994
_symmetry_space_group_name_H-M "C 2/C"
_symmetry_group_IT_number 15
_symmetry_cell_setting 'monoclinic'
loop_
_space_group_symop_operation_xyz
x,y,z
-x,y,1/2-z
-x,-y,-z
x,-y,1/2+z
1/2+x,1/2+y,z
1/2-x,1/2+y,1/2-z
1/2-x,1/2-y,-z
1/2+x,1/2-y,1/2+z
loop_
_atom_site_type_symbol
_atom_site_label
_atom_site_fract_x
_atom_site_fract_y
_atom_site_fract_z
Si Si1 0.679590 0.185465 0.562820
Si Si2 0.000000 0.428571 0.250000
Si Si3 0.273635 0.867048 0.260307
Si Si4 0.907634 0.164987 0.534355
Si Si5 0.037257 0.556678 0.080804
Si Si6 0.233264 0.978299 0.547395
Si Si7 0.409933 0.493521 0.785479
O O1 0.702701 0.186918 0.661843
O O2 0.846625 0.158306 0.591859
O O3 0.658854 0.265531 0.534320
O O4 0.508869 0.135116 0.464998
O O5 0.958619 0.381795 0.302717
O O6 0.810184 0.472686 0.149980
O O7 0.192291 0.933907 0.260799
O O8 0.125430 0.834957 0.133372
O O9 0.828485 0.097463 0.453297
O O10 0.912866 0.529943 0.086225
O O11 0.246039 0.562142 0.210114
O O12 0.000000 0.500000 0.000000
O O13 0.062364 0.014779 0.423130
O O14 0.500000 0.485565 0.750000
#
# Coordination Sequence:
#
# PCOD8135490 Si02
#       7
#     8   4   8   8   8   8   8
#     4  10  19  38  64  89 124 158 202 264 322 369
#     4  12  24  40  60  86 128 180 204 250 312 372
#     4  11  21  38  59  84 123 168 207 250 317 376
#     4   9  21  38  61  94 118 156 208 262 320 376
#     4  11  17  33  59  94 122 155 200 258 313 369
#     4  10  21  37  55  88 127 157 204 254 310 371
#     4  11  19  32  62  91 120 155 204 264 320 362
#
# _framework density 20.224751000000001
#
# number of rings (size 3 to 8) (size 9 to 14) (size 15 to 20)
#    0.000    1.538    4.615    2.308    0.000    2.462 
#    8.308    0.769    1.692    0.000    0.000    0.000 
#    0.000    0.000    0.000    0.000    0.000    0.000 
#
# Total GULP energy -322157.940546 kJ/mol
# GULP energy per Si atom -12390.690021 kJ/mol
# Density = 2.017872 g / cm^3
# Si number density = 20.224751 Si / 1000 Ang^3
#
#
#
# Elastic Constant Matrix: (Units=GPa)
#
#
# Indices 1 2 3 4 5 6 
#
# 1 78.2464 38.1312 39.6347 -0.0004 11.8439 -0.0003
# 2 38.1312 61.5933 36.8265 0.0002 -2.1453 -0.0003
# 3 39.6347 36.8265 100.4080 -0.0011 15.4223 -0.0007
# 4 -0.0004 0.0002 -0.0011 21.9085 -0.0005 -1.0623
# 5 11.8439 -2.1453 15.4223 -0.0005 33.1155 -0.0004
# 6 -0.0003 -0.0003 -0.0007 -1.0623 -0.0004 20.2345
#
#
#
# Elastic Compliance Matrix: (Units=1/GPa)
#
#
# Indices 1 2 3 4 5 6 
#
# 1 0.020873 -0.011343 -0.003037 0.000000 -0.006786 0.000000
# 2 -0.011343 0.027852 -0.007150 -0.000001 0.009191 0.000000
# 3 -0.003037 -0.007150 0.014739 0.000001 -0.006241 0.000000
# 4 0.000000 -0.000001 0.000001 0.045761 0.000000 0.002402
# 5 -0.006786 0.009191 -0.006241 0.000000 0.036126 0.000001
# 6 0.000000 0.000000 0.000000 0.002402 0.000001 0.049547
#
#
# Mechanical properties :
#
#
# Convention : Reuss Voigt Hill
#
# Bulk Modulus (GPa) = 49.00535 52.15917 50.58226
# Shear Modulus (GPa) = 20.42823 23.42873 21.92848
#
# Velocity S-wave (km/s) = 3.18159 3.40725 3.29635
# Velocity P-wave (km/s) = 6.14652 6.42844 6.28906
#
# Compressibility (1/GPa) = 0.02040594
#
# Stress axis : x y z
#
# Youngs Moduli (GPa) = 47.90838 35.90343 67.84684
#
# Poissons Ratio (x) = 0.40724 0.20605
# Poissons Ratio (y) = 0.54341 0.48509
# Poissons Ratio (z) = 0.14550 0.25670
#
# Static dielectric constant tensor:
#      x y z
#    x 3.913720 0.000000 0.407630 
#    y 0.000000 3.548880 0.000000 
#    z 0.407630 0.000000 3.567310 
# 
# 
# High freq. dielectric constant tensor:
#      x y z
#    x 1.790740 0.000000 0.007160 
#    y 0.000000 1.761900 0.000000 
#    z 0.007160 0.000000 1.787310 
# 
# From -- ./inp_files/200312.got.cif
#   From: 2010.06.25/outbox.cif.g09.slc.cpg/sg15_101_cif.got.tgz:200312.got - 2010.06.28 07:06:18.
