data_PCOD8135036
_publ_section_title
;
Structure prediction by ZEFSAII (Michael W. Deem and Ramdas Pophale) SiO2 
 PCOD8135036
Probable space group: C 2/C
;
_chemical_formula_sum "Si O2"
_cell_formula_units_Z 56
_cell_length_a 9.163462
_cell_length_b 23.727597
_cell_length_c 18.963733
_cell_angle_alpha 90.000000
_cell_angle_beta 133.749438
_cell_angle_gamma 90.000000
_cell_volume 2978.498063
_symmetry_space_group_name_H-M "C 2/C"
_symmetry_group_IT_number 15
_symmetry_cell_setting 'monoclinic'
loop_
_space_group_symop_operation_xyz
x,y,z
-x,y,1/2-z
-x,-y,-z
x,-y,1/2+z
1/2+x,1/2+y,z
1/2-x,1/2+y,1/2-z
1/2-x,1/2-y,-z
1/2+x,1/2-y,1/2+z
loop_
_atom_site_type_symbol
_atom_site_label
_atom_site_fract_x
_atom_site_fract_y
_atom_site_fract_z
Si Si1 0.693815 0.925684 0.723108
Si Si2 0.648768 0.947931 0.550477
Si Si3 0.557537 0.164854 0.494203
Si Si4 0.283436 0.250545 0.166939
Si Si5 0.803655 0.807297 0.727175
Si Si6 0.519615 0.454590 0.568160
Si Si7 0.273744 0.866834 0.585169
O O1 0.739318 0.948273 0.659742
O O2 0.817782 0.867164 0.772064
O O3 0.457658 0.912010 0.658663
O O4 0.792723 0.967107 0.814872
O O5 0.531381 0.889641 0.495818
O O6 0.815503 0.953325 0.545323
O O7 0.500000 0.000000 0.500000
O O8 0.630170 0.209497 0.575026
O O9 0.390316 0.194011 0.388613
O O10 0.740850 0.145566 0.503667
O O11 0.500000 0.280518 0.250000
O O12 0.196367 0.241863 0.215474
O O13 0.320256 0.191527 0.139563
O O14 0.000000 0.794348 0.750000
O O15 0.500000 0.500000 0.500000
O O16 0.567842 0.395295 0.544549
#
# Coordination Sequence:
#
# PCOD8135036 Si02
#       7
#     8   8   8   8   8   8   8
#     4  10  19  37  60  84 114 150 198 242 293 358
#     4  10  22  42  59  81 121 156 197 245 300 357
#     4  10  23  37  59  89 116 161 200 245 297 363
#     4  12  20  37  61  87 121 159 196 247 301 354
#     4  10  20  36  57  86 115 155 201 243 291 354
#     4  12  21  34  61  93 110 150 202 253 295 345
#     4  10  20  36  58  87 118 148 201 242 292 351
#
# _framework density 18.801421000000001
#
# number of rings (size 3 to 8) (size 9 to 14) (size 15 to 20)
#    0.000    1.714    4.286    4.714    0.000    0.571 
#    0.000    2.857    0.000    0.000    0.000    0.000 
#    0.000    0.000    0.000    0.000    0.000    0.000 
#
# Total GULP energy -346960.193668 kJ/mol
# GULP energy per Si atom -12391.435488 kJ/mol
# Density = 1.875863 g / cm^3
# Si number density = 18.801421 Si / 1000 Ang^3
#
#
#
# Elastic Constant Matrix: (Units=GPa)
#
#
# Indices 1 2 3 4 5 6 
#
# 1 136.8021 55.6467 45.4166 0.0000 -1.3840 0.0000
# 2 55.6467 86.6541 74.1126 0.0000 -7.7469 0.0000
# 3 45.4166 74.1126 112.9528 0.0000 -11.7454 0.0000
# 4 0.0000 0.0000 0.0000 41.5064 0.0000 -4.1412
# 5 -1.3840 -7.7469 -11.7454 0.0000 18.4478 0.0000
# 6 0.0000 0.0000 0.0000 -4.1412 0.0000 27.8202
#
#
#
# Elastic Compliance Matrix: (Units=1/GPa)
#
#
# Indices 1 2 3 4 5 6 
#
# 1 0.009969 -0.006778 0.000236 0.000000 -0.001948 0.000000
# 2 -0.006778 0.030906 -0.017409 0.000000 0.001386 0.000000
# 3 0.000236 -0.017409 0.020800 0.000000 0.005950 0.000000
# 4 0.000000 0.000000 0.000000 0.024456 0.000000 0.003640
# 5 -0.001948 0.001386 0.005950 0.000000 0.058431 0.000000
# 6 0.000000 0.000000 0.000000 0.003640 0.000000 0.036487
#
#
# Mechanical properties :
#
#
# Convention : Reuss Voigt Hill
#
# Bulk Modulus (GPa) = 72.60539 76.30676 74.45607
# Shear Modulus (GPa) = 21.40947 28.30375 24.85661
#
# Velocity S-wave (km/s) = 3.37815 3.88416 3.63996
# Velocity P-wave (km/s) = 7.34279 7.79675 7.57318
#
# Compressibility (1/GPa) = 0.01377308
#
# Stress axis : x y z
#
# Youngs Moduli (GPa) = 100.31423 32.35581 48.07739
#
# Poissons Ratio (x) = 0.21931 -0.01137
# Poissons Ratio (y) = 0.67993 0.83700
# Poissons Ratio (z) = -0.02372 0.56329
#
# Static dielectric constant tensor:
#      x y z
#    x 3.824560 0.000000 -0.168800 
#    y 0.000000 3.253990 0.000000 
#    z -0.168800 0.000000 3.436980 
# 
# 
# High freq. dielectric constant tensor:
#      x y z
#    x 1.751970 0.000000 -0.018460 
#    y 0.000000 1.697140 0.000000 
#    z -0.018460 0.000000 1.717000 
# 
# From -- ./inp_files/193619.got.cif
#   From: 2010.06.25/outbox.cif.g09.slc.cpg/sg15_97_cif.got.tgz:193619.got - 2010.06.28 07:06:18.
