data_PCOD8135949
_publ_section_title
;
Structure prediction by ZEFSAII (Michael W. Deem and Ramdas Pophale) SiO2 
 PCOD8135949
Probable space group: C 2/C
;
_chemical_formula_sum "Si O2"
_cell_formula_units_Z 64
_cell_length_a 15.608266
_cell_length_b 14.192969
_cell_length_c 18.875632
_cell_angle_alpha 90.000000
_cell_angle_beta 43.944322
_cell_angle_gamma 90.000000
_cell_volume 2901.771660
_symmetry_space_group_name_H-M "C 2/C"
_symmetry_group_IT_number 15
_symmetry_cell_setting 'monoclinic'
loop_
_space_group_symop_operation_xyz
x,y,z
-x,y,1/2-z
-x,-y,-z
x,-y,1/2+z
1/2+x,1/2+y,z
1/2-x,1/2+y,1/2-z
1/2-x,1/2-y,-z
1/2+x,1/2-y,1/2+z
loop_
_atom_site_type_symbol
_atom_site_label
_atom_site_fract_x
_atom_site_fract_y
_atom_site_fract_z
Si Si1 0.542640 0.855580 0.353244
Si Si2 0.079915 0.151197 0.343761
Si Si3 0.348884 0.124074 0.155340
Si Si4 0.119361 0.514672 0.223471
Si Si5 0.947259 0.015428 0.854255
Si Si6 0.893742 0.673334 0.529586
Si Si7 0.359682 0.621193 0.037716
Si Si8 0.681576 0.022148 0.470115
O O1 0.507409 0.745462 0.362647
O O2 0.620708 0.858398 0.379898
O O3 0.415473 0.915955 0.427735
O O4 0.622855 0.901903 0.240903
O O5 0.224208 0.179106 0.248340
O O6 0.058995 0.118487 0.438066
O O7 0.044271 0.065755 0.315020
O O8 0.396703 0.063638 0.191913
O O9 0.459653 0.195070 0.069319
O O10 0.324701 0.050600 0.107428
O O11 0.242729 0.550339 0.110400
O O12 0.000000 0.542986 0.250000
O O13 0.000000 0.062866 0.750000
O O14 0.816766 0.963346 0.921768
O O15 0.941615 0.091742 0.920993
O O16 0.818901 0.768731 0.554546
O O17 0.845785 0.589818 0.508084
#
# Coordination Sequence:
#
# PCOD8135949 Si02
#       8
#     8   8   8   8   8   8   8   8
#     4  10  20  40  69  96 126 172 219 269 323 394
#     4  10  23  44  65  99 132 171 219 269 339 386
#     4  10  19  41  66  88 130 174 213 270 314 397
#     4  11  21  40  64  96 131 169 217 269 328 380
#     4  12  25  45  64  94 135 177 219 268 331 393
#     4  10  20  42  68  96 126 174 222 259 333 388
#     4  10  25  44  65  97 138 169 216 279 325 387
#     4  11  20  40  71  93 128 173 219 266 321 389
#
# _framework density 22.055492000000001
#
# number of rings (size 3 to 8) (size 9 to 14) (size 15 to 20)
#    0.000    1.500    3.750    1.875    0.000    1.500 
#   18.000    0.000    0.000    0.000    0.000    0.000 
#    0.000    0.000    0.000    0.000    0.000    0.000 
#
# Total GULP energy -396591.967470 kJ/mol
# GULP energy per Si atom -12393.498983 kJ/mol
# Density = 2.200529 g / cm^3
# Si number density = 22.055492 Si / 1000 Ang^3
#
#
#
# Elastic Constant Matrix: (Units=GPa)
#
#
# Indices 1 2 3 4 5 6 
#
# 1 74.9404 29.1300 30.5961 0.0000 -3.5600 0.0000
# 2 29.1300 102.7554 46.6433 0.0000 0.3815 0.0000
# 3 30.5961 46.6433 110.5357 0.0000 10.4147 0.0000
# 4 0.0000 0.0000 0.0000 23.6425 0.0000 -5.0782
# 5 -3.5600 0.3815 10.4147 0.0000 26.3571 0.0000
# 6 0.0000 0.0000 0.0000 -5.0782 0.0000 17.0911
#
#
#
# Elastic Compliance Matrix: (Units=1/GPa)
#
#
# Indices 1 2 3 4 5 6 
#
# 1 0.016120 -0.002972 -0.003549 0.000000 0.003623 0.000000
# 2 -0.002972 0.012678 -0.004645 0.000000 0.001250 0.000000
# 3 -0.003549 -0.004645 0.012493 0.000000 -0.005349 0.000000
# 4 0.000000 0.000000 0.000000 0.045180 0.000000 0.013424
# 5 0.003623 0.001250 -0.005349 0.000000 0.040525 0.000000
# 6 0.000000 0.000000 0.000000 0.013424 0.000000 0.062499
#
#
# Mechanical properties :
#
#
# Convention : Reuss Voigt Hill
#
# Bulk Modulus (GPa) = 52.74551 55.66337 54.20444
# Shear Modulus (GPa) = 22.92016 25.54230 24.23123
#
# Velocity S-wave (km/s) = 3.22717 3.40677 3.31818
# Velocity P-wave (km/s) = 6.15248 6.38494 6.26978
#
# Compressibility (1/GPa) = 0.01895896
#
# Stress axis : x y z
#
# Youngs Moduli (GPa) = 62.03297 78.87479 80.04301
#
# Poissons Ratio (x) = 0.23444 0.28409
# Poissons Ratio (y) = 0.18438 0.37180
# Poissons Ratio (z) = 0.22017 0.36637
#
# Static dielectric constant tensor:
#      x y z
#    x 3.863780 0.000000 0.101010 
#    y 0.000000 3.907080 0.000000 
#    z 0.101010 0.000000 4.126070 
# 
# 
# High freq. dielectric constant tensor:
#      x y z
#    x 1.858420 0.000000 0.013740 
#    y 0.000000 1.853430 0.000000 
#    z 0.013740 0.000000 1.869780 
# 
# From -- ./inp_files/205682.got.cif
#   From: 2010.06.25/outbox.cif.g09.slc.cpg/sg15_103_cif.got.tgz:205682.got - 2010.06.28 07:06:18.
