data_PCOD8135679
_publ_section_title
;
Structure prediction by ZEFSAII (Michael W. Deem and Ramdas Pophale) SiO2 
 PCOD8135679
Probable space group: C 2/C
;
_chemical_formula_sum "Si O2"
_cell_formula_units_Z 64
_cell_length_a 17.461121
_cell_length_b 9.301054
_cell_length_c 31.195389
_cell_angle_alpha 90.000000
_cell_angle_beta 141.225374
_cell_angle_gamma 90.000000
_cell_volume 3172.841699
_symmetry_space_group_name_H-M "C 2/C"
_symmetry_group_IT_number 15
_symmetry_cell_setting 'monoclinic'
loop_
_space_group_symop_operation_xyz
x,y,z
-x,y,1/2-z
-x,-y,-z
x,-y,1/2+z
1/2+x,1/2+y,z
1/2-x,1/2+y,1/2-z
1/2-x,1/2-y,-z
1/2+x,1/2-y,1/2+z
loop_
_atom_site_type_symbol
_atom_site_label
_atom_site_fract_x
_atom_site_fract_y
_atom_site_fract_z
Si Si1 0.771743 0.355451 0.944054
Si Si2 0.924881 0.188319 0.944029
Si Si3 0.653420 0.078330 0.930149
Si Si4 0.180440 0.084335 0.057331
Si Si5 0.124820 0.493811 0.213273
Si Si6 0.356986 0.488209 0.687664
Si Si7 0.361400 0.201442 0.201779
Si Si8 0.262736 0.217393 0.301576
O O1 0.880085 0.301640 0.960060
O O2 0.676515 0.233222 0.918260
O O3 0.695069 0.474119 0.883846
O O4 0.838846 0.420702 0.014949
O O5 0.877908 0.212401 0.875370
O O6 0.877318 0.033663 0.936872
O O7 0.071557 0.198035 0.002269
O O8 0.519948 0.022714 0.857820
O O9 0.764562 0.976436 0.963003
O O10 0.293983 0.155042 0.129756
O O11 0.154857 0.582606 0.269100
O O12 0.186987 0.336398 0.242005
O O13 0.189742 0.585025 0.205195
O O14 0.500000 0.489344 0.750000
O O15 0.311376 0.637082 0.690596
O O16 0.322549 0.346452 0.698713
O O17 0.500000 0.216891 0.250000
#
# Coordination Sequence:
#
# PCOD8135679 Si02
#       8
#     8   8   8   8   8   8   8   8
#     4   9  20  40  63  95 123 164 217 261 312 387
#     4   9  20  38  63  87 122 162 211 255 317 375
#     4  10  21  39  65  95 125 165 216 260 320 377
#     4  10  19  39  63  91 120 166 206 260 311 377
#     4  12  24  41  63  92 128 167 207 266 313 375
#     4  10  22  41  64  91 125 165 210 259 311 376
#     4  11  22  39  63  91 123 164 210 254 313 378
#     4  11  24  42  60  93 126 164 213 258 318 376
#
# _framework density 20.171192000000001
#
# number of rings (size 3 to 8) (size 9 to 14) (size 15 to 20)
#    0.000    1.750    2.500    1.500    0.000    3.500 
#   11.250    3.750    0.000    0.000    0.000    0.000 
#    0.000    0.000    0.000    0.000    0.000    0.000 
#
# Total GULP energy -396631.429072 kJ/mol
# GULP energy per Si atom -12394.732159 kJ/mol
# Density = 2.012528 g / cm^3
# Si number density = 20.171192 Si / 1000 Ang^3
#
#
#
# Elastic Constant Matrix: (Units=GPa)
#
#
# Indices 1 2 3 4 5 6 
#
# 1 74.7050 35.6189 47.4235 0.0000 0.4439 0.0000
# 2 35.6189 82.2737 51.8375 0.0000 3.1012 0.0000
# 3 47.4235 51.8375 124.2790 0.0000 10.6351 0.0000
# 4 0.0000 0.0000 0.0000 9.7839 0.0000 -15.4689
# 5 0.4439 3.1012 10.6351 0.0000 24.9776 0.0000
# 6 0.0000 0.0000 0.0000 -15.4689 0.0000 11.8144
#
#
#
# Elastic Compliance Matrix: (Units=1/GPa)
#
#
# Indices 1 2 3 4 5 6 
#
# 1 0.019220 -0.004962 -0.005488 0.000000 0.002611 0.000000
# 2 -0.004962 0.017788 -0.005547 0.000000 0.000241 0.000000
# 3 -0.005488 -0.005547 0.012855 0.000000 -0.004687 0.000000
# 4 0.000000 0.000000 0.000000 -0.095512 0.000000 -0.125057
# 5 0.002611 0.000241 -0.004687 0.000000 0.041955 0.000000
# 6 0.000000 0.000000 0.000000 -0.125057 0.000000 -0.079098
#
#
# Mechanical properties :
#
#
# Convention : Reuss Voigt Hill
#
# Bulk Modulus (GPa) = 55.95817 61.22417 58.59117
# Shear Modulus (GPa) = -111.50643 19.07370 -46.21637
#
# Velocity S-wave (km/s) = -7.44312 3.07838 -4.79185
# Velocity P-wave (km/s) = 6.78711 6.56151 1.22708
#
# Compressibility (1/GPa) = 0.01787049
#
# Stress axis : x y z
#
# Youngs Moduli (GPa) = 52.02911 56.21621 77.78802
#
# Poissons Ratio (x) = 0.27892 0.42691
# Poissons Ratio (y) = 0.25814 0.43150
# Poissons Ratio (z) = 0.28554 0.31183
#
# Static dielectric constant tensor:
#      x y z
#    x 3.388840 0.000000 0.570820 
#    y 0.000000 4.060110 0.000000 
#    z 0.570820 0.000000 1.837610 
# 
# 
# High freq. dielectric constant tensor:
#      x y z
#    x 1.780970 0.000000 0.002360 
#    y 0.000000 1.789130 0.000000 
#    z 0.002360 0.000000 1.796610 
# 
# From -- ./inp_files/315745.got.cif
#   From: 2010.06.25/outbox.cif.g09.slc.cpg/sg15_158_cif.got.tgz:315745.got - 2010.06.28 07:06:18.
