data_PCOD8135097
_publ_section_title
;
Structure prediction by ZEFSAII (Michael W. Deem and Ramdas Pophale) SiO2 
 PCOD8135097
Probable space group: C 2/C
;
_chemical_formula_sum "Si O2"
_cell_formula_units_Z 56
_cell_length_a 12.049220
_cell_length_b 13.270315
_cell_length_c 17.238353
_cell_angle_alpha 90.000000
_cell_angle_beta 65.586198
_cell_angle_gamma 90.000000
_cell_volume 2509.897631
_symmetry_space_group_name_H-M "C 2/C"
_symmetry_group_IT_number 15
_symmetry_cell_setting 'monoclinic'
loop_
_space_group_symop_operation_xyz
x,y,z
-x,y,1/2-z
-x,-y,-z
x,-y,1/2+z
1/2+x,1/2+y,z
1/2-x,1/2+y,1/2-z
1/2-x,1/2-y,-z
1/2+x,1/2-y,1/2+z
loop_
_atom_site_type_symbol
_atom_site_label
_atom_site_fract_x
_atom_site_fract_y
_atom_site_fract_z
Si Si1 0.011128 0.049689 0.079663
Si Si2 0.976233 0.863240 0.168445
Si Si3 0.216409 0.835773 0.831998
Si Si4 0.794492 0.549294 0.019521
Si Si5 0.370412 0.165629 0.144972
Si Si6 0.760042 0.831771 0.431055
Si Si7 0.422245 0.971397 0.844159
O O1 0.937483 0.978923 0.164828
O O2 0.927178 0.149212 0.109626
O O3 0.151987 0.077352 0.054045
O O4 0.000000 0.000000 0.000000
O O5 0.106614 0.872300 0.090504
O O6 0.000000 0.830314 0.250000
O O7 0.894217 0.785450 0.143866
O O8 0.250434 0.852116 0.732040
O O9 0.242911 0.720209 0.851686
O O10 0.299937 0.912316 0.856678
O O11 0.848081 0.629933 0.064226
O O12 0.821489 0.433295 0.039642
O O13 0.873907 0.558752 0.916843
O O14 0.489375 0.110520 0.142840
O O15 0.750000 0.750000 0.500000
O O16 0.500000 0.019839 0.750000
#
# Coordination Sequence:
#
# PCOD8135097 Si02
#       7
#     8   8   8   8   8   8   8
#     4  11  24  40  64  95 132 172 214 270 328 393
#     4  11  21  40  66  94 120 169 224 265 315 387
#     4  11  20  36  62  91 132 169 212 272 324 375
#     4  11  23  38  64  99 127 170 221 268 331 388
#     4  11  22  36  62  96 128 165 219 278 315 375
#     4  11  19  36  63  92 122 162 224 266 306 387
#     4  10  19  37  61  90 123 166 215 268 322 375
#
# _framework density 22.311668000000001
#
# number of rings (size 3 to 8) (size 9 to 14) (size 15 to 20)
#    0.000    1.143    5.714    1.714    4.000    0.000 
#    0.000    0.714    3.143    0.000    0.000    0.000 
#    0.000    0.000    0.000    0.000    0.000    0.000 
#
# Total GULP energy -346884.860442 kJ/mol
# GULP energy per Si atom -12388.745016 kJ/mol
# Density = 2.226089 g / cm^3
# Si number density = 22.311668 Si / 1000 Ang^3
#
#
#
# Elastic Constant Matrix: (Units=GPa)
#
#
# Indices 1 2 3 4 5 6 
#
# 1 79.1944 26.0536 45.2181 0.0000 -5.8960 0.0000
# 2 26.0536 49.9238 22.6563 0.0000 6.5458 0.0000
# 3 45.2181 22.6563 117.4850 0.0000 -3.3581 0.0000
# 4 0.0000 0.0000 0.0000 31.2051 0.0000 6.1755
# 5 -5.8960 6.5458 -3.3581 0.0000 38.2913 0.0000
# 6 0.0000 0.0000 0.0000 6.1755 0.0000 22.6770
#
#
#
# Elastic Compliance Matrix: (Units=1/GPa)
#
#
# Indices 1 2 3 4 5 6 
#
# 1 0.018608 -0.007662 -0.005579 0.000000 0.003686 0.000000
# 2 -0.007662 0.025780 -0.002188 0.000000 -0.005779 0.000000
# 3 -0.005579 -0.002188 0.011095 0.000000 0.000488 0.000000
# 4 0.000000 0.000000 0.000000 0.033872 0.000000 -0.009224
# 5 0.003686 -0.005779 0.000488 0.000000 0.027714 0.000000
# 6 0.000000 0.000000 0.000000 -0.009224 0.000000 0.046610
#
#
# Mechanical properties :
#
#
# Convention : Reuss Voigt Hill
#
# Bulk Modulus (GPa) = 40.60945 48.27323 44.44134
# Shear Modulus (GPa) = 24.66185 28.61302 26.63744
#
# Velocity S-wave (km/s) = 3.32826 3.58498 3.45900
# Velocity P-wave (km/s) = 5.74546 6.23049 5.99288
#
# Compressibility (1/GPa) = 0.02462481
#
# Stress axis : x y z
#
# Youngs Moduli (GPa) = 53.74122 38.79032 90.13291
#
# Poissons Ratio (x) = 0.29722 0.50284
# Poissons Ratio (y) = 0.41178 0.19717
# Poissons Ratio (z) = 0.29981 0.08486
#
# Static dielectric constant tensor:
#      x y z
#    x 3.913330 0.000000 -0.151960 
#    y 0.000000 2.339710 0.000000 
#    z -0.151960 0.000000 4.271500 
# 
# 
# High freq. dielectric constant tensor:
#      x y z
#    x 1.866290 0.000000 -0.014590 
#    y 0.000000 1.850190 0.000000 
#    z -0.014590 0.000000 1.890900 
# 
# From -- ./inp_files/197761.got.cif
#   From: 2010.06.25/outbox.cif.g09.slc.cpg/sg15_99_cif.got.tgz:197761.got - 2010.06.28 07:06:18.
