data_PCOD8135191
_publ_section_title
;
Structure prediction by ZEFSAII (Michael W. Deem and Ramdas Pophale) SiO2 
 PCOD8135191
Probable space group: C 2/C
;
_chemical_formula_sum "Si O2"
_cell_formula_units_Z 56
_cell_length_a 9.353165
_cell_length_b 17.654965
_cell_length_c 17.063664
_cell_angle_alpha 90.000000
_cell_angle_beta 103.091234
_cell_angle_gamma 90.000000
_cell_volume 2744.488690
_symmetry_space_group_name_H-M "C 2/C"
_symmetry_group_IT_number 15
_symmetry_cell_setting 'monoclinic'
loop_
_space_group_symop_operation_xyz
x,y,z
-x,y,1/2-z
-x,-y,-z
x,-y,1/2+z
1/2+x,1/2+y,z
1/2-x,1/2+y,1/2-z
1/2-x,1/2-y,-z
1/2+x,1/2-y,1/2+z
loop_
_atom_site_type_symbol
_atom_site_label
_atom_site_fract_x
_atom_site_fract_y
_atom_site_fract_z
Si Si1 0.012976 0.080447 0.101198
Si Si2 0.157535 0.157949 0.733532
Si Si3 0.106993 0.554330 0.690014
Si Si4 0.068491 0.573637 0.970633
Si Si5 0.631936 0.422966 0.076702
Si Si6 0.797466 0.600515 0.362443
Si Si7 0.347228 0.701111 0.273267
O O1 0.122731 0.145191 0.149344
O O2 0.865076 0.074659 0.133040
O O3 0.082001 0.997257 0.118209
O O4 0.982944 0.099912 0.006105
O O5 0.227208 0.079077 0.771460
O O6 0.144874 0.149193 0.637200
O O7 0.272686 0.218952 0.782922
O O8 0.000000 0.173514 0.750000
O O9 0.112366 0.466440 0.667661
O O10 0.000000 0.566875 0.750000
O O11 0.045450 0.604604 0.608397
O O12 0.215137 0.552714 0.942083
O O13 0.111710 0.629194 0.048699
O O14 0.000000 0.500000 0.000000
O O15 0.778979 0.667729 0.299130
O O16 0.500000 0.717907 0.250000
#
# Coordination Sequence:
#
# PCOD8135191 Si02
#       7
#     8   8   8   8   8   8   8
#     4   9  19  38  64  91 118 153 199 255 310 359
#     4  12  25  40  57  86 123 164 206 248 300 367
#     4  11  20  35  62  90 118 156 201 245 302 358
#     4   9  19  35  57  95 117 146 195 247 302 355
#     4  10  19  37  64  92 120 155 200 256 309 359
#     4   9  19  37  61  89 118 152 199 250 302 355
#     4  10  22  41  59  84 119 165 206 244 302 367
#
# _framework density 20.404529
#
# number of rings (size 3 to 8) (size 9 to 14) (size 15 to 20)
#    0.000    2.000    1.429    2.143    0.000    2.857 
#    5.143    2.857    0.000    0.000    0.000    0.000 
#    0.000    0.000    0.000    0.000    0.000    0.000 
#
# Total GULP energy -346902.213694 kJ/mol
# GULP energy per Si atom -12389.364775 kJ/mol
# Density = 2.035809 g / cm^3
# Si number density = 20.404529 Si / 1000 Ang^3
#
#
#
# Elastic Constant Matrix: (Units=GPa)
#
#
# Indices 1 2 3 4 5 6 
#
# 1 79.7965 26.6074 38.4886 0.0000 2.8556 0.0000
# 2 26.6074 56.6703 36.7156 0.0000 -2.4605 0.0000
# 3 38.4886 36.7156 144.8913 0.0000 13.1019 0.0000
# 4 0.0000 0.0000 0.0000 30.0074 0.0000 9.0061
# 5 2.8556 -2.4605 13.1019 0.0000 27.6304 0.0000
# 6 0.0000 0.0000 0.0000 9.0061 0.0000 26.6826
#
#
#
# Elastic Compliance Matrix: (Units=1/GPa)
#
#
# Indices 1 2 3 4 5 6 
#
# 1 0.015749 -0.005711 -0.002657 0.000000 -0.000876 0.000000
# 2 -0.005711 0.023761 -0.004962 0.000000 0.005059 0.000000
# 3 -0.002657 -0.004962 0.009278 0.000000 -0.004567 0.000000
# 4 0.000000 0.000000 0.000000 0.037082 0.000000 -0.012516
# 5 -0.000876 0.005059 -0.004567 0.000000 0.038899 0.000000
# 6 0.000000 0.000000 0.000000 -0.012516 0.000000 0.041702
#
#
# Mechanical properties :
#
#
# Convention : Reuss Voigt Hill
#
# Bulk Modulus (GPa) = 45.18964 53.88683 49.53823
# Shear Modulus (GPa) = 24.93689 28.83384 26.88537
#
# Velocity S-wave (km/s) = 3.49968 3.76321 3.63384
# Velocity P-wave (km/s) = 6.20688 6.73416 6.47589
#
# Compressibility (1/GPa) = 0.02212897
#
# Stress axis : x y z
#
# Youngs Moduli (GPa) = 63.49558 42.08504 107.78440
#
# Poissons Ratio (x) = 0.24034 0.28640
# Poissons Ratio (y) = 0.36262 0.53478
# Poissons Ratio (z) = 0.16872 0.20881
#
# Static dielectric constant tensor:
#      x y z
#    x 3.587400 0.000000 0.282720 
#    y 0.000000 3.350600 0.000000 
#    z 0.282720 0.000000 4.384270 
# 
# 
# High freq. dielectric constant tensor:
#      x y z
#    x 1.792600 0.000000 0.013580 
#    y 0.000000 1.758440 0.000000 
#    z 0.013580 0.000000 1.823110 
# 
# From -- ./inp_files/191039.got.cif
#   From: 2010.06.25/outbox.cif.g09.slc.cpg/sg15_96_cif.got.tgz:191039.got - 2010.06.28 07:06:18.
