data_PCOD8135686
_publ_section_title
;
Structure prediction by ZEFSAII (Michael W. Deem and Ramdas Pophale) SiO2 
 PCOD8135686
Probable space group: C 2/C
;
_chemical_formula_sum "Si O2"
_cell_formula_units_Z 52
_cell_length_a 12.837960
_cell_length_b 9.092710
_cell_length_c 25.702533
_cell_angle_alpha 90.000000
_cell_angle_beta 57.126667
_cell_angle_gamma 90.000000
_cell_volume 2519.873198
_symmetry_space_group_name_H-M "C 2/C"
_symmetry_group_IT_number 15
_symmetry_cell_setting 'monoclinic'
loop_
_space_group_symop_operation_xyz
x,y,z
-x,y,1/2-z
-x,-y,-z
x,-y,1/2+z
1/2+x,1/2+y,z
1/2-x,1/2+y,1/2-z
1/2-x,1/2-y,-z
1/2+x,1/2-y,1/2+z
loop_
_atom_site_type_symbol
_atom_site_label
_atom_site_fract_x
_atom_site_fract_y
_atom_site_fract_z
Si Si1 0.383925 0.739039 0.729309
Si Si2 0.154582 0.819060 0.143986
Si Si3 0.500000 0.008692 0.750000
Si Si4 0.261467 0.612158 0.422233
Si Si5 0.908744 0.176554 0.477291
Si Si6 0.262028 0.822905 0.330350
Si Si7 0.329244 0.561947 0.076773
O O1 0.331318 0.668783 0.797052
O O2 0.507474 0.660140 0.672851
O O3 0.272666 0.726163 0.718512
O O4 0.427617 0.907149 0.727648
O O5 0.204595 0.660170 0.110972
O O6 0.232500 0.938054 0.090017
O O7 0.600502 0.115979 0.698231
O O8 0.139415 0.667198 0.486757
O O9 0.380169 0.667118 0.423573
O O10 0.258151 0.678528 0.365943
O O11 0.054408 0.170786 0.448839
O O12 0.837154 0.036287 0.522462
O O13 0.167667 0.948859 0.375609
#
# Coordination Sequence:
#
# PCOD8135686 Si02
#       7
#     8   8   4   8   8   8   8
#     4  10  22  40  61  92 125 158 205 254 298 400
#     4  10  21  38  61  89 124 155 209 252 313 369
#     4  10  22  42  60  98 124 168 210 252 308 396
#     4  10  22  38  55  92 118 158 204 266 300 373
#     4   9  21  39  58  84 122 156 217 248 310 369
#     4  11  22  39  64  86 126 162 201 250 325 360
#     4  10  19  39  64  81 117 175 193 258 314 362
#
# _framework density 20.635957999999999
#
# number of rings (size 3 to 8) (size 9 to 14) (size 15 to 20)
#    0.000    2.154    3.077    0.923    2.154    3.692 
#    0.000    0.000    0.000    0.000    0.000    0.000 
#    0.000    0.000    0.000    0.000    0.000    0.000 
#
# Total GULP energy -322201.162338 kJ/mol
# GULP energy per Si atom -12392.352398 kJ/mol
# Density = 2.058899 g / cm^3
# Si number density = 20.635958 Si / 1000 Ang^3
#
#
#
# Elastic Constant Matrix: (Units=GPa)
#
#
# Indices 1 2 3 4 5 6 
#
# 1 72.3388 11.8457 26.6430 0.0000 12.5315 0.0000
# 2 11.8457 64.9152 15.8311 0.0000 -2.8540 0.0000
# 3 26.6430 15.8311 68.5326 0.0000 0.8489 0.0000
# 4 0.0000 0.0000 0.0000 24.0253 0.0000 -9.9160
# 5 12.5315 -2.8540 0.8489 0.0000 31.9758 0.0000
# 6 0.0000 0.0000 0.0000 -9.9160 0.0000 25.6234
#
#
#
# Elastic Compliance Matrix: (Units=1/GPa)
#
#
# Indices 1 2 3 4 5 6 
#
# 1 0.017683 -0.001988 -0.006329 0.000000 -0.006939 0.000000
# 2 -0.001988 0.016626 -0.003097 0.000000 0.002345 0.000000
# 3 -0.006329 -0.003097 0.017746 0.000000 0.001733 0.000000
# 4 0.000000 0.000000 0.000000 0.049535 0.000000 0.019170
# 5 -0.006939 0.002345 0.001733 0.000000 0.034157 0.000000
# 6 0.000000 0.000000 0.000000 0.019170 0.000000 0.046445
#
#
# Mechanical properties :
#
#
# Convention : Reuss Voigt Hill
#
# Bulk Modulus (GPa) = 34.21574 34.93625 34.57599
# Shear Modulus (GPa) = 23.28167 26.42269 24.85218
#
# Velocity S-wave (km/s) = 3.36253 3.58218 3.47409
# Velocity P-wave (km/s) = 5.62957 5.83745 5.73445
#
# Compressibility (1/GPa) = 0.02922632
#
# Stress axis : x y z
#
# Youngs Moduli (GPa) = 56.55269 60.14732 56.35072
#
# Poissons Ratio (x) = 0.11959 0.35665
# Poissons Ratio (y) = 0.11244 0.17450
# Poissons Ratio (z) = 0.35793 0.18626
#
# Static dielectric constant tensor:
#      x y z
#    x 3.506430 0.000000 -0.078490 
#    y 0.000000 3.615700 0.000000 
#    z -0.078490 0.000000 3.823940 
# 
# 
# High freq. dielectric constant tensor:
#      x y z
#    x 1.790720 0.000000 -0.001750 
#    y 0.000000 1.799730 0.000000 
#    z -0.001750 0.000000 1.807040 
# 
# From -- ./inp_files/295027.got.cif
#   From: 2010.06.25/outbox.cif.g09.slc.cpg/sg15_148_cif.got.tgz:295027.got - 2010.06.28 07:06:18.
