data_PCOD8135766
_publ_section_title
;
Structure prediction by ZEFSAII (Michael W. Deem and Ramdas Pophale) SiO2 
 PCOD8135766
Probable space group: C 2/C
;
_chemical_formula_sum "Si O2"
_cell_formula_units_Z 52
_cell_length_a 11.433000
_cell_length_b 14.096183
_cell_length_c 21.686383
_cell_angle_alpha 90.000000
_cell_angle_beta 47.349474
_cell_angle_gamma 90.000000
_cell_volume 2570.582076
_symmetry_space_group_name_H-M "C 2/C"
_symmetry_group_IT_number 15
_symmetry_cell_setting 'monoclinic'
loop_
_space_group_symop_operation_xyz
x,y,z
-x,y,1/2-z
-x,-y,-z
x,-y,1/2+z
1/2+x,1/2+y,z
1/2-x,1/2+y,1/2-z
1/2-x,1/2-y,-z
1/2+x,1/2-y,1/2+z
loop_
_atom_site_type_symbol
_atom_site_label
_atom_site_fract_x
_atom_site_fract_y
_atom_site_fract_z
Si Si1 0.706818 0.522217 0.480959
Si Si2 0.662348 0.336647 0.563017
Si Si3 0.863961 0.071826 0.623466
Si Si4 0.398950 0.799793 0.917411
Si Si5 0.000000 0.306072 0.750000
Si Si6 0.226561 0.280286 0.846182
Si Si7 0.687683 0.616640 0.306707
O O1 0.742150 0.437330 0.516858
O O2 0.555435 0.587626 0.555956
O O3 0.679079 0.475811 0.425293
O O4 0.860000 0.589378 0.420843
O O5 0.750000 0.250000 0.500000
O O6 0.676506 0.318639 0.630523
O O7 0.477912 0.341560 0.606203
O O8 0.759141 0.166605 0.669184
O O9 0.822951 0.997965 0.693167
O O10 0.460807 0.752175 0.829504
O O11 0.538315 0.799182 0.918352
O O12 0.250000 0.750000 0.000000
O O13 0.837540 0.363384 0.796972
O O14 0.299062 0.338386 0.764518
#
# Coordination Sequence:
#
# PCOD8135766 Si02
#       7
#     8   8   8   8   4   8   8
#     4  10  20  38  65  91 123 174 214 265 319 396
#     4  11  23  40  64  96 130 171 213 271 331 395
#     4  10  19  39  68  88 121 173 219 258 329 390
#     4  11  22  39  66  96 134 170 225 273 321 399
#     4  10  22  40  64  94 126 174 218 274 320 382
#     4  11  23  41  64  99 128 171 217 271 333 383
#     4  10  23  42  63  92 135 159 222 276 321 394
#
# _framework density 20.228881000000001
#
# number of rings (size 3 to 8) (size 9 to 14) (size 15 to 20)
#    0.000    1.538    4.615    0.462    2.154    0.615 
#    8.308    3.077    0.000    0.000    0.000    0.000 
#    0.000    0.000    0.000    0.000    0.000    0.000 
#
# Total GULP energy -322116.796341 kJ/mol
# GULP energy per Si atom -12389.107552 kJ/mol
# Density = 2.018284 g / cm^3
# Si number density = 20.228881 Si / 1000 Ang^3
#
#
#
# Elastic Constant Matrix: (Units=GPa)
#
#
# Indices 1 2 3 4 5 6 
#
# 1 102.0713 28.9314 25.6788 0.0000 -12.0075 0.0000
# 2 28.9314 100.0736 43.8582 0.0000 4.9651 0.0000
# 3 25.6788 43.8582 90.9683 0.0001 0.1924 0.0000
# 4 0.0000 0.0000 0.0001 35.5137 0.0000 -0.3949
# 5 -12.0075 4.9651 0.1924 0.0000 33.1632 0.0000
# 6 0.0000 0.0000 0.0000 -0.3949 0.0000 27.5468
#
#
#
# Elastic Compliance Matrix: (Units=1/GPa)
#
#
# Indices 1 2 3 4 5 6 
#
# 1 0.011609 -0.002720 -0.001976 0.000000 0.004622 0.000000
# 2 -0.002720 0.013423 -0.005698 0.000000 -0.002961 0.000000
# 3 -0.001976 -0.005698 0.014297 0.000000 0.000055 0.000000
# 4 0.000000 0.000000 0.000000 0.028163 0.000000 0.000404
# 5 0.004622 -0.002961 0.000055 0.000000 0.032270 0.000000
# 6 0.000000 0.000000 0.000000 0.000404 0.000000 0.036308
#
#
# Mechanical properties :
#
#
# Convention : Reuss Voigt Hill
#
# Bulk Modulus (GPa) = 53.92734 54.45001 54.18867
# Shear Modulus (GPa) = 30.66812 32.22106 31.44459
#
# Velocity S-wave (km/s) = 3.89788 3.99535 3.94692
# Velocity P-wave (km/s) = 6.85379 6.94688 6.90049
#
# Compressibility (1/GPa) = 0.01854347
#
# Stress axis : x y z
#
# Youngs Moduli (GPa) = 86.14288 74.50016 69.94332
#
# Poissons Ratio (x) = 0.20261 0.13817
# Poissons Ratio (y) = 0.23427 0.39850
# Poissons Ratio (z) = 0.17018 0.42447
#
# Static dielectric constant tensor:
#      x y z
#    x 4.099330 0.000000 -0.036410 
#    y 0.000000 3.847670 0.000000 
#    z -0.036410 0.000000 3.873610 
# 
# 
# High freq. dielectric constant tensor:
#      x y z
#    x 1.794190 0.000000 -0.005670 
#    y 0.000000 1.780510 0.000000 
#    z -0.005670 0.000000 1.789850 
# 
# From -- ./inp_files/238295.got.cif
#   From: 2010.06.25/outbox.cif.g09.slc.cpg/sg15_120_cif.got.tgz:238295.got - 2010.06.28 07:06:18.
