data_PCOD8135329
_publ_section_title
;
Structure prediction by ZEFSAII (Michael W. Deem and Ramdas Pophale) SiO2 
 PCOD8135329
Probable space group: C 2/C
;
_chemical_formula_sum "Si O2"
_cell_formula_units_Z 52
_cell_length_a 14.648973
_cell_length_b 11.748837
_cell_length_c 15.700678
_cell_angle_alpha 90.000000
_cell_angle_beta 107.550221
_cell_angle_gamma 90.000000
_cell_volume 2576.438367
_symmetry_space_group_name_H-M "C 2/C"
_symmetry_group_IT_number 15
_symmetry_cell_setting 'monoclinic'
loop_
_space_group_symop_operation_xyz
x,y,z
-x,y,1/2-z
-x,-y,-z
x,-y,1/2+z
1/2+x,1/2+y,z
1/2-x,1/2+y,1/2-z
1/2-x,1/2-y,-z
1/2+x,1/2-y,1/2+z
loop_
_atom_site_type_symbol
_atom_site_label
_atom_site_fract_x
_atom_site_fract_y
_atom_site_fract_z
Si Si1 0.339887 0.878270 0.260669
Si Si2 0.340246 0.273120 0.919278
Si Si3 0.016728 0.052883 0.093983
Si Si4 0.103840 0.838411 0.820233
Si Si5 0.876829 0.733215 0.119458
Si Si6 0.638427 0.437842 0.254053
Si Si7 0.000000 0.445443 0.750000
O O1 0.351909 0.837364 0.362074
O O2 0.352560 0.783812 0.189343
O O3 0.228937 0.911016 0.219002
O O4 0.416680 0.978350 0.268822
O O5 0.387411 0.372628 0.878194
O O6 0.231495 0.311987 0.903472
O O7 0.395394 0.259737 0.024909
O O8 0.923172 0.132384 0.088795
O O9 0.041519 0.952909 0.169658
O O10 0.000000 0.000000 0.000000
O O11 0.000000 0.848638 0.750000
O O12 0.169190 0.943069 0.807420
O O13 0.885953 0.842899 0.182430
O O14 0.951510 0.634695 0.165367
#
# Coordination Sequence:
#
# PCOD8135329 Si02
#       7
#     8   8   8   8   8   8   4
#     4  11  21  40  64  84 121 165 200 247 314 363
#     4  10  20  42  59  87 120 172 193 248 317 365
#     4  11  21  35  64  88 120 157 209 251 305 366
#     4  10  19  38  59  85 115 155 202 244 299 370
#     4  10  24  37  62  89 129 152 208 252 308 364
#     4  10  22  38  60  88 119 158 200 250 308 362
#     4  12  24  36  60  96 116 160 206 262 288 368
#
# _framework density 20.182901000000001
#
# number of rings (size 3 to 8) (size 9 to 14) (size 15 to 20)
#    0.000    1.538    3.846    1.846    7.538    0.615 
#    0.000    0.769    0.000    0.000    0.000    0.000 
#    0.000    0.000    0.000    0.000    0.000    0.000 
#
# Total GULP energy -322099.339678 kJ/mol
# GULP energy per Si atom -12388.436141 kJ/mol
# Density = 2.013696 g / cm^3
# Si number density = 20.182901 Si / 1000 Ang^3
#
#
#
# Elastic Constant Matrix: (Units=GPa)
#
#
# Indices 1 2 3 4 5 6 
#
# 1 89.5254 46.2160 19.7564 0.0000 -16.1522 0.0000
# 2 46.2160 113.1752 30.6319 0.0000 -4.3596 0.0000
# 3 19.7564 30.6319 90.0302 0.0000 -15.1749 0.0000
# 4 0.0000 0.0000 0.0000 25.6075 0.0000 -4.1829
# 5 -16.1522 -4.3596 -15.1749 0.0000 27.2011 0.0000
# 6 0.0000 0.0000 0.0000 -4.1829 0.0000 41.3030
#
#
#
# Elastic Compliance Matrix: (Units=1/GPa)
#
#
# Indices 1 2 3 4 5 6 
#
# 1 0.015870 -0.006166 0.000041 0.000000 0.008458 0.000000
# 2 -0.006166 0.012130 -0.003382 0.000000 -0.003604 0.000000
# 3 0.000041 -0.003382 0.013424 0.000000 0.006971 0.000000
# 4 0.000000 0.000000 0.000000 0.039708 0.000000 0.004021
# 5 0.008458 -0.003604 0.006971 0.000000 0.045098 0.000000
# 6 0.000000 0.000000 0.000000 0.004021 0.000000 0.024619
#
#
# Mechanical properties :
#
#
# Convention : Reuss Voigt Hill
#
# Bulk Modulus (GPa) = 44.62027 53.99328 49.30678
# Shear Modulus (GPa) = 28.19573 31.89740 30.04657
#
# Velocity S-wave (km/s) = 3.74172 3.97976 3.86257
# Velocity P-wave (km/s) = 6.38930 6.92301 6.66150
#
# Compressibility (1/GPa) = 0.02241134
#
# Stress axis : x y z
#
# Youngs Moduli (GPa) = 63.01153 82.43876 74.49361
#
# Poissons Ratio (x) = 0.50832 -0.00306
# Poissons Ratio (y) = 0.38853 0.25190
# Poissons Ratio (z) = -0.00259 0.27877
#
# Static dielectric constant tensor:
#      x y z
#    x 3.791280 0.000000 -0.419370 
#    y 0.000000 3.701940 0.000000 
#    z -0.419370 0.000000 3.732050 
# 
# 
# High freq. dielectric constant tensor:
#      x y z
#    x 1.800710 0.000000 -0.022870 
#    y 0.000000 1.787130 0.000000 
#    z -0.022870 0.000000 1.770870 
# 
# From -- ./inp_files/152687.got.cif
#   From: 2010.06.25/outbox.cif.g09.slc.cpg/sg15_77_cif.got.tgz:152687.got - 2010.06.28 07:06:18.
