data_PCOD8135373
_publ_section_title
;
Structure prediction by ZEFSAII (Michael W. Deem and Ramdas Pophale) SiO2 
 PCOD8135373
Probable space group: C 2/C
;
_chemical_formula_sum "Si O2"
_cell_formula_units_Z 64
_cell_length_a 22.970489
_cell_length_b 9.167154
_cell_length_c 21.709955
_cell_angle_alpha 90.000000
_cell_angle_beta 131.908857
_cell_angle_gamma 90.000000
_cell_volume 3402.187159
_symmetry_space_group_name_H-M "C 2/C"
_symmetry_group_IT_number 15
_symmetry_cell_setting 'monoclinic'
loop_
_space_group_symop_operation_xyz
x,y,z
-x,y,1/2-z
-x,-y,-z
x,-y,1/2+z
1/2+x,1/2+y,z
1/2-x,1/2+y,1/2-z
1/2-x,1/2-y,-z
1/2+x,1/2-y,1/2+z
loop_
_atom_site_type_symbol
_atom_site_label
_atom_site_fract_x
_atom_site_fract_y
_atom_site_fract_z
Si Si1 0.926521 0.735347 0.015092
Si Si2 0.267794 0.821863 0.818458
Si Si3 0.993384 0.436952 0.092627
Si Si4 0.565525 0.736665 0.341853
Si Si5 0.071040 0.211636 0.544472
Si Si6 0.725606 0.801879 0.415519
Si Si7 0.660791 0.881114 0.163128
Si Si8 0.632014 0.518774 0.483098
O O1 0.865660 0.690182 0.919425
O O2 0.957834 0.597903 0.075685
O O3 0.000456 0.825283 0.040343
O O4 0.881685 0.845307 0.029759
O O5 0.348875 0.737771 0.861919
O O6 0.248689 0.813623 0.878286
O O7 0.199756 0.746249 0.731141
O O8 0.276452 0.990620 0.804848
O O9 0.974754 0.347377 0.140191
O O10 0.086461 0.443809 0.148000
O O11 0.950818 0.365302 0.003781
O O12 0.500000 0.675908 0.250000
O O13 0.632202 0.825001 0.350541
O O14 0.603856 0.595011 0.400395
O O15 0.079976 0.082497 0.501974
O O16 0.750000 0.750000 0.500000
O O17 0.775630 0.949665 0.438816
#
# Coordination Sequence:
#
# PCOD8135373 Si02
#       8
#     8   8   8   8   8   8   8   8
#     4  11  19  36  58  84 118 152 191 237 294 356
#     4  11  21  37  56  90 122 149 189 248 305 353
#     4  10  19  38  61  81 112 156 199 233 285 365
#     4  10  20  39  60  81 106 155 207 245 283 345
#     4   9  17  35  56  80 114 150 187 220 282 361
#     4   9  20  38  61  77 114 158 205 235 277 352
#     4  11  23  35  57  90 125 154 184 245 316 358
#     4   9  20  33  58  86 109 149 196 241 282 352
#
# _framework density 18.811429
#
# number of rings (size 3 to 8) (size 9 to 14) (size 15 to 20)
#    0.000    2.000    2.500    2.625    3.500    0.000 
#    2.250    1.250    0.000    0.000    0.000    0.000 
#    0.000    0.000    0.000    0.000    0.000    0.000 
#
# Total GULP energy -396689.214288 kJ/mol
# GULP energy per Si atom -12396.537946 kJ/mol
# Density = 1.876861 g / cm^3
# Si number density = 18.811429 Si / 1000 Ang^3
#
#
#
# Elastic Constant Matrix: (Units=GPa)
#
#
# Indices 1 2 3 4 5 6 
#
# 1 88.8737 46.0260 32.8808 0.0000 5.2920 0.0000
# 2 46.0260 106.1483 38.0090 0.0000 5.8369 0.0000
# 3 32.8808 38.0090 96.1791 0.0000 11.8947 0.0000
# 4 0.0000 0.0000 0.0000 21.0466 0.0000 6.3062
# 5 5.2920 5.8369 11.8947 0.0000 24.5911 0.0000
# 6 0.0000 0.0000 0.0000 6.3062 0.0000 23.9741
#
#
#
# Elastic Compliance Matrix: (Units=1/GPa)
#
#
# Indices 1 2 3 4 5 6 
#
# 1 0.015237 -0.005516 -0.002963 0.000000 -0.000537 0.000000
# 2 -0.005516 0.012977 -0.003200 0.000000 -0.000345 0.000000
# 3 -0.002963 -0.003200 0.013297 0.000000 -0.005035 0.000000
# 4 0.000000 0.000000 0.000000 0.051579 0.000000 -0.013567
# 5 -0.000537 -0.000345 -0.005035 0.000000 0.043298 0.000000
# 6 0.000000 0.000000 0.000000 -0.013567 0.000000 0.045281
#
#
# Mechanical properties :
#
#
# Convention : Reuss Voigt Hill
#
# Bulk Modulus (GPa) = 55.08515 58.33698 56.71107
# Shear Modulus (GPa) = 23.68791 25.54136 24.61463
#
# Velocity S-wave (km/s) = 3.55241 3.68877 3.62123
# Velocity P-wave (km/s) = 6.79504 7.01580 6.90630
#
# Compressibility (1/GPa) = 0.01815371
#
# Stress axis : x y z
#
# Youngs Moduli (GPa) = 65.63069 77.05649 75.20271
#
# Poissons Ratio (x) = 0.42507 0.22280
# Poissons Ratio (y) = 0.36204 0.24065
# Poissons Ratio (z) = 0.19444 0.24658
#
# Static dielectric constant tensor:
#      x y z
#    x 3.718300 0.000000 0.215200 
#    y 0.000000 3.230820 0.000000 
#    z 0.215200 0.000000 3.403510 
# 
# 
# High freq. dielectric constant tensor:
#      x y z
#    x 1.731120 0.000000 0.015710 
#    y 0.000000 1.709400 0.000000 
#    z 0.015710 0.000000 1.724770 
# 
# From -- ./inp_files/281523.got.cif
#   From: 2010.06.25/outbox.cif.g09.slc.cpg/sg15_141_cif.got.tgz:281523.got - 2010.06.28 07:06:18.
