data_PCOD8135449
_publ_section_title
;
Structure prediction by ZEFSAII (Michael W. Deem and Ramdas Pophale) SiO2 
 PCOD8135449
Probable space group: C 2/C
;
_chemical_formula_sum "Si O2"
_cell_formula_units_Z 56
_cell_length_a 8.425050
_cell_length_b 22.305638
_cell_length_c 19.808220
_cell_angle_alpha 90.000000
_cell_angle_beta 132.241577
_cell_angle_gamma 90.000000
_cell_volume 2755.816451
_symmetry_space_group_name_H-M "C 2/C"
_symmetry_group_IT_number 15
_symmetry_cell_setting 'monoclinic'
loop_
_space_group_symop_operation_xyz
x,y,z
-x,y,1/2-z
-x,-y,-z
x,-y,1/2+z
1/2+x,1/2+y,z
1/2-x,1/2+y,1/2-z
1/2-x,1/2-y,-z
1/2+x,1/2-y,1/2+z
loop_
_atom_site_type_symbol
_atom_site_label
_atom_site_fract_x
_atom_site_fract_y
_atom_site_fract_z
Si Si1 0.217160 0.243925 0.839653
Si Si2 0.639384 0.512635 0.729171
Si Si3 0.503880 0.934699 0.092952
Si Si4 0.138856 0.879074 0.386782
Si Si5 0.965719 0.045356 0.051142
Si Si6 0.441472 0.186320 0.655288
Si Si7 0.466021 0.332775 0.999200
O O1 0.132081 0.180810 0.842021
O O2 0.406955 0.235134 0.838684
O O3 0.302024 0.283491 0.925358
O O4 0.000000 0.275746 0.750000
O O5 0.500000 0.484524 0.750000
O O6 0.567240 0.581179 0.692274
O O7 0.618535 0.471940 0.657100
O O8 0.883026 0.516071 0.825921
O O9 0.648806 0.917416 0.069882
O O10 0.462242 0.878499 0.128918
O O11 0.284412 0.961310 0.000234
O O12 0.134256 0.863563 0.463820
O O13 0.013069 0.114312 0.049148
O O14 0.000000 0.000000 0.000000
O O15 0.500000 0.184522 0.750000
O O16 0.189223 0.202456 0.576712
#
# Coordination Sequence:
#
# PCOD8135449 Si02
#       7
#     8   8   8   8   8   8   8
#     4  11  22  38  57  89 124 157 195 246 312 378
#     4  10  20  38  60  88 115 152 206 254 302 354
#     4   9  21  36  62  86 115 155 205 255 307 348
#     4  10  19  38  63  88 112 151 206 263 296 354
#     4  11  23  40  58  87 124 157 203 253 302 373
#     4  10  20  36  63  87 114 154 206 256 299 351
#     4  11  22  39  59  88 122 155 202 248 312 367
#
# _framework density 20.320657000000001
#
# number of rings (size 3 to 8) (size 9 to 14) (size 15 to 20)
#    0.000    1.714    1.429    4.714    2.000    2.286 
#    2.571    0.714    0.000    0.000    0.000    0.000 
#    0.000    0.000    0.000    0.000    0.000    0.000 
#
# Total GULP energy -347161.937940 kJ/mol
# GULP energy per Si atom -12398.640641 kJ/mol
# Density = 2.027441 g / cm^3
# Si number density = 20.320657 Si / 1000 Ang^3
#
#
#
# Elastic Constant Matrix: (Units=GPa)
#
#
# Indices 1 2 3 4 5 6 
#
# 1 97.1092 15.6397 52.3539 0.0000 -0.3090 0.0000
# 2 15.6397 48.9475 27.0814 0.0000 1.7053 0.0000
# 3 52.3539 27.0814 116.9095 0.0000 5.7617 0.0000
# 4 0.0000 0.0000 0.0000 32.2936 0.0000 -7.6383
# 5 -0.3090 1.7053 5.7617 0.0000 41.6184 0.0000
# 6 0.0000 0.0000 0.0000 -7.6383 0.0000 5.7385
#
#
#
# Elastic Compliance Matrix: (Units=1/GPa)
#
#
# Indices 1 2 3 4 5 6 
#
# 1 0.013667 -0.001133 -0.005905 0.000000 0.000965 0.000000
# 2 -0.001133 0.023529 -0.004929 0.000000 -0.000290 0.000000
# 3 -0.005905 -0.004929 0.012417 0.000000 -0.001561 0.000000
# 4 0.000000 0.000000 0.000000 0.045194 0.000000 0.060156
# 5 0.000965 -0.000290 -0.001561 0.000000 0.024263 0.000000
# 6 0.000000 0.000000 0.000000 0.060156 0.000000 0.254331
#
#
# Mechanical properties :
#
#
# Convention : Reuss Voigt Hill
#
# Bulk Modulus (GPa) = 38.94312 50.34624 44.64468
# Shear Modulus (GPa) = 12.31846 27.12286 19.72066
#
# Velocity S-wave (km/s) = 2.46479 3.65738 3.11862
# Velocity P-wave (km/s) = 5.22553 6.53184 5.91486
#
# Compressibility (1/GPa) = 0.02567847
#
# Stress axis : x y z
#
# Youngs Moduli (GPa) = 73.16892 42.50053 80.53625
#
# Poissons Ratio (x) = 0.04816 0.47560
# Poissons Ratio (y) = 0.08292 0.39693
# Poissons Ratio (z) = 0.43209 0.20947
#
# Static dielectric constant tensor:
#      x y z
#    x 4.051730 0.000000 0.138060 
#    y 0.000000 3.442920 0.000000 
#    z 0.138060 0.000000 3.729630 
# 
# 
# High freq. dielectric constant tensor:
#      x y z
#    x 1.804190 0.000000 0.001160 
#    y 0.000000 1.765460 0.000000 
#    z 0.001160 0.000000 1.797370 
# 
# From -- ./inp_files/193199.got.cif
#   From: 2010.06.25/outbox.cif.g09.slc.cpg/sg15_97_cif.got.tgz:193199.got - 2010.06.28 07:06:18.
