data_PCOD8135295
_publ_section_title
;
Structure prediction by ZEFSAII (Michael W. Deem and Ramdas Pophale) SiO2 
 PCOD8135295
Probable space group: C 2/C
;
_chemical_formula_sum "Si O2"
_cell_formula_units_Z 60
_cell_length_a 15.407769
_cell_length_b 18.148323
_cell_length_c 11.755465
_cell_angle_alpha 90.000000
_cell_angle_beta 75.863144
_cell_angle_gamma 90.000000
_cell_volume 3187.573687
_symmetry_space_group_name_H-M "C 2/C"
_symmetry_group_IT_number 15
_symmetry_cell_setting 'monoclinic'
loop_
_space_group_symop_operation_xyz
x,y,z
-x,y,1/2-z
-x,-y,-z
x,-y,1/2+z
1/2+x,1/2+y,z
1/2-x,1/2+y,1/2-z
1/2-x,1/2-y,-z
1/2+x,1/2-y,1/2+z
loop_
_atom_site_type_symbol
_atom_site_label
_atom_site_fract_x
_atom_site_fract_y
_atom_site_fract_z
Si Si1 0.733176 0.363154 0.896523
Si Si2 0.181467 0.877290 0.168015
Si Si3 0.337778 0.777003 0.180978
Si Si4 0.443875 0.069505 0.058857
Si Si5 0.000000 0.811415 0.250000
Si Si6 0.286322 0.000787 0.749313
Si Si7 0.906545 0.381910 0.329919
Si Si8 0.576625 0.185640 0.078761
O O1 0.677276 0.310247 0.828883
O O2 0.731971 0.444138 0.844512
O O3 0.833319 0.331105 0.879654
O O4 0.681447 0.365977 0.032280
O O5 0.241682 0.814977 0.205832
O O6 0.082758 0.865323 0.251779
O O7 0.217113 0.958690 0.187067
O O8 0.383632 0.800280 0.286282
O O9 0.401352 0.809211 0.061712
O O10 0.357413 0.044310 0.153785
O O11 0.507319 0.118600 0.119125
O O12 0.410184 0.120098 0.964805
O O13 0.500000 0.000000 0.000000
O O14 0.970717 0.760219 0.364894
O O15 0.331786 0.060045 0.816397
O O16 0.000000 0.410932 0.250000
#
# Coordination Sequence:
#
# PCOD8135295 Si02
#       8
#     8   8   8   8   4   8   8   8
#     4  11  20  39  60  84 119 153 197 241 300 352
#     4  10  21  38  59  84 115 156 192 254 296 341
#     4  10  19  38  57  82 119 159 188 234 305 343
#     4  12  21  34  56  93 127 150 189 241 302 362
#     4  12  20  36  62  86 108 140 222 256 270 334
#     4  11  23  35  58  86 122 155 194 236 303 356
#     4  11  20  35  56  84 123 158 183 234 297 356
#     4  11  20  32  61  91 112 147 197 248 288 344
#
# _framework density 18.823094000000001
#
# number of rings (size 3 to 8) (size 9 to 14) (size 15 to 20)
#    0.000    1.067    5.333    4.800    0.000    0.000 
#    0.000    1.333    4.400    0.000    0.000    0.000 
#    0.000    0.000    0.000    0.000    0.000    0.000 
#
# Total GULP energy -372021.364181 kJ/mol
# GULP energy per Si atom -12400.712139 kJ/mol
# Density = 1.878025 g / cm^3
# Si number density = 18.823094 Si / 1000 Ang^3
#
#
#
# Elastic Constant Matrix: (Units=GPa)
#
#
# Indices 1 2 3 4 5 6 
#
# 1 83.7207 47.3990 31.8087 0.0000 -12.6651 0.0000
# 2 47.3990 97.9936 14.2847 0.0000 3.0804 0.0000
# 3 31.8087 14.2847 46.9484 0.0000 1.4426 0.0000
# 4 0.0000 0.0000 0.0000 25.7105 0.0000 0.4517
# 5 -12.6651 3.0804 1.4426 0.0000 32.8802 0.0000
# 6 0.0000 0.0000 0.0000 0.4517 0.0000 42.2155
#
#
#
# Elastic Compliance Matrix: (Units=1/GPa)
#
#
# Indices 1 2 3 4 5 6 
#
# 1 0.024768 -0.010290 -0.013992 0.000000 0.011119 0.000000
# 2 -0.010290 0.014978 0.002583 0.000000 -0.005480 0.000000
# 3 -0.013992 0.002583 0.030208 0.000000 -0.006957 0.000000
# 4 0.000000 0.000000 0.000000 0.038902 0.000000 -0.000416
# 5 0.011119 -0.005480 -0.006957 0.000000 0.035515 0.000000
# 6 0.000000 0.000000 0.000000 -0.000416 0.000000 0.023692
#
#
# Mechanical properties :
#
#
# Convention : Reuss Voigt Hill
#
# Bulk Modulus (GPa) = 37.65662 46.18307 41.91984
# Shear Modulus (GPa) = 22.69498 29.17261 25.93380
#
# Velocity S-wave (km/s) = 3.47608 3.94106 3.71585
# Velocity P-wave (km/s) = 6.01331 6.73037 6.38192
#
# Compressibility (1/GPa) = 0.02655576
#
# Stress axis : x y z
#
# Youngs Moduli (GPa) = 40.37400 66.76543 33.10418
#
# Poissons Ratio (x) = 0.68703 0.46319
# Poissons Ratio (y) = 0.41546 -0.08551
# Poissons Ratio (z) = 0.56491 -0.17246
#
# Static dielectric constant tensor:
#      x y z
#    x 3.556080 0.000000 -0.033000 
#    y 0.000000 3.547530 0.000000 
#    z -0.033000 0.000000 3.793680 
# 
# 
# High freq. dielectric constant tensor:
#      x y z
#    x 1.718120 0.000000 -0.003930 
#    y 0.000000 1.723350 0.000000 
#    z -0.003930 0.000000 1.721730 
# 
# From -- ./inp_files/98316.got.cif
#   From: 2010.06.25/outbox.cif.g09.slc.cpg/sg15_50_cif.got.tgz:98316.got - 2010.06.28 07:06:18.
