data_PCOD8135971
_publ_section_title
;
Structure prediction by ZEFSAII (Michael W. Deem and Ramdas Pophale) SiO2 
 PCOD8135971
Probable space group: C 2/C
;
_chemical_formula_sum "Si O2"
_cell_formula_units_Z 60
_cell_length_a 11.301937
_cell_length_b 10.996066
_cell_length_c 29.907806
_cell_angle_alpha 90.000000
_cell_angle_beta 125.892662
_cell_angle_gamma 90.000000
_cell_volume 3011.080573
_symmetry_space_group_name_H-M "C 2/C"
_symmetry_group_IT_number 15
_symmetry_cell_setting 'monoclinic'
loop_
_space_group_symop_operation_xyz
x,y,z
-x,y,1/2-z
-x,-y,-z
x,-y,1/2+z
1/2+x,1/2+y,z
1/2-x,1/2+y,1/2-z
1/2-x,1/2-y,-z
1/2+x,1/2-y,1/2+z
loop_
_atom_site_type_symbol
_atom_site_label
_atom_site_fract_x
_atom_site_fract_y
_atom_site_fract_z
Si Si1 0.621405 0.147500 0.727205
Si Si2 0.166762 0.384587 0.562658
Si Si3 0.000000 0.144524 0.250000
Si Si4 0.782060 0.012095 0.327837
Si Si5 0.767365 0.703743 0.838304
Si Si6 0.810125 0.627609 0.612278
Si Si7 0.532800 0.929670 0.438872
Si Si8 0.079717 0.972129 0.345411
O O1 0.629618 0.273955 0.756657
O O2 0.649298 0.037047 0.767665
O O3 0.735580 0.140411 0.711457
O O4 0.459053 0.148143 0.671791
O O5 0.218816 0.251334 0.587924
O O6 0.105741 0.377173 0.499350
O O7 0.301563 0.478956 0.592876
O O8 0.041767 0.438148 0.568660
O O9 0.081171 0.064752 0.304660
O O10 0.786473 0.962391 0.379225
O O11 0.926699 0.962827 0.335887
O O12 0.766513 0.154715 0.328437
O O13 0.627494 0.659570 0.835987
O O14 0.914196 0.669451 0.897151
O O15 0.843059 0.562869 0.572005
#
# Coordination Sequence:
#
# PCOD8135971 Si02
#       8
#     8   8   4   8   8   8   8   8
#     4  11  21  40  59  81 117 163 206 256 300 371
#     4  10  19  41  68  89 116 158 215 261 312 379
#     4  12  18  40  60  82 112 156 212 246 298 374
#     4  12  23  39  56  88 130 162 204 252 319 385
#     4  10  23  40  59  88 125 156 209 260 308 376
#     4  11  21  38  60  86 121 160 201 257 312 368
#     4   9  21  39  67  93 113 158 215 264 310 376
#     4  11  22  38  61  88 119 164 202 255 318 373
#
# _framework density 19.926400999999998
#
# number of rings (size 3 to 8) (size 9 to 14) (size 15 to 20)
#    0.000    1.333    4.000    2.000    0.000    1.067 
#    9.600    2.667    0.000    4.800    0.000    0.000 
#    0.000    0.000    0.000    0.000    0.000    0.000 
#
# Total GULP energy -371905.479665 kJ/mol
# GULP energy per Si atom -12396.849322 kJ/mol
# Density = 1.988105 g / cm^3
# Si number density = 19.926401 Si / 1000 Ang^3
#
#
#
# Elastic Constant Matrix: (Units=GPa)
#
#
# Indices 1 2 3 4 5 6 
#
# 1 118.9741 69.6788 45.8775 0.0000 -23.2726 0.0000
# 2 69.6788 101.5049 59.4603 0.0000 -15.0822 0.0000
# 3 45.8775 59.4603 109.2667 0.0000 -17.7840 0.0000
# 4 0.0000 0.0000 0.0000 25.4660 0.0000 0.8833
# 5 -23.2726 -15.0822 -17.7840 0.0000 26.1611 0.0000
# 6 0.0000 0.0000 0.0000 0.8833 0.0000 29.2931
#
#
#
# Elastic Compliance Matrix: (Units=1/GPa)
#
#
# Indices 1 2 3 4 5 6 
#
# 1 0.015585 -0.009421 -0.000050 0.000000 0.008399 0.000000
# 2 -0.009421 0.020424 -0.007428 0.000000 -0.001656 0.000000
# 3 -0.000050 -0.007428 0.014067 0.000000 0.005236 0.000000
# 4 0.000000 0.000000 0.000000 0.039309 0.000000 -0.001185
# 5 0.008399 -0.001656 0.005236 0.000000 0.048301 0.000000
# 6 0.000000 0.000000 0.000000 -0.001185 0.000000 0.034173
#
#
# Mechanical properties :
#
#
# Convention : Reuss Voigt Hill
#
# Bulk Modulus (GPa) = 61.43269 75.53102 68.48185
# Shear Modulus (GPa) = 23.68709 26.49931 25.09320
#
# Velocity S-wave (km/s) = 3.45154 3.65068 3.55250
# Velocity P-wave (km/s) = 6.83965 7.46708 7.16024
#
# Compressibility (1/GPa) = 0.01627798
#
# Stress axis : x y z
#
# Youngs Moduli (GPa) = 64.16402 48.96089 71.08672
#
# Poissons Ratio (x) = 0.46128 0.00354
# Poissons Ratio (y) = 0.60451 0.52805
# Poissons Ratio (z) = 0.00319 0.36370
#
# Static dielectric constant tensor:
#      x y z
#    x 3.958270 0.000000 -0.220540 
#    y 0.000000 3.512330 0.000000 
#    z -0.220540 0.000000 3.814650 
# 
# 
# High freq. dielectric constant tensor:
#      x y z
#    x 1.780160 0.000000 -0.014290 
#    y 0.000000 1.766800 0.000000 
#    z -0.014290 0.000000 1.782150 
# 
# From -- ./inp_files/310830.got.cif
#   From: 2010.06.25/outbox.cif.g09.slc.cpg/sg15_156_cif.got.tgz:310830.got - 2010.06.28 07:06:18.
