data_PCOD8135596
_publ_section_title
;
Structure prediction by ZEFSAII (Michael W. Deem and Ramdas Pophale) SiO2 
 PCOD8135596
Probable space group: C 2/C
;
_chemical_formula_sum "Si O2"
_cell_formula_units_Z 64
_cell_length_a 12.551277
_cell_length_b 18.213209
_cell_length_c 15.038147
_cell_angle_alpha 90.000000
_cell_angle_beta 89.344474
_cell_angle_gamma 90.000000
_cell_volume 3437.480843
_symmetry_space_group_name_H-M "C 2/C"
_symmetry_group_IT_number 15
_symmetry_cell_setting 'monoclinic'
loop_
_space_group_symop_operation_xyz
x,y,z
-x,y,1/2-z
-x,-y,-z
x,-y,1/2+z
1/2+x,1/2+y,z
1/2-x,1/2+y,1/2-z
1/2-x,1/2-y,-z
1/2+x,1/2-y,1/2+z
loop_
_atom_site_type_symbol
_atom_site_label
_atom_site_fract_x
_atom_site_fract_y
_atom_site_fract_z
Si Si1 0.377436 0.998722 0.478379
Si Si2 0.072116 0.838115 0.665625
Si Si3 0.319126 0.208301 0.743897
Si Si4 0.672124 0.843988 0.558489
Si Si5 0.379817 0.800493 0.753083
Si Si6 0.604882 0.273934 0.935825
Si Si7 0.623921 0.957954 0.224541
Si Si8 0.716470 0.076556 0.354967
O O1 0.355518 0.976596 0.377744
O O2 0.313532 0.944842 0.544355
O O3 0.500000 0.000000 0.500000
O O4 0.338808 0.081225 0.495252
O O5 0.128674 0.760055 0.682068
O O6 0.158418 0.902149 0.648670
O O7 0.000000 0.862800 0.750000
O O8 0.998909 0.825326 0.578486
O O9 0.193684 0.228198 0.740087
O O10 0.376983 0.224142 0.650853
O O11 0.333947 0.124084 0.765446
O O12 0.640837 0.853041 0.661707
O O13 0.593377 0.781695 0.518568
O O14 0.795591 0.825666 0.546047
O O15 0.500000 0.771988 0.750000
O O16 0.354185 0.852137 0.669219
O O17 0.500000 0.965888 0.250000
O O18 0.693555 0.009984 0.287552
#
# Coordination Sequence:
#
# PCOD8135596 Si02
#       8
#     8   8   8   8   8   8   8   8
#     4  12  24  35  57  89 118 152 189 240 303 349
#     4   9  19  37  62  82 113 156 196 239 296 341
#     4   9  20  35  58  85 109 146 196 241 280 342
#     4  10  20  35  60  85 110 144 196 241 283 348
#     4  10  19  39  58  78 115 154 185 233 297 350
#     4   9  18  36  62  85 106 143 200 245 278 334
#     4  12  22  38  60  84 119 152 194 247 294 349
#     4  11  22  39  58  87 118 154 198 239 292 360
#
# _framework density 18.618285
#
# number of rings (size 3 to 8) (size 9 to 14) (size 15 to 20)
#    0.000    1.750    2.500    3.750    1.750    0.000 
#    2.250    2.500    0.000    0.000    0.000    0.000 
#    0.000    0.000    0.000    0.000    0.000    0.000 
#
# Total GULP energy -396782.031791 kJ/mol
# GULP energy per Si atom -12399.438493 kJ/mol
# Density = 1.857591 g / cm^3
# Si number density = 18.618285 Si / 1000 Ang^3
#
#
#
# Elastic Constant Matrix: (Units=GPa)
#
#
# Indices 1 2 3 4 5 6 
#
# 1 133.0607 60.9212 41.0006 0.0000 5.0412 0.0000
# 2 60.9212 102.3351 42.0012 0.0000 3.2559 0.0000
# 3 41.0006 42.0012 96.5594 0.0000 1.8531 0.0000
# 4 0.0000 0.0000 0.0000 30.4048 0.0000 7.3134
# 5 5.0412 3.2559 1.8531 0.0000 26.8821 0.0000
# 6 0.0000 0.0000 0.0000 7.3134 0.0000 24.6966
#
#
#
# Elastic Compliance Matrix: (Units=1/GPa)
#
#
# Indices 1 2 3 4 5 6 
#
# 1 0.010726 -0.005462 -0.002155 0.000000 -0.001201 0.000000
# 2 -0.005462 0.014709 -0.004070 0.000000 -0.000477 0.000000
# 3 -0.002155 -0.004070 0.013042 0.000000 -0.000002 0.000000
# 4 0.000000 0.000000 0.000000 0.035412 0.000000 -0.010486
# 5 -0.001201 -0.000477 -0.000002 0.000000 0.037483 0.000000
# 6 0.000000 0.000000 0.000000 -0.010486 0.000000 0.043597
#
#
# Mechanical properties :
#
#
# Convention : Reuss Voigt Hill
#
# Bulk Modulus (GPa) = 66.21580 68.86682 67.54131
# Shear Modulus (GPa) = 27.26628 28.93217 28.09923
#
# Velocity S-wave (km/s) = 3.83102 3.94631 3.88909
# Velocity P-wave (km/s) = 7.43041 7.60484 7.51813
#
# Compressibility (1/GPa) = 0.01510213
#
# Stress axis : x y z
#
# Youngs Moduli (GPa) = 93.23178 67.98517 76.67715
#
# Poissons Ratio (x) = 0.37137 0.16526
# Poissons Ratio (y) = 0.50927 0.31204
# Poissons Ratio (z) = 0.20094 0.27667
#
# Static dielectric constant tensor:
#      x y z
#    x 3.537670 0.000000 0.139880 
#    y 0.000000 3.363650 0.000000 
#    z 0.139880 0.000000 3.674180 
# 
# 
# High freq. dielectric constant tensor:
#      x y z
#    x 1.719980 0.000000 0.014540 
#    y 0.000000 1.714490 0.000000 
#    z 0.014540 0.000000 1.721500 
# 
# From -- ./inp_files/146066.got.cif
#   From: 2010.06.25/outbox.cif.g09.slc.cpg/sg15_74_cif.got.tgz:146066.got - 2010.06.28 07:06:18.
