data_PCOD8135504
_publ_section_title
;
Structure prediction by ZEFSAII (Michael W. Deem and Ramdas Pophale) SiO2 
 PCOD8135504
Probable space group: C 2/C
;
_chemical_formula_sum "Si O2"
_cell_formula_units_Z 40
_cell_length_a 22.550473
_cell_length_b 5.530671
_cell_length_c 20.564611
_cell_angle_alpha 90.000000
_cell_angle_beta 141.621594
_cell_angle_gamma 90.000000
_cell_volume 1592.363904
_symmetry_space_group_name_H-M "C 2/C"
_symmetry_group_IT_number 15
_symmetry_cell_setting 'monoclinic'
loop_
_space_group_symop_operation_xyz
x,y,z
-x,y,1/2-z
-x,-y,-z
x,-y,1/2+z
1/2+x,1/2+y,z
1/2-x,1/2+y,1/2-z
1/2-x,1/2-y,-z
1/2+x,1/2-y,1/2+z
loop_
_atom_site_type_symbol
_atom_site_label
_atom_site_fract_x
_atom_site_fract_y
_atom_site_fract_z
Si Si1 0.177331 0.057444 0.277668
Si Si2 0.521552 0.750737 0.583857
Si Si3 0.111649 0.101501 0.361640
Si Si4 0.351333 0.858129 0.363592
Si Si5 0.926425 0.403448 0.627255
O O1 0.073191 0.963226 0.166281
O O2 0.265091 0.874241 0.341260
O O3 0.174889 0.119479 0.350891
O O4 0.194444 0.285592 0.245011
O O5 0.429941 0.667797 0.460846
O O6 0.480444 0.926889 0.604982
O O7 0.595605 0.887270 0.600515
O O8 0.137820 0.350107 0.423161
O O9 0.000000 0.105339 0.250000
O O10 0.134385 0.849925 0.420016
O O11 0.000000 0.402387 0.750000
#
# Coordination Sequence:
#
# PCOD8135504 Si02
#       5
#     8   8   8   8   8
#     4  12  22  42  66  96 133 177 223 279 333 410
#     4  11  23  43  65  94 134 171 227 276 333 406
#     4  10  20  35  67  91 126 176 217 265 340 387
#     4  11  25  40  66  98 128 177 222 276 342 395
#     4  10  19  38  64  94 123 179 213 272 337 389
#
# _framework density 25.119885
#
# number of rings (size 3 to 8) (size 9 to 14) (size 15 to 20)
#    0.000    1.200    6.000    3.000    0.000    0.000 
#    0.000    2.000    0.000    0.000    0.000    1.400 
#    0.000    0.000    0.000    0.000    0.000    0.000 
#
# Total GULP energy -247855.326789 kJ/mol
# GULP energy per Si atom -12392.766339 kJ/mol
# Density = 2.506271 g / cm^3
# Si number density = 25.119885 Si / 1000 Ang^3
#
#
#
# Elastic Constant Matrix: (Units=GPa)
#
#
# Indices 1 2 3 4 5 6 
#
# 1 169.5108 32.7153 12.0405 -0.0019 -7.7060 0.0053
# 2 32.7153 142.5314 0.0083 -0.0435 5.5238 0.0309
# 3 12.0405 0.0083 51.6343 0.0036 9.8446 -0.0013
# 4 -0.0019 -0.0435 0.0036 68.8296 0.0002 -16.5609
# 5 -7.7060 5.5238 9.8446 0.0002 25.6598 0.0045
# 6 0.0053 0.0309 -0.0013 -16.5609 0.0045 32.9309
#
#
#
# Elastic Compliance Matrix: (Units=1/GPa)
#
#
# Indices 1 2 3 4 5 6 
#
# 1 0.006502 -0.001613 -0.002109 -0.000001 0.003109 0.000000
# 2 -0.001613 0.007480 0.000835 0.000004 -0.002415 -0.000005
# 3 -0.002109 0.000835 0.021593 0.000000 -0.009097 0.000002
# 4 -0.000001 0.000004 0.000000 0.016529 -0.000003 0.008312
# 5 0.003109 -0.002415 -0.009097 -0.000003 0.043915 -0.000006
# 6 0.000000 -0.000005 0.000002 0.008312 -0.000006 0.034547
#
#
# Mechanical properties :
#
#
# Convention : Reuss Voigt Hill
#
# Bulk Modulus (GPa) = 33.55425 50.35609 41.95517
# Shear Modulus (GPa) = 34.18315 46.74491 40.46403
#
# Velocity S-wave (km/s) = 3.69290 4.31846 4.01788
# Velocity P-wave (km/s) = 5.61872 6.70487 6.18568
#
# Compressibility (1/GPa) = 0.02980248
#
# Stress axis : x y z
#
# Youngs Moduli (GPa) = 153.80665 133.69518 46.31129
#
# Poissons Ratio (x) = 0.21561 0.09765
# Poissons Ratio (y) = 0.24804 -0.03868
# Poissons Ratio (z) = 0.32431 -0.11167
#
# Static dielectric constant tensor:
#      x y z
#    x 4.619990 0.000020 -0.076360 
#    y 0.000020 5.487760 0.000000 
#    z -0.076360 0.000000 4.409930 
# 
# 
# High freq. dielectric constant tensor:
#      x y z
#    x 2.013630 0.000000 -0.007320 
#    y 0.000000 1.989190 0.000000 
#    z -0.007320 0.000000 1.974660 
# 
# From -- ./inp_files/212612.got.cif
#   From: 2010.06.25/outbox.cif.g09.slc.cpg/sg15_107_cif.got.tgz:212612.got - 2010.06.28 07:06:18.
