data_PCOD8135861
_publ_section_title
;
Structure prediction by ZEFSAII (Michael W. Deem and Ramdas Pophale) SiO2 
 PCOD8135861
Probable space group: C 2/C
;
_chemical_formula_sum "Si O2"
_cell_formula_units_Z 36
_cell_length_a 8.293530
_cell_length_b 15.554711
_cell_length_c 12.946270
_cell_angle_alpha 90.000000
_cell_angle_beta 81.570453
_cell_angle_gamma 90.000000
_cell_volume 1652.071195
_symmetry_space_group_name_H-M "C 2/C"
_symmetry_group_IT_number 15
_symmetry_cell_setting 'monoclinic'
loop_
_space_group_symop_operation_xyz
x,y,z
-x,y,1/2-z
-x,-y,-z
x,-y,1/2+z
1/2+x,1/2+y,z
1/2-x,1/2+y,1/2-z
1/2-x,1/2-y,-z
1/2+x,1/2-y,1/2+z
loop_
_atom_site_type_symbol
_atom_site_label
_atom_site_fract_x
_atom_site_fract_y
_atom_site_fract_z
Si Si1 0.390028 0.163128 0.354153
Si Si2 0.500000 0.174214 0.750000
Si Si3 0.440032 0.245229 0.976328
Si Si4 0.320898 0.643173 0.806187
Si Si5 0.115278 0.081784 0.492648
O O1 0.500000 0.127375 0.250000
O O2 0.493456 0.173180 0.450286
O O3 0.312356 0.254629 0.330270
O O4 0.245796 0.092878 0.387082
O O5 0.497568 0.229850 0.854388
O O6 0.671808 0.121105 0.740389
O O7 0.498673 0.336745 0.009671
O O8 0.250000 0.250000 0.000000
O O9 0.500000 0.616946 0.750000
O O10 0.284520 0.584455 0.909484
O O11 0.000000 0.000000 0.500000
#
# Coordination Sequence:
#
# PCOD8135861 Si02
#       5
#     8   4   8   8   8
#     4  10  19  40  66  94 133 172 230 280 323 399
#     4  12  18  36  70  96 128 168 232 278 326 382
#     4  11  22  37  67  98 127 173 233 275 326 404
#     4  10  20  38  65  98 128 171 227 280 328 397
#     4  11  22  42  64  95 137 176 216 279 348 402
#
# _framework density 21.79083
#
# number of rings (size 3 to 8) (size 9 to 14) (size 15 to 20)
#    0.000    1.333    4.444    5.333    0.000    0.000 
#    2.000    1.111    9.778    0.000    2.889    0.000 
#    0.000    0.000    0.000    0.000    0.000    0.000 
#
# Total GULP energy -223020.519166 kJ/mol
# GULP energy per Si atom -12390.028843 kJ/mol
# Density = 2.174123 g / cm^3
# Si number density = 21.790830 Si / 1000 Ang^3
#
#
#
# Elastic Constant Matrix: (Units=GPa)
#
#
# Indices 1 2 3 4 5 6 
#
# 1 188.8669 32.4272 53.3870 0.0000 -11.3778 0.0000
# 2 32.4272 57.3987 31.0317 0.0000 -14.7642 0.0000
# 3 53.3870 31.0317 141.6899 0.0000 -14.3111 0.0000
# 4 0.0000 0.0000 0.0000 15.2410 0.0000 -7.3046
# 5 -11.3778 -14.7642 -14.3111 0.0000 48.1048 0.0000
# 6 0.0000 0.0000 0.0000 -7.3046 0.0000 23.6639
#
#
#
# Elastic Compliance Matrix: (Units=1/GPa)
#
#
# Indices 1 2 3 4 5 6 
#
# 1 0.006241 -0.002518 -0.001783 0.000000 0.000173 0.000000
# 2 -0.002518 0.021978 -0.003344 0.000000 0.005155 0.000000
# 3 -0.001783 -0.003344 0.008573 0.000000 0.001102 0.000000
# 4 0.000000 0.000000 0.000000 0.077005 0.000000 0.023770
# 5 0.000173 0.005155 0.001102 0.000000 0.022739 0.000000
# 6 0.000000 0.000000 0.000000 0.023770 0.000000 0.049596
#
#
# Mechanical properties :
#
#
# Convention : Reuss Voigt Hill
#
# Bulk Modulus (GPa) = 46.50390 69.07194 57.78792
# Shear Modulus (GPa) = 23.97056 35.47594 29.72325
#
# Velocity S-wave (km/s) = 3.32027 4.03925 3.69728
# Velocity P-wave (km/s) = 6.00719 7.31578 6.69354
#
# Compressibility (1/GPa) = 0.02150357
#
# Stress axis : x y z
#
# Youngs Moduli (GPa) = 160.22120 45.49931 116.64307
#
# Poissons Ratio (x) = 0.11455 0.20795
# Poissons Ratio (y) = 0.40339 0.39008
# Poissons Ratio (z) = 0.28564 0.15216
#
# Static dielectric constant tensor:
#      x y z
#    x 3.754460 0.000000 0.365680 
#    y 0.000000 3.276770 0.000000 
#    z 0.365680 0.000000 3.499960 
# 
# 
# High freq. dielectric constant tensor:
#      x y z
#    x 1.885270 0.000000 -0.007070 
#    y 0.000000 1.786120 0.000000 
#    z -0.007070 0.000000 1.871930 
# 
# From -- ./inp_files/76354.got.cif
#   From: 2010.06.25/outbox.cif.g09.slc.cpg/sg15_39_cif.got.tgz:76354.got - 2010.06.28 07:06:18.
