data_PCOD8135300
_publ_section_title
;
Structure prediction by ZEFSAII (Michael W. Deem and Ramdas Pophale) SiO2 
 PCOD8135300
Probable space group: C 2/C
;
_chemical_formula_sum "Si O2"
_cell_formula_units_Z 40
_cell_length_a 13.662215
_cell_length_b 15.855462
_cell_length_c 8.795844
_cell_angle_alpha 90.000000
_cell_angle_beta 84.974627
_cell_angle_gamma 90.000000
_cell_volume 1898.037951
_symmetry_space_group_name_H-M "C 2/C"
_symmetry_group_IT_number 15
_symmetry_cell_setting 'monoclinic'
loop_
_space_group_symop_operation_xyz
x,y,z
-x,y,1/2-z
-x,-y,-z
x,-y,1/2+z
1/2+x,1/2+y,z
1/2-x,1/2+y,1/2-z
1/2-x,1/2-y,-z
1/2+x,1/2-y,1/2+z
loop_
_atom_site_type_symbol
_atom_site_label
_atom_site_fract_x
_atom_site_fract_y
_atom_site_fract_z
Si Si1 0.092618 0.289693 0.846706
Si Si2 0.792629 0.339587 0.948355
Si Si3 0.872407 0.048924 0.906307
Si Si4 0.591516 0.396175 0.417255
Si Si5 0.486164 0.091603 0.572316
O O1 0.176469 0.333048 0.732639
O O2 0.125382 0.200969 0.917330
O O3 0.000000 0.272673 0.750000
O O4 0.071655 0.351084 0.989539
O O5 0.709305 0.409518 0.976102
O O6 0.882111 0.367003 0.045014
O O7 0.750000 0.250000 0.000000
O O8 0.852079 0.059453 0.730978
O O9 0.974051 0.097180 0.925873
O O10 0.875204 0.948574 0.939027
O O11 0.500000 0.086865 0.750000
O O12 0.500000 0.000000 0.500000
#
# Coordination Sequence:
#
# PCOD8135300 Si02
#       5
#     8   8   8   8   8
#     4  10  19  40  65  92 130 173 210 268 334 394
#     4  11  21  41  71  94 129 175 227 271 332 395
#     4  10  20  35  61  89 124 169 211 264 318 389
#     4  10  19  38  57  91 132 166 211 259 337 382
#     4  11  25  46  70  97 133 180 221 274 342 406
#
# _framework density 21.074394999999999
#
# number of rings (size 3 to 8) (size 9 to 14) (size 15 to 20)
#    0.000    1.600    4.000    3.000    0.000    3.200 
#   10.800    1.000    0.000    0.000    0.000    0.000 
#    0.000    0.000    0.000    0.000    0.000    0.000 
#
# Total GULP energy -247966.578036 kJ/mol
# GULP energy per Si atom -12398.328902 kJ/mol
# Density = 2.102643 g / cm^3
# Si number density = 21.074395 Si / 1000 Ang^3
#
#
#
# Elastic Constant Matrix: (Units=GPa)
#
#
# Indices 1 2 3 4 5 6 
#
# 1 61.6430 44.8886 45.9007 0.0000 -24.2680 0.0000
# 2 44.8886 152.5945 96.2084 0.0000 0.9305 0.0000
# 3 45.9007 96.2084 166.0386 0.0000 -20.7978 0.0000
# 4 0.0000 0.0000 0.0000 47.6395 0.0000 -6.9080
# 5 -24.2680 0.9305 -20.7978 0.0000 33.1553 0.0000
# 6 0.0000 0.0000 0.0000 -6.9080 0.0000 30.4120
#
#
#
# Elastic Compliance Matrix: (Units=1/GPa)
#
#
# Indices 1 2 3 4 5 6 
#
# 1 0.033074 -0.009474 -0.000638 0.000000 0.024074 0.000000
# 2 -0.009474 0.013663 -0.006744 0.000000 -0.011548 0.000000
# 3 -0.000638 -0.006744 0.010931 0.000000 0.006579 0.000000
# 4 0.000000 0.000000 0.000000 0.021706 0.000000 0.004930
# 5 0.024074 -0.011548 0.006579 0.000000 0.052233 0.000000
# 6 0.000000 0.000000 0.000000 0.004930 0.000000 0.034002
#
#
# Mechanical properties :
#
#
# Convention : Reuss Voigt Hill
#
# Bulk Modulus (GPa) = 41.74416 83.80794 62.77605
# Shear Modulus (GPa) = 24.11889 35.12660 29.62275
#
# Velocity S-wave (km/s) = 3.38666 4.08706 3.75324
# Velocity P-wave (km/s) = 5.92821 7.88201 6.97387
#
# Compressibility (1/GPa) = 0.02395545
#
# Stress axis : x y z
#
# Youngs Moduli (GPa) = 30.23502 73.19184 91.48263
#
# Poissons Ratio (x) = 0.69340 0.05840
# Poissons Ratio (y) = 0.28644 0.61698
# Poissons Ratio (z) = 0.01930 0.49362
#
# Static dielectric constant tensor:
#      x y z
#    x 3.623130 0.000000 -0.461090 
#    y 0.000000 3.880700 0.000000 
#    z -0.461090 0.000000 3.983290 
# 
# 
# High freq. dielectric constant tensor:
#      x y z
#    x 1.798810 0.000000 -0.028260 
#    y 0.000000 1.839210 0.000000 
#    z -0.028260 0.000000 1.830970 
# 
# From -- ./inp_files/37836.got.cif
#   From: 2010.06.25/outbox.cif.g09.slc.cpg/sg15_19_cif.got.tgz:37836.got - 2010.06.28 07:06:18.
