data_PCOD8135150
_publ_section_title
;
Structure prediction by ZEFSAII (Michael W. Deem and Ramdas Pophale) SiO2 
 PCOD8135150
Probable space group: C 2/C
;
_chemical_formula_sum "Si O2"
_cell_formula_units_Z 48
_cell_length_a 11.672257
_cell_length_b 8.112201
_cell_length_c 25.518088
_cell_angle_alpha 90.000000
_cell_angle_beta 54.200531
_cell_angle_gamma 90.000000
_cell_volume 1959.745185
_symmetry_space_group_name_H-M "C 2/C"
_symmetry_group_IT_number 15
_symmetry_cell_setting 'monoclinic'
loop_
_space_group_symop_operation_xyz
x,y,z
-x,y,1/2-z
-x,-y,-z
x,-y,1/2+z
1/2+x,1/2+y,z
1/2-x,1/2+y,1/2-z
1/2-x,1/2-y,-z
1/2+x,1/2-y,1/2+z
loop_
_atom_site_type_symbol
_atom_site_label
_atom_site_fract_x
_atom_site_fract_y
_atom_site_fract_z
Si Si1 0.127186 0.627171 0.301994
Si Si2 0.631039 0.977389 0.503989
Si Si3 0.846959 0.742543 0.814010
Si Si4 0.265929 0.394645 0.656764
Si Si5 0.968182 0.699156 0.884268
Si Si6 0.132439 0.224241 0.593722
O O1 0.267285 0.617687 0.301433
O O2 0.167483 0.662787 0.231317
O O3 0.046298 0.454606 0.333913
O O4 0.027831 0.785825 0.341936
O O5 0.783263 0.950787 0.434087
O O6 0.614255 0.810229 0.541878
O O7 0.500000 0.000000 0.500000
O O8 0.631749 0.134545 0.542174
O O9 0.739083 0.590620 0.841096
O O10 0.000000 0.700850 0.750000
O O11 0.868454 0.792455 0.868959
O O12 0.424586 0.332361 0.621870
O O13 0.215583 0.334789 0.613705
#
# Coordination Sequence:
#
# PCOD8135150 Si02
#       6
#     8   8   8   8   8   8
#     4  11  22  39  62  92 129 157 204 260 312 372
#     4  10  19  37  63  89 120 167 212 250 303 367
#     4  12  22  41  60  89 129 161 203 252 312 377
#     4  12  19  38  67  90 122 164 199 257 319 364
#     4  11  23  40  63  90 125 163 206 256 307 371
#     4  10  21  35  62  92 120 161 211 254 304 372
#
# _framework density 24.492979999999999
#
# number of rings (size 3 to 8) (size 9 to 14) (size 15 to 20)
#    0.000    1.000    8.333    0.500    0.000    0.000 
#    3.000    1.667    0.000    5.000    0.000    0.000 
#    0.000    0.000    0.000    0.000    0.000    0.000 
#
# Total GULP energy -297339.210769 kJ/mol
# GULP energy per Si atom -12389.133782 kJ/mol
# Density = 2.443723 g / cm^3
# Si number density = 24.492980 Si / 1000 Ang^3
#
#
#
# Elastic Constant Matrix: (Units=GPa)
#
#
# Indices 1 2 3 4 5 6 
#
# 1 161.4543 25.7981 34.9565 0.0000 21.9588 0.0000
# 2 25.7981 34.8008 15.4647 0.0000 -5.7974 0.0000
# 3 34.9565 15.4647 64.7955 0.0000 22.0897 0.0000
# 4 0.0000 0.0000 0.0000 14.1737 0.0000 3.6519
# 5 21.9588 -5.7974 22.0897 0.0000 43.1594 0.0000
# 6 0.0000 0.0000 0.0000 3.6519 0.0000 37.8431
#
#
#
# Elastic Compliance Matrix: (Units=1/GPa)
#
#
# Indices 1 2 3 4 5 6 
#
# 1 0.008034 -0.005974 -0.001504 0.000000 -0.004120 0.000000
# 2 -0.005974 0.040581 -0.011335 0.000000 0.014292 0.000000
# 3 -0.001504 -0.011335 0.023268 0.000000 -0.012666 0.000000
# 4 0.000000 0.000000 0.000000 0.072352 0.000000 -0.006982
# 5 -0.004120 0.014292 -0.012666 0.000000 0.033669 0.000000
# 6 0.000000 0.000000 0.000000 -0.006982 0.000000 0.027099
#
#
# Mechanical properties :
#
#
# Convention : Reuss Voigt Hill
#
# Bulk Modulus (GPa) = 29.19034 45.94325 37.56680
# Shear Modulus (GPa) = 19.68130 31.35734 25.51932
#
# Velocity S-wave (km/s) = 2.83777 3.58195 3.23135
# Velocity P-wave (km/s) = 4.76245 5.99213 5.41233
#
# Compressibility (1/GPa) = 0.03425791
#
# Stress axis : x y z
#
# Youngs Moduli (GPa) = 124.46671 24.64183 42.97754
#
# Poissons Ratio (x) = 0.14721 0.06463
# Poissons Ratio (y) = 0.74356 0.48715
# Poissons Ratio (z) = 0.18718 0.27932
#
# Static dielectric constant tensor:
#      x y z
#    x 4.710200 0.000000 0.089100 
#    y 0.000000 4.015810 0.000000 
#    z 0.089100 0.000000 4.836490 
# 
# 
# High freq. dielectric constant tensor:
#      x y z
#    x 1.992740 0.000000 0.013170 
#    y 0.000000 1.941480 0.000000 
#    z 0.013170 0.000000 1.979620 
# 
# From -- ./inp_files/291054.got.cif
#   From: 2010.06.25/outbox.cif.g09.slc.cpg/sg15_146_cif.got.tgz:291054.got - 2010.06.28 07:06:18.
