data_PCOD8135734
_publ_section_title
;
Structure prediction by ZEFSAII (Michael W. Deem and Ramdas Pophale) SiO2 
 PCOD8135734
Probable space group: C 2/C
;
_chemical_formula_sum "Si O2"
_cell_formula_units_Z 56
_cell_length_a 17.858440
_cell_length_b 18.007058
_cell_length_c 16.182218
_cell_angle_alpha 90.000000
_cell_angle_beta 150.562334
_cell_angle_gamma 90.000000
_cell_volume 2557.566769
_symmetry_space_group_name_H-M "C 2/C"
_symmetry_group_IT_number 15
_symmetry_cell_setting 'monoclinic'
loop_
_space_group_symop_operation_xyz
x,y,z
-x,y,1/2-z
-x,-y,-z
x,-y,1/2+z
1/2+x,1/2+y,z
1/2-x,1/2+y,1/2-z
1/2-x,1/2-y,-z
1/2+x,1/2-y,1/2+z
loop_
_atom_site_type_symbol
_atom_site_label
_atom_site_fract_x
_atom_site_fract_y
_atom_site_fract_z
Si Si1 0.293548 0.041467 0.219510
Si Si2 0.647690 0.575332 0.242642
Si Si3 0.199543 0.202233 0.777438
Si Si4 0.988701 0.926957 0.334272
Si Si5 0.195765 0.116385 0.616416
Si Si6 0.012829 0.663357 0.163664
Si Si7 0.179262 0.170760 0.424809
O O1 0.265815 0.079182 0.281313
O O2 0.442023 0.079092 0.320028
O O3 0.303968 0.952811 0.246867
O O4 0.154890 0.051344 0.023626
O O5 0.630589 0.493299 0.264658
O O6 0.725683 0.627523 0.386546
O O7 0.484400 0.600101 0.049671
O O8 0.065433 0.146042 0.671335
O O9 0.231511 0.187834 0.709901
O O10 0.143169 0.284443 0.747520
O O11 0.349977 0.185179 0.972876
O O12 0.000000 0.907534 0.250000
O O13 0.238759 0.128861 0.562735
O O14 0.000000 0.670907 0.250000
O O15 0.250000 0.250000 0.500000
O O16 0.000000 0.177555 0.250000
#
# Coordination Sequence:
#
# PCOD8135734 Si02
#       7
#     8   8   8   8   8   8   8
#     4  11  21  42  67  95 128 168 218 269 321 395
#     4  10  19  39  65  97 127 167 216 264 319 389
#     4  12  24  42  65  92 128 169 215 270 321 396
#     4  11  19  37  69  96 126 169 214 265 322 387
#     4  10  21  41  67  98 126 168 218 265 328 382
#     4  12  28  44  63  93 131 171 214 268 332 395
#     4  10  23  40  63  92 130 168 214 266 316 382
#
# _framework density 21.895811999999999
#
# number of rings (size 3 to 8) (size 9 to 14) (size 15 to 20)
#    0.000    1.143    2.857    5.571    2.000    1.714 
#    0.000    0.714    0.000    0.000    0.000    0.000 
#    0.000    0.000    0.000    0.000    0.000    0.000 
#
# Total GULP energy -347147.368520 kJ/mol
# GULP energy per Si atom -12398.120304 kJ/mol
# Density = 2.184598 g / cm^3
# Si number density = 21.895812 Si / 1000 Ang^3
#
#
#
# Elastic Constant Matrix: (Units=GPa)
#
#
# Indices 1 2 3 4 5 6 
#
# 1 99.5170 42.1579 32.8515 0.0003 -33.6374 0.0002
# 2 42.1579 86.4605 6.3827 0.0002 -11.9758 0.0001
# 3 32.8515 6.3827 53.9059 0.0004 -21.8039 0.0004
# 4 0.0003 0.0002 0.0004 29.3517 0.0003 2.8697
# 5 -33.6374 -11.9758 -21.8039 0.0003 37.8233 0.0003
# 6 0.0002 0.0001 0.0004 2.8697 0.0003 34.4142
#
#
#
# Elastic Compliance Matrix: (Units=1/GPa)
#
#
# Indices 1 2 3 4 5 6 
#
# 1 0.018840 -0.007220 -0.006226 0.000000 0.010880 0.000000
# 2 -0.007220 0.014864 0.002538 0.000000 -0.000251 0.000000
# 3 -0.006226 0.002538 0.026251 0.000000 0.010400 0.000000
# 4 0.000000 0.000000 0.000000 0.034350 -0.000001 -0.002864
# 5 0.010880 -0.000251 0.010400 -0.000001 0.042030 0.000000
# 6 0.000000 0.000000 0.000000 -0.002864 0.000000 0.029297
#
#
# Mechanical properties :
#
#
# Convention : Reuss Voigt Hill
#
# Bulk Modulus (GPa) = 26.21897 44.74086 35.47991
# Shear Modulus (GPa) = 24.98024 30.88393 27.93209
#
# Velocity S-wave (km/s) = 3.38134 3.75973 3.57554
# Velocity P-wave (km/s) = 5.21968 6.27099 5.76933
#
# Compressibility (1/GPa) = 0.03814032
#
# Stress axis : x y z
#
# Youngs Moduli (GPa) = 53.07991 67.27640 38.09398
#
# Poissons Ratio (x) = 0.48570 0.23716
# Poissons Ratio (y) = 0.38321 -0.09669
# Poissons Ratio (z) = 0.33046 -0.17076
#
# Static dielectric constant tensor:
#      x y z
#    x 5.037510 0.000000 1.065080 
#    y 0.000000 4.229420 0.000000 
#    z 1.065080 0.000000 5.672200 
# 
# 
# High freq. dielectric constant tensor:
#      x y z
#    x 1.863890 0.000000 -0.026170 
#    y 0.000000 1.861630 0.000000 
#    z -0.026170 0.000000 1.851200 
# 
# From -- ./inp_files/163809.got.cif
#   From: 2010.06.25/outbox.cif.g09.slc.cpg/sg15_82_cif.got.tgz:163809.got - 2010.06.28 07:06:18.
